19
gdb 3282	2.8324417	1.478736	1.2883865	0.2554	74.2	-0.22429	0.0751	0.29939	1058.8837	0.156421	-422.517969	-422.509697	-422.508752	-422.550126	32.536	
C	-1.8680796434	-0.9145667755	-0.9323472088	-0.488614
C	-2.0040812972	-0.0779738992	 0.3186848414	 0.281473
C	-0.7832263578	 0.5586857849	 0.954943953	-0.015095
O	 0.4104853197	 0.3998782626	 0.2423826142	-0.423005
C	-1.8569876016	 1.4310873334	 0.3406642699	-0.006253
O	-2.8395163333	 2.0075137848	 1.167101157	-0.259132
C	-3.7219194362	 1.0106494893	 1.6303454039	 0.105208
C	-3.2252757934	 0.046265761	 2.6730990445	-0.334845
C	-3.2110354499	-0.3419591488	 1.2040646208	-0.132949
H	-1.7057117994	-1.9689614283	-0.6821769341	 0.121039
H	-2.7741468251	-0.8493343795	-1.5448488273	 0.114787
H	-1.0177193336	-0.5826107852	-1.5298905777	 0.136726
H	-0.6779330263	 0.5419177288	 2.0382233702	 0.086203
H	 0.9216431166	 1.210664793	 0.3394686981	 0.289934
H	-1.615578916	 2.0232820383	-0.5377542288	 0.098853
H	-4.7614496397	 1.3188267443	 1.6008270987	 0.098882
H	-2.3019653621	 0.2640990959	 3.1955866881	 0.122821
H	-3.9769804674	-0.4387540402	 3.2877500514	 0.11236
H	-3.8826293738	-1.1256725396	 0.8739091455	 0.091609
178.8392	186.1835	209.0921	256.3614	277.4812	290.807	349.9484	370.9368	488.1547	500.1332	642.4127	704.1747	725.9375	785.9032	817.9205	876.3362	909.7657	964.4861	975.5942	986.2878	1003.374	1031.7191	1053.8092	1074.1653	1080.675	1102.4989	1124.1451	1150.5034	1175.3494	1205.5356	1220.9515	1268.3387	1288.477	1304.9027	1363.0056	1375.9103	1408.9069	1453.3197	1480.6285	1491.292	1501.7302	3031.4829	3087.6646	3111.3846	3136.9067	3137.0062	3148.6872	3166.1146	3179.0941	3224.3088	3799.3972
CC12C(O)C1OC1CC21	C[C@@]12[C@@H](O)[C@@H]1O[C@@H]1C[C@H]21	
InChI=1S/C7H10O2/c1-7-3-2-4(3)9-6(7)5(7)8/h3-6,8H,2H2,1H3	InChI=1S/C7H10O2/c1-7-3-2-4(3)9-6(7)5(7)8/h3-6,8H,2H2,1H3/t3-,4+,5-,6-,7+/m0/s1
