19
gdb 5847	2.4878889	1.4466989	0.9527016	3.1132	78.96	-0.23335	-0.05586	0.17749	1240.5371	0.156628	-422.58144	-422.572626	-422.571682	-422.615246	32.389	
C	 1.3124751438	 1.1314896163	 0.2772190883	-0.394259
C	 1.0095405373	-0.3490667401	 0.0417265505	-0.181876
C	 1.8319086294	-0.9529130049	-1.0899979296	 0.001216
O	 3.203315271	-0.9329847502	-0.70535967	-0.256502
C	 4.0835213409	-1.432304784	-1.6831920938	-0.12544
C	 3.6764269761	-2.7812806879	-2.1978013255	-0.071319
C	 2.4310470445	-3.2402465976	-2.034650066	-0.140574
C	 1.383910124	-2.3784287583	-1.4517124679	 0.360052
O	 0.2304195966	-2.7400147313	-1.3358924662	-0.329604
H	 0.7254236216	 1.521013878	 1.1141067145	 0.113467
H	 2.3713468714	 1.2814912207	 0.5041941487	 0.130135
H	 1.0694618047	 1.7313204133	-0.6073255631	 0.110078
H	 1.2113959001	-0.927425874	 0.9509335084	 0.10855
H	-0.0447746319	-0.5050628536	-0.201794108	 0.124613
H	 1.6982448045	-0.3437577139	-2.0065325392	 0.084085
H	 4.1772595222	-0.7292374962	-2.5344012482	 0.108745
H	 5.0715972607	-1.487581791	-1.2124312293	 0.128231
H	 4.4341400823	-3.3674663606	-2.712752535	 0.116177
H	 2.1159486309	-4.2224845647	-2.3718535888	 0.114226
72.4752	93.832	167.2229	197.7317	246.9104	317.9297	319.6894	399.4858	466.4326	506.6595	526.2724	629.2716	731.8262	767.973	808.4798	885.4153	906.0186	938.5019	971.3867	1011.6276	1045.3748	1061.3875	1108.246	1129.9097	1151.4094	1185.8036	1232.312	1262.3163	1301.9046	1309.195	1347.3591	1388.48	1395.7464	1407.3524	1410.3371	1474.7753	1478.0845	1497.1377	1509.9252	1685.3141	1781.075	2906.4469	2917.2653	3035.0864	3047.1557	3061.095	3094.7667	3106.014	3123.869	3157.924	3192.0444
CCC1OCC=CC1=O	CC[C@H]1OCC=CC1=O	
InChI=1S/C7H10O2/c1-2-7-6(8)4-3-5-9-7/h3-4,7H,2,5H2,1H3	InChI=1S/C7H10O2/c1-2-7-6(8)4-3-5-9-7/h3-4,7H,2,5H2,1H3/t7-/m1/s1
