19
gdb 5415	3.5555156	0.7657589	0.6806777	0.9713	83.77	-0.22959	0.04287	0.27246	1708.6112	0.153008	-422.496003	-422.485058	-422.484113	-422.533268	37.055	
C	-5.3610635722	-1.9413035333	-1.4414570422	-0.234865
O	-4.4568452695	-1.5056976053	-0.441221393	-0.237239
C	-3.2791674802	-0.9965302279	-0.9696221879	 0.063241
C	-3.2092513059	 0.4452360932	-1.3900189037	 0.074236
O	-2.4073098303	 0.8135832521	-2.4624474718	-0.425448
C	-2.5504350538	-0.0062960728	-0.0804623185	-0.310639
C	-1.1200631374	 0.0072497682	-0.0155673929	 0.018738
C	 0.085171597	 0.0710200956	-0.0222729783	 0.122319
C	 1.540454964	 0.1119445655	 0.0116150651	-0.501259
H	-4.9351768024	-2.7602471745	-2.039507897	 0.111576
H	-6.2545812515	-2.3035710048	-0.9283670987	 0.129272
H	-5.6382271525	-1.123479957	-2.1209515874	 0.115866
H	-2.6654994557	-1.6950838719	-1.5405300545	 0.101377
H	-4.116859757	 1.0358880269	-1.2836207477	 0.105738
H	-1.5262732529	 1.0102142468	-2.1161790134	 0.289555
H	-3.0863018209	 0.2601878141	 0.8255369972	 0.123325
H	 1.9268513736	-0.3919597508	 0.9044126059	 0.153685
H	 1.9719620898	-0.3883766842	-0.862300078	 0.151247
H	 1.9147884978	 1.1415844201	 0.0236533865	 0.149276
39.7975	65.31	80.4988	121.4886	174.2977	183.4098	208.9613	251.9012	289.7394	310.1206	389.6847	402.8647	447.1751	523.8168	608.1477	761.5286	879.4964	899.9149	950.409	1035.2658	1051.1367	1054.001	1060.5197	1080.8752	1134.0124	1161.8342	1182.1092	1188.3593	1212.7324	1239.3457	1305.0182	1348.8074	1376.7504	1414.8954	1440.9628	1476.6688	1479.2676	1485.1343	1488.7058	1507.8869	2357.1937	2990.1101	3027.159	3043.528	3087.3425	3089.7975	3099.6948	3122.8934	3130.2402	3158.9998	3738.1301
COC1C(O)C1C#CC	CO[C@H]1[C@H](O)[C@@H]1C#CC	
InChI=1S/C7H10O2/c1-3-4-5-6(8)7(5)9-2/h5-8H,1-2H3	InChI=1S/C7H10O2/c1-3-4-5-6(8)7(5)9-2/h5-8H,1-2H3/t5-,6+,7+/m0/s1
