19
gdb 979	3.6702058	0.9568455	0.847198	1.882	76.85	-0.24109	0.00931	0.2504	1375.9135	0.157678	-422.594059	-422.585348	-422.584404	-422.628906	31.16	
O	 1.0102091759	 0.6008546849	 0.0060607397	-0.307592
C	 0.1119186505	-0.0050137328	 0.5246194695	 0.192574
O	-1.1291741379	 0.4377401916	 0.7630896251	-0.212274
C	-1.4540143904	 1.7887175382	 0.3504540694	-0.108419
C	-1.5603393266	 2.7116330867	 1.5551225251	 0.023272
C	-2.0641248909	 4.1305590104	 1.1619262646	-0.278906
C	-1.2880494021	 5.0423497199	 2.0814152078	-0.059901
C	-0.299912436	 4.4045007736	 2.7049182689	-0.061078
C	-0.226765113	 2.9463957476	 2.3215990695	-0.273052
H	 0.1832588192	-1.043065836	 0.8853937349	 0.110293
H	-0.6934656212	 2.135451517	-0.3530077214	 0.140279
H	-2.4150415651	 1.7066309053	-0.1656114556	 0.116391
H	-2.2832045483	 2.2740704226	 2.2523730255	 0.087037
H	-1.8421500217	 4.3628918819	 0.1088086792	 0.105258
H	-3.1502415556	 4.2277155704	 1.2715128911	 0.106212
H	-1.5100045651	 6.0998488642	 2.1725628127	 0.092577
H	 0.4094469548	 4.8627925624	 3.3853128175	 0.093196
H	 0.6457349395	 2.7504145381	 1.6835610249	 0.129717
H	-0.1274940661	 2.2823110838	 3.1875706617	 0.104416
42.7838	67.3142	88.0334	165.905	275.331	338.9319	390.79	394.0268	446.1118	628.1882	719.4629	764.8236	783.2935	832.5823	912.8387	925.2117	931.1682	974.2207	979.4666	981.2088	1043.7222	1044.7041	1107.5773	1118.415	1135.1561	1161.626	1188.3949	1236.259	1295.3508	1297.1483	1311.0455	1333.4638	1359.6371	1386.8017	1408.1897	1414.7267	1487.648	1489.4866	1501.8669	1691.9103	1816.0056	2989.9194	3021.9065	3027.4567	3036.9687	3053.3218	3060.7677	3064.3711	3122.8559	3182.03	3207.5373
O=COCC1CC=CC1	O=COC[C@@H]1CC=CC1	
InChI=1S/C7H10O2/c8-6-9-5-7-3-1-2-4-7/h1-2,6-7H,3-5H2	InChI=1S/C7H10O2/c8-6-9-5-7-3-1-2-4-7/h1-2,6-7H,3-5H2
