19
gdb 2168	2.8859974	1.8155891	1.6567001	1.6492	74.08	-0.22412	0.09054	0.31466	921.5662	0.158958	-422.551734	-422.544742	-422.543797	-422.58261	28.81	
C	-0.085225772	-0.1238261648	 0.0801714704	-0.503963
C	 1.4077077034	-0.0123500663	-0.0179531667	 0.400122
C	 2.216816479	 1.3083843059	-0.0922160221	-0.289927
C	 3.3553596098	 0.3484418786	-0.5057694371	-0.115976
C	 2.2889383972	-0.5200329165	-1.2251734743	 0.09005
O	 2.661768407	-1.8771713519	-1.2070184601	-0.278367
C	 3.5784255305	-2.0224013585	-0.1062540881	-0.07623
C	 3.4256570866	-0.6981840234	 0.638588983	 0.057638
O	 2.0527745176	-0.6792801971	 1.0921207656	-0.316753
H	-0.4416191244	 0.2908797035	 1.0284826765	 0.128924
H	-0.5665760243	 0.4187385508	-0.7385793902	 0.116873
H	-0.3889990817	-1.1738262213	 0.0301303314	 0.135389
H	 1.9119676279	 1.9628139599	-0.9125614457	 0.10148
H	 2.3144069591	 1.8687193809	 0.8392962939	 0.105073
H	 4.2887117732	 0.6625041352	-0.9697701054	 0.075812
H	 1.9574992666	-0.2229449601	-2.2196018568	 0.085853
H	 3.2723204314	-2.8696120922	 0.5140874311	 0.115017
H	 4.5987020104	-2.1935705434	-0.4812198837	 0.08898
H	 4.1136493628	-0.5240956094	 1.4670820084	 0.080003
204.7214	214.752	249.2508	326.0044	389.3664	443.5251	507.5327	591.0982	650.0322	730.8559	764.4696	814.3636	863.331	877.8446	883.9019	902.9838	931.6583	958.7303	971.1163	998.6126	1010.1113	1032.7299	1078.7132	1114.8878	1118.0959	1141.6791	1184.2238	1194.9118	1204.4724	1229.3278	1266.1447	1282.1508	1311.4402	1324.3115	1343.351	1392.4201	1417.1949	1480.7115	1487.0852	1492.9371	1506.9662	2993.0507	3039.7388	3068.305	3086.5046	3108.4698	3110.5923	3117.1011	3126.3012	3132.8385	3137.4105
CC12CC3C1OCC3O2	C[C@]12C[C@@H]3[C@H]1OC[C@@H]3O2	
InChI=1S/C7H10O2/c1-7-2-4-5(9-7)3-8-6(4)7/h4-6H,2-3H2,1H3	InChI=1S/C7H10O2/c1-7-2-4-5(9-7)3-8-6(4)7/h4-6H,2-3H2,1H3/t4-,5-,6+,7-/m0/s1
