19
gdb 817	3.4468574	1.1735662	1.1073342	2.677	75.15	-0.23972	-0.02486	0.21486	1165.4098	0.158491	-422.560126	-422.552248	-422.551304	-422.592836	29.794	
O	 0.6021650368	-1.0093400342	 0.5882750544	-0.262717
C	 0.219180539	-0.0112161802	 0.0315849979	 0.142188
C	-0.6071010998	 1.0605125699	 0.6836477314	-0.088664
C	-1.7932641019	 1.5373640221	-0.1983052928	 0.077095
C	-2.834246333	 2.272653171	 0.6531516908	-0.232387
C	-2.2118831047	 3.5886164899	 1.1873950082	-0.185786
C	-0.674698665	 3.5004118874	 1.3712389108	-0.232389
C	-0.1077417503	 2.4956387119	 0.3621616975	 0.077118
O	-0.9200697517	 2.506709361	-0.8477418299	-0.297274
H	 0.4613978042	 0.1868633072	-1.0367827978	 0.090754
H	-0.8081243185	 0.80471899	 1.7256259988	 0.087303
H	-2.2240154963	 0.8312493824	-0.9136558257	 0.086578
H	-3.7208359101	 2.5026419347	 0.0538182857	 0.10794
H	-3.1623233405	 1.6126206065	 1.4645047212	 0.106677
H	-2.4116422805	 4.3704463247	 0.45140242	 0.121947
H	-2.6979794861	 3.9008733456	 2.1153721593	 0.100405
H	-0.2289872246	 4.4878560063	 1.2149256369	 0.107942
H	-0.3980356748	 3.1841909087	 2.3836778673	 0.106682
H	 0.9541449376	 2.638112365	 0.143151596	 0.086589
83.6733	114.7779	190.4246	254.5731	299.8907	361.151	422.6308	490.7127	563.0073	656.2025	768.7044	816.4688	855.1287	872.4385	893.1787	927.8895	951.9772	977.7566	989.532	1033.618	1042.9809	1083.0517	1092.4728	1149.077	1152.1143	1197.975	1222.3546	1224.3882	1259.5496	1264.2643	1322.7965	1335.609	1344.6812	1351.5139	1380.2557	1386.4529	1427.059	1481.8508	1486.1557	1502.8	1827.115	2885.1713	3038.0612	3038.308	3065.5063	3069.9488	3070.3	3081.0324	3081.2563	3100.3336	3112.1927
O=CC1C2CCCC1O2	O=C[C@@H]1[C@H]2CCC[C@@H]1O2	
InChI=1S/C7H10O2/c8-4-5-6-2-1-3-7(5)9-6/h4-7H,1-3H2	InChI=1S/C7H10O2/c8-4-5-6-2-1-3-7(5)9-6/h4-7H,1-3H2/t5-,6-,7+
