19
gdb 5296	2.7521179	1.641713	1.2356835	1.5795	73.86	-0.23675	0.0697	0.30645	1055.0951	0.157186	-422.49593	-422.488212	-422.487268	-422.528076	30.172	
C	 3.6907794855	 0.2893227189	 0.6708691828	-0.386668
C	 2.2915600397	 0.0240452939	 0.0992752296	-0.298285
C	 2.2970082367	-0.6617371014	-1.2467333329	 0.306383
C	 2.9332869929	-0.0099293197	-2.468994958	-0.150961
O	 2.6941695191	-0.9942469409	-3.4988761689	-0.275818
C	 2.0077927976	-2.0009391634	-2.80670096	 0.101281
C	 1.0153304422	-1.4048853628	-1.7697227944	-0.036212
O	 1.2464732493	-2.5325412173	-0.8629208082	-0.31757
C	 2.5799541276	-2.2038828519	-1.3743996339	-0.022708
H	 3.623366909	 0.7414309139	 1.6646867538	 0.119031
H	 4.2613387383	-0.640438842	 0.7674785498	 0.120249
H	 4.2686474641	 0.9704261766	 0.0375942469	 0.117837
H	 1.7230954975	-0.6116713818	 0.7869770247	 0.121704
H	 1.7422877754	 0.9713758847	 0.0178516208	 0.097678
H	 2.4569115882	 0.9394547946	-2.7446125078	 0.107725
H	 4.0115769554	 0.157370109	-2.3658831384	 0.110668
H	 1.7392520114	-2.8416331819	-3.4419828842	 0.103716
H	-0.0040630128	-1.0348936971	-1.8837853181	 0.090805
H	 3.4267855828	-2.7921430713	-1.0202490537	 0.091144
92.7111	169.0026	206.3619	275.5591	306.6661	387.19	431.634	515.7706	646.2887	689.1434	713.432	754.8758	796.7877	818.385	885.2072	886.2632	933.7768	966.132	981.8114	1001.4188	1039.5202	1049.5631	1081.331	1102.3786	1132.2629	1152.8998	1170.1414	1192.0414	1210.9158	1227.1189	1249.0634	1287.1519	1310.1983	1340.7927	1368.5882	1401.4636	1413.4087	1484.2893	1501.7645	1505.6415	1519.7024	3019.6255	3022.7532	3035.9782	3062.1046	3069.1864	3104.6097	3108.8273	3113.8546	3119.2611	3164.2896
CCC12COC3C1OC23	CC[C@]12CO[C@@H]3[C@H]1O[C@H]23	
InChI=1S/C7H10O2/c1-2-7-3-8-4-5(7)9-6(4)7/h4-6H,2-3H2,1H3	InChI=1S/C7H10O2/c1-2-7-3-8-4-5(7)9-6(4)7/h4-6H,2-3H2,1H3/t4-,5-,6+,7+
