19
gdb 1641	3.376113	0.9818606	0.9015374	2.5368	78.23	-0.24581	-0.02023	0.22558	1344.7195	0.154896	-422.539797	-422.530552	-422.529608	-422.574199	34.116	
O	-0.9905149882	-0.066714551	 2.4918348592	-0.460504
C	 0.4108156715	 0.0018133366	 2.4207841496	 0.380025
C	 1.2008014563	-0.8698956523	 3.3680198162	-0.327645
C	 1.0647301782	 0.6186430949	 3.621716922	-0.291931
C	 0.963389859	 0.2877177398	 1.0558909105	-0.038497
C	 0.2612109667	-0.1327803717	-0.185583779	-0.307922
C	 0.2846714212	 1.3475767211	 0.1810884097	-0.114371
C	 1.1648758999	 2.2419657636	-0.6004132378	 0.131717
O	 2.1950215426	 1.890400679	-1.1310718994	-0.278297
H	-1.2599569206	-0.9389615899	 2.1838994642	 0.286445
H	 0.6324622807	-1.5351071677	 4.00890025	 0.116091
H	 2.1593450037	-1.2583479761	 3.0413073501	 0.118862
H	 0.4043407523	 0.9285954806	 4.422828781	 0.12614
H	 1.9310455161	 1.2524307192	 3.467303416	 0.11979
H	 2.0474161406	 0.3064333726	 0.9949203456	 0.109346
H	 0.8685300484	-0.4164924605	-1.0374467681	 0.138514
H	-0.7024348359	-0.6225749121	-0.1049009276	 0.108703
H	-0.6333110633	 1.7724757416	 0.5693640987	 0.107491
H	 0.8225441208	 3.2979878923	-0.671864331	 0.076043
60.8378	88.1708	138.2383	194.7427	234.8533	295.922	322.1939	334.4783	386.2044	475.4896	522.6476	690.9722	720.9721	770.9269	814.2539	825.1286	883.2443	905.0436	920.1298	961.5751	986.9045	1023.2709	1042.8016	1057.9692	1058.2662	1077.3314	1085.0909	1115.8776	1140.8206	1189.6673	1219.2677	1249.4494	1290.2992	1338.4617	1361.2774	1423.4502	1432.2944	1453.5252	1473.0713	1498.8813	1798.6918	2885.6045	3131.8219	3138.5854	3140.3015	3161.6152	3191.915	3218.2166	3233.9178	3235.3316	3798.9287
OC1(CC1)C1CC1C=O	OC1(CC1)[C@H]1C[C@@H]1C=O	
InChI=1S/C7H10O2/c8-4-5-3-6(5)7(9)1-2-7/h4-6,9H,1-3H2	InChI=1S/C7H10O2/c8-4-5-3-6(5)7(9)1-2-7/h4-6,9H,1-3H2/t5-,6+/m1/s1
