19
gdb 4691	4.0664473	0.9912872	0.8742509	1.5394	78.08	-0.24119	0.00698	0.24817	1370.2877	0.157074	-422.600863	-422.59171	-422.590766	-422.636205	32.119	
C	 1.5317498262	-0.1713459162	 0.1878325782	-0.239661
O	 0.1958433348	-0.3958588122	 0.6550750363	-0.236858
C	-0.4801948794	 0.7112145802	 1.0298443667	 0.438416
O	-0.0181895075	 1.8223607926	 0.9676252277	-0.356538
C	-1.8613398444	 0.3330680907	 1.5478525564	-0.143827
C	-2.7893772311	 1.5521422576	 1.7721863115	-0.236104
C	-3.4898237842	 1.3128954205	 3.1358633019	-0.256979
C	-2.6591537446	 0.2264192314	 3.771412223	-0.057906
C	-1.7879328555	-0.3121117063	 2.9226080888	-0.073439
H	 2.1422758702	 0.2897169752	 0.9685178278	 0.140131
H	 1.9246960672	-1.1541703247	-0.073082682	 0.131778
H	 1.52932479	 0.4842719883	-0.686589393	 0.140573
H	-2.2739610058	-0.3874536931	 0.8288648643	 0.101633
H	-2.1662693871	 2.448337124	 1.8133894586	 0.13546
H	-3.4990479885	 1.683631162	 0.9523948342	 0.099804
H	-3.5356416415	 2.2222314411	 3.7458941265	 0.108469
H	-4.5289373447	 0.977976253	 3.011242269	 0.106753
H	-2.7997895478	-0.0922982736	 4.7986927745	 0.095292
H	-1.1075115462	-1.1284564306	 3.1332668096	 0.103002
35.7431	65.2061	113.9707	131.3554	195.2159	248.7682	326.0711	382.3561	426.7242	585.2793	690.287	732.9918	783.64	800.7603	840.6347	886.5927	924.4458	937.1167	976.8645	1008.0953	1030.5258	1049.3299	1083.8935	1129.0818	1177.6478	1179.4626	1200.7379	1218.0487	1228.4024	1270.6518	1295.1386	1318.2213	1356.1499	1378.252	1472.1635	1481.5372	1485.081	1498.0341	1504.6865	1686.9955	1819.5335	3012.1514	3014.4927	3051.1673	3053.7101	3075.653	3121.7829	3125.4243	3157.3008	3185.9077	3215.5794
COC(=O)C1CCC=C1	COC(=O)[C@@H]1CCC=C1	
InChI=1S/C7H10O2/c1-9-7(8)6-4-2-3-5-6/h2,4,6H,3,5H2,1H3	InChI=1S/C7H10O2/c1-9-7(8)6-4-2-3-5-6/h2,4,6H,3,5H2,1H3/t6-/m0/s1
