19
gdb 424	2.8425337	1.4577319	1.1020456	1.7299	76.96	-0.24901	0.0167	0.26571	1124.6496	0.157777	-422.529231	-422.521158	-422.520214	-422.562133	30.772	
C	 0.527087393	 0.7188275576	-0.8706924711	-0.216821
O	-0.0188834891	-0.1206402388	 0.1539781832	-0.285209
C	 1.3791079618	 0.1975862871	 0.2047852717	 0.417509
C	 2.3040128687	-0.9564822331	-0.1317917084	-0.169636
O	 3.4383677804	-0.5038301182	-0.8446128922	-0.234751
C	 4.5189584729	-0.0636528383	-0.0538643051	-0.127453
C	 4.2968215658	 1.1180831827	 0.8572977603	-0.064484
C	 3.1854447583	 1.5839456519	 1.4275325476	-0.059183
C	 1.7660826018	 1.079042632	 1.3729233639	-0.337895
H	 0.5770259839	 0.2745707608	-1.8636443771	 0.118756
H	 0.2028238264	 1.7580215154	-0.8428961688	 0.11214
H	 2.6014777741	-1.502161593	 0.7780226851	 0.090987
H	 1.7686007973	-1.6523762739	-0.7846090767	 0.116115
H	 4.9071413064	-0.9022452835	 0.555880036	 0.100748
H	 5.3104611917	 0.1876342856	-0.7688001838	 0.117801
H	 5.2280187816	 1.6254770645	 1.1073703932	 0.09024
H	 3.3056208499	 2.4400655561	 2.089007433	 0.092869
H	 1.5733880118	 0.5107747104	 2.2974958575	 0.124802
H	 1.0754219832	 1.9286918846	 1.4132945517	 0.113465
70.1375	91.8225	257.5802	306.3757	314.4964	369.2044	401.3067	411.0484	463.0337	553.9067	661.7298	744.2899	811.054	841.8439	879.4464	920.7406	933.5725	949.2798	980.469	1007.5525	1031.1837	1038.7537	1068.3458	1129.4147	1155.0934	1172.4074	1204.841	1245.1315	1272.0891	1307.0691	1323.5121	1360.5951	1390.058	1413.412	1426.1639	1436.4976	1471.9932	1478.6602	1498.3661	1532.8504	1739.2687	2922.097	2980.2899	2985.5536	3058.1165	3058.8924	3083.9097	3085.2311	3123.6815	3148.5465	3171.5101
C1OC11COCC=CC1	C1O[C@]21COCC=CC2	
InChI=1S/C7H10O2/c1-2-4-8-5-7(3-1)6-9-7/h1-2H,3-6H2	InChI=1S/C7H10O2/c1-2-4-8-5-7(3-1)6-9-7/h1-2H,3-6H2/t7-/m0/s1
