19
gdb 1568	2.5465489	1.4176859	1.1412611	4.1913	77.78	-0.24004	-0.05055	0.18949	1128.6034	0.156199	-422.604912	-422.596129	-422.595184	-422.637857	33.852	
C	-1.4619628827	-1.036040262	 2.50625237	-0.427308
C	-1.9896111977	-1.1500444734	 1.0699913545	 0.333963
O	-2.7565539233	-2.346679717	 0.9306487254	-0.467469
C	-2.8539628743	 0.0729587543	 0.6885400929	-0.299953
C	-2.047599924	 1.2989656093	 0.3626165564	-0.048585
C	-0.7590901181	 1.2601073209	 0.0019076889	-0.142906
C	-0.0187463994	-0.0149229544	-0.1161170235	 0.367721
O	 1.1669368871	-0.0462218892	-0.3776436757	-0.334299
C	-0.8393671383	-1.2872290617	 0.0629275774	-0.3285
H	-0.8536886605	-1.9106674953	 2.752005206	 0.131231
H	-0.8536891078	-0.1381131966	 2.6464625128	 0.131462
H	-2.2954041015	-0.985708276	 3.2176091881	 0.104384
H	-3.3963012622	-2.3769296622	 1.6504390117	 0.274975
H	-3.4617100736	-0.2053208866	-0.183829184	 0.130851
H	-3.5675385481	 0.2987058607	 1.4916680056	 0.100465
H	-2.5606247911	 2.2562832317	 0.4239776274	 0.10953
H	-0.1936138766	 2.1595079698	-0.2195885843	 0.108221
H	-1.2752178581	-1.538030289	-0.9137034221	 0.130778
H	-0.1695522397	-2.1058764133	 0.3360830125	 0.125441
92.8219	147.6821	235.5819	271.9062	294.9334	310.7634	333.4397	378.5673	439.2	473.5525	478.4479	511.5358	593.9612	679.5258	760.3516	805.4182	860.3791	918.9618	932.5113	959.4536	985.1784	1001.1875	1024.2142	1088.9267	1111.3535	1135.8805	1173.6839	1218.6322	1252.9686	1282.9661	1300.9573	1340.6607	1398.0575	1403.1864	1408.1164	1456.7248	1468.548	1496.3188	1498.5504	1681.7375	1778.247	3011.3274	3027.5706	3030.8643	3044.0631	3099.0647	3109.1926	3125.4332	3151.6235	3192.3551	3802.8172
CC1(O)CC=CC(=O)C1	C[C@@]1(O)CC=CC(=O)C1	
InChI=1S/C7H10O2/c1-7(9)4-2-3-6(8)5-7/h2-3,9H,4-5H2,1H3	InChI=1S/C7H10O2/c1-7(9)4-2-3-6(8)5-7/h2-3,9H,4-5H2,1H3/t7-/m1/s1
