19
gdb 1172	6.7170488	0.5250185	0.4928856	1.4538	79.7	-0.24969	-0.01477	0.23492	2159.1718	0.151888	-422.525414	-422.514376	-422.513432	-422.56373	36.915	
C	 1.6821300051	-6.2869832383	-1.7276170432	-0.473222
C	 0.3034724872	-5.7646031474	-1.3670045134	 0.377864
O	-0.6309440458	-6.5073820048	-1.1640608979	-0.29265
C	 0.1580682181	-4.2536447314	-1.2728599438	-0.317654
C	-1.2512174065	-3.8130619582	-0.9112224999	-0.040211
O	-1.2571010569	-2.3994281013	-0.8548252243	-0.251426
C	-2.5305407317	-1.8825306687	-0.5230481776	-0.206895
C	-2.4828122757	-0.4269093978	-0.4782019767	 0.279351
C	-2.4719060325	 0.7729573119	-0.4347160309	-0.414382
H	 1.6678814064	-7.3768748284	-1.7602694573	 0.144016
H	 1.9968116374	-5.892410482	-2.7003255112	 0.140431
H	 2.4229662111	-5.9484563334	-0.9946037117	 0.140204
H	 0.8736691167	-3.8702461014	-0.5339168747	 0.132924
H	 0.4598696638	-3.8041885102	-2.2278352139	 0.132748
H	-1.9705551728	-4.1795943787	-1.659572989	 0.104315
H	-1.5513429759	-4.2463141307	 0.0552096906	 0.104451
H	-3.2835499373	-2.2064636816	-1.2621312702	 0.119966
H	-2.8633853329	-2.2730537962	 0.4541344806	 0.119957
H	-2.4569186979	 1.8341287487	-0.3985362054	 0.200211
31.2368	44.4508	79.0996	96.4687	124.6161	130.0417	165.7993	294.6047	308.0194	334.5488	460.984	480.7147	534.6636	607.3185	607.335	676.1385	762.7225	840.6838	937.4538	938.4586	973.7358	1028.1401	1031.501	1108.3714	1122.8791	1142.5158	1185.3784	1217.5678	1256.6602	1298.604	1331.1682	1383.748	1390.5291	1442.5158	1457.8367	1467.725	1477.4498	1498.6108	1521.7717	1806.7473	2248.4741	2952.3841	2970.6539	2983.9107	3011.5527	3030.1292	3039.3238	3065.091	3098.1057	3153.5669	3506.823
CC(=O)CCOCC#C	CC(=O)CCOCC#C	
InChI=1S/C7H10O2/c1-3-5-9-6-4-7(2)8/h1H,4-6H2,2H3	InChI=1S/C7H10O2/c1-3-5-9-6-4-7(2)8/h1H,4-6H2,2H3
