19
gdb 5394	2.7790871	1.3227891	0.9730027	4.2163	79.27	-0.24416	-0.05548	0.18868	1230.1782	0.158339	-422.59852	-422.590041	-422.589096	-422.631742	31.931	
O	 0.0449860113	-0.1796392202	 0.8072930196	-0.421759
C	 0.1932191991	-0.4007941213	-0.5820760537	-0.16584
C	-0.5818651906	 0.5983558557	-1.4160771615	 0.208303
C	-0.0207667772	 1.3655070907	-2.3639248138	-0.143514
C	-0.7630010463	 2.3653564969	-3.2045199049	-0.25187
C	-2.1073933276	 2.758438606	-2.581063829	-0.223213
C	-2.872878793	 1.5159383585	-2.1115883403	-0.301549
C	-2.0433017221	 0.6681059581	-1.1611610173	 0.339619
O	-2.5580978968	 0.0407367383	-0.2481723712	-0.350762
H	-0.9031564546	-0.2726593005	 0.974337396	 0.296163
H	 1.2614062782	-0.3213345594	-0.8085893464	 0.104778
H	-0.1260337548	-1.4200202256	-0.856296951	 0.096336
H	 1.0469448473	 1.2635404241	-2.5551516771	 0.102643
H	-0.135084769	 3.2500554559	-3.3620641776	 0.117121
H	-0.918179017	 1.9366170666	-4.2074433459	 0.121859
H	-1.9231072343	 3.413043908	-1.7205727815	 0.11664
H	-2.7087044744	 3.3317171587	-3.2933299421	 0.105778
H	-3.815327702	 1.7641663328	-1.6172736231	 0.124854
H	-3.1206615062	 0.8833357366	-2.9769656894	 0.124413
86.5896	103.2273	181.966	246.7814	289.632	312.6319	379.2627	428.4346	487.2298	533.552	572.2885	672.8915	689.2026	719.9473	819.0376	874.3745	895.1901	936.0017	956.8345	1015.7981	1069.0455	1072.7709	1087.1129	1116.3314	1151.0409	1187.7813	1226.0788	1267.0985	1273.2438	1347.8652	1370.7667	1371.9092	1379.6105	1400.3988	1449.5245	1458.9027	1471.7873	1492.249	1496.7656	1698.3036	1747.3083	2964.4973	2989.4643	3009.686	3035.5238	3055.2003	3071.8394	3083.426	3102.7224	3134.8902	3748.6182
OCC1=CCCCC1=O	OCC1=CCCCC1=O	
InChI=1S/C7H10O2/c8-5-6-3-1-2-4-7(6)9/h3,8H,1-2,4-5H2	InChI=1S/C7H10O2/c8-5-6-3-1-2-4-7(6)9/h3,8H,1-2,4-5H2
