19
gdb 1092	3.0087176	1.4127559	1.128468	2.8796	76.17	-0.23626	-0.01141	0.22485	1127.7217	0.156414	-422.569263	-422.560638	-422.559694	-422.602741	32.171	
C	-3.4102185395	-1.3009213643	-3.9697284706	-0.477864
C	-2.4798718503	-1.0095143278	-2.8134155335	 0.307999
O	-2.5226420735	-1.615812985	-1.7626609163	-0.324329
C	-1.4860256828	 0.0875303783	-3.0081800536	 0.335012
C	-0.1999500014	 0.0903896072	-2.2041943621	-0.343117
C	-1.2467108699	 1.1359007083	-1.9330693614	-0.091152
C	-1.1603323524	 2.4521388887	-2.6867701043	-0.245299
C	-0.9355898907	 2.0079110355	-4.1501719287	-0.102661
O	-1.4837569411	 0.692591917	-4.2745585165	-0.308314
H	-4.0967970893	-2.10067346	-3.6910204532	 0.133816
H	-3.9637953562	-0.398002022	-4.2465167208	 0.143018
H	-2.8316799139	-1.5856471866	-4.8547629695	 0.149598
H	-0.1127705887	-0.7086835097	-1.4775543903	 0.143307
H	 0.7154310109	 0.3641308776	-2.7177783289	 0.11856
H	-1.8039367615	 1.0810254944	-1.0058884117	 0.113212
H	-2.1044407524	 2.9956494806	-2.5797056564	 0.11421
H	-0.3553825471	 3.1068067798	-2.3395367832	 0.112981
H	-1.4316872502	 2.6495189936	-4.8832234629	 0.115345
H	 0.1355971199	 1.9874876644	-4.3906560861	 0.105676
62.2845	135.4953	152.9193	186.4562	224.8832	328.9439	377.1641	430.0598	492.3546	583.8891	626.9814	663.1026	709.7779	812.0368	844.2957	879.372	913.2996	932.5406	952.5634	979.1614	1018.8509	1047.065	1049.2212	1071.3111	1092.7077	1130.0792	1161.1082	1219.1123	1232.9565	1245.0241	1299.2064	1337.7106	1372.2786	1390.1907	1402.3172	1455.3317	1460.5271	1466.6992	1494.5302	1527.2246	1789.1354	3013.0757	3046.1869	3050.9209	3085.7562	3098.859	3107.6476	3137.4306	3158.6323	3190.9318	3235.5424
CC(=O)C12CC1CCO2	CC(=O)[C@]12C[C@H]1CCO2	
InChI=1S/C7H10O2/c1-5(8)7-4-6(7)2-3-9-7/h6H,2-4H2,1H3	InChI=1S/C7H10O2/c1-5(8)7-4-6(7)2-3-9-7/h6H,2-4H2,1H3/t6-,7-/m1/s1
