19
gdb 2171	2.9607327	1.6948721	1.5791938	0.4854	73.28	-0.24098	0.06908	0.31006	930.9501	0.159867	-422.560177	-422.553279	-422.552335	-422.590926	28.88	
O	 0.6572964084	 0.1785892625	 0.1251641373	-0.489694
C	-0.5690395715	 0.4154219027	 0.737227408	 0.409555
C	-1.8578908438	 0.0819205714	-0.046324721	-0.275445
C	-2.4995832789	 1.0610082424	 0.9628107723	-0.053296
C	-1.1727284406	 1.870757245	 0.9466295259	-0.09993
C	-1.0455412287	 2.4961217933	 2.3314762249	-0.12015
O	-1.8884385925	 1.6808760289	 3.1628159881	-0.27189
C	-2.1915126389	 0.5192669631	 2.3872858661	 0.111011
C	-0.8730073334	-0.2510105995	 2.0962032204	-0.306433
H	 1.3503608946	 0.2431209408	 0.7906170728	 0.28
H	-1.8430848317	 0.4920736485	-1.0587548079	 0.106127
H	-2.1881094139	-0.9607402806	-0.0650311495	 0.092026
H	-3.4701778022	 1.5270520842	 0.8060879426	 0.072165
H	-1.0115545155	 2.5277672148	 0.0925192023	 0.07827
H	-0.0136059704	 2.4942843264	 2.7124993519	 0.08777
H	-1.4122755505	 3.5287991386	 2.3630217923	 0.105585
H	-2.9732518439	-0.0353273621	 2.9056493678	 0.077484
H	-0.132366039	-0.0523429581	 2.8773292457	 0.096266
H	-0.9938684776	-1.3333956523	 1.99299441	 0.100579
223.0525	243.9822	259.5045	357.2846	416.8635	458.1722	490.5276	562.9284	634.9856	698.3787	743.505	807.5392	851.8132	878.144	896.9413	922.3658	945.2303	960.9104	977.9956	1003.8541	1019.4573	1047.7924	1067.0148	1094.5604	1110.6482	1133.6336	1157.0642	1197.4379	1218.2681	1235.5818	1239.605	1251.0449	1273.9586	1311.7177	1316.3303	1345.4246	1382.7173	1388.0234	1490.1697	1516.1017	1528.2964	2993.0217	3047.0852	3047.8527	3054.7977	3096.4093	3116.8185	3121.7143	3126.2296	3140.7393	3809.5445
OC12CC3C1COC3C2	O[C@]12C[C@@H]3[C@H]1CO[C@@H]3C2	
InChI=1S/C7H10O2/c8-7-1-4-5(7)3-9-6(4)2-7/h4-6,8H,1-3H2	InChI=1S/C7H10O2/c8-7-1-4-5(7)3-9-6(4)2-7/h4-6,8H,1-3H2/t4-,5-,6-,7+/m1/s1
