19
gdb 5221	2.7931038	1.6389091	1.3706777	1.4965	74.92	-0.22516	0.09624	0.3214	1016.7828	0.15782	-422.507349	-422.499625	-422.498681	-422.539736	29.713	
C	 1.3466150685	-0.0672988928	-0.0887661152	-0.26486
O	-0.0602245522	-0.0996782166	 0.0729628724	-0.295509
C	-0.5149410682	 0.571712084	 1.1825212301	 0.421697
C	-0.3047464978	 0.2587402031	 2.6877792504	-0.324591
C	-1.2722654123	 1.4644925769	 2.6532238671	-0.104089
C	-2.0291040763	 0.8255955563	 1.4378685047	-0.11872
C	-2.4354437573	 1.9685646122	 0.5167401911	-0.112778
O	-1.2845055599	 2.8280857512	 0.6245213566	-0.283165
C	-0.4465183574	 2.1056693001	 1.5021450848	 0.069226
H	 1.8621106723	-0.5442952381	 0.7565005667	 0.113265
H	 1.5752460681	-0.6209043671	-1.001685617	 0.130576
H	 1.7174751234	 0.9616071303	-0.1921192782	 0.117361
H	-0.7220546299	-0.6851469749	 3.0457563386	 0.100675
H	 0.6880491695	 0.439100643	 3.1099586829	 0.092812
H	-1.7216232882	 1.9834243536	 3.4960812621	 0.083981
H	-2.7036404396	-0.0167400308	 1.5898729214	 0.0775
H	-2.5722742304	 1.6530217345	-0.5243804774	 0.111523
H	-3.3336332319	 2.5023088665	 0.8501502837	 0.100834
H	 0.4870955996	 2.6360363688	 1.6851684852	 0.084263
67.9402	164.8586	190.6906	264.9352	296.2229	383.0396	472.5624	489.8796	650.2834	701.2238	737.0075	782.9911	834.0652	908.3041	924.845	950.2115	958.3207	991.5593	1004.666	1029.9085	1044.803	1076.6847	1086.4624	1098.9968	1123.3849	1149.0469	1181.137	1184.5228	1198.3568	1214.8798	1222.1638	1243.3097	1278.3322	1294.3248	1339.4996	1395.3365	1485.8342	1489.2062	1505.0279	1519.4325	1522.1611	2995.4545	3023.363	3049.4823	3054.7513	3063.5361	3117.4652	3125.1164	3126.1674	3136.0449	3153.3951
COC12CC3C1COC23	CO[C@]12C[C@@H]3[C@H]1CO[C@H]23	
InChI=1S/C7H10O2/c1-8-7-2-4-5(7)3-9-6(4)7/h4-6H,2-3H2,1H3	InChI=1S/C7H10O2/c1-8-7-2-4-5(7)3-9-6(4)7/h4-6H,2-3H2,1H3/t4-,5-,6+,7-/m1/s1
