19
gdb 1026	2.598285	1.0735121	0.9373824	2.3084	79.41	-0.23894	0.04758	0.28652	1360.4011	0.155852	-422.531823	-422.52193	-422.520986	-422.569246	34.168	
C	 1.1420897929	 0.3464093501	-0.7006680425	-0.497982
C	-0.2506094018	 0.1660725633	-0.3187632244	 0.001737
C	-1.4059550852	 0.0209007586	-0.0120571964	 0.156976
C	-2.8062483702	-0.1830369042	 0.3726257595	-0.092911
C	-3.6680707546	 1.0933379693	 0.26670308	-0.246707
C	-4.1040705211	 1.0937063552	-1.2128317998	 0.098062
O	-3.2423015846	 1.8406416149	-2.0599167988	-0.42983
C	-3.9689613716	-0.3929523458	-1.6152273451	-0.076295
O	-3.4855974836	-1.1065649495	-0.4805813591	-0.247089
H	 1.7210075148	 0.7971385938	 0.1131744398	 0.146509
H	 1.6128379947	-0.6111384976	-0.9493554128	 0.150018
H	 1.233880063	 0.999714841	-1.5753511291	 0.149903
H	-2.844577994	-0.6150810339	 1.3781419457	 0.104072
H	-4.5410499363	 0.983517516	 0.9171746839	 0.104464
H	-3.1341359838	 2.0049622262	 0.54320214	 0.104478
H	-5.1385966774	 1.4471275211	-1.3185171018	 0.07017
H	-3.2948330326	 2.7652616261	-1.7983883645	 0.281507
H	-4.9191078143	-0.8492291187	-1.9061088924	 0.104867
H	-3.2675500245	-0.4548213559	-2.4566970624	 0.118053
20.1523	28.9606	69.5811	112.9793	189.6418	297.0014	300.2891	337.5026	411.2536	418.7439	448.5916	539.8804	679.2027	720.2546	817.4938	844.61	911.6959	932.0963	982.416	997.8649	1035.7494	1052.869	1053.1586	1083.4189	1098.9657	1157.9517	1211.5966	1228.1318	1249.4841	1265.2816	1314.2974	1349.1566	1365.3504	1378.1552	1413.3858	1427.6001	1470.7134	1476.7002	1479.2449	1505.7492	2367.4355	3003.4658	3026.627	3029.1808	3049.6863	3063.991	3087.3132	3088.3553	3091.9312	3119.7053	3819.7373
CC#CC1CC(O)CO1	CC#C[C@H]1C[C@@H](O)CO1	
InChI=1S/C7H10O2/c1-2-3-7-4-6(8)5-9-7/h6-8H,4-5H2,1H3	InChI=1S/C7H10O2/c1-2-3-7-4-6(8)5-9-7/h6-8H,4-5H2,1H3/t6-,7+/m1/s1
