19
gdb 5454	4.5849256	1.0195575	0.9467519	2.3176	74.27	-0.24462	0.06609	0.31071	1258.055	0.15716	-422.504476	-422.496213	-422.495268	-422.53718	31.96	
O	 1.2405433843	 0.7783705799	-0.0787281832	-0.423163
C	 0.2576341346	-0.0690384868	 0.4992008099	-0.081953
C	-0.9733018424	 0.6910238949	 0.9744372367	-0.021801
C	-0.7379212124	 1.5130611374	 2.2487421734	-0.074701
C	-2.0715484378	 1.6072914019	 2.9952685134	-0.127936
C	-1.1876161932	 0.3817363777	 3.14175179	-0.109776
C	-1.937047831	-0.1591656865	 1.8497080554	-0.119204
C	-3.100981933	 0.8183712559	 2.186372771	 0.157929
O	-4.1388727254	 0.2643148871	 2.9624384997	-0.448463
H	 1.5714892637	 1.3583544551	 0.6140304227	 0.282672
H	-0.025620029	-0.7720499881	-0.2917043076	 0.108541
H	 0.6755958596	-0.6593652295	 1.330697591	 0.084403
H	-1.4291728616	 1.2124886988	 0.1231521016	 0.071625
H	 0.0432063029	 2.2390985619	 2.4458640678	 0.08161
H	-2.2584065265	 2.390610019	 3.7198106371	 0.09153
H	-0.7250675446	-0.0827720038	 3.9999884315	 0.093325
H	-2.1584421671	-1.1981124663	 1.6092169208	 0.074221
H	-3.5945679874	 1.3068020818	 1.3395684785	 0.083604
H	-3.7433936337	-0.0829957703	 3.7712674602	 0.277537
92.6165	145.8382	212.9544	241.4449	293.0203	311.9371	355.4423	404.4393	522.1802	552.4487	768.4129	778.4799	788.8541	826.4177	837.8558	884.4821	927.7725	940.1652	957.1539	1004.3221	1014.6361	1031.9994	1040.4846	1057.811	1080.8208	1081.6647	1127.9931	1164.1818	1172.463	1177.3188	1202.0236	1248.2292	1265.2474	1283.5471	1296.7238	1352.0157	1363.0502	1398.43	1421.6719	1434.1713	1499.2117	2975.7594	3026.6522	3058.9695	3070.2153	3129.8259	3169.8427	3191.6709	3224.1387	3779.8716	3820.5848
OCC1C2C3C2C1C3O	OC[C@@H]1[C@H]2[C@@H]3[C@H]2[C@H]1[C@H]3O	
InChI=1S/C7H10O2/c8-1-2-3-5-4(2)7(9)6(3)5/h2-9H,1H2	InChI=1S/C7H10O2/c8-1-2-3-5-4(2)7(9)6(3)5/h2-9H,1H2/t2-,3-,4+,5-,6-,7-/m1/s1
