19
gdb 5756	4.6329407	1.166366	1.0976893	2.5621	74.73	-0.24275	0.09252	0.33527	1142.968	0.158927	-422.518235	-422.51091	-422.509965	-422.550062	29.148	
O	 1.5933085859	 0.6340185278	 0.3295988782	-0.422851
C	 0.5695080709	-0.2672993767	 0.7009138308	-0.067566
C	-0.3547897812	 0.3542307002	 1.7408149919	 0.075829
O	-0.8770118485	 1.5986950547	 1.2093661101	-0.310272
C	-2.2767099772	 1.3945350698	 1.2736447612	 0.148931
C	-2.6468296544	-0.0577179708	 0.8542337254	-0.087205
C	-3.8151991924	-0.0302211681	 1.8648332957	-0.258694
C	-2.6582177172	 0.6798648655	 2.6022479589	-0.088259
C	-1.6570728438	-0.3829725868	 2.0306018148	-0.064902
H	 1.1448942032	 1.4596818353	 0.1092261071	 0.291357
H	-0.0232426839	-0.5862716519	-0.1717091875	 0.082818
H	 1.0589344813	-1.1557327837	 1.1156048639	 0.104022
H	 0.2182763723	 0.5789401904	 2.6500786023	 0.084384
H	-2.8169972212	 2.264473413	 0.9020613345	 0.087758
H	-2.6339584051	-0.4785479842	-0.1513994624	 0.077153
H	-4.6830655037	 0.5810989343	 1.6007508244	 0.095421
H	-4.1269880007	-0.9956616205	 2.2700624083	 0.099527
H	-2.6502779926	 1.1067963831	 3.6057205885	 0.076213
H	-1.6209866518	-1.3857233112	 2.4570806038	 0.076336
96.9692	149.8937	209.4005	356.7211	418.6401	448.9784	463.3543	522.4634	693.328	732.7677	790.5941	809.3667	839.2796	891.8294	895.6017	916.8173	974.1264	982.7722	995.3467	1016.4823	1052.6911	1066.6786	1084.2908	1090.2032	1104.6918	1121.6459	1123.1988	1169.0666	1182.6755	1222.4006	1232.6499	1239.2527	1260.1224	1275.6296	1309.2477	1329.3323	1370.9833	1401.2854	1438.4924	1499.5605	1519.8165	2974.1935	3023.9932	3052.3401	3067.559	3107.6119	3109.4269	3113.6818	3121.6118	3138.2647	3787.2584
OCC1OC2C3CC2C13	OC[C@H]1O[C@H]2[C@@H]3C[C@H]2[C@H]13	
InChI=1S/C7H10O2/c8-2-5-6-3-1-4(6)7(3)9-5/h3-8H,1-2H2	InChI=1S/C7H10O2/c8-2-5-6-3-1-4(6)7(3)9-5/h3-8H,1-2H2/t3-,4+,5-,6-,7+/m1/s1
