19
gdb 5689	2.5876901	1.1923861	0.9722632	1.5991	80.07	-0.23948	0.03463	0.27411	1294.0046	0.1527	-422.470793	-422.460467	-422.459523	-422.50602	36.723	
C	 1.3705931702	-0.0553043404	-0.1947742595	-0.232172
O	-0.0150995889	 0.16584353	-0.0071862572	-0.23852
C	-0.3300456441	 0.605939975	 1.2678911688	 0.054899
C	-0.4344268648	-0.3901961218	 2.3965516707	-0.387547
C	-1.6987315207	 0.2034230588	 1.8035249771	 0.206812
O	-2.4504389017	-0.7001512305	 1.0578122568	-0.263981
C	-3.1437239777	-0.1058604803	-0.0342750182	-0.254615
C	-2.4432898101	 1.1815732643	 2.5594877645	 0.311587
C	-3.0734204505	 1.9989237029	 3.1775791513	-0.482139
H	 1.7551927053	-0.8163203958	 0.498377382	 0.113396
H	 1.5016243406	-0.4040414728	-1.2213442286	 0.131579
H	 1.949792822	 0.8693073594	-0.0539884773	 0.109376
H	 0.0181854956	 1.611390714	 1.5086059845	 0.09979
H	-0.2798585668	-1.4308269929	 2.1341749995	 0.136894
H	-0.1436955763	-0.0992213975	 3.3987035233	 0.126349
H	-3.6979974916	-0.9116414338	-0.52006969	 0.124704
H	-3.8509691432	 0.6587501641	 0.3122845174	 0.11719
H	-2.4428623536	 0.3402700429	-0.7482484469	 0.129913
H	-3.6294246838	 2.7164712644	 3.7287079217	 0.196487
78.3956	120.3792	129.4913	138.1033	171.6889	200.3893	237.0546	239.671	344.1241	383.4592	433.7103	497.4059	564.1636	583.6488	610.9477	680.0472	745.1505	828.8715	892.9769	914.3662	1009.1064	1028.8231	1058.645	1095.8388	1113.6105	1174.8934	1181.771	1184.0277	1207.0221	1238.5006	1264.2187	1281.4585	1390.8568	1453.7155	1476.567	1484.1755	1486.8428	1489.5343	1507.1735	1510.0243	2229.3166	2988.1657	3014.5321	3041.9776	3084.5363	3093.6268	3124.059	3129.155	3142.247	3241.7252	3500.3006
COC1CC1(OC)C#C	CO[C@@H]1C[C@@]1(OC)C#C	
InChI=1S/C7H10O2/c1-4-7(9-3)5-6(7)8-2/h1,6H,5H2,2-3H3	InChI=1S/C7H10O2/c1-4-7(9-3)5-6(7)8-2/h1,6H,5H2,2-3H3/t6-,7+/m1/s1
