19
gdb 5295	2.2946363	1.6867024	1.2972865	2.5981	75.22	-0.24119	0.00932	0.25051	1054.3172	0.157556	-422.550574	-422.542246	-422.541301	-422.58368	31.385	
O	 1.6024347095	 0.5573807171	-0.1886097709	-0.41058
C	 0.2464387609	 0.3329969202	 0.1561674732	-0.138124
C	-0.4363264247	 1.5647771589	 0.7355326258	 0.370265
O	-1.8315956983	 1.2519263875	 1.0232554535	-0.327
C	-1.6988404964	 1.7381340564	 2.3760539486	-0.083695
C	-0.1875223736	 2.0038764059	 2.2108784947	-0.139139
C	 0.2774906435	 3.470660667	 2.1842031898	-0.2829
C	 0.1071460003	 3.8588335934	 0.730667068	-0.074216
C	-0.2586392351	 2.8398278459	-0.0465493883	-0.09803
H	 2.0777495647	 0.7952059405	 0.6139479634	 0.284063
H	-0.2647581539	 0.0536282383	-0.7717955339	 0.120139
H	 0.1285083328	-0.5063771603	 0.8579340283	 0.090754
H	-2.3045080713	 2.6370755896	 2.5521888785	 0.099575
H	-1.9786546783	 0.9715598006	 3.1078998884	 0.102717
H	 0.4487269178	 1.3504705266	 2.8112582097	 0.070566
H	-0.3166961765	 4.1060172728	 2.8540862608	 0.109456
H	 1.3205628128	 3.5827506241	 2.5084178398	 0.105707
H	 0.2781428591	 4.8730265839	 0.3844922203	 0.099294
H	-0.4274634932	 2.8889427216	-1.1161697997	 0.101148
76.7093	103.3356	167.044	245.435	294.2693	309.6833	396.8347	419.9442	497.6228	604.3223	700.2872	746.3528	765.1464	823.9935	885.8826	922.8247	925.7434	944.7796	981.4892	1010.8475	1028.7541	1051.7076	1076.8376	1082.3378	1106.8067	1140.5783	1163.0639	1163.5411	1202.3195	1260.4422	1267.5419	1313.737	1320.7307	1352.6728	1367.0543	1390.0732	1409.0521	1486.0066	1498.5593	1522.7821	1677.8936	2993.2165	3009.3214	3015.0786	3039.9866	3055.1906	3072.8168	3087.8473	3180.9812	3209.4494	3814.9621
OCC12OCC1CC=C2	OC[C@@]12OC[C@@H]1CC=C2	
InChI=1S/C7H10O2/c8-5-7-3-1-2-6(7)4-9-7/h1,3,6,8H,2,4-5H2	InChI=1S/C7H10O2/c8-5-7-3-1-2-6(7)4-9-7/h1,3,6,8H,2,4-5H2/t6-,7+/m0/s1
