19
gdb 738	2.8675962	1.3789953	1.0708427	4.4596	75.46	-0.25312	0.01568	0.26880000000000004	1151.1415	0.158273	-422.588533	-422.580476	-422.579532	-422.621305	30.918	
O	 0.9023009495	 0.0254909645	-0.8937483394	-0.322679
C	-0.0903114302	 0.0308227617	-0.2184769879	 0.410606
C	-0.907103301	-1.231690415	 0.0443312308	-0.417915
C	-1.8528756641	-1.1537873172	 1.2256471828	 0.370523
C	-1.4350396403	-1.7572100775	 2.5464076816	-0.30436
C	-2.5200159347	-2.4073187677	 1.71702479	-0.335128
C	-2.5881368953	 0.1685695842	 1.2262782182	-0.303206
C	-1.5645837383	 1.295018251	 1.2795596877	-0.058366
O	-0.5574676737	 1.2127252672	 0.2551671561	-0.231063
H	-1.4781926033	-1.4030753002	-0.8796038395	 0.138182
H	-0.1995576652	-2.0603253817	 0.1250898001	 0.134109
H	-0.4712572673	-2.2518234729	 2.604548165	 0.120107
H	-1.7279694211	-1.2506048927	 3.4604310011	 0.113326
H	-2.2875135624	-3.3409486583	 1.2149970364	 0.116821
H	-3.5435512841	-2.3369019938	 2.0706059235	 0.114336
H	-3.2029042725	 0.2634181715	 0.3216586215	 0.110076
H	-3.2578207679	 0.2579571381	 2.0883612029	 0.106298
H	-2.0301060769	 2.2742078573	 1.1417799017	 0.121413
H	-1.0550253111	 1.2938811315	 2.2513284075	 0.116919
81.3881	111.6746	205.4491	264.4211	336.3494	362.6083	440.2376	464.3602	494.6782	576.2865	645.823	739.3813	777.8249	795.4916	864.9915	908.9608	920.5467	965.2245	978.2458	997.4378	1012.4332	1055.7008	1083.6936	1098.4649	1105.4553	1174.3114	1186.589	1211.6051	1234.2851	1280.0897	1302.5394	1326.3809	1367.4434	1401.7873	1430.1849	1456.4388	1468.3849	1481.5628	1507.8631	1513.6741	1843.2749	3016.3882	3023.3213	3030.9699	3079.134	3098.1948	3102.6461	3125.6016	3130.4048	3204.2081	3218.544
O=C1CC2(CC2)CCO1	O=C1CC2(CC2)CCO1	
InChI=1S/C7H10O2/c8-6-5-7(1-2-7)3-4-9-6/h1-5H2	InChI=1S/C7H10O2/c8-6-5-7(1-2-7)3-4-9-6/h1-5H2
