19
gdb 1882	2.5645024	1.748045	1.2801395	2.9583	75.21	-0.23561	0.06209	0.2977	1048.4329	0.155323	-422.498349	-422.489905	-422.48896	-422.530871	32.236	
C	 1.7238719556	 2.5249937022	 0.7933468389	-0.5062
C	 1.9016295571	 1.062105829	 1.0392269925	 0.328086
O	 1.0099873086	 0.4109823334	 1.9534480084	-0.307753
C	 1.1293332153	-0.1442965183	 0.6356219378	 0.338181
C	-0.1196216371	-0.3635420816	-0.1537981064	-0.514423
C	 2.4425076035	-0.9922226763	 0.6290479462	 0.047829
O	 2.7573985431	-1.6953068328	 1.8396950149	-0.286404
C	 3.5243973173	-0.5685841704	 2.34182275	-0.084519
C	 3.2326967458	 0.2585447385	 1.0679181088	-0.172366
H	 2.0825558858	 3.1077079566	 1.6497574176	 0.133527
H	 2.2891553397	 2.8423554435	-0.0889616932	 0.124448
H	 0.6683935821	 2.7653411819	 0.6402714957	 0.13408
H	-0.6767923941	-1.2207911955	 0.2408099071	 0.140058
H	-0.7701717865	 0.5140454786	-0.1046435127	 0.131853
H	 0.1144838533	-0.5680860356	-1.2036389264	 0.123491
H	 2.6400454117	-1.5645177259	-0.2819626056	 0.075991
H	 3.1145438859	-0.1786302811	 3.2775537077	 0.114887
H	 4.5780916546	-0.8411001547	 2.4720743841	 0.09699
H	 4.0641215983	 0.6605726586	 0.4914875243	 0.082245
166.8159	175.63	181.4097	186.3829	250.2936	269.0146	328.2172	363.3425	557.6747	573.8517	576.8334	711.3163	734.1271	806.5339	819.8896	861.0255	888.4007	934.4179	954.5304	992.0387	1003.6236	1043.5573	1086.123	1105.8364	1133.6675	1158.8806	1171.8241	1184.7049	1215.5897	1239.6143	1287.7455	1306.4205	1352.5135	1407.8473	1408.7285	1469.8111	1475.194	1486.1348	1490.4422	1497.8407	1515.4995	3029.3304	3031.8411	3033.3363	3070.2893	3093.2593	3093.9251	3096.3259	3116.5337	3119.8352	3131.25
CC12OC1(C)C1OCC21	C[C@@]12O[C@]1(C)[C@@H]1OC[C@H]21	
InChI=1S/C7H10O2/c1-6-4-3-8-5(4)7(6,2)9-6/h4-5H,3H2,1-2H3	InChI=1S/C7H10O2/c1-6-4-3-8-5(4)7(6,2)9-6/h4-5H,3H2,1-2H3/t4-,5+,6-,7+/m0/s1
