19
gdb 4971	2.4332251	1.5116661	1.1905881	2.047	75.22	-0.22828	0.0712	0.29948	1114.7022	0.156149	-422.492057	-422.483445	-422.482501	-422.525257	32.438	
C	-1.7716456148	-3.243639169	 1.2388466234	-0.507874
C	-0.2909916074	-3.276930334	 1.4736742566	 0.2241
C	 0.7112860534	-4.3676256257	 1.0825180043	-0.282311
C	 1.7986553866	-3.3445808776	 1.4915766322	 0.020065
O	 1.628943259	-3.225530105	 2.9343968386	-0.296152
C	 0.4018401688	-2.5592211679	 2.6484383842	-0.015516
C	 0.7606488681	-2.1801010406	 1.2419608631	 0.227526
C	 0.7824847305	-0.897041519	 0.4840397545	-0.21459
O	 1.8315965893	-0.0284822172	 0.8900247918	-0.410807
H	-2.2077544645	-2.2918219621	 1.561742675	 0.119388
H	-2.0165201168	-3.3760764343	 0.1789521165	 0.122989
H	-2.2727930322	-4.0416776725	 1.7987894207	 0.128233
H	 0.7068287236	-5.3165410639	 1.6291806979	 0.098702
H	 0.7026088285	-4.5452084226	 0.0032899703	 0.101333
H	 2.8381332633	-3.4060895323	 1.1778288344	 0.09276
H	-0.1184148803	-2.0380127816	 3.4431852083	 0.102881
H	 0.951035168	-1.0772548042	-0.5841120726	 0.113531
H	-0.2039667946	-0.4113442908	 0.5734007311	 0.090343
H	 1.7915707017	 0.0389331104	 1.8500441195	 0.285399
90.5206	113.4524	199.3587	204.9988	258.7769	285.2118	331.6104	409.9439	489.806	552.1656	602.8945	650.7241	740.4903	813.428	861.3928	880.4832	921.9753	930.2124	955.8211	975.9798	1008.4283	1038.6387	1049.887	1095.2862	1107.3278	1141.0288	1164.1374	1200.8948	1229.1692	1231.0466	1247.7799	1295.5998	1341.4246	1360.115	1415.607	1420.1676	1455.1029	1485.7898	1490.1497	1497.9042	1502.618	2962.0363	3022.4112	3042.4397	3053.7348	3083.8833	3089.7692	3104.3766	3151.5993	3190.7502	3808.5958
CC12CC3OC1C23CO	C[C@]12C[C@@H]3O[C@H]1[C@]23CO	
InChI=1S/C7H10O2/c1-6-2-4-7(6,3-8)5(6)9-4/h4-5,8H,2-3H2,1H3	InChI=1S/C7H10O2/c1-6-2-4-7(6,3-8)5(6)9-4/h4-5,8H,2-3H2,1H3/t4-,5+,6-,7+/m0/s1
