19
gdb 3579	2.0767697	1.5050703	1.2958466	0.6504	77.27	-0.259	0.01439	0.27339	1118.9637	0.153187	-422.516921	-422.507004	-422.50606	-422.551305	36.783	
C	 0.3912856	 0.0990356884	-0.5201622506	-0.400361
C	 0.9629471153	-0.7297711026	 0.6127110091	 0.096135
O	 2.4149411332	-0.6644911858	 0.6814354966	-0.297209
C	 2.5700022065	-2.0505659323	 0.314685372	-0.145576
C	 3.1218346178	-2.2416023534	-1.0184051857	 0.315544
C	 3.5067243457	-2.4152915795	-2.1458416316	-0.422037
C	 1.0160165111	-2.2792583488	 0.4211201649	 0.32348
C	 0.5906312563	-3.0739782915	 1.6425952078	-0.428834
O	 0.3688930848	-2.8256732761	-0.6924670569	-0.462494
H	 0.6079676113	 1.1583823881	-0.3530936769	 0.12606
H	 0.8220864033	-0.1876389929	-1.4832715154	 0.115588
H	-0.6943143222	-0.0301217454	-0.5733765445	 0.125164
H	 0.5278697908	-0.4182636983	 1.5708194028	 0.076181
H	 3.1661055587	-2.5970218846	 1.0555178925	 0.103171
H	 3.8883025293	-2.5629884263	-3.1265368662	 0.207941
H	 0.866700396	-4.125927036	 1.5257158365	 0.126803
H	 1.0611324734	-2.6804356653	 2.5479794104	 0.125181
H	-0.4958169144	-3.0172989821	 1.7616100877	 0.129259
H	 0.883223613	-2.6137109457	-1.4821562324	 0.286002
55.0651	136.1253	179.6136	199.4503	229.4248	244.4598	282.7792	320.1492	341.2472	394.4605	428.7433	516.6483	532.4131	575.5697	647.6483	667.1319	674.8776	811.2087	856.2862	886.1486	973.4599	978.9032	1011.7377	1040.0391	1086.4048	1100.8662	1147.52	1161.126	1216.8222	1262.8656	1298.3393	1337.9138	1371.3826	1398.5451	1404.3794	1428.8372	1480.0874	1484.4129	1492.9897	1494.4533	2220.0298	3022.1765	3031.0648	3041.2809	3042.4165	3114.9178	3115.446	3121.2076	3122.6049	3497.0726	3758.6765
CC1OC(C#C)C1(C)O	C[C@@H]1O[C@H](C#C)[C@]1(C)O	
InChI=1S/C7H10O2/c1-4-6-7(3,8)5(2)9-6/h1,5-6,8H,2-3H3	InChI=1S/C7H10O2/c1-4-6-7(3,8)5(2)9-6/h1,5-6,8H,2-3H3/t5-,6+,7+/m0/s1
