19
gdb 3771	4.0018606	1.0558476	0.9961451	2.4234	76.27	-0.23347	0.08163	0.3151	1243.9779	0.156223	-422.474277	-422.466055	-422.46511	-422.507392	31.799	
O	 3.7161407038	 3.2841000147	 1.1604372971	-0.424622
C	 2.7304782522	 2.3964454955	 0.7203321787	 0.102334
C	 2.3090390212	 2.5344552207	-0.7069721141	-0.300751
C	 1.3483805577	 2.9226671108	 0.4026251345	-0.232758
C	 0.1560776879	 2.084075765	 0.6752187571	 0.440149
C	-0.6053039113	 1.8247642099	 2.0094533962	-0.260417
C	-1.1025005117	 0.8291174625	 0.9402477437	 0.050102
C	-1.1961779045	 1.9748761591	-0.0897127981	-0.256931
O	 0.3040800158	 0.6053421481	 0.5273635963	-0.344088
H	 3.5759121822	 3.441030756	 2.1000758549	 0.28476
H	 2.7861164863	 1.3869875773	 1.1244031004	 0.106612
H	 2.7612069596	 3.3407836231	-1.2725743482	 0.121017
H	 2.098427099	 1.6270853252	-1.2608451779	 0.131368
H	 1.2024846071	 3.9873908038	 0.5601772677	 0.092884
H	-0.0036238741	 1.3880481862	 2.8077987062	 0.102233
H	-1.2984423642	 2.5923596133	 2.3635763866	 0.092545
H	-1.7316182184	-0.0528084686	 1.0552456114	 0.095971
H	-1.1113779272	 1.6711066985	-1.1336235796	 0.107204
H	-1.9430077016	 2.7564366689	 0.0723787272	 0.09239
58.1714	122.7899	160.1345	289.8224	336.3553	374.3416	380.9886	455.119	524.9138	603.288	655.0469	734.2589	793.1878	841.8053	881.9091	901.4174	911.131	932.9698	951.4266	961.6865	986.5509	1012.6359	1067.0589	1078.3398	1092.2724	1100.3316	1115.0714	1143.5392	1157.7268	1179.9446	1212.0129	1218.3818	1240.7176	1242.6703	1275.5547	1296.3579	1381.4711	1438.1864	1465.4621	1491.1426	1516.2352	3057.17	3065.8725	3120.7584	3126.4909	3142.5326	3144.0618	3148.8492	3156.4353	3238.9802	3806.4769
OC1CC1C12CC(C1)O2	O[C@@H]1C[C@H]1[C@@]12C[C@@H](C1)O2	
InChI=1S/C7H10O2/c8-6-1-5(6)7-2-4(3-7)9-7/h4-6,8H,1-3H2	InChI=1S/C7H10O2/c8-6-1-5(6)7-2-4(3-7)9-7/h4-6,8H,1-3H2/t4-,5-,6-,7+/m1/s1
