19
gdb 1801	2.8253739	1.8208221	1.4349386	1.5032	73.4	-0.24	0.06536	0.30535999999999996	953.0474	0.159321	-422.533656	-422.526623	-422.525679	-422.564564	29.248	
O	 0.6738058446	 0.5652291023	 0.6542562963	-0.492526
C	-0.6809229907	 0.8128387245	 0.452491989	 0.40865
C	-1.5214151306	 1.7698950625	 1.3497919459	-0.303354
C	-2.438279874	 1.8126300381	 0.0933437983	-0.055778
C	-1.1198024392	 1.7074339322	-0.7425577766	-0.263772
C	-2.9550707323	 0.3638419059	-0.0437391121	-0.055238
C	-3.4836792135	-0.385946874	 1.1959452807	-0.11113
O	-2.1834513773	-0.9711846412	 1.4564726319	-0.310554
C	-1.632707861	-0.3840376955	 0.252573845	 0.058097
H	 0.7576906048	-0.0454104486	 1.3952574302	 0.286207
H	-1.9141444655	 1.3860810251	 2.2922846569	 0.106474
H	-1.0021481064	 2.7169810638	 1.5063470587	 0.101112
H	-3.1473992249	 2.6241277547	-0.0619480586	 0.068359
H	-1.1720428835	 1.2539484231	-1.737453372	 0.093246
H	-0.5564229565	 2.6415629212	-0.7774211585	 0.108548
H	-3.4743832074	 0.1756910635	-0.9839728367	 0.079677
H	-3.8425493956	 0.2232535654	 2.0340357033	 0.103122
H	-4.2271087057	-1.1609023543	 0.9730600631	 0.102221
H	-1.236792575	-1.1407456189	-0.4321597648	 0.076638
187.7253	257.9192	296.5796	309.5137	377.6055	441.1855	488.5332	559.2691	574.8159	672.8963	800.9259	803.3962	852.66	859.1979	887.3789	928.971	943.5603	976.4833	989.5657	1008.9514	1021.7119	1029.0157	1059.6141	1087.4834	1092.8043	1139.3026	1160.7875	1169.3505	1213.297	1223.8304	1227.7978	1235.3167	1274.9821	1295.5305	1333.6605	1344.7312	1359.6255	1375.627	1485.6232	1521.034	1527.7341	3017.2454	3053.0197	3060.2149	3061.3121	3080.676	3104.6882	3125.5223	3129.7266	3141.3433	3800.4705
OC12CC(C1)C1COC21	O[C@@]12C[C@@H](C1)[C@@H]1CO[C@H]21	
InChI=1S/C7H10O2/c8-7-1-4(2-7)5-3-9-6(5)7/h4-6,8H,1-3H2	InChI=1S/C7H10O2/c8-7-1-4(2-7)5-3-9-6(5)7/h4-6,8H,1-3H2/t4-,5-,6-,7-/m0/s1
