19
gdb 4278	2.286151	1.7520923	1.3790555	1.8238	73.99	-0.23909	-0.02631	0.21278	1021.4224	0.157913	-422.571925	-422.563832	-422.562888	-422.604703	30.585	
C	-0.4859762166	 2.0679845731	-1.2473406992	-0.405422
C	-0.8802628227	 1.3521848884	 0.058836511	-0.087772
C	-2.3286423846	 0.8186823872	 0.0711288876	-0.258186
C	-2.2386221367	-0.6572134558	-0.325162302	 0.12264
O	-2.026276825	-0.8543101873	-1.7491089871	-0.292661
C	-0.793546417	-1.5639433167	-1.5073513317	-0.084668
C	-0.8131676584	-1.1581377202	-0.0150684686	-0.186469
C	 0.001152486	 0.1050035793	 0.2678190169	 0.397719
O	 1.1617654109	 0.1216436862	 0.5897322172	-0.327295
H	-0.7194533569	 1.4473432547	-2.1165973684	 0.141148
H	-1.04234294	 3.0052331061	-1.346061611	 0.118762
H	 0.5827143426	 2.2998896968	-1.2502852813	 0.132632
H	-0.6899782198	 2.0319793011	 0.8950749703	 0.100246
H	-2.7566467365	 0.8844684235	 1.0783339939	 0.104245
H	-2.9936504369	 1.3636654172	-0.6053188338	 0.11683
H	-3.0806310702	-1.2594022644	 0.032646972	 0.077785
H	-0.9062097849	-2.6435606005	-1.668046025	 0.11078
H	 0.0354972696	-1.1922617004	-2.1191879589	 0.1192
H	-0.6319207029	-1.9402630085	 0.721369018	 0.100486
70.5526	133.8325	206.3727	250.4148	266.9281	327.4937	362.022	473.8657	557.1362	662.8843	693.3786	763.0538	801.1049	854.8873	871.9166	898.3985	953.9776	956.7735	981.5676	1022.7371	1040.6674	1056.3301	1111.6794	1115.2319	1151.5427	1168.5187	1203.5321	1206.5681	1257.2811	1268.7935	1286.8	1320.518	1340.3622	1359.005	1361.0723	1402.8257	1473.5041	1497.5591	1509.0296	1529.1696	1836.6795	3017.2593	3035.089	3041.0052	3051.1361	3063.093	3071.2223	3094.0891	3111.8609	3123.607	3128.2581
CC1CC2OCC2C1=O	C[C@H]1C[C@H]2OC[C@H]2C1=O	
InChI=1S/C7H10O2/c1-4-2-6-5(3-9-6)7(4)8/h4-6H,2-3H2,1H3	InChI=1S/C7H10O2/c1-4-2-6-5(3-9-6)7(4)8/h4-6H,2-3H2,1H3/t4-,5+,6+/m0/s1
