19
gdb 1753	2.5508934	1.6767246	1.5456619	2.4144	73.56	-0.2231	0.06876	0.29186	975.5161	0.158787	-422.52884	-422.521321	-422.520377	-422.560285	30.274	
O	 0.4758124569	 0.6011848552	 0.8078525722	-0.45975
C	-0.856983143	 0.6071589223	 0.44574138	 0.294021
C	-1.9870380851	-0.0745889952	 1.1725010248	-0.128945
C	-2.8557623154	-1.1208999528	 0.4893315039	-0.227336
C	-3.1621579577	-0.8177156401	-0.9927165212	-0.19446
C	-1.9661282749	-0.2164538075	-1.7522156755	-0.226005
C	-1.3837535784	 0.949237278	-0.9614275197	 0.046114
O	-2.4418572448	 1.7809568131	-0.3788623975	-0.301789
C	-2.0077459074	 1.4334874508	 0.9349185415	 0.026683
H	 0.7692037757	-0.3136288992	 0.8776312003	 0.287551
H	-1.7317305361	-0.2880101197	 2.2100797309	 0.087626
H	-2.3298977324	-2.0833150417	 0.5635104418	 0.091629
H	-3.797032249	-1.2480942907	 1.0369663993	 0.101676
H	-3.5006343148	-1.7333367932	-1.4885847059	 0.087547
H	-3.9845443128	-0.1003671476	-1.0469566881	 0.123184
H	-1.1705691425	-0.9587950952	-1.906579619	 0.093444
H	-2.2882223467	 0.1130364529	-2.7461731671	 0.103321
H	-0.6900817101	 1.5703395704	-1.5364558984	 0.08583
H	-2.1136656013	 2.1726836101	 1.7200386675	 0.109659
175.4486	192.9209	255.825	292.097	330.4176	371.8351	419.9002	484.6507	619.0632	641.4201	688.0785	714.8964	781.577	853.7781	863.7645	896.7438	935.0731	943.4526	956.6241	998.4888	1022.5642	1058.8522	1087.574	1089.7502	1114.7718	1166.8863	1194.6204	1215.4902	1237.499	1258.8356	1292.0159	1325.125	1331.2477	1349.8338	1369.9659	1383.2434	1393.2025	1478.7703	1482.3689	1497.5033	1501.8935	3003.9401	3016.1849	3046.1113	3053.8533	3061.4318	3070.4799	3104.5666	3122.0315	3187.9383	3797.4325
OC12C3CCCC1OC23	O[C@]12[C@@H]3CCC[C@H]1O[C@H]23	
InChI=1S/C7H10O2/c8-7-4-2-1-3-5(7)9-6(4)7/h4-6,8H,1-3H2	InChI=1S/C7H10O2/c8-7-4-2-1-3-5(7)9-6(4)7/h4-6,8H,1-3H2/t4-,5-,6+,7-/m1/s1
