19
gdb 1241	3.5653475	0.7517044	0.6519968	2.9114	78.6	-0.24496	-0.01824	0.22672	1708.6739	0.152287	-422.545022	-422.534135	-422.533191	-422.582604	37.954	
C	 5.8091236372	 0.1675471925	 3.6900043528	-0.403493
C	 5.1107806538	-0.8947326568	 2.8375588261	 0.040754
O	 4.1321780175	-1.6235888387	 3.5622548205	-0.433553
C	 4.4408039303	-0.2492749314	 1.6158109543	 0.363053
O	 5.0953856319	 0.4552621682	 0.880295629	-0.315408
C	 2.9724214612	-0.5379193635	 1.3795341629	-0.286426
C	 2.4369450363	 0.1544643578	 0.1172457918	-0.367251
C	 1.0242723243	-0.1227416048	-0.1092632294	 0.285809
C	-0.1412524794	-0.3651012095	-0.2758821869	-0.429932
H	 6.3816104075	-0.302075992	 4.4971197181	 0.109171
H	 6.4933564894	 0.7498736342	 3.069360371	 0.14902
H	 5.0723575041	 0.8424796483	 4.1364399441	 0.127726
H	 5.87325121	-1.5763878054	 2.4240805823	 0.100295
H	 4.5524859593	-1.9945027082	 4.3437958595	 0.289834
H	 2.8344357866	-1.6242761702	 1.3301847467	 0.146371
H	 2.412009419	-0.2349848406	 2.2715766799	 0.146445
H	 2.6009356736	 1.2348682425	 0.1989176465	 0.142955
H	 3.0277236411	-0.1640688719	-0.7489935101	 0.143073
H	-1.1703853738	-0.5703486704	-0.436115849	 0.191558
20.1878	60.4193	92.1352	98.0733	217.8486	235.1988	243.5899	272.7562	287.278	344.1919	407.2292	461.1119	517.5262	547.7223	605.8584	617.7245	638.3279	771.654	808.0613	901.2256	966.6768	978.5494	1023.2222	1054.9383	1096.184	1111.3518	1149.4152	1172.5144	1239.2646	1292.0787	1300.3537	1341.3245	1382.6913	1393.1445	1410.1013	1437.3901	1468.5667	1491.6446	1499.8934	1802.4524	2239.9908	2963.252	3037.3122	3042.4231	3054.7636	3067.156	3087.6117	3106.6537	3139.1931	3508.2266	3830.0369
CC(O)C(=O)CCC#C	C[C@@H](O)C(=O)CCC#C	
InChI=1S/C7H10O2/c1-3-4-5-7(9)6(2)8/h1,6,8H,4-5H2,2H3	InChI=1S/C7H10O2/c1-3-4-5-7(9)6(2)8/h1,6,8H,4-5H2,2H3/t6-/m1/s1
