19
gdb 4753	2.9231589	0.7639867	0.6431401	2.6166	82.7	-0.25123	0.01719	0.26842	1754.2051	0.154695	-422.50027	-422.489969	-422.489024	-422.538025	35.558	
C	-4.5417322125	-0.407594963	 1.1700264403	-0.39423
C	-3.2958807767	-1.2699846166	 0.8990830823	-0.156211
C	-3.1420852335	-2.3821089178	 1.9647385964	-0.046132
O	-2.0307625437	-3.216278256	 1.732395209	-0.420591
C	-2.0733199508	-0.4693254669	 0.8559810631	 0.104235
C	-1.0367380988	 0.1476691082	 0.8640002275	 0.056721
C	 0.1837989942	 0.9083338122	 0.8820896959	-0.115757
C	 1.3060600389	 0.6020221094	-0.0274923547	-0.160038
O	 1.3692189428	 0.237181009	 1.3452305719	-0.21689
H	-4.4639269042	 0.0953406428	 2.1386281939	 0.128749
H	-4.6632401777	 0.3583864087	 0.4002923382	 0.129022
H	-5.4399560719	-1.032971457	 1.1773024111	 0.120004
H	-3.4127493049	-1.7717438821	-0.0707639561	 0.113869
H	-3.1042123102	-1.9149981589	 2.9618500992	 0.092518
H	-4.0261419941	-3.0272529583	 1.9306971451	 0.10916
H	-1.2455715869	-2.655411129	 1.7407796294	 0.290491
H	 0.0935554263	 1.9326844662	 1.2420849922	 0.118403
H	 1.2030592847	-0.2227896807	-0.7298132652	 0.125681
H	 1.9734522089	 1.4062218997	-0.3348505895	 0.120996
11.2239	56.9995	103.4655	140.7192	183.7315	200.2046	227.1115	268.755	398.0801	428.8825	463.7895	495.776	539.5868	581.5724	690.8963	828.8852	854.7533	904.8635	935.8113	974.8286	1041.6371	1081.0624	1087.1658	1103.6436	1128.8992	1154.1606	1161.9342	1190.9445	1215.4123	1281.395	1296.7586	1358.3445	1384.5195	1404.7608	1407.9378	1429.9055	1492.2846	1500.0442	1505.1023	1519.2559	2353.9728	2977.5363	3022.052	3041.8238	3077.2129	3086.3301	3113.5104	3115.1168	3123.5124	3180.2714	3782.6994
CC(CO)C#CC1CO1	C[C@H](CO)C#C[C@@H]1CO1	
InChI=1S/C7H10O2/c1-6(4-8)2-3-7-5-9-7/h6-8H,4-5H2,1H3	InChI=1S/C7H10O2/c1-6(4-8)2-3-7-5-9-7/h6-8H,4-5H2,1H3/t6-,7+/m0/s1
