19
gdb 4785	2.1414971	1.2119742	0.8268137	1.5297	78.39	-0.24924	-0.02819	0.22105	1392.5714	0.152385	-422.531811	-422.520926	-422.519982	-422.568491	37.821	
C	-0.3165295362	 2.8104763701	-0.714910653	-0.39738
C	-1.0212399107	 2.0302479238	 0.3977634018	-0.201417
C	-0.0982260537	 1.023201295	 1.1205160406	-0.073433
C	 0.1993502686	-0.1344838322	 0.1872669009	 0.164707
O	 1.2226833567	-0.2821872447	-0.4284613245	-0.251805
C	-0.7607249033	 0.5096256178	 2.4277385111	-0.068199
O	-1.1001522296	 1.5759239884	 3.3058962267	-0.414428
C	 0.0836566057	-0.4884776965	 3.0888195543	 0.277065
C	 0.8170506256	-1.2754028375	 3.6256190749	-0.420665
H	 0.1094521931	 2.1447200257	-1.471524989	 0.13497
H	-1.0162820354	 3.4870000399	-1.2144287078	 0.117357
H	 0.5030310509	 3.4147006254	-0.3117220555	 0.120324
H	-1.4161189706	 2.7142018673	 1.1546716764	 0.126598
H	-1.8866312577	 1.4900756932	-0.0114008788	 0.099037
H	 0.8557168954	 1.5019790209	 1.3698557348	 0.09324
H	-0.6500371487	-0.8491237829	 0.0647881355	 0.074782
H	-1.7222989953	 0.0483433187	 2.1668293027	 0.122988
H	-0.2864225072	 1.8752480942	 3.7272142887	 0.288947
H	 1.4520302222	-1.9833077364	 4.09944005	 0.207312
52.7508	63.7664	92.4432	115.0786	192.3852	206.7633	241.4838	258.7064	299.9075	338.4776	378.1563	415.1459	483.0676	582.1545	588.7762	639.3064	684.9629	778.6105	875.3695	922.2085	967.7909	981.5425	1037.3922	1066.1579	1105.321	1116.0501	1157.4344	1224.4631	1258.9469	1285.0812	1327.3087	1355.4077	1365.7454	1417.6449	1419.9717	1432.9541	1493.7072	1498.677	1506.9977	1831.8337	2232.6374	2841.3757	3014.1739	3026.7599	3038.7417	3055.7671	3084.2847	3106.6328	3115.7811	3500.267	3803.883
CCC(C=O)C(O)C#C	CC[C@H](C=O)[C@H](O)C#C	
InChI=1S/C7H10O2/c1-3-6(5-8)7(9)4-2/h2,5-7,9H,3H2,1H3	InChI=1S/C7H10O2/c1-3-6(5-8)7(9)4-2/h2,5-7,9H,3H2,1H3/t6-,7-/m1/s1
