19
gdb 5984	4.5793206	1.0242213	0.945052	2.5011	75.74	-0.22472	0.07798	0.30269999999999997	1292.4979	0.156176	-422.470058	-422.461725	-422.460781	-422.503579	30.874	
C	 1.4250624064	 0.5352517359	-0.0743424307	-0.220123
O	 0.0471376045	 0.7453647196	 0.121113488	-0.239049
C	-0.5149941083	-0.1301649814	 1.078564587	-0.205751
C	-1.9706750682	 0.1858199772	 1.2071789721	 0.28591
C	-2.9881629196	-0.4092421519	 2.1807892276	-0.302858
C	-3.9256988538	 0.721696708	 1.6825323417	 0.067624
O	-4.1933104079	 0.3607760588	 0.2986002908	-0.29935
C	-2.8323811355	 0.7054167632	 0.038732654	 0.071003
C	-2.6559977846	 1.5519643408	 1.2533375051	-0.181857
H	 1.6351826341	-0.482339091	-0.4398286678	 0.106197
H	 1.7631419824	 1.2564160613	-0.8222217566	 0.128882
H	 1.9970369646	 0.6904018372	 0.854159048	 0.105273
H	-0.3774033598	-1.1818317999	 0.7684355468	 0.091557
H	-0.0022309102	-0.0133653452	 2.0502919727	 0.087637
H	-3.3398658775	-1.4350410405	 2.0274444975	 0.099209
H	-2.684132907	-0.2557393541	 3.2201696982	 0.101123
H	-4.8073666962	 1.050570403	 2.2281340318	 0.086352
H	-2.4864643826	 0.8101193996	-0.9794201039	 0.117252
H	-2.2983092507	 2.5576084894	 1.4229815277	 0.100967
73.9635	84.2781	125.631	222.0394	270.4039	341.006	389.1492	443.5213	539.7377	681.5093	750.3672	773.7565	798.2698	841.211	900.627	915.5957	930.8111	969.3738	985.1893	1017.6915	1040.0958	1041.1869	1090.6194	1127.5162	1154.3372	1158.72	1161.9482	1187.8998	1192.3229	1220.0025	1235.307	1260.5512	1287.5481	1302.1441	1404.6102	1433.4303	1480.9789	1484.7456	1490.1193	1503.3863	1525.804	2933.8585	2955.7936	2971.9632	3015.6305	3041.6981	3104.1948	3116.175	3146.2879	3212.9871	3233.1152
COCC12CC3OC1C23	COC[C@]12C[C@@H]3O[C@H]1[C@H]23	
InChI=1S/C7H10O2/c1-8-3-7-2-4-5(7)6(7)9-4/h4-6H,2-3H2,1H3	InChI=1S/C7H10O2/c1-8-3-7-2-4-5(7)6(7)9-4/h4-6H,2-3H2,1H3/t4-,5+,6-,7-/m0/s1
