19
gdb 1113	3.2044362	1.0717612	1.020725	3.2298	77.12	-0.24321	-0.01805	0.22516	1265.9727	0.155236	-422.536527	-422.527372	-422.526428	-422.571134	32.806	
C	 1.9423358429	 3.0672938488	 1.4158425399	-0.484244
C	 1.2123674491	 3.1157615845	 0.0883894445	 0.394148
O	 0.1991674668	 3.7679033824	-0.0684051147	-0.331523
C	 1.7920221766	 2.3064077835	-1.0229369565	-0.198592
C	 1.5899650749	 2.8199566992	-2.4475938978	-0.346435
C	 0.823170998	 1.6441471103	-1.9883310922	 0.303927
C	-0.6828263223	 1.4647988355	-1.8322505002	-0.127895
O	-0.5797708648	 0.1002644842	-2.3113112347	-0.277684
C	 0.8467027546	 0.2032867104	-2.4870058723	-0.138915
H	 1.427108573	 3.6886973803	 2.1488524306	 0.143314
H	 1.9980240022	 2.0343583331	 1.7788930509	 0.141736
H	 2.9744772222	 3.41558344	 1.2933695619	 0.141216
H	 2.7120228259	 1.7703605446	-0.8109094639	 0.089313
H	 1.0587644885	 3.7628148254	-2.5290099604	 0.141487
H	 2.4074165691	 2.6736569634	-3.1459761524	 0.120001
H	-1.0772019284	 1.5170708715	-0.8124691754	 0.115551
H	-1.3023775555	 2.0863400985	-2.4893793386	 0.109964
H	 1.3947898902	-0.5153661718	-1.8628558723	 0.100711
H	 1.1467383569	 0.0696809662	-3.5352915961	 0.103921
54.2557	103.0516	130.9922	141.7106	161.0181	303.6445	319.3736	370.4642	404.0919	529.3108	597.6966	637.8995	781.9129	837.7507	868.4902	893.5962	936.0981	942.0119	968.5104	1020.708	1026.2922	1033.8899	1051.4882	1078.1846	1117.6244	1121.8362	1147.8659	1158.4365	1185.4515	1232.7475	1305.7449	1323.9761	1368.8226	1384.3466	1432.2054	1462.6702	1474.7484	1485.6989	1509.5425	1533.0163	1782.7017	2996.7021	3030.4933	3033.1861	3037.2832	3078.7017	3092.6827	3127.5615	3153.3653	3157.7299	3222.5985
CC(=O)C1CC11COC1	CC(=O)[C@@H]1CC21COC2	
InChI=1S/C7H10O2/c1-5(8)6-2-7(6)3-9-4-7/h6H,2-4H2,1H3	InChI=1S/C7H10O2/c1-5(8)6-2-7(6)3-9-4-7/h6H,2-4H2,1H3/t6-/m0/s1
