19
gdb 3476	2.3241816	1.7231294	1.3394427	2.617	75.1	-0.24855	-0.00638	0.24217	1035.963	0.157754	-422.552144	-422.543918	-422.542973	-422.584804	31.885	
C	 1.3621569528	-0.61832081	-1.0346435841	-0.402587
C	 1.2352617954	 0.1340876442	 0.3046498438	-0.055783
C	 1.8567754575	-0.6701448244	 1.4244767208	-0.068237
C	 3.1070270686	-0.4870261959	 1.8513775489	-0.089917
C	 3.9730101224	 0.5532736151	 1.2431458757	 0.025682
O	 3.8021662652	 1.9190907484	 1.7029126523	-0.265074
C	 3.3507219806	 1.5719720194	 0.3863377439	-0.013651
C	 1.8182395244	 1.5658716127	 0.2323205728	 0.09638
O	 1.2291201762	 2.3984525496	 1.2119325062	-0.442831
H	 0.9367537557	-1.6239629317	-0.9622071668	 0.119893
H	 0.8354716133	-0.0852927801	-1.8332687363	 0.118432
H	 2.4119763505	-0.7270164474	-1.3275046531	 0.120147
H	 0.1698958687	 0.2656794244	 0.5247410135	 0.094514
H	 1.2467167068	-1.4552122997	 1.8654108916	 0.098765
H	 3.5281092081	-1.0969714342	 2.6450599533	 0.096676
H	 5.0189187445	 0.2940767204	 1.0849059112	 0.099793
H	 3.9309748398	 2.0281073784	-0.4131798673	 0.100668
H	 1.5617377158	 1.991943514	-0.7452766819	 0.074888
H	 1.8519611737	 2.4145401069	 1.9523150753	 0.292245
69.3978	158.6236	218.3566	259.8897	300.2389	359.5103	418.2348	454.3612	492.1567	527.8909	585.2617	673.7644	743.4244	771.216	815.4231	848.146	893.328	920.4258	968.8522	997.3214	1010.6433	1027.6155	1069.8576	1082.4729	1107.0123	1137.4631	1171.3282	1191.4997	1277.7319	1281.635	1309.933	1328.1642	1353.2227	1386.1156	1398.5389	1427.2679	1449.398	1462.4655	1494.2382	1498.4962	1708.3055	3027.2558	3032.0074	3045.2475	3101.6261	3105.1171	3117.6956	3131.1821	3149.8727	3178.3229	3734.2633
CC1C=CC2OC2C1O	C[C@H]1C=C[C@@H]2O[C@@H]2[C@@H]1O	
InChI=1S/C7H10O2/c1-4-2-3-5-7(9-5)6(4)8/h2-8H,1H3	InChI=1S/C7H10O2/c1-4-2-3-5-7(9-5)6(4)8/h2-8H,1H3/t4-,5-,6+,7-/m0/s1
