19
gdb 3603	2.4561487	1.3321773	0.9358813	0.8962	78.29	-0.25479	0.0268	0.28159	1281.2816	0.154398	-422.533122	-422.523521	-422.522576	-422.568065	34.84	
C	 2.5069113199	 0.3159677454	 3.5549148762	-0.40479
C	 2.5119088046	 0.4818682294	 2.051793515	 0.239488
O	 1.5841259877	-0.4040638118	 1.4326751067	-0.295554
C	 0.8475876487	 0.3128538747	 0.4434423409	 0.123961
C	 0.81502411	-0.4454032137	-0.8721669092	-0.408575
C	 1.5870790852	 1.6759320598	 0.3880938308	-0.09218
O	 2.1159979308	 1.7913186309	 1.7044392239	-0.266391
C	 0.7432462037	 2.810439221	 0.0553723324	 0.304691
C	 0.0288585938	 3.7230791742	-0.2593980644	-0.42049
H	 2.7793889219	-0.7102659742	 3.8135865102	 0.12905
H	 3.2299777031	 0.998115008	 4.0098726136	 0.12793
H	 1.5102451186	 0.5327215222	 3.9465734953	 0.131565
H	 3.5151937278	 0.2773362129	 1.6341996515	 0.065017
H	-0.17398895	 0.4802495149	 0.8099163945	 0.088141
H	 0.3336540967	-1.4176474492	-0.739352006	 0.131975
H	 0.2486292454	 0.1191207214	-1.6200457998	 0.127016
H	 1.8288461795	-0.6126910733	-1.2489997259	 0.120511
H	 2.4129527052	 1.6050107994	-0.3409086685	 0.096507
H	-0.5971212828	 4.5381964478	-0.5276472571	 0.202126
41.0993	91.5473	136.2857	210.1786	227.1408	238.1869	259.0391	348.0672	422.4882	474.339	506.3381	538.8097	613.3887	629.1033	678.4236	702.1917	832.9382	882.2389	906.7188	936.4557	1009.1158	1076.7172	1105.9127	1118.8833	1125.136	1135.3239	1152.2559	1171.7928	1285.5336	1340.7246	1353.9928	1385.3108	1395.2775	1398.9257	1408.0184	1439.4577	1483.7908	1484.4264	1486.7446	1496.9376	2247.2217	2928.2579	2951.1154	3015.9332	3039.9567	3053.246	3113.5724	3123.054	3132.826	3139.3072	3503.1173
CC1OC(C)C(O1)C#C	C[C@H]1O[C@H](C)[C@H](O1)C#C	
InChI=1S/C7H10O2/c1-4-7-5(2)8-6(3)9-7/h1,5-7H,2-3H3	InChI=1S/C7H10O2/c1-4-7-5(2)8-6(3)9-7/h1,5-7H,2-3H3/t5-,6+,7-/m1/s1
