19
gdb 2047	2.8833101	1.5406744	1.3203705	1.554	75.17	-0.22744	0.06863	0.29607	1037.9267	0.156917	-422.510997	-422.502894	-422.50195	-422.543646	31.435	
O	 2.4981471206	 0.0119434939	 2.2190870655	-0.460724
C	 2.3083023119	-0.562690332	 0.9851960409	 0.381868
C	 2.591764305	-2.0004461123	 0.7292681187	-0.33406
C	 3.2718349842	-0.9676726932	-0.1487169333	-0.141455
C	 2.2655326135	-0.4493940333	-1.185397579	-0.303176
C	 1.337719784	 0.0240522865	-0.0302895797	 0.369455
C	-0.1972292652	-0.0959626699	 0.0464265837	-0.367955
C	-0.1743722817	 1.4285328575	 0.2508727375	-0.074183
O	 1.26693574	 1.4698339891	 0.1161102167	-0.334046
H	 2.4388453316	 0.9659608194	 2.0670743892	 0.290447
H	 3.2359601596	-2.4506651534	 1.4785256894	 0.123354
H	 1.8375952653	-2.6743724333	 0.3244595352	 0.101739
H	 4.3499036969	-0.8979023389	-0.2146204181	 0.09177
H	 2.617432613	 0.4129598671	-1.7560412762	 0.117694
H	 1.8460599323	-1.1945858039	-1.8711414607	 0.092441
H	-0.6747397168	-0.4316786037	-0.8757554101	 0.113184
H	-0.5715739299	-0.6858793085	 0.8849979517	 0.118985
H	-0.6658888069	 2.0282174533	-0.5231186154	 0.107631
H	-0.4989748572	 1.7808057656	 1.236618114	 0.107029
75.1936	123.6953	199.0865	233.4328	349.1624	402.6907	433.0099	467.9233	514.1854	545.1273	659.5307	777.1935	786.0026	849.8062	853.2009	864.4071	902.0573	916.0528	960.8718	983.194	1001.168	1016.0761	1023.8165	1100.3528	1107.0635	1140.0621	1155.8102	1170.2724	1200.9886	1213.2149	1227.8172	1257.9458	1259.3474	1298.6427	1349.4926	1379.4903	1433.4769	1472.0739	1483.3978	1509.4415	1527.8179	3026.7665	3034.5144	3069.59	3077.6898	3089.3347	3111.1156	3132.9421	3190.6545	3199.9672	3743.0882
OC12CC1CC21CCO1	O[C@]12C[C@H]1C[C@]12CCO1	
InChI=1S/C7H10O2/c8-7-4-5(7)3-6(7)1-2-9-6/h5,8H,1-4H2	InChI=1S/C7H10O2/c8-7-4-5(7)3-6(7)1-2-9-6/h5,8H,1-4H2/t5-,6+,7-/m1/s1
