19
gdb 1921	3.6553865	1.1389661	1.0252902	2.5895	76.92	-0.2472	-0.03712	0.21008	1215.4525	0.154925	-422.545131	-422.536204	-422.53526	-422.578429	33.957	
C	 1.1219538959	 2.6342176306	-3.7042229215	-0.500777
C	 1.1724323937	 1.862870366	-2.4181834073	 0.37373
C	-0.0166075649	 1.6440076465	-1.5307726915	-0.34639
C	 1.1938626111	 2.3512800537	-0.966458432	-0.151139
C	 2.3240240539	 1.3635142667	-0.6077725903	 0.341682
O	 3.5396868587	 2.0111234598	-0.3614296092	-0.486455
C	 2.2366919038	 0.8024593316	-2.0795655559	-0.357105
C	 2.038879975	 0.3903193833	 0.5114116012	 0.108771
O	 2.8149692016	 0.221094901	 1.4238565914	-0.279503
H	 0.8178132213	 1.9918795409	-4.5397516643	 0.121557
H	 0.4016946651	 3.4566113437	-3.642105115	 0.119927
H	 2.1001950422	 3.061266833	-3.9507736924	 0.125805
H	-0.8633127686	 2.2978927723	-1.7174255192	 0.117379
H	-0.3040858146	 0.6468596169	-1.2065444225	 0.104967
H	 1.1519258696	 3.3581720482	-0.5681275961	 0.098325
H	 3.8796582157	 1.618316995	 0.4590832485	 0.290857
H	 3.2020690176	 0.9834615425	-2.5548920049	 0.129391
H	 1.9470765647	-0.2447392538	-2.2232846318	 0.093085
H	 1.0823668982	-0.1641142379	 0.4612940026	 0.095892
83.8944	116.9896	206.3723	232.5703	289.3037	314.8883	344.3018	393.7816	406.7628	451.421	479.5323	501.7807	646.1877	768.7782	810.1462	839.807	861.3115	890.6501	942.2697	955.4183	996.9392	1016.0894	1044.6336	1060.6119	1081.3327	1090.6173	1103.8354	1158.2953	1224.564	1232.6286	1278.0528	1289.2239	1389.7033	1390.1813	1424.0325	1448.3933	1468.4826	1485.6954	1497.7771	1508.381	1799.3355	2954.5097	3021.9825	3037.7355	3082.1851	3098.5071	3109.373	3126.9846	3184.4172	3194.7117	3676.2035
CC12CC1C(O)(C2)C=O	C[C@]12C[C@H]1[C@](O)(C2)C=O	
InChI=1S/C7H10O2/c1-6-2-5(6)7(9,3-6)4-8/h4-5,9H,2-3H2,1H3	InChI=1S/C7H10O2/c1-6-2-5(6)7(9,3-6)4-8/h4-5,9H,2-3H2,1H3/t5-,6-,7+/m1/s1
