19
gdb 2970	2.390576	1.5013241	1.0624233	2.4572	77.49	-0.24076	-0.02773	0.21303	1164.4549	0.1553	-422.540941	-422.53177	-422.530826	-422.57456	33.903	
C	 0.9728217598	-0.6947595293	-0.7436050784	-0.433552
C	 0.8922891802	 0.115062463	 0.5308999651	-0.045783
C	 1.7468964833	 1.3164530908	 0.705438887	-0.10263
C	 1.3631272734	 2.0886004129	 1.973393478	-0.281179
C	 1.5893870995	 0.7994110317	 2.8320323337	 0.078993
O	 2.5530642314	 0.900600012	 3.85388683	-0.43081
C	 2.0312306899	 0.0468120911	 1.5585369052	 0.187874
C	 3.1621654138	-0.8868776095	 1.4837178331	 0.03777
O	 3.7357460083	-1.2289585889	 0.470649359	-0.280054
H	 0.6271059011	-1.7198692701	-0.5778119994	 0.123869
H	 0.3341266889	-0.2451318794	-1.5113099752	 0.118219
H	 1.9970765347	-0.7469268886	-1.1150354765	 0.156883
H	-0.1031152186	 0.1510027503	 0.9760824449	 0.088562
H	 2.3689702327	 1.6821049298	-0.1035090834	 0.107458
H	 2.0942039816	 2.8543909706	 2.247700986	 0.10569
H	 0.3647817212	 2.5377913386	 1.9864745555	 0.106754
H	 0.6964981158	 0.3955137635	 3.3194392417	 0.09323
H	 3.3434833032	 1.3147594742	 3.4883417917	 0.281053
H	 3.4871943	-1.2705461627	 2.4753326323	 0.087656
103.9013	125.3693	183.2197	203.5419	228.5206	250.2571	266.112	345.3231	408.6408	430.2464	488.5962	559.1661	712.0834	736.1753	752.5506	872.2689	891.8407	930.196	979.8072	999.5569	1014.9721	1041.7669	1053.725	1089.8163	1132.3344	1145.0575	1174.4515	1205.0666	1239.8247	1264.8783	1272.6014	1296.5981	1354.9858	1414.8292	1427.1985	1430.2455	1435.5037	1482.431	1495.0148	1505.4127	1781.1279	2893.8216	3041.03	3045.4216	3061.3183	3088.6924	3099.8736	3101.9289	3148.5243	3183.0131	3790.0224
CC1C2CC(O)C12C=O	C[C@@H]1[C@H]2C[C@H](O)[C@@]12C=O	
InChI=1S/C7H10O2/c1-4-5-2-6(9)7(4,5)3-8/h3-6,9H,2H2,1H3	InChI=1S/C7H10O2/c1-4-5-2-6(9)7(4,5)3-8/h3-6,9H,2H2,1H3/t4-,5-,6+,7+/m1/s1
