19
gdb 2646	2.4765996	1.5336677	1.127368	2.5214	76.23	-0.23433	0.06133	0.29566000000000003	1118.7913	0.15635	-422.47605	-422.467597	-422.466653	-422.508849	32.556	
O	-2.2119287202	 1.6790607685	-0.4244470296	-0.426184
C	-1.2766209392	 0.9795273986	 0.3500386412	-0.068974
C	-1.4082616708	-0.5257850532	 0.350095754	-0.068982
O	-0.2130140557	-1.2480852668	 0.2333364968	-0.426175
C	-1.7039712247	 0.2585340637	 1.5896789229	 0.404917
C	-1.1396245834	 0.2073713185	 3.0226590464	-0.130157
C	-2.3142573266	-0.7666566902	 3.3529118871	-0.214176
C	-2.9488489096	 0.3693293935	 2.4910905318	-0.130211
C	-2.1221239252	 1.373838869	 3.3542533863	-0.214184
H	-2.4451135813	 2.4837366362	 0.0497563377	 0.287052
H	-0.2515292049	 1.3515207793	 0.3083820766	 0.093869
H	-2.2554502906	-0.913312134	-0.218252801	 0.093867
H	-0.2824613374	-2.0266426411	 0.7952741209	 0.287051
H	-0.0946305232	 0.1154185564	 3.3185287532	 0.080223
H	-2.2759038591	-1.7608599102	 2.900251899	 0.0851
H	-2.6266995028	-0.8132439828	 4.400059212	 0.090822
H	-3.9878782252	 0.4607538244	 2.1747516248	 0.080216
H	-1.8977294572	 2.3450234228	 2.9056320918	 0.085103
H	-2.4203454429	 1.4739282174	 4.4018001681	 0.090823
122.4965	127.8936	196.1599	218.442	274.7433	314.3837	331.5227	441.4111	469.1311	528.303	629.1955	664.9952	793.8093	808.5592	891.5164	900.9856	911.4504	960.9505	964.5957	1015.3196	1019.3985	1025.0516	1044.3424	1085.6002	1098.1003	1110.3527	1111.8545	1159.3068	1165.756	1182.5698	1195.1007	1225.7963	1242.3172	1246.2952	1278.8648	1299.219	1357.1008	1363.5573	1492.4429	1492.6593	1532.8739	3045.6237	3049.0919	3087.865	3093.3235	3111.5427	3114.434	3115.2998	3117.6793	3808.4753	3808.9992
OC1C(O)C11C2CC1C2	O[C@@H]1[C@@H](O)[C@]21[C@@H]1C[C@H]2C1	
InChI=1S/C7H10O2/c8-5-6(9)7(5)3-1-4(7)2-3/h3-6,8-9H,1-2H2	InChI=1S/C7H10O2/c8-5-6(9)7(5)3-1-4(7)2-3/h3-6,8-9H,1-2H2/t3-,4+,5-,6-/m1/s1
