19
gdb 4456	2.948818	1.5101687	1.2311112	1.0953	74.64	-0.23247	0.06425	0.29672	1052.3779	0.1577	-422.476606	-422.468962	-422.468018	-422.508803	30.551	
O	 0.2765400716	-0.2429008781	 0.5410174206	-0.43929
C	-0.9846327305	 0.332351042	 0.8109934628	 0.084092
C	-1.2841781909	 0.4843594587	 2.3676554966	-0.224379
C	-2.1417572198	 1.784785032	 2.6153634964	-0.377783
C	-2.3575813111	 2.2339756855	 1.1916201299	 0.444749
C	-3.3923668248	 1.7200593546	 0.1456762273	-0.273283
C	-2.265027032	 2.47356906	-0.5740739803	-0.001149
O	-2.3644341985	 3.5418131772	 0.4782376122	-0.371491
C	-1.1981411702	 1.7687706362	 0.3271155074	-0.042504
H	 0.9545195391	 0.3766764822	 0.8323078178	 0.276389
H	-1.7008240697	-0.3648293169	 0.3709654535	 0.098013
H	-1.7769863997	-0.4117669734	 2.7519647366	 0.113922
H	-0.3239300751	 0.559101723	 2.8880614603	 0.10374
H	-3.0655505922	 1.5882103232	 3.1650939968	 0.110946
H	-1.5684813362	 2.5309300572	 3.1729950902	 0.122311
H	-3.4986319752	 0.6455574512	-0.0157215533	 0.103207
H	-4.3501814561	 2.2405347026	 0.1630707482	 0.107474
H	-2.1986535936	 2.8268674272	-1.6030722718	 0.095069
H	-0.3007911753	 2.3841202655	 0.4602146687	 0.069968
57.29	218.4673	275.8653	288.7629	329.693	426.8032	454.7825	534.9455	572.0271	598.498	689.9079	697.8674	777.5244	828.7087	886.5256	899.8619	926.85	936.1361	978.8869	989.5803	1034.6207	1042.9602	1053.0061	1091.4177	1118.7951	1125.1401	1172.4054	1192.138	1201.9851	1217.2384	1234.5515	1265.4275	1271.1788	1292.6711	1303.0793	1346.9382	1384.7197	1441.0689	1477.2447	1497.4581	1501.3159	3046.9699	3052.891	3064.1144	3072.7552	3087.3075	3100.127	3117.4478	3120.0024	3151.6813	3800.1334
OC1CCC23CC(O2)C13	O[C@H]1CC[C@@]23C[C@@H](O2)[C@H]13	
InChI=1S/C7H10O2/c8-4-1-2-7-3-5(9-7)6(4)7/h4-6,8H,1-3H2	InChI=1S/C7H10O2/c8-4-1-2-7-3-5(9-7)6(4)7/h4-6,8H,1-3H2/t4-,5+,6-,7-/m0/s1
