19
gdb 2503	2.6992908	1.8917523	1.396336	2.5757	74.39	-0.22583	0.07921	0.30504	975.6371	0.158094	-422.513863	-422.506374	-422.50543	-422.545287	29.836	
C	 0.0496342503	-0.2404592851	 0.0195550785	-0.468077
C	 1.5534839904	-0.0897967096	 0.1287620697	 0.246274
C	 2.2595760164	-1.3477398994	 0.6164608395	-0.128246
O	 3.6647331311	-1.2563174784	 0.7606056692	-0.241096
C	 4.1448750172	-0.0605378696	 1.3367640027	-0.092727
C	 3.5776420703	 1.1576860005	 0.6206159876	 0.073281
O	 3.5849254962	 0.9444060822	-0.8228289596	-0.293308
C	 2.16096277	 0.9187849524	-0.8257609898	 0.06596
C	 2.043337105	 1.2471275355	 0.6418985999	-0.200446
H	-0.3922339157	-0.5051595078	 0.9871840434	 0.121949
H	-0.4185352518	 0.6919539547	-0.312371222	 0.120235
H	-0.2190669028	-1.0238408594	-0.6981188748	 0.123892
H	 1.7968268781	-1.628606703	 1.5809617308	 0.082129
H	 2.0927153858	-2.1778593175	-0.0794022485	 0.110406
H	 3.9024777073	 0.011339892	 2.4121850963	 0.086099
H	 5.233400204	-0.104110497	 1.2333691137	 0.115377
H	 4.103154986	 2.0800074177	 0.8860577351	 0.084678
H	 1.6531884106	 1.3028471352	-1.7038606514	 0.102584
H	 1.4417320017	 1.9686402366	 1.1795929698	 0.091037
175.9183	210.3978	235.3592	294.9452	306.2712	359.6019	417.5815	478.7648	554.4077	682.3736	738.5489	767.0436	829.964	875.5994	890.335	901.2655	931.3692	983.6618	1021.6723	1024.7417	1039.1104	1044.4715	1070.2168	1103.6189	1139.0958	1153.9845	1184.3021	1234.0762	1251.6087	1276.1328	1295.666	1326.2257	1340.0083	1385.378	1411.6535	1415.0168	1440.8651	1485.8657	1490.6784	1495.9489	1507.1923	2929.342	2953.4127	3023.7499	3055.9896	3062.5653	3082.3858	3085.482	3097.5436	3170.647	3191.4946
CC12COCC3OC1C23	C[C@@]12COC[C@H]3O[C@@H]1[C@@H]23	
InChI=1S/C7H10O2/c1-7-3-8-2-4-5(7)6(7)9-4/h4-6H,2-3H2,1H3	InChI=1S/C7H10O2/c1-7-3-8-2-4-5(7)6(7)9-4/h4-6H,2-3H2,1H3/t4-,5+,6-,7+/m1/s1
