19
gdb 3863	4.090467	1.0308213	1.0171336	2.144	75.98	-0.24816	0.06266	0.31082	1267.0625	0.155622	-422.494751	-422.486228	-422.485284	-422.528217	31.851	
C	 3.0982605822	-0.7762948017	-1.6467954916	-0.409076
C	 2.172288685	 0.073424763	-0.7862285458	 0.005165
C	 1.9847526727	-0.4450407818	 0.6885974631	-0.333271
C	 2.6488901923	 0.8518592546	 1.1845396296	 0.442252
O	 1.8624081401	 1.9389608146	 0.6870642035	-0.292112
C	 2.8199683061	 1.3404440303	-0.1966354433	-0.046027
C	 3.4584785058	 1.0715759369	 2.4093569327	-0.072844
C	 3.1541819883	 2.1586851602	 3.3524444673	-0.172464
O	 4.250073518	 2.2572011269	 2.4410717479	-0.229163
H	 4.0530517441	-0.9610226778	-1.1410629737	 0.116302
H	 2.6446733592	-1.7475218936	-1.8694516669	 0.121744
H	 3.3167774542	-0.2815302126	-2.5993112834	 0.119996
H	 1.2356813456	 0.283451358	-1.3111950503	 0.084245
H	 0.9618270758	-0.6043414556	 1.0375036731	 0.108431
H	 2.5839254234	-1.3387092588	 0.8860207469	 0.105605
H	 3.5757229929	 1.9921971648	-0.6210078175	 0.111556
H	 3.9591971056	 0.1784297405	 2.7858296293	 0.092706
H	 2.3147223143	 2.8142655387	 3.134032955	 0.133097
H	 3.4254828445	 2.0544797333	 4.402025104	 0.113855
63.3521	104.9138	175.1951	231.0577	250.5699	300.006	359.4524	440.3373	502.7635	510.072	667.6699	734.6905	821.1276	857.7506	861.0359	887.7835	914.0456	926.7272	947.7534	992.8752	1036.0344	1071.0918	1094.2687	1098.0692	1118.4367	1143.2336	1164.813	1167.6953	1202.0119	1229.2975	1239.1557	1272.5886	1283.1524	1347.3783	1403.5237	1412.0943	1463.4404	1483.8356	1496.1057	1499.2172	1518.9323	3026.8301	3057.5958	3062.558	3090.1269	3094.5496	3100.9529	3102.6941	3117.9197	3185.6473	3189.9473
CC1CC2(OC12)C1CO1	C[C@H]1C[C@@]2(O[C@H]12)[C@@H]1CO1	
InChI=1S/C7H10O2/c1-4-2-7(5-3-8-5)6(4)9-7/h4-6H,2-3H2,1H3	InChI=1S/C7H10O2/c1-4-2-7(5-3-8-5)6(4)9-7/h4-6H,2-3H2,1H3/t4-,5-,6+,7+/m0/s1
