19
gdb 1258	2.0148962	1.5166227	1.2450658	1.1136	77.1	-0.24776	0.01747	0.26523	1137.4686	0.154025	-422.509141	-422.499292	-422.498348	-422.543813	36.036	
C	 0.9215594572	 1.5774594107	 4.1737211903	-0.418725
C	-0.4065608115	 1.8768445221	 3.4858372325	 0.082292
O	-1.312491171	 2.5889340256	 4.3130414284	-0.437144
C	-0.2231305469	 2.6266381592	 2.1466608413	 0.2306
C	-1.4575912505	 2.5852660891	 1.2026336646	-0.335669
C	-0.5525955048	 1.746753599	 0.2813935333	-0.072516
O	 0.5542820242	 1.8319692875	 1.209529118	-0.314141
C	 0.3469081507	 3.9533050771	 2.3699571032	 0.303196
C	 0.7955291785	 5.048595362	 2.5868897792	-0.461709
H	 0.7453458839	 1.0047461034	 5.0879153717	 0.120835
H	 1.571843019	 1.0014183076	 3.5099055119	 0.138193
H	 1.4392859971	 2.505714698	 4.4382003105	 0.119419
H	-0.9123066631	 0.9345905808	 3.2464571672	 0.088677
H	-0.9015697939	 3.4373113136	 4.5213021036	 0.282924
H	-2.3207739458	 2.0760497098	 1.6317441887	 0.128192
H	-1.7631605753	 3.5522597227	 0.8053271597	 0.122939
H	-0.8612249917	 0.7085225656	 0.1153832883	 0.108118
H	-0.305254079	 2.2044263759	-0.6828986686	 0.111121
H	 1.2020504329	 6.0157591502	 2.7552848661	 0.203397
70.0644	86.2007	139.1339	175.4138	198.8585	243.1745	310.1454	324.824	374.5189	428.6126	481.3444	525.5369	562.298	623.5238	668.7625	672.7659	783.8816	850.7221	885.2643	935.1602	967.9756	1009.8621	1018.0109	1040.8462	1087.5464	1111.297	1158.2599	1159.6095	1203.2621	1239.9389	1255.7054	1304.3933	1345.5853	1363.0693	1400.1467	1419.3839	1489.1338	1490.7249	1497.6912	1529.586	2221.6708	3028.3836	3040.9914	3049.4631	3070.3871	3095.2299	3114.4971	3129.5216	3155.237	3496.3556	3776.9062
CC(O)C1(CCO1)C#C	C[C@@H](O)[C@@]1(CCO1)C#C	
InChI=1S/C7H10O2/c1-3-7(6(2)8)4-5-9-7/h1,6,8H,4-5H2,2H3	InChI=1S/C7H10O2/c1-3-7(6(2)8)4-5-9-7/h1,6,8H,4-5H2,2H3/t6-,7+/m1/s1
