19
gdb 3978	2.7871612	1.4745206	1.2900723	2.3963	77.72	-0.23475	0.00721	0.24195999999999998	1073.6606	0.156543	-422.524782	-422.516321	-422.515377	-422.557647	32.193	
C	-0.0514868209	 1.4817179161	 0.2530661422	-0.398131
C	 0.0583275043	-0.0101912166	 0.0158069305	 0.075081
O	-1.1809337381	-0.7338761367	 0.3418138509	-0.31975
C	-0.4433140526	-1.7298107511	 1.1054533379	 0.121314
C	-0.6518427943	-1.954109775	 2.6246604316	 0.061189
O	-1.4382997411	-0.8935589483	 3.127769348	-0.418214
C	 0.8333743066	-1.8674862612	 3.1334977886	-0.279911
C	 1.4618410688	-0.8477087428	 2.1821387748	-0.203743
C	 0.7625623606	-0.8554740096	 1.0542846258	 0.178127
H	 0.9106345334	 1.9693835456	 0.0625909187	 0.115446
H	-0.7959833641	 1.9179537837	-0.419968616	 0.12701
H	-0.3543497601	 1.6704418515	 1.2855096342	 0.138054
H	 0.3422552827	-0.227749001	-1.0234328947	 0.081729
H	-0.4171950304	-2.6858761333	 0.56442322	 0.075269
H	-1.1083180789	-2.9280543621	 2.8548388454	 0.058636
H	-1.4952219902	-0.9989851733	 4.0825966241	 0.283232
H	 0.8688597643	-1.5360909675	 4.1783368249	 0.097023
H	 1.3203884163	-2.8519648591	 3.0993569231	 0.108296
H	 2.2541126336	-0.1689645295	 2.4734869501	 0.099343
82.9975	146.0087	214.3831	239.8451	258.2014	272.6461	374.3529	392.4514	495.2329	501.9658	644.6553	727.6532	787.8002	823.3766	847.6682	854.2391	867.2053	894.9855	928.1523	982.8733	1017.4813	1052.6615	1067.682	1082.2969	1111.2387	1144.1562	1185.3417	1191.4703	1232.6801	1264.8184	1273.6207	1309.6405	1342.1461	1348.2052	1384.4418	1400.0127	1426.7456	1474.1906	1479.8519	1495.205	1740.0514	2985.969	3000.5279	3006.7976	3017.3704	3038.9571	3056.6084	3108.7782	3134.2127	3204.2404	3818.6104
CC1OC2C(O)CC=C12	C[C@@H]1O[C@@H]2[C@H](O)C[CH][C]12	
InChI=1S/C7H10O2/c1-4-5-2-3-6(8)7(5)9-4/h2,4,6-8H,3H2,1H3	InChI=1S/C7H10O2/c1-4-5-2-3-6(8)7(5)9-4/h2,4,6-8H,3H2,1H3/t4-,6+,7-/m0/s1
