19
gdb 862	3.1613748	1.38652	1.1679909	2.7776	74.91	-0.24851	-0.02778	0.22073	1090.7918	0.158075	-422.554419	-422.546659	-422.545715	-422.587065	29.6	
O	 1.3729385164	-0.577170284	-0.0496570416	-0.2487
C	 0.4060113551	 0.1152666168	 0.1319371754	 0.140451
C	 0.1088417391	 1.3811928572	-0.6637441359	 0.032665
O	-1.2255528234	 1.7424946678	-0.3413329619	-0.280241
C	-1.9048577536	 2.5373406436	-1.3127834426	-0.070715
C	-1.4487873259	 2.2088363037	-2.7381068432	-0.029768
C	-1.0374558054	 0.7091086953	-2.7924784007	-0.229609
C	 0.308518179	 1.1893761902	-2.1748774	-0.026701
C	 0.0594632804	 2.55013511	-2.8760073704	-0.241562
H	-0.353880997	-0.1099946443	 0.9119189677	 0.094436
H	 0.818152151	 2.1513228622	-0.3059690577	 0.095371
H	-2.9690366485	 2.315705279	-1.17691245	 0.110273
H	-1.7525516006	 3.6086258007	-1.1046978798	 0.093827
H	-2.1518967988	 2.6062898808	-3.473739847	 0.068576
H	-1.6391365025	-0.0107383761	-2.2325355179	 0.104807
H	-0.9034934487	 0.3616495478	-3.818981001	 0.103037
H	 1.2291030763	 0.6362139931	-2.3637090569	 0.091468
H	 0.4281144504	 3.4568963155	-2.3843387112	 0.091157
H	 0.3915388168	 2.5408449607	-3.9172022954	 0.101228
67.0938	121.7007	194.0257	250.189	372.0641	395.3591	421.8106	544.291	582.312	616.1357	779.4687	830.8923	837.6651	871.051	889.7289	929.0229	963.4589	965.9212	991.7689	1046.5074	1066.8403	1070.1873	1104.59	1113.0974	1125.606	1155.2872	1192.259	1238.5592	1250.6893	1270.4072	1292.8674	1304.4058	1321.4157	1338.0942	1358.6432	1393.1949	1410.0102	1479.5092	1506.2133	1515.7617	1836.6957	2901.4344	2926.6367	2977.4728	3042.2275	3062.231	3066.0403	3084.0254	3103.153	3112.5267	3124.5192
O=CC1OCC2CC1C2	O=C[C@@H]1OC[C@@H]2C[C@H]1C2	
InChI=1S/C7H10O2/c8-3-7-6-1-5(2-6)4-9-7/h3,5-7H,1-2,4H2	InChI=1S/C7H10O2/c8-3-7-6-1-5(2-6)4-9-7/h3,5-7H,1-2,4H2/t5-,6+,7-/m0/s1
