19
gdb 681	2.7783416	1.5069692	1.1709947	4.2344	73.89	-0.26673	0.01233	0.27906000000000003	1089.1871	0.159956	-422.605989	-422.598383	-422.597439	-422.638473	29.227	
O	 1.2364622417	 0.2891765679	 0.1716474496	-0.330126
C	 0.0563462012	 0.1397149028	 0.1533194003	 0.446422
O	-0.6406008451	-1.0347471161	 0.0399971691	-0.257577
C	-1.9353557057	-0.3242618151	-0.0366664177	 0.111202
C	-2.5885119081	-0.5145054907	-1.4128822125	-0.22115
C	-2.9328565651	 0.8079433262	-2.1178513271	-0.195348
C	-1.7263544677	 1.7546587359	-2.1428010135	-0.202624
C	-1.3567954389	 2.1951214685	-0.7197938114	-0.226479
C	-1.1964219203	 1.0138271834	 0.2378646397	-0.205664
H	-2.5732915669	-0.6673301333	 0.7798998894	 0.096717
H	-1.8762353439	-1.0713400794	-2.0312660581	 0.126664
H	-3.479503109	-1.1430671808	-1.3204477834	 0.104797
H	-3.275511721	 0.5908336774	-3.1347744563	 0.103261
H	-3.770272272	 1.3030665281	-1.6071874528	 0.096609
H	-0.8739710024	 1.2503443659	-2.6173283841	 0.111028
H	-1.9449317695	 2.6386432371	-2.7506764436	 0.10105
H	-0.4317296858	 2.7816550166	-0.7135196481	 0.123039
H	-2.1474638138	 2.8529412702	-0.3389096719	 0.103522
H	-1.3253464677	 1.3395375954	 1.2746111226	 0.114656
78.6097	101.1439	206.9314	320.4361	377.6927	431.5614	458.0322	500.7008	599.9647	669.4066	757.5902	778.8205	790.3766	854.8274	878.2057	883.7881	948.5079	954.7721	1005.1145	1054.7071	1080.9856	1095.8528	1127.2259	1143.246	1160.839	1172.1121	1235.0247	1278.0398	1292.0127	1317.428	1331.1314	1353.8189	1370.0735	1381.5818	1389.053	1393.7502	1481.5369	1486.6003	1491.9162	1501.1255	1930.6162	3014.6716	3023.5204	3029.7894	3045.362	3066.2114	3071.5789	3074.0483	3079.2617	3083.4048	3099.9809
O=C1OC2CCCCC12	O=C1O[C@@H]2CCCC[C@H]12	
InChI=1S/C7H10O2/c8-7-5-3-1-2-4-6(5)9-7/h5-6H,1-4H2	InChI=1S/C7H10O2/c8-7-5-3-1-2-4-6(5)9-7/h5-6H,1-4H2/t5-,6+/m0/s1
