19
gdb 4091	2.8221921	1.4195759	1.0663238	1.8412	76.2	-0.24353	0.00293	0.24645999999999998	1155.7602	0.157162	-422.554932	-422.54657	-422.545626	-422.587869	31.761	
C	 0.2273425969	-0.4052397432	-0.3568850478	-0.405083
C	 0.8732884627	 0.721476038	 0.4241531555	 0.151117
O	 2.2095390278	 1.01786349	-0.0556202589	-0.319029
C	 2.7658048575	 0.8547204456	 1.2778932259	 0.096627
C	 3.0493683827	 2.1535172611	 1.9806089472	-0.083764
C	 2.1120260157	 2.4493391038	 2.8805775857	-0.066008
C	 1.0344522676	 1.394183255	 2.9824092688	 0.05977
O	 1.0968438331	 0.8119902769	 4.283263411	-0.4383
C	 1.3974090991	 0.4139634767	 1.848701357	-0.137292
H	-0.7697929252	-0.6263276613	 0.0406282508	 0.111193
H	 0.1208602251	-0.1266417275	-1.409930664	 0.128005
H	 0.83540265	-1.3135286488	-0.3029429691	 0.120182
H	 0.2409939046	 1.6213454498	 0.3848447684	 0.070284
H	 3.6114058174	 0.1590809698	 1.2607890168	 0.080965
H	 3.9108995007	 2.7678541626	 1.7437322434	 0.104026
H	 2.092532727	 3.3317194447	 3.510500881	 0.104552
H	 0.0358552358	 1.8331930514	 2.8213667805	 0.068622
H	 0.3182418529	 0.2571224186	 4.3956812704	 0.280756
H	 1.2939534088	-0.627847323	 2.1561649673	 0.073379
76.1505	164.5993	210.1164	233.2701	261.2891	285.945	359.4557	375.359	495.8391	565.3968	684.8744	742.8999	800.881	833.6635	867.8433	907.6685	908.7812	946.9726	972.0164	991.483	1017.9216	1030.6207	1059.3232	1091.2552	1114.9559	1126.9786	1139.8384	1204.6853	1228.8456	1246.7354	1279.3762	1307.9201	1327.19	1345.3946	1368.7872	1387.3971	1406.0817	1430.3261	1482.1422	1494.3562	1677.9704	2959.0875	2986.4124	3031.2976	3050.081	3100.7393	3102.9099	3112.8922	3187.62	3212.0244	3812.4695
CC1OC2C=CC(O)C12	C[C@@H]1O[C@H]2C=C[C@H](O)[C@@H]12	
InChI=1S/C7H10O2/c1-4-7-5(8)2-3-6(7)9-4/h2-8H,1H3	InChI=1S/C7H10O2/c1-4-7-5(8)2-3-6(7)9-4/h2-8H,1H3/t4-,5-,6-,7+/m0/s1
