19
gdb 3193	2.6415651	1.7924054	1.5374706	2.3829	73.73	-0.23915	0.07817	0.31732	956.7138	0.158374	-422.534186	-422.526876	-422.525931	-422.565357	30.135	
C	 2.1594052188	-3.9839081019	-1.1064967347	-0.513187
C	 1.3087123901	-2.7554947539	-1.018033802	 0.471382
O	 1.7349233083	-1.6315182546	-1.8291743918	-0.350752
C	 0.3924255144	-1.1120559999	-1.5589003143	 0.015296
C	-0.1783171348	-2.5665487272	-1.4213827144	-0.119594
C	-0.6126386733	-2.7966203818	 0.0373270449	-0.261274
C	 0.7692008025	-2.1859316563	 0.3829596686	-0.172277
C	 0.5692418525	-0.7175262454	-0.0709053908	 0.191767
O	 1.6497433421	 0.1505392484	 0.1357678644	-0.457406
H	 1.7143190764	-4.8009794607	-0.5304768037	 0.128356
H	 2.2702286859	-4.3079919442	-2.1453953405	 0.13143
H	 3.1566622576	-3.7875915257	-0.6980217999	 0.133048
H	 0.0551160593	-0.3760156536	-2.2866765778	 0.083862
H	-0.633874878	-3.0327077191	-2.2939746908	 0.077744
H	-1.4996457239	-2.2849001096	 0.4214075141	 0.099133
H	-0.6840024239	-3.8642274342	 0.2606998518	 0.104494
H	 1.2762783007	-2.3567895737	 1.3308680384	 0.072088
H	-0.3147693344	-0.2590880362	 0.3798635953	 0.082943
H	 2.3351363396	-0.1558089204	-0.4760147868	 0.282946
177.7122	208.7961	270.1248	303.3601	356.7274	433.9249	496.6462	552.435	599.3578	613.0434	712.6427	750.5812	814.7384	846.6127	862.1366	873.0017	888.0731	925.7329	937.434	969.5441	989.5397	1038.0388	1064.7765	1105.719	1122.2423	1138.7822	1155.0688	1163.8063	1202.8464	1213.9436	1251.4519	1268.2653	1280.6727	1299.4253	1323.5961	1357.2312	1416.9788	1450.8875	1476.7253	1493.4236	1503.7553	3036.7549	3054.9864	3081.8878	3104.8073	3108.1345	3116.4862	3126.1996	3137.6355	3141.8145	3729.7202
CC12OC3C1CC2C3O	C[C@@]12O[C@H]3[C@@H]1C[C@@H]2[C@H]3O	
InChI=1S/C7H10O2/c1-7-3-2-4(7)6(9-7)5(3)8/h3-6,8H,2H2,1H3	InChI=1S/C7H10O2/c1-7-3-2-4(7)6(9-7)5(3)8/h3-6,8H,2H2,1H3/t3-,4+,5-,6+,7+/m1/s1
