19
gdb 2704	2.4860472	1.6500316	1.3473089	2.8393	74.86	-0.24822	0.06992	0.31814	1035.2687	0.155854	-422.523498	-422.51489	-422.513946	-422.555875	33.778	
C	-2.1785191231	-0.9829580063	-0.8653812474	-0.510321
C	-1.9417602001	-0.0611611115	 0.2940546894	 0.298285
C	-2.4791671002	-0.3449995337	 1.7097161262	-0.120951
C	-1.6449084241	 0.4538337856	 2.7152801811	-0.323722
C	-1.5970471157	 1.5539197508	 1.6261575526	 0.357193
O	-1.3508293833	 2.8808971703	 1.9127865803	-0.474801
C	-2.8996848821	 0.8987065281	 0.9643873284	-0.228723
C	-0.7868292796	 0.9232052003	 0.4652562233	 0.070914
O	 0.53085588	 0.4734747454	 0.6603837503	-0.444901
H	-1.403226196	-1.7554845174	-0.9218688994	 0.123423
H	-3.1461237384	-1.4889327552	-0.7802921173	 0.117846
H	-2.1702722359	-0.4355941018	-1.8145138094	 0.122821
H	-3.0768815345	-1.2260298576	 1.9050247461	 0.087705
H	-2.2585174237	 0.7664759223	 3.5675972847	 0.092846
H	-0.6913046782	 0.0566891778	 3.0872004597	 0.082212
H	-1.8492400756	 3.1263015226	 2.6994752894	 0.281881
H	-3.8612719849	 1.2795758784	 0.6532588834	 0.093673
H	-0.7496959256	 1.6275448096	-0.3716297533	 0.092595
H	 0.510024311	-0.2516220974	 1.2931011019	 0.282025
165.5377	183.3774	210.8991	252.6439	265.3235	304.4083	314.4949	366.0854	396.3452	525.2948	575.2081	608.2741	649.4406	722.089	805.1633	831.5616	858.8963	894.4988	911.668	940.9289	974.9531	1022.9651	1033.8423	1067.7573	1072.0912	1106.0236	1123.42	1148.0611	1164.5013	1223.8607	1232.8772	1274.4873	1284.7182	1336.6403	1391.1751	1401.2516	1422.5658	1456.5561	1486.4019	1498.2905	1504.0843	3012.9058	3024.904	3071.0277	3077.0706	3086.1014	3094.7393	3196.8632	3227.0809	3806.9493	3819.3407
CC12C3CC(O)(C13)C2O	C[C@]12[C@H]3C[C@](O)([C@@H]13)[C@H]2O	
InChI=1S/C7H10O2/c1-6-3-2-7(9,4(3)6)5(6)8/h3-5,8-9H,2H2,1H3	InChI=1S/C7H10O2/c1-6-3-2-7(9,4(3)6)5(6)8/h3-5,8-9H,2H2,1H3/t3-,4+,5-,6-,7-/m0/s1
