19
gdb 5909	1.9252266	1.2328474	0.9815904	1.4296	79.04	-0.25291	-0.03222	0.22069000000000003	1328.7833	0.151923	-422.518973	-422.508047	-422.507103	-422.555353	37.678	
C	 1.4264647191	-0.0869514391	-0.0720454253	-0.227187
O	 0.0246462396	-0.0099937386	 0.0405486226	-0.241762
C	-0.3918181463	 0.725660146	 1.1653974242	-0.063568
C	-1.9293820655	 0.7290024848	 1.2036127839	-0.062209
C	-2.517251528	 1.3320941375	-0.0979435511	-0.421237
C	-2.4135677219	 1.5980101123	 2.3763382474	 0.151075
O	-1.6960748953	 2.2569327388	 3.0795645853	-0.251078
C	-2.4674696771	-0.6130006751	 1.4288050045	 0.343018
C	-2.9503390384	-1.6889343707	 1.6619506389	-0.490507
H	 1.8777736463	-0.5837091744	 0.8006938217	 0.109669
H	 1.6494132409	-0.6718774287	-0.9673465074	 0.129375
H	 1.8831517824	 0.9101100037	-0.1736601722	 0.10675
H	 0.0022796309	 0.2876636753	 2.0943882483	 0.105037
H	-0.0343991469	 1.765595949	 1.1156788264	 0.101753
H	-2.2145888901	 0.7183123171	-0.9469330018	 0.15728
H	-3.6091848039	 1.3623842115	-0.0544635441	 0.127109
H	-2.1401315557	 2.3490029783	-0.2449612261	 0.125967
H	-3.51591949	 1.5741744859	 2.5177470971	 0.097352
H	-3.3580375401	-2.6517756635	 1.8489507777	 0.203164
68.5544	76.0685	100.2227	137.4325	172.3048	182.4999	221.4225	235.5594	280.3477	339.4178	358.0367	401.6751	496.8535	563.0094	623.4579	631.7728	652.1442	760.7794	906.2435	922.6507	982.0291	1010.195	1030.5837	1135.6596	1165.8367	1182.4064	1195.3787	1227.3812	1235.5311	1289.149	1391.8973	1407.5373	1424.6129	1479.7883	1485.3947	1486.5158	1495.7958	1501.5504	1520.5702	1831.0808	2230.5154	2899.7407	2971.5893	2986.617	3018.7863	3022.7297	3046.0864	3117.8857	3119.2008	3151.4588	3500.7174
COCC(C)(C=O)C#C	COC[C@](C)(C=O)C#C	
InChI=1S/C7H10O2/c1-4-7(2,5-8)6-9-3/h1,5H,6H2,2-3H3	InChI=1S/C7H10O2/c1-4-7(2,5-8)6-9-3/h1,5H,6H2,2-3H3/t7-/m0/s1
