19
gdb 4233	2.6785522	1.8892066	1.6875744	0.1924	72.48	-0.23866	0.06065	0.29931	911.9296	0.159228	-422.528601	-422.521663	-422.520719	-422.559483	28.523	
C	-1.6854360496	-0.3782255442	 2.005585955	-0.414365
C	-0.3385082688	-0.5151095775	 1.2858753852	 0.029156
C	 0.8424777245	 0.2064080278	 2.0092593996	-0.232602
C	 1.0677539815	 1.549883521	 1.3225343212	 0.053901
O	-0.2346417848	 2.2057549657	 1.1632431369	-0.303534
C	-0.3261762772	 1.629029524	-0.141732691	 0.06618
C	 1.168560042	 1.3582932419	-0.2424078693	 0.067756
O	 0.9993682558	 0.0031961866	-0.6588066669	-0.307318
C	-0.3705523144	 0.0497653353	-0.1360303788	 0.045822
H	-1.6416772714	-0.8490563494	 2.9932056738	 0.113426
H	-1.9523862465	 0.6719084444	 2.1417162225	 0.141874
H	-2.4846268234	-0.8716928172	 1.4406593363	 0.107584
H	-0.0960403092	-1.5802255059	 1.1981667145	 0.080799
H	 0.6164541251	 0.3614283462	 3.0687778325	 0.103943
H	 1.7579019475	-0.3898652057	 1.9471443435	 0.111407
H	 1.7884316276	 2.205351793	 1.8167252975	 0.079805
H	-0.9659258903	 2.1767250238	-0.8339938229	 0.089923
H	 1.9240017122	 1.9132761071	-0.7989088105	 0.089058
H	-1.0741787206	-0.451371017	-0.8057222193	 0.077188
172.2102	232.5074	258.0468	350.7122	417.8718	422.2912	482.7976	612.2668	705.451	745.2106	762.2161	803.3974	824.2039	848.9656	879.6272	917.7158	961.4624	981.231	995.9879	1007.8895	1039.9373	1042.1557	1092.0725	1101.2282	1133.9817	1148.7267	1191.4745	1218.6478	1241.8332	1256.4572	1286.2631	1304.9377	1318.7714	1342.7339	1357.3404	1367.0666	1371.2323	1409.9912	1472.8985	1496.5459	1515.4547	3032.0006	3036.1639	3052.2387	3077.4989	3085.9208	3092.3261	3097.1842	3108.2137	3121.4167	3133.6436
CC1CC2OC3C2OC13	C[C@@H]1C[C@@H]2O[C@H]3[C@@H]2O[C@@H]13	
InChI=1S/C7H10O2/c1-3-2-4-6-7(8-4)5(3)9-6/h3-7H,2H2,1H3	InChI=1S/C7H10O2/c1-3-2-4-6-7(8-4)5(3)9-6/h3-7H,2H2,1H3/t3-,4+,5+,6-,7-/m1/s1
