19
gdb 1803	2.2090007	1.6895276	1.4900921	2.3983	75.75	-0.25318	-0.03226	0.22092	1012.8474	0.15554	-422.525659	-422.516944	-422.516	-422.558692	33.251	
C	-0.056570864	 0.1460048239	 0.2990751549	-0.494646
C	 1.4496212886	 0.0432176135	 0.0329301625	 0.205403
C	 2.0698639417	-0.5243451832	 1.287779375	 0.080611
O	 2.5575952601	-1.6297370017	 1.35287029	-0.266867
C	 2.196961684	 1.2010204919	-0.7307656828	-0.11431
C	 1.5248266986	 0.6867588397	-2.0476586769	-0.280727
C	 2.0103347566	-0.5746971173	-1.2971378733	 0.395207
O	 1.8421838613	-1.8702725728	-1.7255926513	-0.477325
C	 3.3488381446	 0.2051375686	-1.0333712939	-0.302827
H	-0.2451610818	 0.6263225887	 1.2666660347	 0.1212
H	-0.5818835943	 0.7291598187	-0.4580715995	 0.133057
H	-0.507779028	-0.8513687579	 0.3335531214	 0.138399
H	 1.998086687	 0.1138048662	 2.1991515772	 0.081602
H	 2.2906211789	 2.2355311915	-0.4079888845	 0.084345
H	 0.4520854627	 0.8278440904	-2.1732088439	 0.099074
H	 2.0617855281	 0.9308038231	-2.9672037636	 0.100694
H	 2.1617343964	-2.4355563997	-1.0097523188	 0.29299
H	 3.9746041696	-0.1227410317	-0.203080855	 0.108658
H	 3.9458892301	 0.4271785579	-1.9201571223	 0.095463
98.6954	133.0279	145.1541	201.1887	299.7702	355.2484	365.4407	404.5664	453.3775	498.006	564.2595	606.3184	664.9322	732.5585	790.7751	816.1339	918.6287	929.6838	946.1208	955.8158	985.3902	1013.3092	1038.0863	1064.1285	1111.8067	1128.4111	1142.0052	1175.6472	1190.821	1215.1736	1216.8218	1250.641	1327.3245	1389.2016	1407.3947	1419.7337	1489.0856	1494.4271	1516.5288	1555.3301	1797.0051	2861.7808	3032.8211	3073.2327	3078.5334	3089.8393	3132.0108	3142.4381	3145.0042	3149.686	3772.3686
CC1(C=O)C2CC1(O)C2	C[C@]1(C=O)[C@@H]2C[C@@]1(O)C2	
InChI=1S/C7H10O2/c1-6(4-8)5-2-7(6,9)3-5/h4-5,9H,2-3H2,1H3	InChI=1S/C7H10O2/c1-6(4-8)5-2-7(6,9)3-5/h4-5,9H,2-3H2,1H3/t5-,6-,7-/m0/s1
