19
gdb 2992	4.7195821	0.8689963	0.7882843	1.8864	75.96	-0.23913	0.07003	0.30916	1437.5806	0.155972	-422.491889	-422.483166	-422.482222	-422.525781	32.154	
O	-0.8273870281	 0.6478980833	-4.0560516545	-0.443871
C	-0.2558929787	-0.5345876123	-4.5377331323	 0.148727
C	-0.1162728359	-1.704673704	-3.6111381856	-0.108343
C	 0.3804247233	-2.9362537651	-4.3721854745	-0.26486
C	 1.6430849285	-2.1301655246	-4.8476851536	-0.024014
C	 2.9420685344	-2.6783287469	-4.3264224974	 0.091688
C	 4.2214701223	-2.4503763081	-5.0099903399	-0.190063
O	 3.5577579304	-3.7130984736	-5.0976617517	-0.242612
C	 1.1258838233	-0.9059601519	-4.0776005729	-0.125543
H	-0.6134473623	 0.7364862233	-3.121161543	 0.283566
H	-0.5516321936	-0.6785501411	-5.575339847	 0.101104
H	-0.6157026926	-1.7100182966	-2.6479146449	 0.082899
H	 0.6563607823	-3.767466948	-3.7186475247	 0.113764
H	-0.2797553309	-3.3170350831	-5.1580316583	 0.102543
H	 1.7267597933	-1.9939008385	-5.9321230888	 0.07436
H	 2.9693235377	-2.8548714368	-3.2483646216	 0.089656
H	 4.2402175179	-1.8686954733	-5.9310395633	 0.113892
H	 5.150170938	-2.4472216669	-4.440803964	 0.11438
H	 1.7391844506	-0.1909924758	-3.5385279221	 0.082729
66.5347	106.6266	153.7633	159.2345	262.9823	311.342	332.1353	362.4057	477.8339	506.9092	739.2618	792.9427	806.7733	861.7717	876.7525	905.3935	925.6193	955.1613	981.4546	996.8262	1017.1334	1043.5028	1094.2818	1101.2931	1115.5486	1142.5151	1155.5175	1156.4761	1174.893	1192.2652	1229.6761	1246.8416	1271.642	1285.7309	1292.469	1313.9188	1355.1994	1450.6605	1453.9654	1491.019	1530.5005	3036.5183	3049.591	3079.1169	3083.5932	3104.2232	3125.3068	3156.5186	3167.0046	3167.9572	3811.3711
OC1C2CC(C3CO3)C12	O[C@@H]1[C@H]2C[C@H]([C@@H]3CO3)[C@@H]12	
InChI=1S/C7H10O2/c8-7-4-1-3(6(4)7)5-2-9-5/h3-8H,1-2H2	InChI=1S/C7H10O2/c8-7-4-1-3(6(4)7)5-2-9-5/h3-8H,1-2H2/t3-,4+,5+,6-,7-/m1/s1
