19
gdb 2628	2.2674161	1.5674799	1.1115928	4.3363	77.82	-0.24837	0.0073	0.25567	1154.8351	0.156572	-422.605029	-422.595872	-422.594927	-422.639345	33.146	
C	 0.0245304932	 1.9482152547	-1.200618729	-0.398392
C	-0.1400448526	 1.2819400871	 0.1879097168	-0.228041
C	-1.4903336985	 1.695754961	 0.7671133127	 0.416669
O	-1.6725545799	 2.7847772311	 1.2421487964	-0.338193
O	-2.5185576159	 0.8202243962	 0.722216137	-0.228119
C	-2.3917294596	-0.4954519227	 0.1680989203	-0.115309
C	-0.9916757353	-1.0153108964	 0.1011590238	-0.181525
C	 0.0692271573	-0.2134938207	 0.1329692571	 0.307233
C	 1.4860828968	-0.7123873985	 0.1004587332	-0.483194
H	-0.7102053718	 1.5588273561	-1.9121102168	 0.124805
H	-0.1120569469	 3.0284946264	-1.1123259641	 0.146282
H	 1.0217860266	 1.7553359289	-1.605065104	 0.122173
H	 0.6006236849	 1.7365299469	 0.8556556397	 0.111332
H	-3.0108207402	-1.136489792	 0.8055810472	 0.132029
H	-2.8645882647	-0.4896624742	-0.8254516641	 0.125228
H	-0.8845847934	-2.0938855151	 0.0256995478	 0.095641
H	 2.0255320104	-0.4133729097	 1.0080462324	 0.133546
H	 1.5261508878	-1.801767832	 0.0227597906	 0.126397
H	 2.0418915517	-0.2904784471	-0.745542987	 0.131437
41.8528	115.6319	170.7419	224.0167	226.6975	254.627	269.0643	307.9597	444.2623	486.6237	550.9824	573.7136	707.0054	738.3954	787.3066	814.1439	874.3739	929.9361	1000.9527	1032.9957	1045.8457	1065.5774	1076.4724	1098.7303	1131.1891	1186.6691	1238.638	1258.1525	1311.4275	1318.5241	1374.1141	1404.1112	1414.0958	1430.9412	1477.9769	1489.5077	1496.5314	1500.5851	1508.6227	1759.7446	1835.988	2994.4304	3022.9732	3042.9209	3046.8303	3058.4186	3072.0626	3115.6865	3117.5961	3132.0977	3167.5073
CC1C(=O)OCC=C1C	C[C@H]1C(=O)OCC=C1C	
InChI=1S/C7H10O2/c1-5-3-4-9-7(8)6(5)2/h3,6H,4H2,1-2H3	InChI=1S/C7H10O2/c1-5-3-4-9-7(8)6(5)2/h3,6H,4H2,1-2H3/t6-/m1/s1
