19
gdb 4981	2.7498531	1.5890346	1.4119681	1.2758	74.17	-0.2174	0.08447	0.30187	1015.5489	0.157596	-422.507312	-422.499435	-422.49849	-422.539785	30.164	
C	 1.5286761803	-0.2963025233	 0.0515812013	-0.26197
O	 0.127197119	-0.0914731091	-0.0500152468	-0.286237
C	-0.4069026867	 0.6279875543	 0.9882573178	 0.393541
C	-1.8225577435	 0.6165637366	 1.5376728401	-0.176396
C	-1.8932849919	 2.1426182169	 1.4829110527	-0.2282
C	-0.3462694155	 2.1732800799	 1.2454779775	-0.148863
C	 0.382830478	 2.2619449552	 2.5849542082	-0.082858
O	-0.117065966	 1.1450473488	 3.3393456374	-0.268298
C	-0.6176360517	 0.2167775784	 2.4021442218	 0.018821
H	 1.7908349884	-0.8149747213	 0.9835581327	 0.117415
H	 1.8214949039	-0.9129325968	-0.8008318448	 0.130083
H	 2.0813671372	 0.6524388925	 0.0092267206	 0.113524
H	-2.62610106	-0.0844755917	 1.3430802642	 0.090529
H	-2.4477519132	 2.4919426486	 0.6089693799	 0.106783
H	-2.2548033533	 2.6604641825	 2.3772983911	 0.10101
H	 0.0303507407	 2.8241925974	 0.4575789175	 0.079832
H	 1.4746635285	 2.1821926177	 2.4602670415	 0.087962
H	 0.1595622985	 3.1745872824	 3.1472146597	 0.107886
H	-0.5392015827	-0.8179888491	 2.7127086476	 0.105437
77.6186	153.6947	171.735	242.9319	328.5404	379.3623	400.2542	504.3794	583.0631	641.9294	741.8358	770.8037	827.1573	869.2947	892.4192	933.964	957.1042	994.0274	1007.3924	1029.3312	1044.3386	1060.35	1083.3907	1103.2396	1149.5692	1158.388	1170.5865	1177.3114	1218.7326	1228.4872	1242.0215	1278.1353	1287.8606	1309.6549	1370.9625	1437.8653	1482.6952	1488.4624	1502.8106	1506.7049	1516.0019	2974.5123	2996.4758	3046.8606	3052.1974	3070.9851	3106.7518	3124.5205	3128.0284	3178.8171	3197.8424
COC12C3CC1COC23	CO[C@]12[C@@H]3C[C@H]1CO[C@H]23	
InChI=1S/C7H10O2/c1-8-7-4-2-5(7)6(7)9-3-4/h4-6H,2-3H2,1H3	InChI=1S/C7H10O2/c1-8-7-4-2-5(7)6(7)9-3-4/h4-6H,2-3H2,1H3/t4-,5+,6-,7-/m0/s1
