19
gdb 1978	2.2728461	2.0959087	1.5049179	2.4784	73.78	-0.24675	0.06849	0.31523999999999996	952.6547	0.156987	-422.527567	-422.519749	-422.518804	-422.559124	31.745	
C	-0.0291667779	 0.1832774689	-0.0462496973	-0.491676
C	 1.4597871133	 0.062360097	 0.0571716144	 0.401431
O	 2.2180914528	-0.0103663003	-1.1679654725	-0.304498
C	 2.492488144	 1.0536365183	-0.2398572114	-0.026073
C	 3.5482627874	 0.7346350466	 0.8441344445	-0.084588
C	 2.6048365521	 0.5836527316	 2.0860263319	-0.288227
C	 2.1217103816	-0.6684966927	 1.2580086153	 0.336638
O	 1.3412425182	-1.6981440776	 1.7718532714	-0.491367
C	 3.6006161008	-0.8197810558	 0.8101943617	-0.283259
H	-0.4546748862	 0.5476555511	 0.8940270895	 0.126059
H	-0.3019358369	 0.8705801455	-0.8507570854	 0.125213
H	-0.478112869	-0.7933307477	-0.2526669984	 0.139662
H	 2.3110483576	 2.0626881678	-0.5963638654	 0.096695
H	 4.4541718172	 1.33611901	 0.8802672737	 0.071153
H	 3.136405522	 0.3163744884	 3.0046650063	 0.088471
H	 1.8810384543	 1.3803952735	 2.2821178799	 0.096011
H	 1.8045821554	-2.0918745009	 2.5178387304	 0.281505
H	 4.2275976645	-1.2124301715	 1.6148534544	 0.08399
H	 3.8072560189	-1.3135008722	-0.136735703	 0.122859
173.5914	194.1462	240.9592	276.5747	332.3434	380.9976	440.6783	487.3797	518.9538	555.6549	612.4965	639.2524	724.724	811.2252	850.5988	871.2222	889.4591	914.8703	935.2322	969.215	997.4659	1006.2602	1028.9654	1058.8443	1098.9195	1114.256	1134.2686	1157.5454	1206.4391	1211.671	1230.5256	1279.9809	1284.8883	1298.3773	1383.1776	1409.4722	1457.7606	1471.8992	1483.3517	1495.185	1515.2442	3042.0227	3044.8229	3074.1546	3105.16	3107.2818	3126.0801	3135.9633	3163.6309	3166.7444	3820.3907
CC12OC1C1CC2(O)C1	C[C@@]12O[C@@H]1[C@H]1C[C@]2(O)C1	
InChI=1S/C7H10O2/c1-6-5(9-6)4-2-7(6,8)3-4/h4-5,8H,2-3H2,1H3	InChI=1S/C7H10O2/c1-6-5(9-6)4-2-7(6,8)3-4/h4-5,8H,2-3H2,1H3/t4-,5-,6-,7-/m1/s1
