19
gdb 514	3.0684401	1.8493557	1.5384848	2.4884	73.24	-0.24633	0.08401	0.33033999999999997	918.3077	0.160545	-422.545879	-422.539372	-422.538428	-422.576306	27.565	
C	 1.8617407982	 0.2660678637	 1.8016113725	-0.282912
C	 0.6075917785	-0.3683124055	 2.5062533231	-0.346671
C	 0.2647254968	-1.0441533844	 1.1617476299	 0.266265
C	-0.9977199683	-1.2561548348	 0.3393961427	-0.161066
O	-0.4110027153	-1.6758531402	-0.9287116724	-0.284535
C	 0.98227066	-1.8895823018	-0.6995732382	 0.217153
C	 1.0349907542	-2.3279758494	 0.7594398719	-0.296189
O	 1.7047142955	-0.651698548	-0.6853672161	-0.281622
C	 1.1354994501	 0.0050443261	 0.4479537298	 0.141159
H	 2.0980141866	 1.3038828224	 2.0425274185	 0.103931
H	 2.7606675078	-0.3407270334	 1.9222506335	 0.117637
H	 0.7788865041	-1.0179075923	 3.3666991011	 0.107779
H	-0.1224417842	 0.3972804867	 2.7836674505	 0.111352
H	-1.6715500179	-2.0386049409	 0.7130181077	 0.095975
H	-1.5700123447	-0.3373694835	 0.1725181185	 0.105151
H	 1.3780173005	-2.5141191158	-1.4978297272	 0.09152
H	 0.4795175856	-3.2452250792	 0.969564443	 0.105255
H	 2.0512364127	-2.4011479833	 1.1451002868	 0.109872
H	 0.5810427398	 0.8919612737	 0.1211435342	 0.079945
211.6981	269.2414	328.7451	387.9331	464.0115	496.6366	539.8217	651.2928	669.1785	777.9109	793.8224	802.4444	869.9523	885.6422	898.2508	916.3081	937.4075	977.1434	993.6048	997.1022	1031.3585	1078.8902	1093.1104	1120.8156	1151.6559	1169.95	1179.9678	1215.9942	1224.8393	1251.5697	1257.4617	1271.667	1289.3252	1324.2888	1333.3805	1376.7914	1380.2816	1478.5837	1490.7815	1501.5512	1527.4647	3010.054	3038.2203	3063.2609	3069.091	3076.6628	3082.2548	3115.0254	3138.8488	3148.3866	3155.6568
C1CC23COC(C2)OC13	C1C[C@]23CO[C@H](C2)O[C@H]13	
InChI=1S/C7H10O2/c1-2-7-3-6(8-4-7)9-5(1)7/h5-6H,1-4H2	InChI=1S/C7H10O2/c1-2-7-3-6(8-4-7)9-5(1)7/h5-6H,1-4H2/t5-,6+,7-/m1/s1
