19
gdb 1048	4.8465521	0.7250003	0.6595164	1.0923	80.86	-0.23865	0.06146	0.30011	1729.0276	0.155773	-422.529687	-422.519726	-422.518782	-422.568266	33.202	
C	 1.5795716839	 0.1629375684	-0.001335798	-0.496899
C	 0.1256669656	 0.0885758985	 0.009536441	 0.0734
C	-1.0762250905	 0.0279021378	 0.0101170908	 0.055431
C	-2.5304465676	-0.0559973775	 0.023570589	-0.372115
C	-3.0458027016	-1.435319158	 0.4343325949	 0.229369
O	-4.4495876079	-1.3906185136	 0.5319175025	-0.247933
C	-4.87754638	-2.7262255258	 0.3180127117	-0.110314
C	-3.8752477345	-3.2434672435	-0.7272970517	-0.084681
O	-2.734202109	-2.409620594	-0.5476765542	-0.263845
H	 1.9852736243	 0.22300062	 1.0147304329	 0.144905
H	 2.0192645679	-0.7179012268	-0.482194381	 0.14847
H	 1.9279117476	 1.0462138269	-0.5482901955	 0.14648
H	-2.9512765477	 0.6729203186	 0.7269433415	 0.135254
H	-2.9484690842	 0.1687544648	-0.9643671016	 0.133867
H	-2.6044150628	-1.7416794222	 1.399898262	 0.071939
H	-4.8189353604	-3.3089516575	 1.2496681325	 0.101227
H	-5.9129914071	-2.7104447209	-0.0279591576	 0.11986
H	-3.6061256349	-4.2938826804	-0.5691222745	 0.107158
H	-4.2527205712	-3.1273544249	-1.7506883649	 0.108428
16.2552	20.6947	53.9266	81.0673	188.8006	208.5152	263.8049	328.6438	390.6018	419.9184	516.7922	682.4406	726.6892	781.7305	834.8252	886.5895	951.3989	1016.2564	1021.5491	1052.6773	1054.8538	1064.0869	1075.3694	1149.9449	1169.4674	1172.3157	1221.9422	1232.5344	1247.4736	1312.1048	1343.9358	1380.0596	1400.9515	1415.1378	1424.8646	1457.6531	1478.7895	1479.9784	1514.7112	1531.7347	2379.628	2941.0765	2993.1557	3022.7049	3026.075	3032.361	3064.4425	3074.4281	3085.6852	3086.7905	3112.1651
CC#CCC1OCCO1	CC#CCC1OCCO1	
InChI=1S/C7H10O2/c1-2-3-4-7-8-5-6-9-7/h7H,4-6H2,1H3	InChI=1S/C7H10O2/c1-2-3-4-7-8-5-6-9-7/h7H,4-6H2,1H3
