19
gdb 490	3.796301	1.3222605	1.1993381	2.9149	75.11	-0.22935	0.05355	0.2829	1091.3649	0.157647	-422.495948	-422.488208	-422.487264	-422.528831	29.251	
C	 1.1953272897	 0.2571501724	-0.8362996371	-0.069987
C	-0.1243573279	-0.1375547636	-0.145745168	-0.35845
C	-0.0536601277	 1.2813345313	 0.4601602349	 0.470202
C	-0.2222379269	 1.5133447308	 1.9864194547	-0.330633
C	-1.5045645454	 2.3523468965	 1.7200250092	-0.08225
C	-1.2233625569	 3.849358926	 1.5356627032	-0.072417
O	-0.8014883036	 3.6458183183	 0.1657500785	-0.283737
C	-1.2153636819	 2.2682688018	 0.1892929897	 0.034577
O	 1.2163933285	 1.5286225302	-0.1522413854	-0.303488
H	 2.072825883	-0.3522498673	-0.5924220629	 0.105024
H	 1.1387934623	 0.3807116471	-1.9243809022	 0.106292
H	-0.9749677483	-0.3325030697	-0.8025097364	 0.111306
H	-0.0380102227	-0.9457264749	 0.5831641166	 0.111025
H	-0.3701508544	 0.5973992015	 2.5643740391	 0.101218
H	 0.5993018168	 2.0812858146	 2.4315990803	 0.115927
H	-2.4322582585	 2.042114849	 2.1965622952	 0.077476
H	-2.1126347802	 4.491906813	 1.5832634042	 0.098316
H	-0.4304246513	 4.284078302	 2.156613637	 0.10424
H	-1.9326107745	 2.031552671	-0.6042460806	 0.065358
61.8134	82.9888	189.804	257.8131	341.9334	371.5252	466.2639	532.7902	749.8262	771.056	786.3626	829.2016	863.3136	875.7596	907.959	929.3686	954.3286	976.7822	1002.1648	1018.6957	1028.4732	1055.158	1123.0215	1137.0371	1158.5772	1171.3083	1179.7442	1194.7242	1199.3934	1214.6136	1233.2265	1257.5448	1263.587	1300.4854	1331.2182	1352.5497	1360.4225	1466.8299	1486.6158	1522.1952	1531.7907	3004.9041	3022.4703	3045.6562	3053.6081	3056.6505	3063.8918	3070.7266	3109.9623	3125.6636	3132.4116
C1CC2(CC3COC23)O1	C1C[C@@]2(C[C@H]3CO[C@@H]23)O1	
InChI=1S/C7H10O2/c1-2-9-7(1)3-5-4-8-6(5)7/h5-6H,1-4H2	InChI=1S/C7H10O2/c1-2-9-7(1)3-5-4-8-6(5)7/h5-6H,1-4H2/t5-,6+,7-/m0/s1
