19
gdb 5157	2.2257418	1.6265817	1.2024688	1.8819	76.47	-0.23548	0.00996	0.24544	1109.1272	0.156122	-422.552801	-422.543964	-422.54302	-422.586	33.275	
C	 1.2446041288	 0.8121028124	 0.2173425173	-0.515229
C	-0.0738442074	 0.110448697	 0.295528057	 0.300196
C	-0.3151473752	-1.162411569	 0.6285061714	-0.182738
C	-1.78667716	-1.5199266234	 0.5835293493	-0.291583
C	-2.4446279686	-0.1977114524	 0.2133161667	-0.032084
O	-2.2530278443	 0.846618017	 1.1719811637	-0.300139
C	-1.380827214	 0.8086743114	 0.0158789004	 0.281392
C	-1.4774876863	 2.0042318177	-0.8978249129	-0.174452
O	-0.8806864431	 1.7627944965	-2.1642542421	-0.408009
H	 1.299455071	 1.6384870764	 0.9374439501	 0.129992
H	 2.071710463	 0.1280855418	 0.4247314172	 0.121351
H	 1.3901615625	 1.2456929803	-0.7781500409	 0.147993
H	 0.4428827456	-1.8728017825	 0.9414805854	 0.092798
H	-2.0041003438	-2.2922531227	-0.1661882215	 0.10779
H	-2.1557905982	-1.8980752035	 1.5448306176	 0.125021
H	-3.3969411447	-0.1723706873	-0.3120092368	 0.089943
H	-2.5311468658	 2.3068191864	-0.9803841824	 0.102888
H	-0.9282072534	 2.8500907704	-0.4701693658	 0.11962
H	-1.3232169162	 1.0026947335	-2.5562302235	 0.285251
96.9141	144.7311	186.0202	204.0024	240.7772	295.6713	330.6513	389.0585	403.436	474.9563	564.0437	607.654	672.0124	758.8818	811.0212	832.2708	875.9586	929.6109	947.6971	985.5325	1016.297	1038.344	1057.6932	1070.7411	1091.5234	1143.174	1184.3073	1190.4573	1248.599	1301.6329	1313.4254	1343.3922	1369.2384	1409.4257	1416.4923	1438.5515	1463.471	1477.8407	1495.6777	1506.2535	1705.889	3006.6481	3021.9839	3023.086	3057.791	3072.1027	3079.227	3115.9908	3135.5006	3186.6419	3812.5212
CC1=CCC2OC12CO	CC1=CC[C@H]2O[C@@]12CO	
InChI=1S/C7H10O2/c1-5-2-3-6-7(5,4-8)9-6/h2,6,8H,3-4H2,1H3	InChI=1S/C7H10O2/c1-5-2-3-6-7(5,4-8)9-6/h2,6,8H,3-4H2,1H3/t6-,7+/m1/s1
