19
gdb 488	3.723968	1.3900441	1.3334686	2.6494	74.24	-0.24571	0.07329	0.319	1023.0531	0.158664	-422.516537	-422.50939	-422.508446	-422.548151	28.473	
C	-0.3473576337	 1.4407202328	-0.0548158883	-0.147484
O	-0.346792253	 0.005680863	-0.2043996349	-0.275022
C	 1.0798056795	-0.0607340109	 0.0008325468	-0.147483
C	 1.19317433	 1.4744978591	-0.0682217078	 0.40309
O	 1.838864177	 2.1290151847	 1.032044477	-0.322961
C	 2.7751993642	 2.9940470105	 0.3581368964	 0.108549
C	 1.9220783684	 3.6165846406	-0.7736024262	-0.245388
C	 1.9242815961	 2.1258498545	-1.2442302225	-0.122088
C	 3.3945048943	 2.0675070227	-0.7161939667	-0.245388
H	-0.8662142947	 1.9456910755	-0.8791622987	 0.09876
H	-0.775572926	 1.7613916098	 0.9033421302	 0.106826
H	 1.3423876432	-0.4668173944	 0.985927815	 0.106826
H	 1.5875925977	-0.6358513087	-0.7834805923	 0.09876
H	 3.3442620391	 3.5621296593	 1.0914888387	 0.084157
H	 0.9720441766	 4.0747576725	-0.4882079191	 0.104026
H	 2.4874649239	 4.2696812621	-1.4402126572	 0.103976
H	 1.6351966625	 1.8139110353	-2.2468812446	 0.082843
H	 3.7923837638	 1.1075998504	-0.3782467643	 0.104026
H	 4.099999551	 2.5732018013	-1.3773417313	 0.103975
100.0464	149.7333	231.1771	343.0507	437.454	482.747	507.4539	527.4651	719.9685	803.6544	836.5794	845.7452	873.4263	874.757	920.2804	939.951	959.0445	987.9749	990.9051	1026.5248	1036.5235	1041.4152	1066.8827	1096.9983	1126.0569	1132.3758	1149.6753	1154.8101	1192.4326	1213.2942	1217.4036	1250.8915	1256.6864	1299.3133	1321.9724	1330.1911	1387.6649	1477.0396	1498.3475	1512.6073	1526.6468	3005.1533	3017.0207	3060.6896	3060.8896	3066.8858	3071.4222	3129.4266	3133.6129	3139.5193	3145.3911
C1OCC11OC2CC1C2	C1OCC21O[C@@H]1C[C@H]2C1	
InChI=1S/C7H10O2/c1-5-2-6(1)9-7(5)3-8-4-7/h5-6H,1-4H2	InChI=1S/C7H10O2/c1-5-2-6(1)9-7(5)3-8-4-7/h5-6H,1-4H2/t5-,6+
