19
gdb 1830	2.3561314	1.9700985	1.3266627	2.593	74.27	-0.22605	-0.01687	0.20918	1007.7243	0.157329	-422.579286	-422.571138	-422.570193	-422.611828	31.35	
C	-0.0761983744	 2.5351399803	 0.2143054562	-0.479729
C	-0.8851368427	 1.2976257044	-0.0711607127	 0.297694
C	-1.8943089712	 1.2398986293	-1.2490770626	-0.292408
C	-2.7380383648	 0.4559008008	-0.2271571555	 0.099309
C	-2.4235415688	-1.0416291495	-0.2518774552	-0.233268
C	-0.9247640149	-1.2522758258	 0.0900593263	-0.30141
C	-0.0719009622	-0.0022394252	-0.1379833051	 0.370827
O	 1.1150137431	-0.0336694252	-0.354735591	-0.322984
O	-1.9860486383	 1.0671864053	 0.8638410632	-0.329327
H	 0.3698647646	 2.4755117678	 1.2117212943	 0.134771
H	 0.7372248743	 2.6219979087	-0.5103531652	 0.141525
H	-0.707602569	 3.4257549987	 0.1659004346	 0.118049
H	-2.3020928536	 2.2290748645	-1.4669632655	 0.114323
H	-1.5953579313	 0.7408800647	-2.1743282556	 0.109902
H	-3.8074031976	 0.6711901796	-0.1598556144	 0.081616
H	-3.0505968327	-1.5691441427	 0.4728576215	 0.111567
H	-2.6651200256	-1.4486629379	-1.2402254271	 0.108061
H	-0.8270316177	-1.4762389003	 1.1586773073	 0.145812
H	-0.4736488871	-2.0891431174	-0.4474238435	 0.125669
77.7351	159.4063	189.2324	258.9622	296.2433	374.2361	406.8224	452.8849	496.7912	571.2602	609.7579	687.236	775.8723	799.2569	832.9333	864.596	914.7539	936.7036	965.0487	986.3433	1022.2227	1052.8647	1084.5503	1119.0441	1129.7727	1176.8358	1227.818	1230.8658	1250.8226	1280.9251	1316.1423	1326.0483	1348.7977	1370.7565	1406.187	1450.379	1474.1535	1483.6393	1488.4839	1497.2002	1823.6765	3042.1781	3048.4442	3049.4877	3063.3241	3078.5736	3088.0257	3113.6586	3120.1813	3126.2108	3135.1027
CC12CC(CCC1=O)O2	C[C@@]12C[C@@H](CCC1=O)O2	
InChI=1S/C7H10O2/c1-7-4-5(9-7)2-3-6(7)8/h5H,2-4H2,1H3	InChI=1S/C7H10O2/c1-7-4-5(9-7)2-3-6(7)8/h5H,2-4H2,1H3/t5-,7-/m1/s1
