19
gdb 5266	3.2194326	1.3819956	1.28419	0.769	74.48	-0.24114	0.00773	0.24886999999999998	1051.3912	0.158596	-422.557204	-422.549456	-422.548511	-422.589216	30.713	
O	 1.0615242297	 0.6685896956	 0.4146498749	-0.419108
C	-0.1703602706	 0.1048260351	-0.0200403651	-0.180615
C	-1.3718433006	 0.9558208922	 0.3457330983	 0.227431
C	-1.6912174723	 1.0665550491	 1.8759287207	-0.106479
O	-3.0362518954	 1.5452534985	 1.9273178071	-0.277108
C	-3.4521555879	 1.7008768653	 0.5360782576	 0.051692
C	-2.7801483697	 0.4896431494	-0.1241533749	-0.267279
C	-2.6408385168	 2.8479128039	-0.0474782703	-0.093533
C	-1.3863218407	 2.3958002925	-0.1490871249	-0.105111
H	 1.0841909776	 0.6350753032	 1.3759486554	 0.287874
H	-0.0876878196	 0.029272159	-1.1094444998	 0.114123
H	-0.3022947245	-0.917511541	 0.3694197391	 0.088301
H	-1.6333756266	 0.0831946987	 2.3649663127	 0.09203
H	-1.0226778909	 1.7633837281	 2.3959321459	 0.095395
H	-4.5378211388	 1.777661668	 0.5221898795	 0.075331
H	-3.1024080338	-0.4626338699	 0.3079211693	 0.098509
H	-2.8751256037	 0.4710603755	-1.2111145002	 0.10485
H	-3.0024426773	 3.8553813182	-0.2072072507	 0.101961
H	-0.4899288281	 2.9433641785	-0.4099210347	 0.111737
95.7052	172.2488	253.673	291.5227	329.3608	392.7851	418.4365	493.3341	520.0878	657.2619	679.7724	751.9292	804.1053	809.9607	869.2575	889.2797	927.8812	945.493	956.269	979.9845	992.6073	1022.2086	1055.3601	1072.8828	1095.8161	1128.3346	1154.8426	1206.5597	1218.328	1263.5483	1274.2209	1283.4521	1295.6336	1346.493	1372.8484	1388.0745	1418.6605	1488.7893	1499.4829	1522.8565	1633.8877	2976.6218	2992.6298	3043.4055	3060.234	3071.1801	3129.4927	3140.5938	3206.0176	3230.8053	3822.7324
OCC12COC(C1)C=C2	OC[C@]12CO[C@H](C1)C=C2	
InChI=1S/C7H10O2/c8-4-7-2-1-6(3-7)9-5-7/h1-2,6,8H,3-5H2	InChI=1S/C7H10O2/c8-4-7-2-1-6(3-7)9-5-7/h1-2,6,8H,3-5H2/t6-,7+/m0/s1
