19
gdb 2096	2.2751004	1.7170983	1.5058669	0.5997	75.65	-0.22837	0.0729	0.30127	1018.7498	0.154313	-422.494528	-422.485649	-422.484704	-422.527233	34.157	
C	 4.7564427201	-0.0850630524	 0.2671510605	-0.526712
C	 3.2768446715	 0.0929712824	 0.1668200275	 0.376355
O	 2.4131631938	-1.0913163472	 0.1363751916	-0.399649
C	 1.4659129934	 0.0254213741	 0.0654918595	 0.376355
C	 0.0016813746	-0.2624221644	 0.0011112216	-0.526712
C	 2.2875051111	 0.938644265	 1.0288723177	-0.179171
C	 2.2993664898	 2.1213686153	 0.0284179894	-0.32774
C	 2.3957474035	 0.8868222615	-0.8710965364	 0.305845
O	 2.4721829617	 0.8965213171	-2.2436141056	-0.468814
H	 5.0216182147	-0.6404975483	 1.1720989472	 0.134911
H	 5.1384505788	-0.6362084639	-0.5983646855	 0.129308
H	 5.2541488	 0.8892485159	 0.2995589419	 0.131
H	-0.3206654998	-0.8397723852	 0.8731865545	 0.134911
H	-0.5675133166	 0.6720924187	-0.0261748304	 0.131
H	-0.2395380528	-0.8368145484	-0.8992749633	 0.129309
H	 2.2263105034	 0.950004311	 2.1149601097	 0.084288
H	 1.3807022248	 2.7096907144	-0.0439075748	 0.101881
H	 3.1741244942	 2.7765870039	 0.0564396978	 0.101881
H	 2.5228965737	-0.0220457694	-2.5373132328	 0.291756
180.8587	182.0138	188.7504	190.6137	223.2972	259.0667	287.4789	360.1648	453.6614	519.8585	540.8148	595.5766	698.135	703.2212	711.2877	776.178	808.9187	854.5595	890.4918	942.7688	988.0286	1003.7926	1056.0237	1095.1286	1113.7476	1123.2765	1123.494	1182.4664	1193.9629	1232.0763	1268.135	1299.3307	1388.3337	1396.4546	1407.6217	1448.1889	1472.6866	1474.5878	1489.3945	1493.4216	1519.1323	3035.9707	3036.2735	3055.9018	3105.4087	3105.4607	3111.4248	3112.876	3113.5349	3147.0094	3778.5173
CC12OC3(C)C1CC23O	C[C@@]12O[C@@]3(C)[C@@H]1C[C@@]23O	
InChI=1S/C7H10O2/c1-5-4-3-7(5,8)6(4,2)9-5/h4,8H,3H2,1-2H3	InChI=1S/C7H10O2/c1-5-4-3-7(5,8)6(4,2)9-5/h4,8H,3H2,1-2H3/t4-,5-,6+,7-
