19
gdb 2045	2.8143477	1.5289628	1.3038761	0.7447	74.83	-0.23479	0.07545	0.31024	1052.9488	0.155701	-422.505927	-422.497462	-422.496518	-422.539074	31.743	
C	 3.0982026942	-0.6386122417	-0.7527090861	-0.518513
C	 2.4577215436	-0.420731942	 0.5761102862	 0.355109
O	 2.3584478552	-1.5044540486	 1.5157544796	-0.294732
C	 2.9738509732	-0.2778187568	 1.9490797739	-0.046072
C	 1.8359103808	 0.6646613718	 2.3521659392	-0.32916
C	 1.254900445	 0.4906459788	 0.9116560017	 0.411662
C	-0.1924998422	 0.1002270297	 0.5709196155	-0.352408
C	-0.1862926266	 1.3829157353	-0.2827100861	-0.077963
O	 1.1620842193	 1.7009463336	 0.1360453908	-0.322743
H	 4.0549930043	-1.1555179352	-0.6415957374	 0.132731
H	 2.4566035034	-1.2465024725	-1.4011908945	 0.126935
H	 3.2642003446	 0.3231740184	-1.2463563234	 0.141887
H	 3.9864062612	-0.3430786281	 2.3310364287	 0.102928
H	 1.2173306186	 0.3385220453	 3.1922639958	 0.105647
H	 2.157049994	 1.6997404599	 2.4951736886	 0.1202
H	-0.3067701826	-0.8418428326	 0.0322165893	 0.118075
H	-0.8783895448	 0.1120809677	 1.4193939174	 0.115623
H	-0.2490763449	 1.2344773299	-1.3672348802	 0.104385
H	-0.8953680363	 2.164810107	 0.0113490711	 0.106408
77.0458	117.4028	183.7196	194.4947	222.5172	322.978	420.7787	446.4354	470.5791	553.9294	653.7543	761.6858	779.3858	853.8496	864.1403	871.4405	911.4725	929.1144	969.0265	975.9698	1017.7034	1041.8419	1087.1929	1105.9103	1127.1887	1157.9426	1165.9485	1205.4651	1207.0999	1216.1744	1258.3421	1266.1986	1313.3525	1353.2183	1398.1147	1451.0303	1472.9191	1483.4213	1487.6538	1496.0752	1530.4665	3023.3466	3034.9225	3060.16	3065.6005	3081.8232	3100.2082	3123.0513	3126.7353	3135.4151	3183.2581
CC12OC1CC21CCO1	C[C@@]12O[C@@H]1C[C@@]12CCO1	
InChI=1S/C7H10O2/c1-6-5(9-6)4-7(6)2-3-8-7/h5H,2-4H2,1H3	InChI=1S/C7H10O2/c1-6-5(9-6)4-7(6)2-3-8-7/h5H,2-4H2,1H3/t5-,6-,7-/m1/s1
