19
gdb 4811	2.1793543	0.942442	0.6939202	1.7041	79.59	-0.24858	-0.03591	0.21267	1611.7391	0.15199	-422.515904	-422.505086	-422.504142	-422.553257	36.867	
C	-1.6859315988	 3.430953049	-1.0845697287	-0.390444
C	-0.9588899349	 2.2287509792	-0.477813806	-0.199744
C	-0.7025633636	 1.1135980047	-1.5013884339	 0.061004
O	-1.956017599	 0.6509560478	-1.9706646945	-0.255244
C	-1.8607970716	-0.1142448406	-3.1639460233	-0.220631
C	-3.1862060674	-0.5557081806	-3.5726196058	 0.282926
C	-4.2681424401	-0.9331920421	-3.9306892434	-0.412695
C	 0.0665413492	-0.0201803561	-0.8273950192	 0.129008
O	 1.2622112249	-0.0494892168	-0.7012458494	-0.243495
H	-1.8721284243	 4.193290876	-0.3225636046	 0.11791
H	-1.0904486251	 3.8908535845	-1.8807322737	 0.115726
H	-2.6451622706	 3.1276084754	-1.5101203529	 0.140709
H	 0.0107437128	 2.5271231498	-0.064969784	 0.121116
H	-1.5468958687	 1.8110207579	 0.3485459777	 0.112802
H	-0.0890405247	 1.5068573132	-2.3277579774	 0.089468
H	-1.4021705854	 0.4890559064	-3.9647338154	 0.128442
H	-1.2087243027	-0.9915997884	-3.0187723624	 0.128135
H	-5.2275925084	-1.2645204222	-4.2433444402	 0.205049
H	-0.5967218816	-0.8186756172	-0.419062903	 0.08996
42.0799	54.7571	95.9009	110.626	126.3649	213.5507	227.6184	263.2113	299.0879	332.347	418.5576	459.418	474.1789	614.1988	616.335	681.9734	780.9441	866.88	964.4254	979.1857	986.6985	1022.7331	1031.6301	1074.3331	1110.7113	1151.3432	1167.5233	1254.3323	1275.4138	1299.3385	1339.3811	1374.7347	1396.8762	1405.3476	1426.7064	1478.9682	1493.6417	1500.2556	1508.9361	1836.3512	2249.751	2864.5493	2961.7853	2983.0826	2986.2646	3035.9951	3040.6569	3081.2962	3107.2297	3131.1862	3505.5054
CCC(OCC#C)C=O	CC[C@H](OCC#C)C=O	
InChI=1S/C7H10O2/c1-3-5-9-7(4-2)6-8/h1,6-7H,4-5H2,2H3	InChI=1S/C7H10O2/c1-3-5-9-7(4-2)6-8/h1,6-7H,4-5H2,2H3/t7-/m0/s1
