19
gdb 1960	3.2998521	1.2867614	1.1729986	1.9707	74.98	-0.25207	0.07663	0.3287	1111.6804	0.157152	-422.538336	-422.530315	-422.529371	-422.570459	31.903	
O	-3.1462171926	-0.7630800423	-1.4228307666	-0.47248
C	-2.0207873634	-0.988784658	-0.629623631	 0.405755
C	-0.9918759378	-1.9922942469	-1.0726174465	-0.360953
C	-0.6784479598	-0.5015670818	-1.1103803435	-0.171368
C	 0.0430025131	 0.0617718499	 0.078681081	 0.496692
C	 0.781498563	 1.3292249346	 0.0230796071	-0.261431
O	 1.4719098713	 0.0767362443	 0.1052503156	-0.290274
C	-0.6841446073	-0.4346819898	 1.3308321228	-0.329751
C	-2.1333325927	-0.6932691506	 0.8641830724	-0.281761
H	-3.7374158288	-1.5172396023	-1.3226812875	 0.282704
H	-0.4898990901	-2.62928723	-0.3513783751	 0.115511
H	-1.1680102584	-2.4496170971	-2.0398328334	 0.116211
H	-0.5713015791	-0.0266229803	-2.0778414613	 0.096402
H	 0.8843599943	 1.8580715536	-0.9244421985	 0.112207
H	 0.844825228	 1.9585255062	 0.9107369769	 0.109464
H	-0.2077400601	-1.3624564963	 1.6653100974	 0.119516
H	-0.621209693	 0.2730573773	 2.1603633735	 0.108458
H	-2.6217765687	-1.4961582628	 1.4279880003	 0.092911
H	-2.7452924479	 0.2084774323	 0.9755953064	 0.112185
104.3045	194.4072	265.9683	275.6381	330.3381	367.7908	405.6245	418.8534	465.4729	543.8139	568.8999	694.4291	750.4184	818.4396	859.3118	898.5276	913.369	930.9203	954.2322	966.792	986.9668	1019.7075	1046.5176	1065.0863	1083.2633	1127.3305	1159.7494	1168.7173	1205.7762	1233.1912	1240.8754	1284.9094	1303.0852	1322.0892	1335.5015	1396.6646	1440.5429	1482.819	1490.1013	1510.1537	1533.2737	3035.6866	3054.2539	3072.2171	3077.5048	3107.0061	3129.8053	3157.072	3188.8866	3221.0016	3796.4304
OC12CC1C1(CO1)CC2	O[C@@]12C[C@@H]1[C@@]1(CO1)CC2	
InChI=1S/C7H10O2/c8-6-1-2-7(4-9-7)5(6)3-6/h5,8H,1-4H2	InChI=1S/C7H10O2/c8-6-1-2-7(4-9-7)5(6)3-6/h5,8H,1-4H2/t5-,6-,7-/m0/s1
