19
gdb 2119	3.4912749	1.5051674	1.2939937	1.1458	75.47	-0.24489	0.07903	0.32392	1031.2896	0.157488	-422.483015	-422.475332	-422.474388	-422.515055	30.159	
C	-0.1280279364	-0.0127510828	 0.053071019	-0.509958
C	 1.3743395778	-0.0512626305	 0.0970061578	 0.256112
C	 2.3610323657	 1.1408894666	 0.1216116232	-0.327884
C	 3.2374367812	-0.1528400389	 0.1326675352	 0.412615
C	 2.3396279577	-0.7216706367	-0.9915766902	-0.340634
O	 4.5256075621	-0.222168743	 0.657314342	-0.332779
C	 4.2726948649	-0.1689721404	 2.0834649088	 0.001291
O	 2.8567187839	-0.2671874559	 2.347173766	-0.299013
C	 2.3149743078	-0.774439761	 1.1379900734	 0.061792
H	-0.5258582453	 0.5202703493	 0.9227890485	 0.130188
H	-0.4827664995	 0.5006654432	-0.8470967299	 0.122642
H	-0.5508496572	-1.0229707884	 0.0543812645	 0.121981
H	 2.4049913599	 1.753778456	-0.781486064	 0.088323
H	 2.3707179266	 1.7418037849	 1.0308079866	 0.10781
H	 2.3633278773	-0.2202150582	-1.9608804654	 0.10549
H	 2.2898794448	-1.80881398	-1.0915861432	 0.103558
H	 4.8126822716	-1.0057421474	 2.5444792612	 0.113076
H	 4.6190478325	 0.7864873574	 2.4931286689	 0.117457
H	 2.2313625044	-1.8675323543	 1.1657177676	 0.067935
80.2715	204.3808	212.4269	244.08	341.5682	407.1077	489.363	511.0027	562.3713	617.4424	722.0601	736.8169	757.5264	835.0004	872.535	930.1699	959.402	990.7784	996.0211	1018.549	1055.043	1070.5613	1073.2457	1108.955	1119.6787	1131.458	1158.914	1172.5613	1193.9067	1201.3191	1248.7826	1277.3722	1322.8336	1395.317	1413.2091	1418.9018	1487.372	1489.5268	1490.8125	1530.9364	1540.7578	3015.6309	3029.7138	3031.8292	3063.0944	3068.7994	3072.6748	3097.2665	3101.4473	3134.9692	3147.8238
CC12CC3(C1)OCOC23	C[C@]12C[C@@]3(C1)OCO[C@@H]23	
InChI=1S/C7H10O2/c1-6-2-7(3-6)5(6)8-4-9-7/h5H,2-4H2,1H3	InChI=1S/C7H10O2/c1-6-2-7(3-6)5(6)8-4-9-7/h5H,2-4H2,1H3/t5-,6-,7-/m0/s1
