19
gdb 2817	2.6005423	1.5004373	1.2914318	2.6717	75.36	-0.23286	0.06353	0.29639000000000004	1071.2888	0.156056	-422.509739	-422.501141	-422.500197	-422.542244	33.533	
C	-4.5196715525	-0.0434799375	 1.3147264458	-0.508768
C	-3.0453177361	 0.1388717861	 1.5190301737	 0.248763
C	-2.1919037733	-0.3207471007	 2.7061689833	-0.285964
C	-1.0694181642	 0.5924923208	 2.1502649604	-0.178832
C	-0.664725672	-0.0881417728	 0.8093519329	 0.163008
O	 0.3745282403	 0.5545599037	 0.1061030757	-0.448412
C	-2.0653565835	 0.2640048734	 0.3123459326	-0.200142
C	-2.1990708787	 1.3733002638	 1.3228586312	 0.304324
O	-2.4884727998	 2.6953878962	 1.0985541355	-0.45563
H	-5.0813731404	 0.2545066919	 2.2081280713	 0.113893
H	-4.8796257538	 0.5642935534	 0.4778865531	 0.125834
H	-4.7713687173	-1.0882958186	 1.0995751504	 0.124488
H	-2.6021235351	 0.040883715	 3.6548623396	 0.090317
H	-1.9558660906	-1.3878683151	 2.79719869	 0.090826
H	-0.3006218173	 1.0226996815	 2.789438	 0.073584
H	-0.3774465707	-1.1434299603	 0.8675059706	 0.078033
H	 0.0967028717	 1.4644896326	-0.0562350845	 0.284072
H	-2.4439681246	 0.2366687191	-0.7024028774	 0.089455
H	-2.9123848121	 3.0582935774	 1.8851463156	 0.291152
146.4791	172.4403	194.0511	233.2771	305.1915	330.9983	334.0208	384.9249	417.4301	461.0778	513.7933	617.0567	650.8876	740.3234	829.7246	843.4712	898.5144	913.1127	928.089	964.7898	993.1076	1003.5777	1041.3171	1066.4415	1099.831	1135.6268	1138.5266	1179.4038	1216.3892	1229.6966	1240.5627	1266.5145	1292.6214	1296.5325	1364.5674	1416.4066	1436.4874	1471.8116	1488.3805	1498.3818	1513.5113	3020.6007	3025.8344	3055.8502	3078.3077	3080.0833	3095.468	3137.9362	3192.4662	3778.3586	3781.1569
CC12CC3C(O)C1C23O	C[C@@]12C[C@H]3[C@H](O)[C@@H]1[C@@]23O	
InChI=1S/C7H10O2/c1-6-2-3-4(8)5(6)7(3,6)9/h3-5,8-9H,2H2,1H3	InChI=1S/C7H10O2/c1-6-2-3-4(8)5(6)7(3,6)9/h3-5,8-9H,2H2,1H3/t3-,4-,5-,6+,7+/m0/s1
