19
gdb 3447	3.0217271	1.4627088	1.1576167	1.0474	78.06	-0.23508	0.00765	0.24273	1091.324	0.1581	-422.541324	-422.533175	-422.532231	-422.573881	31.757	
O	 0.0216905156	 1.4492234361	-0.013191424	-0.442647
C	 0.0299139002	 0.024144064	 0.035226781	 0.092172
C	 0.6180195055	-0.6046072108	-1.2222396826	-0.308925
C	-0.126529665	-1.6416926534	-1.5884519559	 0.313044
C	-0.6939425944	-2.4005557384	-2.7637071229	-0.322531
C	-2.0988173428	-2.1217691306	-2.0978993942	-0.23819
C	-1.353308628	-1.8419360331	-0.7469954677	-0.047833
C	-1.4452515851	-0.5591224205	 0.1018917613	 0.048174
O	-2.3482348464	 0.3508387121	-0.4958377866	-0.435279
H	-0.218003261	 1.686621941	-0.917130339	 0.280647
H	 0.5837043537	-0.2206122967	 0.9496482181	 0.091447
H	 1.4562052914	-0.1576884709	-1.7450068472	 0.096601
H	-0.5006311369	-2.0105951496	-3.7657051019	 0.112125
H	-0.4565005915	-3.4694757498	-2.7469845948	 0.113989
H	-2.5546250106	-1.2107893575	-2.4861496444	 0.131296
H	-2.8226305444	-2.939384004	-2.1124602922	 0.09961
H	-1.328040515	-2.7390835894	-0.1191796991	 0.077915
H	-1.7396650811	-0.7609328652	 1.1418639059	 0.057295
H	-2.1521972941	 1.2084207469	-0.096837144	 0.281091
83.1864	171.7741	186.7149	236.0505	310.5942	340.3522	421.3433	464.9082	547.8656	621.1519	671.8768	688.1379	748.4784	792.4311	821.236	832.1506	850.112	899.3224	940.3432	985.7153	1020.1151	1028.112	1052.7845	1084.7429	1126.4742	1149.1202	1176.9546	1195.6856	1227.5971	1233.6804	1250.5856	1254.6055	1283.7128	1296.4048	1341.2405	1351.3052	1413.5233	1428.6137	1474.3938	1486.2998	1734.2399	2989.7805	3036.1907	3047.0132	3050.4606	3076.2304	3105.8754	3150.5078	3194.0807	3765.94	3786.161
OC1C=C2CCC2C1O	O[C@@H]1[CH][C]2CC[C@@H]2[C@@H]1O	
InChI=1S/C7H10O2/c8-6-3-4-1-2-5(4)7(6)9/h3,5-9H,1-2H2	InChI=1S/C7H10O2/c8-6-3-4-1-2-5(4)7(6)9/h3,5-9H,1-2H2/t5-,6+,7-/m0/s1
