19
gdb 4599	2.7554239	0.6960853	0.6069148	3.2333	82.77	-0.24189	-0.02528	0.21661	1880.0377	0.153446	-422.536233	-422.525128	-422.524184	-422.57479	37.056	
C	 0.3696309476	-0.2366947363	-0.7151079736	-0.366329
C	 1.2056788749	 0.091646503	 0.53547486	-0.315919
C	 1.8368786235	 1.4058121113	 0.4723600447	 0.102559
C	 2.3497345227	 2.4952154643	 0.4179703582	 0.019194
C	 2.9561906014	 3.8158341738	 0.3024971675	-0.277639
C	 4.1743532379	 3.7902791721	-0.6548392027	-0.070907
O	 4.7086662083	 5.0780463012	-0.8758044374	-0.405937
C	 1.9175387767	 4.8105058058	-0.2282344011	 0.189276
O	 1.5594544489	 5.7924713818	 0.3607159006	-0.243904
H	-0.0824585108	-1.2281038993	-0.6195871076	 0.118301
H	-0.430717125	 0.4955928862	-0.8508202933	 0.131212
H	 0.9926191625	-0.2269462085	-1.6135180725	 0.12862
H	 0.5687335226	 0.0392902817	 1.4275820942	 0.134682
H	 1.9792242479	-0.6749048509	 0.6719238892	 0.132312
H	 3.2742419985	 4.1850727704	 1.2861693008	 0.11158
H	 4.918882657	 3.084011604	-0.2618079524	 0.10982
H	 3.8557627907	 3.4201567989	-1.6343454484	 0.12636
H	 5.0271038216	 5.4260449478	-0.0362468118	 0.291171
H	 1.5093322832	 4.5362124828	-1.2263791245	 0.085548
21.2946	57.8644	73.1424	91.2277	121.8465	199.5545	209.7559	253.6478	304.7896	325.9228	380.4497	414.7796	492.61	511.1619	552.9711	773.747	786.2309	866.9538	957.5277	985.9032	1042.8566	1070.5697	1081.8306	1104.6267	1106.4764	1167.1562	1181.0176	1274.7131	1286.1203	1317.2296	1351.1047	1379.2985	1402.144	1410.4196	1421.2287	1474.669	1495.4114	1504.1399	1505.5007	1843.2513	2359.3847	2887.8922	3009.6469	3022.3324	3029.144	3046.2648	3050.2785	3088.185	3120.38	3125.1894	3813.1038
CCC#CC(CO)C=O	CCC#C[C@@H](CO)C=O	
InChI=1S/C7H10O2/c1-2-3-4-7(5-8)6-9/h5,7,9H,2,6H2,1H3	InChI=1S/C7H10O2/c1-2-3-4-7(5-8)6-9/h5,7,9H,2,6H2,1H3/t7-/m1/s1
