19
gdb 4641	5.7952022	0.5612249	0.5328357	2.9872	81.68	-0.24203	0.03368	0.27571	2054.4613	0.155565	-422.498503	-422.488434	-422.48749	-422.536297	34.097	
O	 6.7490666973	-0.8004981372	-0.1788803477	-0.403799
C	 5.7927788339	-0.2069098859	 0.6908504875	-0.19307
C	 4.4187994989	-0.2978912318	 0.1999635782	 0.103413
C	 3.2929831099	-0.418970776	-0.2114684914	 0.016683
C	 1.9302601585	-0.5171981801	-0.7191162697	-0.368996
C	 1.2875119568	 0.8469461494	-0.9822729306	 0.173459
C	-0.2081553427	 0.8605625851	-1.3673249362	-0.301804
C	-0.3683334237	 1.7507484445	-0.1189355099	-0.057666
O	 1.0207863707	 1.5800760658	 0.2331652278	-0.284671
H	 6.441716828	-1.691634067	-0.3747602291	 0.285437
H	 5.8486053353	-0.6423013352	 1.7015911467	 0.116108
H	 6.0896645662	 0.843609963	 0.7849584864	 0.140716
H	 1.9250226411	-1.0831703835	-1.6613724944	 0.128378
H	 1.2976537376	-1.0703754426	-0.0132380805	 0.127819
H	 1.9304578018	 1.4291224694	-1.6556062825	 0.085522
H	-0.4552450533	 1.3166382187	-2.3266562653	 0.112931
H	-0.6954878	-0.1146592639	-1.2962437485	 0.110004
H	-0.6096438051	 2.8007798224	-0.327507366	 0.103495
H	-1.0389644213	 1.3831845951	 0.6661362751	 0.106041
17.0834	48.6535	71.3872	97.1108	134.6387	231.2798	282.4816	324.8551	360.8974	394.5339	494.5901	556.0925	737.1914	780.0148	812.5557	869.3346	890.9779	965.5926	987.7465	1007.4321	1037.6841	1043.7626	1093.9727	1122.5477	1158.0448	1166.7832	1211.5568	1214.0594	1232.4009	1257.9072	1289.6907	1316.4068	1357.5168	1369.5387	1393.5666	1418.1312	1453.5232	1490.5011	1493.3236	1532.5783	2363.5645	2974.5103	3009.8215	3012.9488	3018.9748	3052.9643	3058.2522	3061.9179	3075.6139	3133.4805	3816.9602
OCC#CCC1CCO1	OCC#CC[C@H]1CCO1	
InChI=1S/C7H10O2/c8-5-2-1-3-7-4-6-9-7/h7-8H,3-6H2	InChI=1S/C7H10O2/c8-5-2-1-3-7-4-6-9-7/h7-8H,3-6H2/t7-/m0/s1
