19
gdb 1596	2.2142368	1.8924236	1.2971384	2.3288	74.67	-0.22891	0.07543	0.30434	1037.9194	0.156235	-422.478314	-422.470016	-422.469072	-422.511211	31.541	
C	 2.9995479763	-0.4129492188	 0.7280903645	-0.472284
C	 3.1924972408	-0.9139624939	-0.6969308383	 0.293392
C	 1.967895136	-1.638395903	-1.2041741402	 0.009877
C	 1.9697243932	-3.0139307175	-1.7300008405	-0.187969
O	 1.7831031881	-1.8899212977	-2.5953920945	-0.235583
C	 4.0755392837	 0.0096669479	-1.5321654728	-0.184867
C	 4.3871191912	-0.5916242954	-2.9024168247	-0.099395
O	 4.7817818163	-1.8593799377	-2.2989591578	-0.291639
C	 4.6122553569	-1.3030837474	-0.9966821624	 0.030846
H	 2.7287513196	-1.2348398258	 1.4000238533	 0.124952
H	 3.9145988864	 0.0462553529	 1.1140882964	 0.121258
H	 2.2035545579	 0.3385117617	 0.7776272627	 0.125564
H	 1.0513557567	-1.3011442477	-0.7138556586	 0.084721
H	 2.9193165333	-3.5263395369	-1.8561802725	 0.134961
H	 1.0927264292	-3.6452375961	-1.5932262929	 0.10912
H	 4.2806801851	 1.0296484851	-1.2325977863	 0.095873
H	 3.5733675551	-0.7101795677	-3.6171154696	 0.136714
H	 5.2576718787	-0.1197460439	-3.3721616123	 0.104042
H	 5.3529476055	-1.5504124879	-0.2421418435	 0.100417
58.8103	187.0769	214.5598	239.2748	267.2614	297.0122	351.2805	365.9651	531.5634	554.9888	675.5896	775.8314	810.9005	860.0603	874.959	900.8751	947.8507	956.9423	987.0578	1013.5584	1025.6213	1048.3893	1074.1018	1092.4183	1099.7709	1129.9171	1150.5582	1167.7832	1177.8942	1179.9474	1252.5262	1275.949	1308.2367	1343.0318	1409.6358	1421.897	1442.6667	1493.0441	1500.2114	1505.4963	1516.9301	3027.2152	3038.401	3071.1663	3089.8474	3093.4428	3105.0434	3140.8039	3154.8253	3190.3143	3196.7064
CC1(C2CO2)C2COC12	C[C@@]1([C@@H]2CO2)[C@@H]2CO[C@H]12	
InChI=1S/C7H10O2/c1-7(5-3-8-5)4-2-9-6(4)7/h4-6H,2-3H2,1H3	InChI=1S/C7H10O2/c1-7(5-3-8-5)4-2-9-6(4)7/h4-6H,2-3H2,1H3/t4-,5+,6+,7+/m1/s1
