19
gdb 1313	2.386273	1.0283634	0.8586997	1.6951	77.72	-0.25771	0.01123	0.26894	1441.5336	0.152844	-422.563548	-422.552888	-422.551944	-422.601107	37.118	
C	 4.8723974023	-3.7117803388	-0.0095870669	-0.393298
C	 4.9308986786	-2.21910085	-0.2959215437	 0.145138
C	 5.3328831505	-1.8880233848	-1.7287111904	-0.396594
O	 3.5898924368	-1.7105824633	-0.0393134091	-0.240654
C	 3.4795430374	-0.4230163225	 0.305028194	 0.448634
O	 4.3986494344	 0.3463499165	 0.4299620855	-0.364635
C	 2.0253002717	-0.0376183494	 0.5912347299	-0.463945
C	 1.0281378573	-0.6448987026	-0.2770079563	 0.322469
C	 0.1888464611	-1.1208106995	-0.9918469924	-0.453634
H	 4.5588946334	-3.8989733201	 1.020856657	 0.124856
H	 4.1646426247	-4.2076524628	-0.6808912241	 0.129396
H	 5.8597029739	-4.1592151144	-0.1570953939	 0.121289
H	 5.6068262065	-1.715723303	 0.4009276673	 0.11073
H	 4.6268920833	-2.3309502443	-2.4380835852	 0.125684
H	 5.3596205769	-0.8069148583	-1.8807287243	 0.142054
H	 6.3298404973	-2.2880936155	-1.9379720458	 0.119707
H	 1.8292162764	-0.3154926529	 1.6361378565	 0.160794
H	 1.9783693151	 1.0539783255	 0.5463955267	 0.162302
H	-0.5461053176	-1.5494704197	-1.6269399949	 0.199706
14.1806	63.6698	83.534	126.8446	202.0141	213.994	256.0003	296.4364	328.1393	384.0069	410.0104	450.6351	490.9929	594.5785	625.9579	646.8642	703.9472	839.5676	887.8428	934.9304	949.2845	953.2962	978.1673	999.6375	1137.1762	1163.6359	1203.6178	1208.2973	1284.8079	1316.5502	1363.0428	1386.9154	1403.1421	1418.4623	1448.6148	1481.1636	1485.9015	1495.4255	1510.3492	1814.2204	2247.5579	3024.8447	3041.7531	3046.0178	3075.7001	3094.475	3112.1986	3122.0064	3122.9054	3134.96	3506.5122
CC(C)OC(=O)CC#C	CC(C)OC(=O)CC#C	
InChI=1S/C7H10O2/c1-4-5-7(8)9-6(2)3/h1,6H,5H2,2-3H3	InChI=1S/C7H10O2/c1-4-5-7(8)9-6(2)3/h1,6H,5H2,2-3H3
