19
gdb 4297	3.0281379	1.4029915	1.0893649	1.3941	77.85	-0.24352	0.00604	0.24955999999999998	1130.6473	0.158343	-422.541311	-422.533376	-422.532432	-422.573598	31.041	
O	-0.1655710058	 1.4535445523	-0.1587841581	-0.423884
C	-0.0129499746	 0.0684622418	-0.0107551855	 0.077188
C	 0.2001928299	-0.8522800591	-1.2703657831	-0.313638
C	-0.7033010752	-1.9219316589	-0.5647543363	 0.092844
O	-1.6476720637	-2.7076021585	-1.2582112631	-0.269731
C	-2.9645940942	-2.1734392309	-1.325968892	-0.070456
C	-3.4749814238	-1.6440823547	 0.0291438847	-0.254725
C	-2.5181389038	-0.575469712	 0.5099271841	-0.24247
C	-1.2291404706	-0.7893509018	 0.274974161	 0.207673
H	-0.9415936118	 1.5998775972	-0.7117533011	 0.275823
H	 0.7982751322	-0.068068667	 0.7114943594	 0.10319
H	-0.3057133082	-0.4232333476	-2.1399220115	 0.10613
H	 1.2211360725	-1.1363554957	-1.5332863346	 0.105153
H	-0.0753320897	-2.6240916213	-0.0039193535	 0.093517
H	-3.017844541	-1.3582538154	-2.0650027478	 0.085611
H	-3.5868661566	-2.9967182962	-1.6883616858	 0.108019
H	-4.4839794284	-1.2390663638	-0.1026739249	 0.104666
H	-3.5561140422	-2.4757938831	 0.7403981883	 0.119478
H	-2.889520325	 0.362929395	 0.91236475	 0.09561
114.5461	129.3694	223.1064	308.5245	337.399	358.7345	431.0844	459.0623	504.6885	534.9715	666.6454	680.9791	781.2975	807.3275	850.7225	880.1261	932.4304	948.2473	981.7826	1028.514	1038.1427	1059.2539	1081.4351	1090.7448	1120.3507	1168.0718	1180.1236	1224.1663	1245.1755	1258.3321	1289.7011	1302.148	1334.5557	1342.4793	1380.2749	1410.2989	1436.3853	1471.5182	1473.6244	1504.0498	1754.1726	2977.0951	3027.6215	3033.4538	3060.5572	3063.0157	3076.3431	3085.1436	3128.3448	3163.6338	3794.539
OC1CC2OCCC=C12	O[C@@H]1C[C@@H]2OCC[CH][C]12	
InChI=1S/C7H10O2/c8-6-4-7-5(6)2-1-3-9-7/h2,6-8H,1,3-4H2	InChI=1S/C7H10O2/c8-6-4-7-5(6)2-1-3-9-7/h2,6-8H,1,3-4H2/t6-,7+/m1/s1
