19
gdb 4786	2.12467	1.2922751	0.8560714	1.8544	78.77	-0.2427	-0.03198	0.21072	1356.7842	0.151985	-422.51886	-422.507879	-422.506935	-422.55578	37.558	
C	 1.3544777277	-0.117018954	-0.3846354033	-0.248666
O	-0.0374030245	 0.1199615243	-0.2450057375	-0.252389
C	-0.4008746978	 0.7453173453	 0.9767840843	 0.057456
C	-0.0859849054	 2.2347552752	 0.8278905829	 0.154862
O	 0.8595197064	 2.7803335011	 1.3333863115	-0.248501
C	-1.9058036248	 0.4917470134	 1.1881558171	-0.183905
C	-2.2098806043	-1.0094738295	 1.3452203841	-0.400527
C	-2.3834588744	 1.2720332716	 2.3278954025	 0.308157
C	-2.7526657816	 1.9103640028	 3.2772670467	-0.455302
H	 1.7214477549	-0.7949418204	 0.3990870201	 0.116373
H	 1.4954493331	-0.586113436	-1.36066736	 0.133242
H	 1.9390255736	 0.8108838172	-0.3426469085	 0.1319
H	 0.1819761087	 0.3464180296	 1.8191958058	 0.091468
H	-0.767115541	 2.770150824	 0.1279086188	 0.084861
H	-2.4098930897	 0.8529313943	 0.2805372612	 0.118605
H	-1.746553727	-1.4028207519	 2.2549090892	 0.126104
H	-3.2876351922	-1.1752794465	 1.4145902258	 0.12767
H	-1.8193871654	-1.5555227575	 0.4844280821	 0.136081
H	-3.0839062563	 2.4798145667	 4.1103387471	 0.20251
47.8433	57.7349	100.0757	117.3784	180.768	196.4876	215.8524	236.8178	282.1105	330.1781	401.2239	412.9296	480.0154	538.2378	566.3746	638.4492	655.0812	851.8664	935.3654	942.6727	1005.3614	1057.9535	1085.2914	1110.8488	1128.3416	1163.6287	1187.0793	1219.5188	1266.6731	1312.1866	1335.6624	1369.8629	1402.04	1419.2343	1480.0609	1488.4791	1493.8338	1500.0585	1511.0892	1833.2282	2235.8683	2877.6219	2998.0048	3007.783	3021.1141	3050.4093	3059.0253	3122.8223	3126.5088	3142.1349	3503.1789
COC(C=O)C(C)C#C	CO[C@@H](C=O)[C@@H](C)C#C	
InChI=1S/C7H10O2/c1-4-6(2)7(5-8)9-3/h1,5-7H,2-3H3	InChI=1S/C7H10O2/c1-4-6(2)7(5-8)9-3/h1,5-7H,2-3H3/t6-,7-/m0/s1
