19
gdb 4665	3.7142604	1.1216718	1.006007	1.791	77.23	-0.26026	0.00838	0.26864	1247.7837	0.157148	-422.539964	-422.531291	-422.530347	-422.574837	31.29	
C	 1.6307471389	-0.0515737953	 0.1816105088	-0.239408
O	 0.3382978478	-0.3962180182	 0.6947575482	-0.23557
C	-0.4855490272	 0.6480263355	 0.9273633956	 0.280166
O	-0.1835245942	 1.7981231029	 0.7267686401	-0.375161
C	-1.8010339327	 0.1797185093	 1.462661725	 0.284176
C	-2.0629356458	-0.5567795413	 2.8166072804	-0.248141
C	-3.4551462641	-0.3914731133	 2.1411684192	-0.055569
C	-3.0333691373	 1.0650487428	 1.7801439552	-0.248913
C	-2.7830363934	-0.8467327718	 0.8131740743	-0.24855
H	 2.1672990299	 0.5902501411	 0.8852255231	 0.139848
H	 2.1591388211	-0.9954901618	 0.0468369057	 0.131512
H	 1.5396871693	 0.47559965	-0.7716122589	 0.140182
H	-1.6685754657	-1.5721346183	 2.8995083518	 0.101019
H	-1.8802506859	 0.0262728981	 3.723042069	 0.099002
H	-4.4174988961	-0.717654136	 2.534687819	 0.077931
H	-3.5318367032	 1.5264882715	 0.9243533541	 0.098716
H	-2.9248568955	 1.768017242	 2.6092169759	 0.099878
H	-2.4377211903	-1.88164997	 0.7604877174	 0.101123
H	-3.2619654857	-0.5298243771	-0.117042294	 0.097758
20.0809	109.5997	126.3625	137.8348	246.8442	307.8899	374.8989	453.2753	536.0196	561.0883	723.0174	796.7697	807.4092	818.897	890.9872	929.1708	958.7792	963.9671	967.5218	997.364	1018.7392	1096.5966	1102.1316	1135.1404	1141.6109	1165.0365	1165.4452	1169.1712	1178.4731	1215.2821	1231.9804	1234.1811	1252.3559	1344.3501	1473.2714	1481.6695	1497.4373	1498.5219	1500.8297	1554.7295	1814.0036	3050.1877	3054.8469	3056.8162	3063.6281	3117.1774	3122.9755	3123.8002	3127.9321	3129.0041	3157.1416
COC(=O)C12CC(C1)C2	COC(=O)[C@@]12C[C@@H](C1)C2	
InChI=1S/C7H10O2/c1-9-6(8)7-2-5(3-7)4-7/h5H,2-4H2,1H3	InChI=1S/C7H10O2/c1-9-6(8)7-2-5(3-7)4-7/h5H,2-4H2,1H3/t5-,7-
