19
gdb 6033	3.1525681	1.0136253	0.8082789	1.9386	78.28	-0.24304	-0.01988	0.22316	1431.4967	0.155736	-422.571156	-422.561921	-422.560977	-422.606196	32.683	
C	 1.4925057335	 0.8145950029	 0.0133850945	-0.229662
O	 0.0905815448	 0.8984109502	 0.120140253	-0.238759
C	-0.462370842	-0.1437002981	 0.8936643136	-0.057727
C	-1.9758793494	 0.0654925963	 0.956122889	-0.17383
C	-2.4367103011	 1.2792660239	 1.7199953668	-0.067013
C	-3.3177544597	 0.9833149593	 2.6773217339	-0.081751
C	-3.6220521027	-0.4891522239	 2.7497789902	-0.369412
C	-2.6846962484	-1.0895985502	 1.690981958	 0.384604
O	-2.5065675332	-2.2613772603	 1.4821783885	-0.312736
H	 1.8097109219	-0.1252775321	-0.4648151775	 0.107867
H	 1.8242740747	 1.6542130035	-0.6021142164	 0.127791
H	 1.981662637	 0.8797068599	 0.9981659465	 0.105566
H	-0.2502860407	-1.1278398309	 0.4477988938	 0.109599
H	-0.0339790282	-0.1396241827	 1.9105548139	 0.087254
H	-2.3336661074	 0.0862256883	-0.0840552237	 0.118125
H	-2.0699170528	 2.2710672778	 1.4862197906	 0.112933
H	-3.7807461424	 1.7054155886	 3.3399745734	 0.101994
H	-3.4273167777	-0.94388235	 3.7290323434	 0.13719
H	-4.6646605162	-0.7339994524	 2.5046730581	 0.13797
54.8737	86.3472	98.5869	131.2295	220.6235	259.6931	291.8862	363.998	451.1399	528.3757	584.9356	632.118	728.4323	762.4031	805.6241	900.6589	925.3958	971.4056	989.4109	1003.0715	1072.4681	1091.29	1128.9251	1146.1802	1153.0106	1165.7601	1183.821	1221.5934	1241.6115	1254.8619	1282.7976	1323.3457	1380.4056	1409.0523	1442.5065	1479.4031	1484.4598	1503.6164	1528.6201	1677.8608	1845.858	2956.0625	2973.8504	2999.0429	3011.7463	3017.632	3023.2655	3055.2648	3115.2586	3193.0064	3220.1449
COCC1C=CCC1=O	COC[C@@H]1C=CCC1=O	
InChI=1S/C7H10O2/c1-9-5-6-3-2-4-7(6)8/h2-3,6H,4-5H2,1H3	InChI=1S/C7H10O2/c1-9-5-6-3-2-4-7(6)8/h2-3,6H,4-5H2,1H3/t6-/m0/s1
