19
gdb 2688	3.1486515	1.2065513	1.0231059	3.5047	76.16	-0.23841	-0.02543	0.21298	1213.6383	0.154186	-422.535959	-422.526583	-422.525639	-422.570346	33.911	
C	 0.856973399	 0.883747453	 0.023452074	-0.420973
C	 1.0548247445	-0.5997967948	 0.3031764729	-0.065442
C	 2.205224661	-1.0789909443	 1.3008219774	-0.128585
C	 3.1162884349	-0.0310320582	 1.8850785788	 0.150473
O	 3.1083917587	 0.2968051928	 3.0465910663	-0.25944
C	 2.7785300918	-1.8979619449	 0.1300738538	-0.079498
O	 3.0683031682	-0.9687579711	-0.9250495921	-0.285638
C	 1.7214123046	-1.4576663433	-0.7944927282	 0.419493
C	 1.0856533822	-2.0934529925	-1.9868107296	-0.506143
H	 0.6013358312	 1.4276785616	 0.9382394475	 0.131195
H	 1.7630063196	 1.3266486327	-0.3982891543	 0.135663
H	 0.0409668149	 1.0349030807	-0.6913673894	 0.118044
H	 0.1154860953	-1.05825202	 0.6278931637	 0.088314
H	 1.7959965108	-1.6866146557	 2.110406606	 0.0954
H	 3.8128864156	 0.4370008718	 1.158224916	 0.094759
H	 3.3650829292	-2.8093359068	 0.1640044756	 0.110164
H	 0.201898128	-2.6693556335	-1.6942874629	 0.127889
H	 0.7684427402	-1.3339454242	-2.7101972758	 0.135609
H	 1.7923757704	-2.7619850132	-2.4853054297	 0.138716
53.9469	101.4958	187.2274	202.5383	216.7287	230.1695	239.7049	324.0543	402.1566	449.9688	525.4864	574.6299	673.9462	713.4164	790.8286	852.8788	863.8963	921.0703	992.9345	1000.1489	1021.3779	1052.9638	1055.196	1100.0287	1132.6782	1147.6895	1196.1503	1210.161	1251.558	1271.9717	1297.5869	1356.4994	1405.4987	1406.9037	1421.0163	1467.9429	1483.0064	1493.8747	1496.7062	1506.1733	1816.3087	2915.0996	3035.6016	3037.4232	3059.4723	3098.2041	3099.8583	3101.2918	3121.8711	3123.0639	3182.188
CC1C(C=O)C2OC12C	C[C@@H]1[C@H](C=O)[C@@H]2O[C@]12C	
InChI=1S/C7H10O2/c1-4-5(3-8)6-7(4,2)9-6/h3-6H,1-2H3	InChI=1S/C7H10O2/c1-4-5(3-8)6-7(4,2)9-6/h3-6H,1-2H3/t4-,5+,6+,7-/m1/s1
