19
gdb 2091	2.7495063	1.7765629	1.451197	0.2809	74.57	-0.23735	0.07899	0.31634	986.6894	0.156343	-422.528921	-422.521077	-422.520133	-422.560606	31.298	
C	 4.0348795675	-0.3519255255	 2.5671446199	-0.508673
C	 2.5774010004	-0.3121980486	 2.2180260883	 0.378578
C	 1.5024326181	-0.9996982677	 3.089323903	-0.244089
C	 0.3566262468	-0.2749993724	 2.368876656	-0.012382
O	 0.622520255	 1.1161823979	 2.7239763883	-0.298504
C	 1.7446911178	 1.0072872296	 1.8486885057	-0.038029
C	 1.078092575	-0.0386208449	 0.9487482118	 0.433365
C	 0.3061361793	 0.1422296993	-0.3195528153	-0.521883
O	 2.2423132815	-0.8667674685	 0.9006373148	-0.357584
H	 4.2017675985	 0.118984709	 3.5410053194	 0.12785
H	 4.394039955	-1.385028399	 2.6208888962	 0.131569
H	 4.6304281421	 0.1774488886	 1.8176487823	 0.127418
H	 1.5290994075	-2.0821900594	 2.9491641446	 0.107362
H	 1.5246254793	-0.7392827413	 4.1496156355	 0.107103
H	-0.6813422356	-0.5753790782	 2.5023041003	 0.081493
H	 2.2398353049	 1.9369252281	 1.5698559197	 0.087263
H	-0.1402682421	-0.8051296342	-0.6396234227	 0.131506
H	-0.4981303687	 0.8674724898	-0.1646776632	 0.136646
H	 0.9558838777	 0.5030376375	-1.1221654345	 0.130991
191.6356	207.8279	211.4161	238.0967	259.5451	328.9866	462.3736	533.8347	539.2646	600.7718	631.0611	708.4821	762.6893	793.9069	853.859	868.0537	878.7067	902.8873	937.3777	960.1916	991.1126	1039.3643	1055.432	1091.816	1124.8495	1138.2886	1164.4217	1202.1021	1226.6936	1229.7557	1237.7497	1305.399	1323.1425	1385.8384	1411.2241	1432.0943	1463.0903	1478.5662	1480.0902	1491.9063	1494.539	3036.9671	3038.8751	3074.9676	3106.1801	3107.7027	3114.4119	3119.8903	3128.8776	3137.2724	3139.8982
CC12CC3OC1C3(C)O2	C[C@@]12C[C@H]3O[C@@H]1[C@@]3(C)O2	
InChI=1S/C7H10O2/c1-6-3-4-7(2,9-6)5(6)8-4/h4-5H,3H2,1-2H3	InChI=1S/C7H10O2/c1-6-3-4-7(2,9-6)5(6)8-4/h4-5H,3H2,1-2H3/t4-,5+,6-,7+/m1/s1
