19
gdb 5704	3.7121495	1.0590039	0.9579387	2.4179	75.53	-0.25848	0.04895	0.30743	1275.7057	0.156289	-422.502653	-422.494116	-422.493172	-422.536106	32.242	
O	 1.5836314881	 0.457422402	-0.1641173133	-0.412885
C	 0.5439134708	-0.2186351563	 0.5265726923	-0.099351
C	-0.2115253263	 0.7149185233	 1.4452599771	-0.09512
O	-1.1024086887	 0.1009550555	 2.3904914803	-0.295316
C	 0.0482416721	 0.7749022213	 2.8861077121	 0.463734
C	 1.1849616966	 0.1139550769	 3.6977017974	-0.335056
C	 1.1590106021	 1.3449203292	 4.6191597824	-0.04313
C	-0.2010389382	 1.4978502566	 5.2290101448	-0.278514
C	 0.0066283616	 1.965507627	 3.8098763999	-0.141002
H	 2.2079832419	 0.7850057179	 0.4914033502	 0.285659
H	-0.1303110141	-0.6028634412	-0.2459407084	 0.121609
H	 0.9120720295	-1.0816461856	 1.1001656899	 0.098169
H	-0.6122598971	 1.6049868512	 0.9556306796	 0.095743
H	 0.9474422359	-0.8447824713	 4.1686497317	 0.113703
H	 2.1115043782	 0.0060898996	 3.1259863546	 0.099126
H	 2.0341627626	 1.8425164908	 5.0155074762	 0.093236
H	-0.8156928032	 0.6245338842	 5.4319276624	 0.120953
H	-0.3031059695	 2.2947301478	 5.9585389487	 0.116144
H	-0.1549442525	 2.9944121511	 3.512703792	 0.0923
67.6085	114.36	158.5541	189.4765	317.6581	345.0074	390.3112	414.4347	464.9383	545.6652	564.3157	753.3102	783.1177	810.4845	850.9026	899.8212	937.7936	950.2416	978.8347	985.9131	1025.9633	1055.088	1063.6616	1083.6531	1089.6093	1104.6473	1106.4704	1144.261	1186.4996	1198.6042	1219.9037	1242.4858	1287.581	1312.7821	1349.7665	1375.0424	1415.9541	1476.2103	1492.7104	1504.6454	1518.0003	3003.3553	3048.4329	3075.9347	3095.7893	3097.1723	3114.911	3186.2675	3197.9223	3209.2924	3814.1726
OCC1OC11CC2CC12	OC[C@H]1O[C@]21C[C@@H]1C[C@H]21	
InChI=1S/C7H10O2/c8-3-6-7(9-6)2-4-1-5(4)7/h4-6,8H,1-3H2	InChI=1S/C7H10O2/c8-3-6-7(9-6)2-4-1-5(4)7/h4-6,8H,1-3H2/t4-,5-,6+,7+/m0/s1
