19
gdb 653	2.1525818	1.8109966	1.7501347	2.4466	73.76	-0.23242	-0.01949	0.21292999999999998	949.3793	0.159892	-422.593271	-422.585916	-422.584972	-422.624839	29.071	
O	 1.1816233471	 0.0037960787	-0.1293123078	-0.329442
C	-0.0160873197	-0.0066094661	-0.0331394487	 0.412581
C	-0.9726603897	-1.1921431134	 0.0251177311	-0.141825
C	-1.9885947833	-0.6658680532	 1.0440223183	-0.088927
O	-2.0127746574	 0.7707954656	 0.8854404217	-0.284436
C	-0.9849975462	 1.1713797092	-0.0213965059	 0.007623
C	-1.5398498588	 1.2830354035	-1.4606622678	-0.226023
C	-2.3202891007	 0.0001531823	-1.8086040861	-0.196555
C	-1.5718387211	-1.2891701761	-1.408946552	-0.226435
H	-0.4837589133	-2.1201495216	 0.3231958251	 0.092916
H	-3.0020167433	-1.0512413562	 0.8837180616	 0.106765
H	-1.6856017754	-0.9101052484	 2.07055963	 0.108896
H	-0.5322466502	 2.1007186824	 0.330430829	 0.097211
H	-2.1913597647	 2.1591149841	-1.5414937361	 0.109679
H	-0.6980647961	 1.4380037606	-2.1473985498	 0.11414
H	-3.2803234323	 0.0342892532	-1.2838937475	 0.119307
H	-2.5521982748	-0.0232774154	-2.8780574146	 0.10144
H	-2.2504337775	-2.1478391463	-1.4622094385	 0.106198
H	-0.7523491126	-1.4882114828	-2.109701952	 0.116887
133.4153	159.3176	256.6153	280.2515	355.2979	442.8512	460.8015	498.239	658.4355	710.1376	746.3879	793.9749	814.2375	844.2353	868.0699	902.6258	943.9617	976.7847	995.1763	1033.3527	1071.3559	1072.2534	1088.9223	1114.6483	1180.2146	1189.9671	1209.8981	1239.4458	1280.856	1291.3143	1308.5004	1318.2007	1351.0757	1373.6333	1375.4981	1392.3606	1477.5262	1485.9801	1496.7062	1527.5749	1867.291	3013.6764	3031.8545	3032.3909	3049.3181	3055.48	3071.0805	3078.4284	3094.346	3096.7397	3113.5817
O=C1C2COC1CCC2	O=C1[C@H]2CO[C@@H]1CCC2	
InChI=1S/C7H10O2/c8-7-5-2-1-3-6(7)9-4-5/h5-6H,1-4H2	InChI=1S/C7H10O2/c8-7-5-2-1-3-6(7)9-4-5/h5-6H,1-4H2/t5-,6-/m1/s1
