19
gdb 1222	2.7530515	0.8702842	0.769445	1.3517	78.23	-0.25033	-0.03507	0.21526	1522.0453	0.152009	-422.539692	-422.528913	-422.527969	-422.576204	38.165	
C	-1.8340589979	 1.7408621315	-2.6027323506	-0.417887
C	-1.2424876057	 2.2182466671	-1.2719998121	 0.242841
O	 0.1690334928	 2.3129246844	-1.4932626819	-0.457148
C	-1.5771174907	 1.3101916318	-0.0813897427	-0.2132
C	-1.0683942742	-0.1361706395	-0.2440816528	-0.377423
C	-1.2447436634	-0.9250483786	 0.9685859972	 0.287283
C	-1.3995686279	-1.5532399042	 1.9815253557	-0.426634
C	-1.7559614066	 3.64358462	-1.0286494333	 0.125751
O	-2.5541163745	 3.9686651366	-0.1902851291	-0.249087
H	-1.3554746834	 0.8083049471	-2.9116812423	 0.139821
H	-2.9118592296	 1.5809753381	-2.5143174072	 0.133041
H	-1.6508782008	 2.4813248904	-3.3871530886	 0.12956
H	 0.5875581577	 2.5719405264	-0.663982537	 0.287402
H	-1.1366117793	 1.7455651443	 0.8237269277	 0.109214
H	-2.657698215	 1.3189305669	 0.0849013644	 0.131022
H	-1.5913563245	-0.6288169053	-1.0725174687	 0.13341
H	-0.0083685523	-0.1137451142	-0.5238031525	 0.138335
H	-1.5322492882	-2.1188813602	 2.8700960845	 0.194412
H	-1.2884976166	 4.3822356272	-1.7200896807	 0.089286
48.8926	62.6293	103.4772	113.5199	207.4322	228.3384	259.0474	322.826	341.3504	365.9161	367.2807	416.0101	464.3995	515.9915	618.8127	626.1614	639.4156	764.118	783.3847	903.7547	956.8089	960.3568	980.9734	1019.8704	1047.0307	1105.9197	1153.2668	1212.4433	1227.5409	1301.0115	1304.1228	1362.8108	1382.9658	1401.6909	1406.2659	1470.6123	1483.9005	1490.2154	1502.4992	1835.1283	2240.3993	2875.0764	3030.5766	3042.8638	3046.9095	3063.8808	3103.212	3117.9564	3133.0176	3507.6698	3793.092
CC(O)(CCC#C)C=O	C[C@](O)(CCC#C)C=O	
InChI=1S/C7H10O2/c1-3-4-5-7(2,9)6-8/h1,6,9H,4-5H2,2H3	InChI=1S/C7H10O2/c1-3-4-5-7(2,9)6-8/h1,6,9H,4-5H2,2H3/t7-/m0/s1
