19
gdb 2565	2.2423703	1.6704341	1.2330783	2.2795	77.36	-0.24592	-0.02559	0.22033	1092.4594	0.154556	-422.601662	-422.592143	-422.591199	-422.635593	35.304	
C	 1.4233774003	 0.712076084	 0.6880230802	-0.497423
C	 0.1079245865	 0.1300401227	 0.2850202471	 0.309577
C	-0.1310374625	-1.0960519974	-0.1940309292	-0.190193
C	-1.5917873294	-1.3734579923	-0.4516794493	-0.376593
C	-2.2442121397	-0.1519352923	 0.1903454656	 0.356581
O	-3.3756711129	-0.0384381597	 0.5884265003	-0.328573
C	-1.1717721573	 0.9402449619	 0.3840694219	 0.20126
C	-1.2977644421	 2.0072504833	-0.72024769	-0.430631
O	-1.3150751846	 1.5417076609	 1.660538173	-0.477557
H	 1.3807329992	 1.0547360942	 1.7276663488	 0.150962
H	 2.2305096271	-0.0189641126	 0.5913618373	 0.121683
H	 1.6797045242	 1.5873048227	 0.0784570939	 0.128592
H	 0.6380669053	-1.8389408333	-0.3769193076	 0.096928
H	-1.8460183977	-1.4199768152	-1.520515374	 0.136035
H	-1.9702507117	-2.2985352432	-0.0024510733	 0.136461
H	-0.5358735594	 2.7778023467	-0.5743500655	 0.129996
H	-1.1743610084	 1.5771398044	-1.7194027981	 0.116926
H	-2.283056608	 2.4803245574	-0.6611786828	 0.12673
H	-2.2629767389	 1.5280454477	 1.8542367615	 0.289239
57.2751	170.8177	190.4077	222.6397	235.6891	253.2222	260.2933	299.8597	355.462	391.975	512.4711	548.9617	573.3503	632.9283	677.654	697.8077	822.6565	837.2518	940.7382	962.7734	972.0967	1034.4288	1060.6155	1063.8387	1084.429	1112.7557	1160.6193	1213.0241	1233.0319	1286.9149	1326.2392	1388.8461	1402.912	1411.795	1452.9706	1474.4726	1487.2521	1489.1525	1491.734	1711.1299	1846.8408	3011.26	3027.1803	3034.7009	3065.3858	3082.2892	3109.9722	3116.2402	3119.5162	3187.3384	3744.2219
CC1=CCC(=O)C1(C)O	CC1=CCC(=O)[C@@]1(C)O	
InChI=1S/C7H10O2/c1-5-3-4-6(8)7(5,2)9/h3,9H,4H2,1-2H3	InChI=1S/C7H10O2/c1-5-3-4-6(8)7(5,2)9/h3,9H,4H2,1-2H3/t7-/m0/s1
