19
gdb 5946	4.0469753	1.0413688	0.9889038	1.3023	75.82	-0.22522	0.08029	0.30551	1288.7469	0.156092	-422.472631	-422.464299	-422.463355	-422.506212	31.175	
C	 0.072604994	-0.3327901765	-0.61556204	-0.388784
C	 1.1102234505	 0.0710514153	 0.4149654527	-0.059258
O	 1.4469442573	 1.4455352406	 0.1931469529	-0.285762
C	 2.3540070665	 1.9396319259	 1.0719910231	 0.369386
C	 2.6350517965	 3.3660087106	 1.4822642449	-0.184462
C	 4.1184408228	 3.2429546557	 1.1437521623	-0.227833
C	 3.9212432037	 1.7210296123	 1.3625480468	-0.015906
O	 3.6444884429	 1.6058525732	 2.7824336573	-0.280554
C	 2.3931860664	 2.2365506812	 2.5362507003	-0.013106
H	-0.8255831608	 0.2837980166	-0.5196684137	 0.129084
H	 0.466486335	-0.2099376411	-1.6283661802	 0.129568
H	-0.2090360365	-1.3808653164	-0.4773760977	 0.119194
H	 0.7261026133	-0.0483320417	 1.4374753358	 0.103357
H	 2.0149429228	-0.5471953064	 0.3263939745	 0.102139
H	 1.977142414	 4.2224457219	 1.4108764369	 0.096355
H	 4.3099608077	 3.4815163825	 0.094574499	 0.107916
H	 4.8553305567	 3.7249251835	 1.793226935	 0.101554
H	 4.61168311	 0.9672099967	 0.9903802853	 0.087235
H	 1.6509064973	 2.2821361462	 3.3215429647	 0.109876
61.8647	91.3387	120.7518	237.9916	312.7926	324.1775	376.8092	490.8811	551.1939	648.7192	731.6295	777.2427	813.4307	820.3357	852.5271	918.024	925.0557	934.316	964.8215	971.0548	1031.1848	1051.0369	1067.9608	1073.9781	1098.0653	1133.1648	1145.2491	1153.729	1184.3688	1214.1036	1233.7348	1267.9972	1293.8829	1313.0286	1393.5639	1415.843	1473.5535	1482.9957	1495.237	1498.944	1526.3305	2998.5149	3034.1011	3045.884	3053.1288	3116.5447	3120.6341	3123.2081	3146.4251	3204.5522	3215.9485
CCOC12C3CC1OC23	CCO[C@]12[C@@H]3C[C@H]1O[C@H]23	
InChI=1S/C7H10O2/c1-2-8-7-4-3-5(7)9-6(4)7/h4-6H,2-3H2,1H3	InChI=1S/C7H10O2/c1-2-8-7-4-3-5(7)9-6(4)7/h4-6H,2-3H2,1H3/t4-,5-,6+,7-/m1/s1
