19
gdb 3255	3.1117769	1.7215589	1.6900822	1.7795	72.49	-0.25142	0.08248	0.3339	912.4725	0.160251	-422.566853	-422.560166	-422.559222	-422.597563	27.759	
C	-0.1189311936	-0.1305679126	-0.1688700458	-0.419778
C	 1.3720592897	 0.0576575699	 0.0599009087	 0.018405
C	 1.994013553	 1.4636679101	 0.3210641136	-0.11357
C	 1.2108882116	 2.2522033673	 1.3983549647	-0.240223
C	 1.6657160976	 1.4776720575	 2.649776941	 0.172313
O	 1.245998225	 0.1192471839	 2.5225556011	-0.276408
C	 2.0013499456	-0.3757727122	 1.4057069865	 0.051681
C	 3.0644345291	 0.7655733905	 1.2499862618	 0.075084
O	 3.0736018706	 1.4326153314	 2.4935882596	-0.242462
H	-0.6984133649	 0.1991938054	 0.69685312	 0.129626
H	-0.4608051732	 0.4270991708	-1.0474904196	 0.113003
H	-0.3530575747	-1.187690424	-0.3352477905	 0.115589
H	 1.9396227612	-0.4221585952	-0.7479072937	 0.072167
H	 2.3145000947	 2.0617966896	-0.5317080221	 0.068543
H	 1.5485761201	 3.2903073008	 1.4607657263	 0.108469
H	 0.1287395828	 2.2403706527	 1.2589136592	 0.108999
H	 1.3885849544	 1.8580194008	 3.6317477566	 0.091957
H	 2.2670981709	-1.4172444197	 1.5927610548	 0.075999
H	 4.0658502902	 0.5503719631	 0.888830088	 0.090605
173.5184	212.4413	257.6513	422.8267	446.6129	532.3935	595.6989	627.7939	665.359	752.4922	817.396	829.0488	849.4909	857.4977	872.9443	925.6147	954.1639	966.6454	982.7757	1010.1507	1049.6663	1071.7507	1088.6533	1114.6998	1119.9015	1147.2027	1171.8998	1199.3057	1223.5114	1245.5361	1277.2706	1289.9395	1307.1969	1329.023	1349.6693	1368.5982	1384.0332	1412.8518	1479.1696	1491.6673	1514.0072	3022.8636	3036.6021	3068.3569	3093.9384	3099.9603	3108.4339	3123.6293	3129.2267	3143.9968	3168.9968
CC1C2CC3OC1C2O3	C[C@H]1[C@H]2C[C@H]3O[C@@H]1[C@@H]2O3	
InChI=1S/C7H10O2/c1-3-4-2-5-8-6(3)7(4)9-5/h3-7H,2H2,1H3	InChI=1S/C7H10O2/c1-3-4-2-5-8-6(3)7(4)9-5/h3-7H,2H2,1H3/t3-,4+,5-,6-,7+/m0/s1
