19
gdb 894	1.6214554	1.4296521	0.8593054	4.828	76.28	-0.25245	-0.03205	0.2204	1359.507	0.153373	-422.559852	-422.549949	-422.549004	-422.596359	34.346	
O	 0.2210943603	-1.1719236047	-0.2148767932	-0.232597
C	 0.2742489498	 0.0169675356	-0.0410560174	 0.1654
C	-0.3927686943	 0.756520763	 1.1055495749	-0.359032
C	-1.102140717	 2.027350124	 0.6550329863	 0.340035
C	-2.3282390724	 1.7979094065	-0.2197461042	-0.35902
C	-3.4745763237	 1.1456200827	 0.5332284932	 0.165395
O	-4.1434876195	 0.2382065921	 0.114104642	-0.232598
C	-0.2503951273	 3.2486271882	 0.3818375709	-0.314099
C	-1.1278152029	 3.2045878871	 1.6063824466	-0.314109
H	 0.8516786571	 0.6745589135	-0.7319956321	 0.077675
H	-1.0674360118	 0.0618433	 1.6168270703	 0.130918
H	 0.4040760529	 1.0227140352	 1.814294786	 0.122512
H	-2.6992384191	 2.7682922793	-0.5787180906	 0.122514
H	-2.1032466292	 1.187049478	-1.1003058875	 0.130919
H	-3.6720275942	 1.5909524049	 1.5361951623	 0.077674
H	 0.8221496106	 3.1661656885	 0.5216716177	 0.118827
H	-0.539156288	 3.9005378184	-0.4353264937	 0.120379
H	-0.6543093447	 3.0890530655	 2.5751836753	 0.120379
H	-2.0127526564	 3.8317966122	 1.6206055432	 0.118828
44.0506	55.2192	65.6525	115.0062	191.2268	209.0998	305.3156	331.1514	369.8294	457.1431	493.1672	519.8477	714.287	762.9271	804.8018	806.9199	892.0901	929.5737	970.1169	976.5757	1000.724	1050.5678	1068.6852	1076.781	1084.3551	1092.3332	1189.4126	1199.7364	1204.6657	1290.1403	1294.2892	1338.668	1366.952	1427.5691	1428.8753	1452.3909	1453.1218	1474.7565	1506.5256	1835.0885	1840.4122	2862.0409	2862.8943	3016.05	3018.3962	3084.0003	3084.9296	3132.3208	3136.2055	3210.1725	3223.5067
O=CCC1(CC=O)CC1	O=CCC1(CC=O)CC1	
InChI=1S/C7H10O2/c8-5-3-7(1-2-7)4-6-9/h5-6H,1-4H2	InChI=1S/C7H10O2/c8-5-3-7(1-2-7)4-6-9/h5-6H,1-4H2
