19
gdb 3244	2.4541365	2.1510426	1.6430865	2.6348	73.29	-0.22964	0.07095	0.30059	897.6622	0.160467	-422.552674	-422.545931	-422.544987	-422.583313	28.241	
O	 0.5591612444	 0.6425233222	 0.5431473295	-0.438217
C	-0.6012585203	-0.0312462687	 0.9900650067	 0.156439
C	-1.7303200593	 0.0414580074	-0.0506121783	-0.097045
C	-2.8367779158	-0.7529257825	 0.6957813251	-0.25965
C	-2.8292830332	 0.4652050786	 1.6471490238	-0.057496
C	-2.5086356128	 1.3359585407	 0.4100260815	 0.156875
O	-1.7741527321	 2.4729320463	 0.7940169751	-0.277207
C	-1.1750471801	 2.152070765	 2.0598599623	-0.055733
C	-1.3743126939	 0.636976612	 2.1851164352	-0.136956
H	 1.2669704565	 0.4762244092	 1.1732221774	 0.281293
H	-0.358084869	-1.0785282645	 1.2173912845	 0.065004
H	-1.4565477716	-0.1589057975	-1.0855689886	 0.069227
H	-3.7696173634	-0.8205618194	 0.1310925049	 0.102747
H	-2.5741928081	-1.7376293212	 1.091318989	 0.094635
H	-3.6453244503	 0.6935667113	 2.3329276525	 0.066673
H	-3.3356406183	 1.622649533	-0.2401161462	 0.081589
H	-0.1216811654	 2.4413670117	 2.0339437546	 0.101151
H	-1.6805030754	 2.7035398651	 2.8659283457	 0.085759
H	-1.1575419417	 0.2307784114	 3.1746840455	 0.060913
185.7953	277.0152	319.1608	335.1579	409.1685	429.4011	534.1811	611.1847	687.0884	783.2966	795.6023	815.0322	836.8461	899.08	904.5863	926.6889	953.7357	978.7775	984.9173	1022.4795	1027.8494	1068.5047	1080.5985	1093.0485	1112.3686	1139.6538	1184.4745	1193.5017	1208.5053	1224.9607	1240.1659	1256.9373	1269.7901	1296.2287	1318.0802	1331.6145	1351.6413	1397.0411	1440.7978	1509.5851	1510.2009	2992.9344	2997.4758	3059.2899	3092.7098	3097.3243	3110.0772	3113.6058	3119.5712	3131.2743	3821.3195
OC1C2CC3C2OCC13	O[C@@H]1[C@H]2C[C@@H]3[C@H]2OC[C@H]13	
InChI=1S/C7H10O2/c8-6-4-1-3-5(6)2-9-7(3)4/h3-8H,1-2H2	InChI=1S/C7H10O2/c8-6-4-1-3-5(6)2-9-7(3)4/h3-8H,1-2H2/t3-,4+,5-,6+,7+/m0/s1
