19
gdb 5680	1.9724786	1.176007	0.8831601	1.3526	82.38	-0.2198	0.03946	0.25926	1418.6005	0.152992	-422.496013	-422.48527	-422.484326	-422.532971	37.211	
C	-2.2488644299	 3.0771671391	-0.7714408426	-0.240248
O	-2.6463679006	 2.4555328703	 0.4395490641	-0.229965
C	-3.3311594853	 1.2720450701	 0.235847916	 0.092372
C	-3.3073587265	 0.2736857874	 1.3478784351	-0.380281
C	-2.5785886089	-0.0323910888	 0.036029975	 0.146775
O	-3.2172550536	-0.9091112288	-0.8573483372	-0.445207
C	-1.1410987828	-0.0504926455	 0.0242342712	 0.108989
C	 0.0623354578	-0.1164594273	-0.0049049849	 0.005711
C	 1.5158489375	-0.1797233593	-0.0405166446	-0.500851
H	-1.5659492304	 2.4369325715	-1.3435627121	 0.125664
H	-3.1186787335	 3.3206238402	-1.3996609999	 0.107196
H	-1.7366697893	 4.002841759	-0.4999378558	 0.125604
H	-4.2448978626	 1.3508993109	-0.3563339699	 0.098212
H	-2.6932879013	 0.5146240089	 2.2075723537	 0.133314
H	-4.2120633046	-0.2901735855	 1.5444493486	 0.119717
H	-2.9915157556	-1.8083883964	-0.5928009733	 0.284255
H	 1.902239872	-0.9777731206	 0.6034443423	 0.146792
H	 1.8808949472	-0.3655806067	-1.0567764924	 0.149559
H	 1.9570725005	 0.7633268316	 0.3008400966	 0.152393
26.6072	72.4391	102.5606	141.866	175.105	188.1497	242.5898	284.5287	314.3372	352.6588	378.0822	440.1688	473.0871	565.2677	586.9206	638.2869	804.0501	884.2308	895.5158	992.8147	1023.2237	1050.9829	1054.608	1063.6157	1084.4649	1116.9413	1169.091	1183.1324	1210.4052	1259.6507	1313.1946	1359.0432	1393.6331	1414.5022	1459.9219	1476.1299	1479.5111	1487.2737	1492.2977	1505.8456	2360.0105	2992.1064	3025.3604	3058.8684	3084.3532	3088.1922	3089.2904	3123.9176	3141.141	3241.5521	3789.3188
COC1CC1(O)C#CC	CO[C@@H]1C[C@]1(O)C#CC	
InChI=1S/C7H10O2/c1-3-4-7(8)5-6(7)9-2/h6,8H,5H2,1-2H3	InChI=1S/C7H10O2/c1-3-4-7(8)5-6(7)9-2/h6,8H,5H2,1-2H3/t6-,7-/m1/s1
