19
gdb 3253	2.3573838	1.7406927	1.5374013	0.8184	74.42	-0.23955	0.06353	0.30308	989.0597	0.157114	-422.51363	-422.5058	-422.504856	-422.545369	31.175	
C	 2.1061395442	 1.4213684789	 0.029631427	-0.414084
C	 1.5237593815	 0.0114884249	 0.0032726531	-0.002319
C	 2.1610050419	-0.8766966425	-1.1077724911	-0.086032
C	 1.4562788773	-2.2527778045	-1.2545146686	-0.254516
C	 2.1160445226	-2.7286312387	 0.0609845837	 0.016651
O	 1.4726561313	-2.1577542441	 1.2210795213	-0.304912
C	 2.1683800879	-0.9011473233	 1.0808617823	 0.01786
C	 3.1032360857	-1.5095757746	-0.0217464331	 0.355997
O	 4.4739318265	-1.4895344217	-0.1264492151	-0.475521
H	 1.781965916	 1.9656226656	 0.9233508262	 0.114614
H	 3.2022394715	 1.3952275176	 0.0326967246	 0.126323
H	 1.7918103168	 1.9931309059	-0.8496399513	 0.117467
H	 0.4298797244	 0.0341742413	 0.0266371013	 0.07306
H	 2.52531124	-0.3794218721	-2.0067810652	 0.072003
H	 0.3640965736	-2.2726471039	-1.2906019967	 0.102732
H	 1.8614132927	-2.8088889179	-2.1063815489	 0.104388
H	 2.3605269557	-3.7838244704	 0.2008471819	 0.075594
H	 2.4542737944	-0.4715507539	 2.0449551886	 0.071524
H	 4.850115056	-1.9233742166	 0.6487403199	 0.28917
139.9763	241.0935	246.9256	274.2102	295.7528	353.924	384.5607	410.9348	459.9404	608.8136	697.4258	706.7625	794.7862	848.935	874.282	928.0433	954.1167	963.5077	994.2832	1004.7982	1017.5197	1038.6435	1059.825	1085.3719	1112.1358	1134.8124	1148.1589	1179.8451	1190.824	1246.1281	1259.8054	1270.5307	1285.4937	1320.5956	1331.8724	1353.7114	1404.7065	1411.6079	1469.4873	1496.6443	1500.1603	3025.3472	3047.1541	3057.6412	3071.4675	3087.7503	3093.9211	3098.6826	3107.3263	3111.422	3785.3224
CC1C2CC3OC1C23O	C[C@H]1[C@@H]2C[C@@H]3O[C@H]1[C@]23O	
InChI=1S/C7H10O2/c1-3-4-2-5-7(4,8)6(3)9-5/h3-6,8H,2H2,1H3	InChI=1S/C7H10O2/c1-3-4-2-5-7(4,8)6(3)9-5/h3-6,8H,2H2,1H3/t3-,4-,5-,6+,7-/m0/s1
