19
gdb 4926	2.2202881	1.1404556	0.871349	2.7824	80.74	-0.24774	0.03292	0.28065999999999997	1410.8705	0.153878	-422.489459	-422.47903	-422.478086	-422.527061	35.125	
C	-2.6197452464	-0.1718748137	-2.4193291246	-0.253587
O	-3.0238664157	-0.6783455443	-1.1610472	-0.268014
C	-2.4975696793	 0.0108547111	-0.0464384345	 0.160285
C	-3.2117019896	-0.4673385594	 1.2431179124	-0.109226
O	-3.7851715707	 0.8313723876	 1.4747473037	-0.268997
C	-3.1983487919	 1.3698931863	 0.2779057866	-0.111925
C	-1.0395736159	 0.0222090784	-0.0117589735	 0.094698
C	 0.1646492909	 0.0330560973	 0.0263769355	 0.006852
C	 1.6192421126	 0.0419352692	 0.0781867497	-0.500776
H	-3.1124948172	-0.7872016546	-3.1749621725	 0.130296
H	-2.9303081382	 0.8743241474	-2.5578854818	 0.106363
H	-1.5321849697	-0.2344871334	-2.5508251613	 0.120825
H	-3.9673538124	-1.2334025206	 1.0367715271	 0.114205
H	-2.556403897	-0.7857924117	 2.0598436654	 0.109264
H	-3.9535848644	 1.6560040893	-0.4646177887	 0.103588
H	-2.5342465042	 2.2155426708	 0.4854163657	 0.106585
H	 1.9750964517	 0.2382373828	 1.0954581635	 0.154623
H	 2.0327331385	-0.9219373962	-0.2377511265	 0.15375
H	 2.0375616889	 0.8153018036	-0.5751898062	 0.151191
19.0655	53.1564	93.0941	110.8738	134.5706	187.8788	250.5102	296.4332	320.6043	375.1552	433.6006	504.7211	549.3604	587.5611	811.7825	866.2558	951.5187	971.6987	1030.6846	1046.4275	1051.7777	1053.5831	1060.1715	1089.81	1154.7713	1161.0576	1183.7286	1193.7937	1222.5431	1285.4492	1302.724	1371.5028	1413.7401	1475.0014	1476.3029	1477.5256	1486.1058	1493.6049	1509.2667	1520.167	2362.4234	2992.2214	3016.558	3029.3836	3034.4128	3055.5905	3076.991	3091.0953	3091.2527	3092.5403	3125.2128
COC1(COC1)C#CC	COC1(COC1)C#CC	
InChI=1S/C7H10O2/c1-3-4-7(8-2)5-9-6-7/h5-6H2,1-2H3	InChI=1S/C7H10O2/c1-3-4-7(8-2)5-9-6-7/h5-6H2,1-2H3
