19
gdb 3054	3.6185466	1.4124329	1.2460175	1.3839	74.85	-0.25043	0.06841	0.31884	1042.54	0.158611	-422.489889	-422.482426	-422.481482	-422.521581	29.876	
O	 0.5000973145	 0.1752508135	 0.97936164	-0.440751
C	-0.8183996286	 0.6081104703	 0.8554725089	 0.087716
C	-1.749288318	 0.7970312205	 2.13218225	-0.157486
C	-1.8897323081	-0.7421783673	 2.1776774213	-0.292313
C	-2.0227911129	-0.3726754843	 0.6560300906	 0.267442
C	-2.8764716019	-1.160033191	-0.3082844222	-0.395198
C	-4.2941615624	-0.8662181886	 0.3146102223	-0.069513
O	-4.1810600115	 0.2237124937	 1.2681047787	-0.289018
C	-2.9080577808	 0.797603422	 1.0916065181	 0.141992
H	 0.5362839556	-0.568671839	 1.5892962472	 0.28556
H	-0.7895062064	 1.4568345521	 0.1669757198	 0.089304
H	-1.5770061218	 1.4823729076	 2.9625636671	 0.077261
H	-1.0173804686	-1.3304928198	 2.4787714629	 0.070899
H	-2.7861519396	-1.1258742054	 2.6626780855	 0.119226
H	-2.8077734143	-0.7621073043	-1.3254943537	 0.113941
H	-2.6678369441	-2.2320776391	-0.3445387839	 0.109853
H	-5.0198117015	-0.5929467101	-0.4605316863	 0.106926
H	-4.6848575688	-1.7338190756	 0.8561776543	 0.111259
H	-2.955256661	 1.6792883246	 0.4386186895	 0.062901
100.3289	212.1583	253.7456	291.7689	321.0131	404.4722	497.4247	522.3878	609.8758	692.2072	731.822	747.9302	829.2111	844.6769	896.223	907.6221	924.0876	945.1632	957.3417	989.8924	1044.7057	1055.0093	1073.4423	1106.7197	1139.36	1157.1444	1167.4822	1190.9066	1215.1114	1220.2906	1229.0691	1249.6645	1277.1144	1287.3403	1313.0307	1370.4931	1397.6804	1462.2657	1489.2312	1519.7994	1526.9612	3010.5395	3029.693	3051.013	3056.5788	3071.7028	3082.5865	3108.8893	3111.4493	3143.4077	3815.8163
OC1C2CC11CCOC21	O[C@@H]1[C@@H]2C[C@@]31CCO[C@@H]23	
InChI=1S/C7H10O2/c8-5-4-3-7(5)1-2-9-6(4)7/h4-6,8H,1-3H2	InChI=1S/C7H10O2/c8-5-4-3-7(5)1-2-9-6(4)7/h4-6,8H,1-3H2/t4-,5+,6-,7+/m0/s1
