19
gdb 3224	3.6468747	1.1464604	1.0166494	2.6462	74.76	-0.22972	0.07225	0.30197	1224.2525	0.15657	-422.516393	-422.508115	-422.50717	-422.548767	32.217	
C	 0.0730450303	 0.1785743751	 0.0459955051	-0.423253
C	 1.5797569015	 0.0416977367	 0.0349218714	-0.056325
C	 2.2032978581	-1.0856038923	-0.7474952123	 0.085432
O	 3.5258025511	-0.9484406769	-1.2150986992	-0.259806
C	 4.4355204573	-1.0501982535	-0.1473492376	 0.077726
C	 4.5443882411	 0.0839469313	 0.8287012865	 0.032504
O	 5.782778018	 0.1698729769	 1.4710663152	-0.42907
C	 3.6684912981	-1.1173810647	 1.157316937	-0.150154
C	 2.2093876432	-1.1381300725	 0.7629013273	-0.096822
H	-0.2766755896	 0.659827361	 0.9658982105	 0.120247
H	-0.2756156521	 0.7775711883	-0.8022048915	 0.122589
H	-0.4137190647	-0.8007690438	-0.0174935369	 0.115319
H	 2.1208028421	 0.9819465378	 0.0402603971	 0.090686
H	 1.5916998059	-1.7180529085	-1.3838799974	 0.095741
H	 5.3204127733	-1.6377811783	-0.3681017985	 0.109975
H	 4.0794325131	 1.0356439594	 0.5794432466	 0.093939
H	 5.6258184292	 0.4075408036	 2.3912404006	 0.287728
H	 3.9945497305	-1.7660179775	 1.961803991	 0.094582
H	 1.5580212335	-1.8089337121	 1.3115996154	 0.088961
150.8059	188.4586	227.6156	238.7872	277.4699	289.5083	332.3352	357.59	441.1932	517.246	707.1004	746.4753	816.702	819.5605	852.0843	876.9152	904.3576	930.9057	994.7035	1017.0698	1032.0849	1044.9301	1050.4623	1080.0275	1087.7053	1123.9914	1126.7208	1155.2878	1167.1667	1189.0436	1213.53	1273.0475	1285.824	1293.4008	1310.4803	1350.4757	1416.4021	1431.4297	1452.2322	1493.855	1501.5791	3026.7692	3091.5621	3093.8134	3119.1306	3153.2236	3165.1234	3170.2072	3171.5733	3186.8709	3799.7186
CC1C2OC3C(O)C3C12	C[C@@H]1[C@H]2O[C@H]3[C@H](O)[C@H]3[C@@H]12	
InChI=1S/C7H10O2/c1-2-3-4-5(8)7(4)9-6(2)3/h2-8H,1H3	InChI=1S/C7H10O2/c1-2-3-4-5(8)7(4)9-6(2)3/h2-8H,1H3/t2-,3+,4+,5+,6+,7+/m0/s1
