19
gdb 1977	2.3281186	2.045443	1.5178062	3.1005	73.83	-0.2382	0.07774	0.31594	960.5849	0.15589	-422.513407	-422.50538	-422.504435	-422.545278	31.769	
C	 0.8018184593	-2.7443634387	 1.5875739001	-0.503542
C	 1.06072519	-1.3019544313	 1.899064428	 0.393685
O	 0.5601526634	-0.7704467022	 3.1341646442	-0.277999
C	 1.9691032048	-0.7247185211	 2.8890848157	-0.049054
C	 2.4157893256	 0.5489386889	 2.1145033018	 0.015846
C	 2.7426512173	-0.0501951549	 0.7200364848	-0.275576
C	 1.1875003313	-0.1989890919	 0.78320446	 0.330945
C	 0.2675887066	-0.2125061199	-0.403627408	-0.512051
O	 1.1639729839	 1.0295463409	 1.5682971536	-0.292654
H	 0.9416167929	-3.3601413689	 2.4795322233	 0.134581
H	-0.2244005729	-2.8903060626	 1.2324437153	 0.131811
H	 1.4790742654	-3.1050698415	 0.8056672734	 0.123126
H	 2.6167396651	-1.2741892007	 3.5642725277	 0.098426
H	 3.0149400044	 1.3092406389	 2.6134424285	 0.086068
H	 3.0607962901	 0.7047394858	-0.0016991012	 0.10865
H	 3.3617449861	-0.9509086998	 0.661093253	 0.094257
H	 0.3718274496	-1.1470977268	-0.9639448203	 0.123093
H	-0.7731940468	-0.1241295125	-0.0757249248	 0.140276
H	 0.4888866237	 0.6208237682	-1.0757925952	 0.130112
174.8981	184.4949	206.205	224.9197	275.6543	345.8123	424.7017	478.1817	511.889	572.8251	617.1086	698.9188	737.383	817.5663	842.9698	861.9813	878.9179	882.8086	918.5071	984.8055	998.346	1020.8183	1031.3984	1086.2285	1104.7558	1130.404	1162.2874	1209.551	1222.3995	1236.8764	1277.6581	1285.1169	1323.8398	1404.8089	1414.4809	1451.8457	1477.161	1483.1863	1489.1695	1494.4898	1496.9512	3032.5993	3039.9511	3051.756	3092.2834	3109.8743	3118.5873	3120.7237	3127.3059	3133.9632	3172.2725
CC12OC1C1CC2(C)O1	C[C@@]12O[C@@H]1[C@H]1C[C@]2(C)O1	
InChI=1S/C7H10O2/c1-6-3-4(8-6)5-7(6,2)9-5/h4-5H,3H2,1-2H3	InChI=1S/C7H10O2/c1-6-3-4(8-6)5-7(6,2)9-5/h4-5H,3H2,1-2H3/t4-,5-,6+,7-/m1/s1
