19
gdb 1793	3.7373877	1.3169992	1.2426825	3.1183	75.08	-0.24063	0.08115	0.32178	1081.5028	0.156682	-422.524123	-422.516306	-422.515362	-422.556002	31.053	
C	-0.0438543747	 0.314015181	 0.0694822457	-0.493622
C	 1.449320092	 0.1589055029	 0.0944940493	 0.407957
C	 2.4511099939	 1.2582033141	-0.35554703	-0.278256
C	 3.2572788781	-0.0226289626	-0.655092366	-0.016533
O	 2.0004240091	-0.6971586256	-0.9699730562	-0.326273
C	 3.544651948	-0.5646400519	 0.7416299108	 0.508513
C	 4.8303280036	-0.5240988212	 1.4367236864	-0.285113
O	 4.310013213	-1.7479292283	 0.8953352533	-0.284435
C	 2.1354156789	-0.4474157204	 1.3481825478	-0.360394
H	-0.3697495043	 0.9976988313	 0.8601600944	 0.12245
H	-0.3766160002	 0.7106339281	-0.89353872	 0.128251
H	-0.5316405453	-0.6525092582	 0.2323965639	 0.132833
H	 2.1220631105	 1.75603352	-1.2686584401	 0.110575
H	 2.830813895	 1.9723969157	 0.380578788	 0.094948
H	 4.0283523152	-0.1094255493	-1.4192833831	 0.085961
H	 5.7145908356	-0.1314066735	 0.9346329691	 0.1125
H	 4.855404173	-0.467058732	 2.5243757511	 0.114389
H	 1.7273814618	-1.43118051	 1.591490683	 0.123815
H	 2.083539357	 0.1968056099	 2.2302665827	 0.102432
118.7998	192.6066	237.0341	268.0139	335.7704	377.6649	416.297	452.1425	519.7172	588.8019	652.5419	775.5977	801.5568	823.8211	856.0504	882.1546	894.3702	930.2568	946.9684	979.8077	989.2696	1031.8661	1066.7311	1113.8759	1122.8058	1144.1079	1172.1706	1190.5198	1212.2947	1216.3702	1254.881	1261.9436	1271.2412	1345.587	1416.014	1440.1364	1470.8991	1480.0013	1490.9795	1493.9201	1539.6982	3038.4776	3058.8905	3064.0573	3075.6829	3108.0624	3118.3221	3119.1399	3135.9165	3140.5544	3160.0852
CC12CC(O1)C1(CO1)C2	C[C@]12C[C@H](O1)[C@@]1(CO1)C2	
InChI=1S/C7H10O2/c1-6-2-5(9-6)7(3-6)4-8-7/h5H,2-4H2,1H3	InChI=1S/C7H10O2/c1-6-2-5(9-6)7(3-6)4-8-7/h5H,2-4H2,1H3/t5-,6+,7-/m0/s1
