19
gdb 5869	4.6325243	0.553846	0.5400709	2.1398	83.12	-0.23109	0.03885	0.26994	2067.23	0.154542	-422.507279	-422.496927	-422.495982	-422.544104	36.649	
O	-3.6619190991	 2.2184230439	-2.336158491	-0.408288
C	-2.5863267123	 2.1160329878	-1.4223245103	-0.05423
C	-2.3110027918	 0.6543322838	-1.0141476425	-0.360191
C	-1.1773225987	 0.5252678927	-0.1085133051	-0.019168
C	-0.2352394707	 0.4768369679	 0.6430149765	 0.106532
C	 0.9160768469	 0.3680114792	 1.5021173945	 0.233157
O	 2.1601546509	 0.3480423125	 0.8481607392	-0.44424
C	 0.8012646876	-0.4204623871	 2.7982569031	-0.312635
C	 0.9438145275	 1.0808545969	 2.8286992215	-0.289643
H	-4.4734454289	 1.9979984486	-1.8680242861	 0.283785
H	-1.7091159313	 2.5212921666	-1.9345008969	 0.127237
H	-2.7505781649	 2.7249224138	-0.5216292005	 0.100257
H	-3.2124997104	 0.2383970678	-0.5418420013	 0.1175
H	-2.1442069882	 0.0663880131	-1.9250167853	 0.138053
H	 2.1608987916	-0.410120835	 0.2528703165	 0.283877
H	-0.1577783129	-0.8590011835	 3.047597641	 0.121488
H	 1.6709581792	-1.0098383865	 3.0656146887	 0.121109
H	 0.0848061113	 1.6823103759	 3.0995468635	 0.124805
H	 1.9069071642	 1.4880197417	 3.1138951045	 0.130595
28.3198	71.5558	76.3157	133.3471	185.0202	285.0612	304.8815	313.8625	349.8949	356.2039	405.7538	464.8593	555.909	575.1201	646.0575	775.6171	778.9821	870.4966	890.0533	923.2956	986.9048	1008.715	1049.6023	1053.2555	1073.2821	1080.8065	1083.0183	1169.1395	1193.6172	1239.6675	1288.825	1308.8084	1318.1541	1382.5599	1395.8507	1414.0777	1448.282	1469.4042	1486.7764	1509.1361	2354.5001	3003.5022	3007.9606	3053.6301	3097.1321	3139.2078	3146.723	3229.6415	3244.7773	3796.4157	3817.3208
OCCC#CC1(O)CC1	OCCC#CC1(O)CC1	
InChI=1S/C7H10O2/c8-6-2-1-3-7(9)4-5-7/h8-9H,2,4-6H2	InChI=1S/C7H10O2/c8-6-2-1-3-7(9)4-5-7/h8-9H,2,4-6H2
