19
gdb 5385	2.6912228	1.16034	0.8772052	3.3407	78.29	-0.2373	-0.01351	0.22379000000000002	1325.7162	0.157187	-422.592285	-422.583394	-422.58245	-422.626466	32.75	
O	-2.5206877125	 4.0254869316	 0.4994852274	-0.409453
C	-1.4053343713	 3.1402152002	 0.5542022039	-0.149653
C	-1.1730897777	 2.4194533619	-0.7502973867	 0.26764
C	-0.0229724237	 2.5309042234	-1.4197766675	-0.157967
C	 0.2686443768	 1.8400027314	-2.7249286218	-0.261087
C	-0.6829380968	 0.6546129494	-2.9793448854	-0.302958
C	-2.1207545625	 1.0275649333	-2.6631413731	 0.38203
O	-3.0297134872	 0.8692990711	-3.4432968994	-0.307586
C	-2.3382526476	 1.6070756279	-1.2711011962	-0.389472
H	-2.3328743442	 4.6797337808	-0.182205715	 0.283297
H	-0.4884047022	 3.6646505037	 0.861235729	 0.092216
H	-1.6558164924	 2.4233595444	 1.3463297442	 0.112584
H	 0.7664774123	 3.1595869795	-1.0120283874	 0.085581
H	 0.1908811195	 2.563077335	-3.5498183827	 0.124529
H	 1.3073671965	 1.4899115987	-2.7410433254	 0.114076
H	-0.6255100652	 0.2917764036	-4.007576977	 0.119925
H	-0.4023215632	-0.1683633161	-2.3076587026	 0.120877
H	-3.2549918774	 2.2041288749	-1.2745582641	 0.144157
H	-2.5385273711	 0.7659912854	-0.58744987	 0.131264
66.8527	78.8252	127.9281	199.489	284.0273	322.75	390.1296	399.6167	449.9206	492.2119	532.4193	580.2069	664.958	760.3569	826.1675	855.0783	908.5341	918.3683	951.7278	987.2215	1038.3407	1051.2198	1082.0526	1131.5315	1157.8137	1189.9505	1205.1966	1228.1362	1243.2027	1307.2213	1329.0264	1356.3547	1374.4995	1391.0681	1415.6228	1446.9792	1467.2293	1485.5406	1495.9723	1737.4601	1822.2403	2988.5833	2992.7542	3006.0723	3023.1691	3049.8474	3052.4885	3088.421	3114.8092	3143.6175	3806.2018
OCC1=CCCC(=O)C1	OCC1=CCCC(=O)C1	
InChI=1S/C7H10O2/c8-5-6-2-1-3-7(9)4-6/h2,8H,1,3-5H2	InChI=1S/C7H10O2/c8-5-6-2-1-3-7(9)4-6/h2,8H,1,3-5H2
