19
gdb 3477	2.3651954	1.750703	1.1886415	2.6514	76.23	-0.24821	-0.00236	0.24584999999999999	1064.9847	0.158633	-422.559113	-422.551053	-422.550109	-422.59142	32.026	
O	 0.2399659658	 0.9560038439	 2.9969562112	-0.446272
C	-1.0176283698	 0.4694008219	 2.4836740817	 0.047298
C	-2.1625492569	 1.3413738716	 2.9290837372	-0.11479
C	-2.5627120145	 2.3973715033	 2.2139960764	-0.064911
C	-1.9618853803	 2.747699158	 0.9056549901	-0.082868
C	-2.4446181189	 2.0545158298	-0.3557830613	-0.285547
C	-1.1088020349	 1.6918107214	 0.2384901444	-0.068518
C	-0.9226659564	 0.3407968085	 0.947422133	 0.101867
O	 0.3124239999	-0.2522729218	 0.602559699	-0.4435
H	 0.2159497854	 1.9172501529	 2.9289622073	 0.285671
H	-1.1068748689	-0.5368184047	 2.9044658805	 0.094345
H	-2.6246881824	 1.1138704366	 3.8850314959	 0.096337
H	-3.3606091961	 3.0365535791	 2.5865390204	 0.097654
H	-1.675844919	 3.7898766367	 0.7873359085	 0.092046
H	-3.2507383825	 1.3345334493	-0.2509400362	 0.116276
H	-2.4678700455	 2.6301617429	-1.2746872731	 0.114057
H	-0.2244987885	 2.0179566756	-0.2983809539	 0.093747
H	-1.7089606072	-0.3501537251	 0.6193838242	 0.084926
H	 0.9389445307	 0.0783781898	 1.2632749448	 0.282182
85.5914	163.6256	282.5864	306.1323	325.1245	356.7414	382.2012	455.0885	507.222	553.7154	590.882	662.9023	768.0053	770.5624	798.3617	831.1451	882.6373	916.281	974.078	995.0046	1012.5448	1023.8822	1048.8049	1062.2861	1093.378	1109.8005	1129.2991	1156.5515	1197.4546	1219.8681	1240.8173	1282.4469	1322.1401	1327.1578	1381.0644	1395.0311	1415.181	1432.8085	1445.9665	1481.6818	1697.6892	3027.6086	3067.0989	3123.7527	3131.5514	3146.0023	3167.0993	3177.286	3214.2127	3720.5322	3804.5303
OC1C=CC2CC2C1O	O[C@H]1C=C[C@@H]2C[C@@H]2[C@H]1O	
InChI=1S/C7H10O2/c8-6-2-1-4-3-5(4)7(6)9/h1-2,4-9H,3H2	InChI=1S/C7H10O2/c8-6-2-1-4-3-5(4)7(6)9/h1-2,4-9H,3H2/t4-,5+,6+,7-/m1/s1
