19
gdb 2284	2.1921061	1.8617969	1.6435619	2.3667	74.21	-0.22582	-0.01986	0.20596	966.7316	0.157968	-422.587988	-422.579929	-422.578985	-422.620281	30.945	
C	-0.4416110416	 2.5316451544	 0.068912346	-0.471625
C	-0.9841238476	 1.1303005121	-0.0343752436	 0.304545
C	-1.7985235255	 0.7476747395	-1.2884585552	-0.254295
C	-1.8193856271	-0.8236486501	-1.2377590009	-0.23415
C	-1.0394790231	-1.1552315144	 0.0604214399	-0.157756
C	-1.8581730069	-0.6239282565	 1.2456891352	-0.077859
O	-1.7932917566	 0.8186899667	 1.1200354046	-0.320663
C	 0.0151228266	-0.042861391	 0.0079291117	 0.399676
O	 1.2122687154	-0.0635069135	-0.010840143	-0.326816
H	 0.1121664471	 2.6553614382	 1.0029042091	 0.134432
H	 0.2379475473	 2.7332017825	-0.7637627813	 0.127994
H	-1.2518156272	 3.2661100721	 0.0456283534	 0.124575
H	-2.7985506782	 1.1835308337	-1.2267784366	 0.114784
H	-1.3206255668	 1.1149877273	-2.2016858913	 0.109475
H	-2.8353809349	-1.2259137981	-1.2033582405	 0.109759
H	-1.320998318	-1.2553991037	-2.1095737416	 0.113939
H	-0.6713318869	-2.1739900444	 0.1599015565	 0.090243
H	-2.9070284211	-0.9443593267	 1.2140260304	 0.10296
H	-1.4311295947	-0.9217498782	 2.2114397172	 0.110782
129.094	143.5812	170.9026	227.4586	301.772	329.4035	392.4174	492.6959	556.4797	593.1632	669.7725	749.3511	788.4111	827.208	856.4554	867.4843	888.8164	934.0466	954.175	978.6544	1022.9829	1055.3763	1082.1042	1130.197	1156.7128	1171.2459	1204.7801	1221.0435	1256.0199	1265.1032	1275.391	1325.3296	1357.1473	1379.243	1416.8831	1472.812	1478.8638	1492.7554	1499.0863	1533.437	1889.0308	3011.6771	3047.589	3049.9169	3052.864	3062.4766	3095.3377	3115.0138	3120.868	3128.4791	3146.3319
CC12CCC(CO1)C2=O	C[C@]12CC[C@H](CO1)C2=O	
InChI=1S/C7H10O2/c1-7-3-2-5(4-9-7)6(7)8/h5H,2-4H2,1H3	InChI=1S/C7H10O2/c1-7-3-2-5(4-9-7)6(7)8/h5H,2-4H2,1H3/t5-,7-/m1/s1
