19
gdb 3200	2.6672034	1.8664586	1.4755312	1.9751	74.08	-0.23856	0.07314	0.3117	957.2252	0.158006	-422.534186	-422.526789	-422.525844	-422.565485	30.343	
C	-1.280040246	 1.5981370389	-2.7241652714	-0.500718
C	-1.9112592122	 1.2577864764	-1.4052145665	 0.411131
C	-3.3909755309	 1.5264354805	-1.0367165843	-0.271798
C	-2.8850233879	 1.2638352619	 0.3879866292	-0.076083
C	-2.0448789959	-0.0705886467	 0.3155528641	 0.014814
O	-1.8022386549	-0.1604758906	-1.1024332967	-0.322498
C	-0.7932754046	 0.7191895017	 0.7690891452	 0.179734
O	 0.4622032267	 0.2379169703	 0.395212808	-0.452338
C	-1.4808822523	 1.8644639195	 0.0010132934	-0.169139
H	-1.7374961793	 1.0145731019	-3.529790043	 0.13144
H	-1.4138074906	 2.6599806993	-2.949179346	 0.122973
H	-0.2069393514	 1.3836683175	-2.7104873515	 0.126971
H	-3.6684991516	 2.5757968735	-1.1684727306	 0.101378
H	-4.1400185862	 0.865775612	-1.4814674426	 0.100278
H	-3.4278328834	 1.4994906347	 1.3003179739	 0.077826
H	-2.3526342624	-1.0319411162	 0.7236294648	 0.079849
H	-0.7863516186	 0.9186221846	 1.8443119356	 0.087615
H	 0.3269209281	-0.1772812736	-0.467418688	 0.285629
H	-1.2150280165	 2.9177386441	 0.0652564864	 0.072937
158.3284	200.3118	259.6782	291.0124	348.1669	464.3161	511.0928	520.5464	591.0198	632.8365	701.8747	764.8144	791.9912	821.5496	835.9526	857.699	888.3229	944.9029	956.2973	973.4905	1007.7642	1028.0201	1061.9117	1084.3985	1107.6045	1124.5597	1148.23	1180.2591	1187.6442	1197.7003	1222.7391	1257.6399	1276.1145	1303.6494	1327.8074	1339.5914	1417.8526	1440.2364	1483.0465	1484.1598	1488.7791	3038.7477	3055.0179	3083.4683	3108.6545	3115.2142	3118.5578	3134.8931	3138.6404	3149.6711	3757.469
CC12CC3C(O1)C(O)C23	C[C@@]12C[C@H]3[C@@H](O1)[C@@H](O)[C@@H]23	
InChI=1S/C7H10O2/c1-7-2-3-4(7)5(8)6(3)9-7/h3-6,8H,2H2,1H3	InChI=1S/C7H10O2/c1-7-2-3-4(7)5(8)6(3)9-7/h3-6,8H,2H2,1H3/t3-,4+,5+,6-,7+/m1/s1
