19
gdb 2851	2.793495	1.6346218	1.2384775	2.3021	74.25	-0.24077	0.06919	0.30996	1036.3604	0.156168	-422.515504	-422.507033	-422.506089	-422.547835	33.271	
C	-0.5816806903	-1.3096116075	 2.5107209049	-0.503633
C	-1.283399726	-0.0739421526	 2.0267683056	 0.235857
C	-2.507382534	 0.0280576094	 0.9948385772	-0.198417
C	-2.9049399228	 1.2658591091	 1.774914352	-0.11426
C	-1.9176521312	 1.3719948526	 0.6143491993	-0.11427
C	-0.5422754326	 0.979261569	 1.146407422	 0.114893
O	 0.3172318997	 0.4364139498	 0.1677884099	-0.444707
C	-2.1209075527	 0.8096234019	 3.0021583713	 0.114898
O	-2.8921503356	 0.0915695532	 3.9406203701	-0.444717
H	 0.2153612268	-1.0418824044	 3.2142311049	 0.12575
H	-1.2711015871	-1.9791841628	 3.034022079	 0.116361
H	-0.1195674839	-1.8546945743	 1.6819794484	 0.116384
H	-3.0930609941	-0.684280404	 0.4314539482	 0.093169
H	-3.8515371577	 1.7927625667	 1.7551324988	 0.093542
H	-2.1400021618	 1.9767693319	-0.2567845649	 0.093541
H	 0.0550734098	 1.7295264112	 1.6769487611	 0.079853
H	-0.2139804513	-0.136379012	-0.3987939211	 0.277952
H	-1.5689243467	 1.555034306	 3.5860063775	 0.079855
H	-3.4845167287	-0.4879135933	 3.4460549258	 0.277949
152.3534	169.8604	219.7046	249.636	263.8722	310.3375	345.6682	376.1405	460.1488	501.6789	556.3907	650.2615	774.203	774.5887	812.414	837.9076	870.5841	889.8205	926.6364	957.4739	977.6859	1000.0836	1034.3085	1038.7421	1082.3252	1124.2743	1132.9921	1150.1861	1172.5421	1233.5531	1237.4438	1278.9238	1279.2668	1293.9414	1340.4606	1351.7244	1413.4445	1428.6343	1440.1515	1481.6114	1489.1712	3031.2674	3043.4587	3054.079	3094.4494	3108.4992	3183.2979	3190.2851	3217.3083	3780.3597	3781.1247
CC12C3C(C3C1O)C2O	C[C@]12[C@H]3[C@H]([C@H]3[C@@H]1O)[C@H]2O	
InChI=1S/C7H10O2/c1-7-4-2(5(7)8)3(4)6(7)9/h2-6,8-9H,1H3	InChI=1S/C7H10O2/c1-7-4-2(5(7)8)3(4)6(7)9/h2-6,8-9H,1H3/t2-,3+,4-,5+,6-,7+
