19
gdb 5062	2.3994433	1.38753	1.0490199	1.5451	78.4	-0.24403	-0.02924	0.21479	1203.8929	0.154948	-422.531141	-422.521961	-422.521016	-422.565484	33.214	
C	 2.170060715	 1.6062003509	-0.4356132694	-0.381259
C	 1.6107817205	 0.1841260721	-0.2760927042	-0.281834
C	 2.134288492	-0.7426689837	-1.326292786	 0.450613
C	 1.6050016721	-0.9321480564	-2.6961914092	-0.376796
C	 1.669617855	-2.1592686334	-1.7946712177	 0.089469
C	 3.1287784656	-2.5340188102	-1.5778409071	-0.149553
O	 3.4922067516	-1.1701690841	-1.2354637119	-0.315313
C	 0.4777699054	-2.8744786221	-1.3408894383	 0.062679
O	-0.6568551037	-2.4643111481	-1.4601931091	-0.285174
H	 1.7915402842	 2.2591451163	 0.355762205	 0.118551
H	 3.2625212054	 1.6028401385	-0.3800833612	 0.13713
H	 1.8812597084	 2.0363913861	-1.3995006387	 0.123697
H	 1.8751796551	-0.2122887928	 0.7106572467	 0.112093
H	 0.5174164438	 0.1908605488	-0.34261327	 0.129346
H	 0.5881618214	-0.5920310499	-2.8621326587	 0.148352
H	 2.2762112318	-0.8783478222	-3.5488737522	 0.121127
H	 3.2851429788	-3.197944045	-0.7192744786	 0.115595
H	 3.6901822818	-2.9056051656	-2.4425648294	 0.112622
H	 0.6864604756	-3.8417142391	-0.8289747001	 0.068654
58.1862	94.9457	152.3697	199.0489	217.0638	231.2024	299.0168	379.4459	398.1604	469.1862	533.852	676.336	715.4116	776.3088	807.5856	809.4538	930.4547	968.2635	984.4737	992.4406	1019.4373	1029.9493	1051.046	1069.7134	1096.7542	1155.2874	1177.3327	1223.7135	1268.5501	1314.6689	1336.0814	1367.5657	1401.5961	1411.2972	1437.0176	1476.0659	1480.5477	1497.4389	1509.1332	1517.7411	1783.0944	2866.244	3023.0625	3040.196	3042.8517	3073.6333	3082.6883	3115.5795	3118.5103	3119.6084	3222.4334
CCC12CC1(CO2)C=O	CC[C@]12C[C@]1(CO2)C=O	
InChI=1S/C7H10O2/c1-2-7-3-6(7,4-8)5-9-7/h4H,2-3,5H2,1H3	InChI=1S/C7H10O2/c1-2-7-3-6(7,4-8)5-9-7/h4H,2-3,5H2,1H3/t6-,7+/m1/s1
