19
gdb 4902	2.8603707	1.18183	0.9586926	1.3884	78.71	-0.23894	0.04124	0.28018	1260.1579	0.153812	-422.492923	-422.48281	-422.481866	-422.527747	36.763	
C	 1.3620028204	-0.176141933	-0.0077459507	-0.264674
O	-0.0436287673	 0.0591652167	 0.0153789803	-0.290211
C	-0.5134286609	 0.754220651	 1.1338483195	 0.388663
C	-0.1179079571	 2.2167928598	 1.1475987993	-0.112921
O	-0.5416763961	 2.8660772338	-0.0358078052	-0.421807
C	-1.8756172436	 0.3494870591	 1.580267495	-0.334726
C	-0.6697260529	 0.0118429447	 2.4618010302	-0.301078
C	-0.2540792082	-1.3503779602	 2.6134052383	 0.335416
C	 0.0931792881	-2.4917401043	 2.7708920206	-0.444754
H	 1.6912621211	-0.6971508687	 0.8969233902	 0.135217
H	 1.5508806327	-0.8097031367	-0.8768336704	 0.132209
H	 1.9336382028	 0.7543521166	-0.1203815718	 0.113884
H	-0.5958759974	 2.7252296699	 1.9911131462	 0.1067
H	 0.9713134186	 2.3127732945	 1.2866283409	 0.091204
H	-0.3865411601	 2.2415678863	-0.7547614287	 0.290592
H	-2.5609937271	 1.1141120418	 1.9272470729	 0.126571
H	-2.3264360483	-0.4838362235	 1.0554955979	 0.138609
H	-0.5450112481	 0.6247265064	 3.3510494022	 0.11533
H	 0.3967580234	-3.5006758343	 2.9011832831	 0.195777
82.3398	105.7776	131.9634	139.0745	208.4227	240.1976	272.6024	338.2941	347.8892	387.137	419.8708	470.253	534.2683	583.1503	650.8727	692.4276	723.0525	806.6701	902.5067	917.7941	947.2919	996.5912	1072.7586	1074.2454	1083.5292	1093.5291	1129.1671	1180.98	1197.7762	1212.6721	1261.8429	1319.914	1356.2992	1397.3896	1440.1693	1472.0145	1486.9245	1491.2226	1504.4104	1515.2294	2234.2809	2970.8887	3013.6998	3072.8032	3087.0639	3130.9068	3136.5173	3146.1227	3243.2421	3503.8369	3788.1557
COC1(CO)CC1C#C	CO[C@@]1(CO)C[C@H]1C#C	
InChI=1S/C7H10O2/c1-3-6-4-7(6,5-8)9-2/h1,6,8H,4-5H2,2H3	InChI=1S/C7H10O2/c1-3-6-4-7(6,5-8)9-2/h1,6,8H,4-5H2,2H3/t6-,7-/m1/s1
