19
gdb 3441	2.9626896	1.1456198	0.8770824	2.7039	78.32	-0.23747	-0.02943	0.20803999999999997	1326.4218	0.155317	-422.586562	-422.57721	-422.576266	-422.621092	33.866	
C	 1.3145795109	 1.0342967968	 0.2725908688	-0.490458
C	-0.026936682	 0.3737135045	 0.2565264381	 0.327417
C	-1.1870043746	 0.896274633	-0.1478862874	-0.193512
C	-2.3501608926	-0.032887232	 0.0736564435	 0.101479
O	-3.2497621064	-0.0453632344	-1.0210753891	-0.447687
C	-1.6408870638	-1.3905520684	 0.3011172492	-0.101041
C	-0.2150726264	-1.0373401617	 0.7879816377	-0.345986
C	-2.432949969	-2.3611305369	 1.1362324604	 0.129607
O	-3.6258478011	-2.273486928	 1.3077264004	-0.256885
H	 1.7133367334	 1.0982265049	 1.2932964626	 0.127131
H	 2.0451170746	 0.4589920147	-0.3102849767	 0.12684
H	 1.269900033	 2.0463229758	-0.1379098584	 0.128792
H	-1.3267512323	 1.8996650886	-0.5340795532	 0.098184
H	-2.8958156174	 0.2566896174	 0.9869323391	 0.082692
H	-4.0205759499	-0.5461673673	-0.7305782126	 0.289551
H	-1.5541687092	-1.8532910917	-0.6936034232	 0.121763
H	-0.1443414948	-1.0478334989	 1.8858498816	 0.111693
H	 0.5493673974	-1.7341757035	 0.4246242176	 0.108439
H	-1.8576348596	-3.203762393	 1.5837213816	 0.081979
54.9332	109.7258	142.1525	171.2177	196.9363	271.4311	309.6423	407.7882	412.3243	444.3164	465.2117	538.344	629.3142	691.535	802.9647	855.4178	877.8147	918.7207	987.7413	1020.0399	1036.3752	1057.0325	1077.9295	1101.707	1117.5134	1172.6356	1198.5446	1230.3698	1251.4387	1276.9385	1304.8383	1336.7826	1370.2103	1413.6326	1417.9327	1437.8039	1478.7426	1486.5986	1493.4584	1722.0636	1809.5952	2870.0971	2961.6502	3000.0768	3007.3083	3017.5414	3051.0757	3062.918	3114.5685	3199.2864	3802.2038
CC1=CC(O)C(C1)C=O	CC1=C[C@@H](O)[C@@H](C1)C=O	
InChI=1S/C7H10O2/c1-5-2-6(4-8)7(9)3-5/h3-4,6-7,9H,2H2,1H3	InChI=1S/C7H10O2/c1-5-2-6(4-8)7(9)3-5/h3-4,6-7,9H,2H2,1H3/t6-,7+/m0/s1
