19
gdb 742	2.7372493	1.4230067	1.0843478	2.8107	75.67	-0.23058	-0.02072	0.20986000000000002	1143.3921	0.157435	-422.562653	-422.554507	-422.553563	-422.595494	31.222	
O	 1.0847182212	 0.0087871525	-0.4576329579	-0.298239
C	-0.076905087	-0.0052389953	-0.1293824232	 0.374443
C	-0.8633296915	 1.2894072874	 0.1014490376	-0.171651
O	-1.7654426411	 1.2221269731	 1.1888274868	-0.240244
C	-2.6608004927	 0.123751411	 1.0941265295	-0.154214
C	-1.9096108352	-1.188998567	 1.1374572273	 0.354181
C	-1.5714551805	-1.7714961789	 2.4866304502	-0.294405
C	-2.6176824839	-2.4279188819	 1.6156719005	-0.326628
C	-0.8893955126	-1.2871929555	 0.0122320253	-0.396795
H	-0.1607265012	 2.1003953019	 0.3017550621	 0.135822
H	-1.3991265961	 1.521209578	-0.8393427605	 0.104862
H	-3.3475109932	 0.2159115651	 1.9401975876	 0.108713
H	-3.2526735226	 0.1971096815	 0.1641071514	 0.086169
H	-0.616497982	-2.2731989152	 2.601268305	 0.119686
H	-1.9005579927	-1.2374151221	 3.3716060463	 0.120138
H	-2.3704473883	-3.3705213622	 1.1383864466	 0.115358
H	-3.6583438043	-2.3422107833	 1.9120501109	 0.115
H	-0.2046931032	-2.1312620744	 0.1284269838	 0.123298
H	-1.4146279531	-1.4244165147	-0.9465762695	 0.124507
76.9705	109.0411	235.7575	258.3961	339.4257	365.3892	407.0112	437.4268	467.6152	530.0987	602.451	765.6529	782.1048	816.9339	829.944	916.5919	939.3013	957.1412	967.2903	985.3905	1014.1638	1056.4181	1082.6219	1097.6527	1131.9481	1159.6371	1186.12	1225.5269	1247.9505	1284.8395	1306.0846	1329.9768	1354.681	1378.628	1412.254	1454.5865	1465.7687	1468.429	1491.6539	1508.9498	1825.9316	2926.9337	2948.1147	2992.5571	3087.0851	3097.6415	3119.3225	3126.2045	3132.9844	3204.8767	3220.1955
O=C1COCC2(CC2)C1	O=C1COCC2(CC2)C1	
InChI=1S/C7H10O2/c8-6-3-7(1-2-7)5-9-4-6/h1-5H2	InChI=1S/C7H10O2/c8-6-3-7(1-2-7)5-9-4-6/h1-5H2
