19
gdb 1955	2.6496557	1.5321915	1.3492613	1.7113	74.47	-0.22633	0.07648	0.30281	1035.4225	0.156044	-422.50681	-422.498574	-422.49763	-422.538816	33.152	
O	-3.0756108993	 0.5805639653	 2.6578328236	-0.464717
C	-2.1501145183	 1.337995181	 1.9590055817	 0.388057
C	-1.4863671037	 2.5408378646	 2.5572521863	-0.36044
C	-0.6360511215	 1.3526751031	 2.1503568443	-0.208578
C	-0.4330318757	 1.2661514401	 0.6172447544	 0.459657
O	 0.4108246354	 0.2435384146	 0.1757959304	-0.483642
C	-0.3191239653	 2.5610872599	-0.2294365813	-0.279028
C	-1.8735373973	 2.5745659954	-0.4141332713	-0.248345
C	-1.9841705283	 1.26218797	 0.4172742685	-0.167969
H	-3.8670820363	 1.1142310521	 2.7908281586	 0.284251
H	-1.4192090972	 3.4972990059	 2.0474328851	 0.11195
H	-1.6231947224	 2.6206175243	 3.6319982518	 0.114375
H	-0.0065894892	 0.8470482531	 2.8755807408	 0.088822
H	 0.226589362	-0.5454920568	 0.6979861991	 0.279018
H	 0.1306484171	 3.4278629117	 0.2607047244	 0.099243
H	 0.2203077957	 2.3657892919	-1.1583673683	 0.113698
H	-2.3957732154	 3.4419419818	-0.0022723763	 0.096926
H	-2.1853589432	 2.4541504026	-1.4536364737	 0.102805
H	-2.4806329571	 0.4006934794	-0.0299737982	 0.073917
139.8746	223.8228	245.1889	279.9108	307.06	340.5339	359.83	398.5096	466.1729	483.3633	589.3778	629.8666	723.6672	752.643	805.4022	840.0376	891.0782	926.9581	938.8628	955.2911	980.8164	992.4588	1019.6831	1028.717	1075.7782	1093.9807	1097.9156	1120.0966	1190.6539	1212.871	1218.0944	1239.8239	1255.3089	1270.6756	1296.9826	1342.281	1368.0592	1402.5216	1469.488	1487.162	1504.6505	3061.3097	3068.7052	3104.6048	3116.5891	3117.8199	3128.8439	3164.2211	3199.6153	3787.5542	3795.688
OC12CC1C1(O)CCC21	O[C@@]12C[C@@H]1[C@]1(O)CC[C@H]21	
InChI=1S/C7H10O2/c8-6-2-1-4(6)7(9)3-5(6)7/h4-5,8-9H,1-3H2	InChI=1S/C7H10O2/c8-6-2-1-4(6)7(9)3-5(6)7/h4-5,8-9H,1-3H2/t4-,5+,6-,7+/m0/s1
