19
gdb 1097	2.6376656	1.5106953	1.1541871	3.3018	75.23	-0.24544	-0.02386	0.22158	1109.7377	0.155933	-422.538716	-422.529961	-422.529016	-422.572958	32.026	
C	 0.9798916855	-1.4924821231	-4.1848486675	-0.492556
C	 1.4956702634	-1.6274492195	-2.7619174522	 0.292391
O	 1.9243245654	-2.6840357361	-2.3497128404	-0.301656
C	 1.4876191792	-0.3951170283	-1.8927974303	 0.189003
C	 0.3989655985	 0.7106193623	-2.0519034714	-0.309199
C	 1.4991371632	 1.8084436241	-2.1731071127	-0.228522
C	 2.5912073215	 0.7308060056	-1.9964218274	 0.083899
O	 2.9823021659	 0.528690595	-0.6357595069	-0.285502
C	 2.0223750114	-0.5450546809	-0.4584731919	-0.130606
H	 1.2883489425	-2.3648305903	-4.7619722075	 0.145766
H	-0.115149779	-1.4422190498	-4.1817488075	 0.147803
H	 1.3419943649	-0.5769110797	-4.6639252251	 0.132281
H	-0.2082208216	 0.6071771295	-2.9526915433	 0.109227
H	-0.2756086825	 0.7936149974	-1.1961175038	 0.110227
H	 1.5188029904	 2.2990088976	-3.1500621752	 0.104836
H	 1.516949461	 2.5718308261	-1.3929294788	 0.118574
H	 3.4401545766	 0.715101411	-2.6861157876	 0.083761
H	 2.5180592483	-1.5033259219	-0.2814192826	 0.131606
H	 1.3089246953	-0.334868919	 0.3474207321	 0.098668
40.243	82.6689	154.8512	165.1359	247.4581	345.4877	365.3266	407.0452	475.5454	573.6669	624.6952	671.3694	738.646	843.0045	866.4364	878.4875	937.9409	943.5587	963.524	988.6698	1016.1674	1046.5843	1064.0359	1110.4819	1145.0905	1162.0831	1190.9844	1203.6605	1234.339	1261.6027	1276.0308	1299.9498	1328.8311	1361.4577	1385.0934	1460.6668	1465.1836	1477.0367	1489.5213	1521.7786	1787.9073	3027.1798	3037.4379	3058.7954	3066.7745	3072.7741	3098.3612	3098.6171	3114.5051	3131.7416	3152.452
CC(=O)C12CCC1OC2	CC(=O)[C@]12CC[C@H]1OC2	
InChI=1S/C7H10O2/c1-5(8)7-3-2-6(7)9-4-7/h6H,2-4H2,1H3	InChI=1S/C7H10O2/c1-5(8)7-3-2-6(7)9-4-7/h6H,2-4H2,1H3/t6-,7-/m1/s1
