19
gdb 4130	2.4226603	1.7098149	1.326193	2.7936	75.27	-0.22488	-0.01618	0.2087	1038.9385	0.156025	-422.557155	-422.548557	-422.547612	-422.589889	32.673	
C	-2.7379184317	 1.1515049665	-1.921245219	-0.417398
C	-1.4102716504	 0.5925619267	-1.4394715229	 0.120604
O	-1.4943702034	-0.8555494413	-1.2741834764	-0.297006
C	-1.0250857338	-1.059475391	 0.0649427143	-0.020598
C	-1.7684884267	 0.0404063317	 0.8703430147	-0.30173
C	-0.9196706321	 1.016426591	-0.0304832871	 0.137801
C	-0.6727823708	 2.4729598867	 0.2634085284	-0.505845
C	 0.166969874	-0.0784158584	 0.1471555948	 0.413671
O	 1.3317544165	-0.0978721132	 0.405205624	-0.31972
H	-3.5261167468	 1.0428297017	-1.1714581158	 0.120181
H	-2.6383248259	 2.2123013934	-2.1732813088	 0.120058
H	-3.052375529	 0.6160392526	-2.822073659	 0.135152
H	-0.6348876618	 0.8136898283	-2.1868332532	 0.086981
H	-1.0037238304	-2.1162316687	 0.3167859687	 0.100288
H	-2.8520818832	 0.058676377	 0.7457965111	 0.118098
H	-1.4885601353	 0.0848699664	 1.9251299861	 0.119812
H	-0.248028076	 2.6025097399	 1.2632463442	 0.131965
H	 0.0380221438	 2.8957820822	-0.4547985555	 0.132216
H	-1.596011287	 3.0586006686	 0.2072573014	 0.12547
127.5593	168.2033	195.2933	212.5205	221.7713	258.2873	320.2414	448.6433	468.2713	505.7621	596.5623	671.7343	692.623	771.3839	817.0148	845.9426	858.8232	884.8018	961.7861	995.3971	1012.0207	1054.8252	1061.1006	1075.5924	1123.0956	1140.9774	1192.3388	1203.7017	1218.8938	1259.7929	1298.5384	1353.7487	1397.0551	1411.7996	1415.7827	1476.2421	1487.8866	1489.8193	1493.2759	1497.2861	1904.7495	2999.0017	3035.0543	3041.9435	3076.6575	3100.3503	3108.62	3113.2166	3121.4882	3145.646	3168.8828
CC1OC2CC1(C)C2=O	C[C@@H]1O[C@@H]2C[C@@]1(C)C2=O	
InChI=1S/C7H10O2/c1-4-7(2)3-5(9-4)6(7)8/h4-5H,3H2,1-2H3	InChI=1S/C7H10O2/c1-4-7(2)3-5(9-4)6(7)8/h4-5H,3H2,1-2H3/t4-,5+,7+/m0/s1
