19
gdb 3596	2.5710121	1.5575442	1.1715405	2.6671	76.61	-0.24219	-0.00131	0.24087999999999998	1104.3914	0.157451	-422.556736	-422.548446	-422.547502	-422.589491	32.051	
C	 1.4164905606	 0.7086723036	-0.5496816204	-0.482749
C	 0.0531858651	 0.1303986702	-0.3040434803	 0.324289
C	-0.1351606991	-1.1500625555	 0.0344385278	-0.184904
C	-1.4868674898	-1.6931677761	 0.3021836512	 0.024264
O	-2.294359823	-2.0968260322	-0.8406899909	-0.267211
C	-2.6602575862	-0.91628092	-0.1157470411	-0.01361
C	-2.4223260571	 0.3929590436	-0.8892601293	 0.100506
O	-2.3911449401	 0.1421953825	-2.281175725	-0.439914
C	-1.1223427782	 1.0796999385	-0.4310214745	-0.323944
H	 1.5970987191	 1.5725823276	 0.103027482	 0.127984
H	 2.2088062457	-0.0243618665	-0.3770995472	 0.123014
H	 1.502222026	 1.076296604	-1.5799022695	 0.136193
H	 0.7094789959	-1.8262382977	 0.1364281637	 0.086533
H	-1.5824825113	-2.3861514994	 1.1369436006	 0.097952
H	-3.5929830477	-1.0051189074	 0.4379745306	 0.09813
H	-3.262043188	 1.0729197483	-0.7027736549	 0.077462
H	-2.136557126	-0.7872361239	-2.3721749155	 0.292771
H	-0.8925577916	 1.8678913244	-1.1554331298	 0.115701
H	-1.2826063143	 1.584567986	 0.5337704726	 0.107534
77.9098	132.6671	201.8172	295.4955	327.2602	356.3385	416.8907	443.0572	455.9963	492.2835	561.64	668.0094	727.095	769.1702	819.3795	858.6861	874.1967	900.1362	942.8304	994.088	1014.666	1055.0738	1069.3836	1092.8821	1104.4786	1151.7992	1185.2217	1227.1831	1281.5478	1295.4222	1316.4251	1338.1324	1375.0283	1401.8473	1411.0213	1444.9882	1462.3407	1463.475	1477.5222	1487.4864	1724.1289	2998.1534	3017.9853	3033.8021	3066.5141	3074.1079	3113.9583	3116.6499	3129.6279	3161.7479	3729.4193
CC1=CC2OC2C(O)C1	CC1=C[C@@H]2O[C@@H]2[C@H](O)C1	
InChI=1S/C7H10O2/c1-4-2-5(8)7-6(3-4)9-7/h3,5-8H,2H2,1H3	InChI=1S/C7H10O2/c1-4-2-5(8)7-6(3-4)9-7/h3,5-8H,2H2,1H3/t5-,6+,7-/m1/s1
