19
gdb 4820	2.0911948	1.4052588	1.1677215	1.0385	79.42	-0.22796	0.02567	0.25363	1183.9696	0.152827	-422.49	-422.479495	-422.478551	-422.525175	37.689	
C	 1.4154157958	 0.0261087644	-0.2049449765	-0.265399
O	-0.0003626777	 0.1995201039	-0.1656354702	-0.300008
C	-0.4742003547	 0.727682872	 1.0488567058	 0.143847
C	-0.1088844635	 0.0293744608	 2.2486240205	 0.304949
C	 0.1963035442	-0.5374634363	 3.2658596939	-0.450828
C	-1.8521075704	 1.3845092924	 0.9483204986	-0.134456
C	-2.6847993738	 1.2796929123	-0.3091636219	-0.404181
C	-0.62178749	 2.2540300357	 1.0330090372	 0.062821
O	-0.1442342386	 2.9336779242	-0.0823993117	-0.429239
H	 1.7441404276	-0.6998257023	 0.546962438	 0.134468
H	 1.650013729	-0.3516418846	-1.2022917009	 0.130034
H	 1.9399952872	 0.9752897965	-0.0372931948	 0.125723
H	 0.4592137239	-1.0412591749	 4.1629341706	 0.195648
H	-2.4179928166	 1.3149283672	 1.8730694843	 0.102901
H	-3.2214961743	 0.3268329139	-0.3424385166	 0.12667
H	-3.4228546311	 2.0877326902	-0.3375658642	 0.124959
H	-2.0772704873	 1.3479616391	-1.2124023055	 0.1223
H	-0.4289734513	 2.8068748905	 1.9457522844	 0.114221
H	-0.0205432183	 2.2730077448	-0.776532341	 0.295568
91.6064	115.0056	128.5243	149.243	158.2302	184.6859	220.9721	277.7207	330.1205	413.0131	427.7157	463.5783	554.3468	563.9695	588.0301	633.4267	681.389	702.638	804.5613	860.8602	963.6863	998.902	1059.4283	1089.1638	1095.5993	1139.3075	1146.7581	1183.2536	1195.9225	1242.9955	1255.9216	1318.6027	1379.2692	1417.1784	1448.1632	1473.7281	1485.9183	1487.8743	1501.8235	1511.8529	2223.4361	3015.2889	3045.499	3083.495	3105.2167	3130.0166	3134.8431	3152.5663	3177.1127	3500.4135	3764.2735
COC1(C#C)C(C)C1O	CO[C@]1(C#C)[C@H](C)[C@@H]1O	
InChI=1S/C7H10O2/c1-4-7(9-3)5(2)6(7)8/h1,5-6,8H,2-3H3	InChI=1S/C7H10O2/c1-4-7(9-3)5(2)6(7)8/h1,5-6,8H,2-3H3/t5-,6+,7-/m1/s1
