19
gdb 2721	2.1255644	1.5261023	1.4356389	2.2168	76.3	-0.23735	0.00399	0.24134	1081.0669	0.154641	-422.545431	-422.535885	-422.534941	-422.579243	35.057	
C	-1.2629245503	 2.4669539149	-0.1066854974	-0.516828
C	-1.2562689789	 0.9671646965	-0.1410519508	 0.139191
C	-1.5409025419	-0.0088925965	-1.3370597075	-0.31154
C	-1.2536206737	-1.0141534918	-0.1661375854	 0.13918
C	-1.2562705676	-2.5143433865	-0.1697982669	-0.516818
C	-2.1348439417	-0.0354337997	 0.6967981542	 0.115501
O	-2.0774315379	-0.0529884548	 2.0915568189	-0.451496
C	-0.1307694561	-0.0264449595	 0.1980925111	 0.348276
O	 0.9940986428	-0.0300904201	 0.6050125126	-0.339063
H	-1.111005036	 2.8252417078	 0.916685465	 0.134262
H	-0.4624494829	 2.8803768438	-0.7283532447	 0.132587
H	-2.2154360793	 2.870014076	-0.4655464304	 0.125658
H	-2.5757523719	-0.0057889988	-1.6906497158	 0.10485
H	-0.8304770151	 0.0025212712	-2.1644943297	 0.114945
H	-1.1023399194	-2.8980707988	 0.8440037542	 0.134262
H	-2.2080854283	-2.9107107793	-0.5378469792	 0.12566
H	-0.4553530189	-2.909729453	-0.8025300256	 0.13258
H	-3.1920828143	-0.0333512568	 0.4198141979	 0.094959
H	-1.1560947787	-0.0553979045	 2.3788745394	 0.293833
120.9521	151.1467	157.6834	191.0005	196.7329	206.4144	216.1106	318.5931	359.341	468.0625	519.7133	563.2753	592.5922	715.1927	717.357	735.3326	805.06	843.9545	895.6454	920.5601	1012.9419	1022.9716	1046.7907	1058.9405	1141.8508	1144.9361	1169.1011	1185.8671	1201.4198	1300.7496	1333.3816	1379.0866	1410.8596	1420.6673	1443.51	1486.4018	1487.0546	1488.8091	1489.7917	1520.4012	1890.2303	3034.6095	3034.964	3060.6661	3089.5304	3102.8866	3102.9696	3105.0166	3105.0312	3137.2529	3781.9543
CC12CC(C)(C1O)C2=O	C[C@]12C[C@](C)([C@H]1O)C2=O	
InChI=1S/C7H10O2/c1-6-3-7(2,4(6)8)5(6)9/h4,8H,3H2,1-2H3	InChI=1S/C7H10O2/c1-6-3-7(2,4(6)8)5(6)9/h4,8H,3H2,1-2H3/t4-,6-,7+
