19
gdb 5594	2.0802794	1.5021681	0.991979	4.0537	77.85	-0.24018	-0.01636	0.22382000000000002	1220.1589	0.156138	-422.5371	-422.52804	-422.527096	-422.571114	33.054	
O	 0.4077516031	 0.2177569015	 1.2419729001	-0.409049
C	 0.3585699589	-0.4429744333	-0.0132211695	-0.110985
C	-0.5230675566	 0.2463026624	-1.0338662254	-0.093966
C	-0.0472731424	 0.3186938237	-2.4456656142	-0.113635
C	-1.1220303678	 0.8928021471	-3.3740295172	-0.236782
C	-1.2132366427	 2.1696747844	-2.476363782	-0.301935
C	-0.1125454687	 1.6091604682	-1.5701597859	 0.277104
C	 0.9938007961	 2.4106994616	-1.0297448061	 0.053596
O	 1.0650116217	 3.612428923	-1.1611573971	-0.279159
H	-0.49037078	 0.2855540395	 1.5817269656	 0.286119
H	 1.394695408	-0.4771814487	-0.3644808568	 0.112892
H	 0.0246103449	-1.4860766716	 0.0975309376	 0.100855
H	-1.5934078068	 0.1143278801	-0.8630124714	 0.082774
H	 0.8465126689	-0.2085982887	-2.7601384293	 0.101214
H	-0.74289949	 1.1146592137	-4.3732510034	 0.115346
H	-2.0289008531	 0.2875358011	-3.4703736394	 0.103053
H	-0.8923348173	 3.0780771055	-2.9869623586	 0.13285
H	-2.1742589104	 2.3597441043	-1.9891014277	 0.100294
H	 1.7842745445	 1.8468468464	-0.4932365294	 0.079415
72.3095	123.6763	147.2225	204.8795	220.0603	247.1668	303.2866	334.7518	386.7037	481.885	583.7795	691.9217	722.0658	785.7103	790.769	924.5465	938.3439	955.4677	979.8663	995.2142	1028.2126	1040.1776	1074.676	1087.2826	1116.4589	1142.4383	1198.1332	1211.4687	1222.9997	1243.6585	1272.2027	1292.7327	1355.9202	1381.8717	1409.7697	1429.8773	1455.4286	1482.6792	1501.6702	1507.6753	1788.6323	2919.1632	2988.7643	3051.617	3061.2291	3070.5168	3086.1928	3111.8686	3136.1733	3176.8229	3816.2902
OCC1C2CCC12C=O	OC[C@@H]1[C@H]2CC[C@@]12C=O	
InChI=1S/C7H10O2/c8-3-6-5-1-2-7(5,6)4-9/h4-6,8H,1-3H2	InChI=1S/C7H10O2/c8-3-6-5-1-2-7(5,6)4-9/h4-6,8H,1-3H2/t5-,6-,7+/m1/s1
