19
gdb 5973	4.2599409	1.0116781	0.9273566	2.0872	77.24	-0.24194	0.00564	0.24758	1327.8863	0.156008	-422.529308	-422.520606	-422.519662	-422.56313	31.922	
C	 1.5565820242	 0.6378104086	 0.0700475964	-0.222224
O	 0.1608939282	 0.8099945751	 0.0168320729	-0.228772
C	-0.5147799838	 0.1292690213	 1.0441520059	-0.173688
C	-1.9834247179	 0.4512416088	 0.9916317595	 0.387809
O	-2.341068109	 1.851728205	 1.0154482802	-0.30227
C	-2.6929663824	 1.07772209	-0.1380640568	-0.015864
C	-4.1324436358	 0.5756783004	-0.1361977289	-0.297965
C	-4.1799446075	-0.3150143732	 1.0901581144	-0.073914
C	-2.9930502915	-0.4060020456	 1.6945878432	-0.147453
H	 1.8437562994	-0.4205354617	-0.037779386	 0.103045
H	 1.9864391061	 1.2063067471	-0.7578637503	 0.129618
H	 1.9778073571	 1.0125529754	 1.0161478658	 0.107669
H	-0.3830598182	-0.9633030014	 0.9478711447	 0.091779
H	-0.1119025353	 0.4156280738	 2.0319989124	 0.096694
H	-2.1898915997	 1.3634817847	-1.0558137387	 0.108649
H	-4.8503391318	 1.4027072019	-0.0754707412	 0.125752
H	-4.3621557326	 0.0205595129	-1.0548445167	 0.11234
H	-5.0960844899	-0.7817546239	 1.434646846	 0.101345
H	-2.7735573897	-0.9806600494	 2.5865648072	 0.097446
73.2892	79.7235	141.3498	225.967	244.2065	291.991	348.6515	403.8518	452.7555	525.5309	683.3602	726.9626	740.4025	799.8086	847.3972	908.9576	928.3769	952.6244	976.1679	999.5511	1011.4599	1059.2635	1079.9466	1133.2201	1164.7941	1180.8163	1185.3881	1191.3211	1237.1017	1265.2025	1296.6955	1311.3191	1359.5519	1428.3525	1449.9485	1460.0915	1481.2393	1486.2336	1498.5757	1521.6858	1664.6249	2941.1131	2966.2477	2970.9164	3014.7112	3027.717	3062.858	3117.491	3175.5911	3187.0971	3212.777
COCC12OC1CC=C2	COC[C@@]12O[C@@H]1CC=C2	
InChI=1S/C7H10O2/c1-8-5-7-4-2-3-6(7)9-7/h2,4,6H,3,5H2,1H3	InChI=1S/C7H10O2/c1-8-5-7-4-2-3-6(7)9-7/h2,4,6H,3,5H2,1H3/t6-,7-/m1/s1
