19
gdb 6019	3.2311071	1.0761345	0.9290867	3.5569	77.11	-0.24082	0.01495	0.25577	1329.7987	0.155945	-422.517158	-422.508436	-422.507491	-422.551327	31.969	
C	 1.5879480827	-0.6989890991	-1.2697997827	-0.386736
C	 1.1990558822	-0.0621075163	 0.052365901	-0.048298
O	 1.7443236047	 1.249663528	 0.0943884356	-0.262412
C	 1.4176967158	 1.961560846	 1.2409842772	 0.182444
C	 2.183620809	 3.2986103356	 1.4327299008	-0.219508
C	 1.7883710999	 3.16770671	 2.9436665718	-0.248106
C	 2.2208902428	 1.7087186497	 2.5756057558	-0.226522
C	 3.3769379917	 2.3998695699	 1.8267571434	 0.458049
O	 4.5537085118	 2.3176907117	 1.6781375457	-0.320264
H	 1.1847164234	-1.7138017089	-1.3353799381	 0.116944
H	 1.1975717041	-0.1138149315	-2.1070844622	 0.129004
H	 2.6760764945	-0.7494285013	-1.3639763848	 0.136092
H	 0.1026469085	-0.013161588	 0.1552933272	 0.09015
H	 1.5800996916	-0.6560140331	 0.8973564391	 0.096679
H	 0.3313721729	 2.0314278694	 1.3940858285	 0.076761
H	 2.1458908747	 4.1816001563	 0.7997401189	 0.097944
H	 2.4046825457	 3.701283962	 3.6663531149	 0.123719
H	 0.7222393778	 3.2906828287	 3.1475438954	 0.110569
H	 2.2218607562	 0.8314768309	 3.2182059023	 0.093493
61.4586	76.5254	128.5832	186.0959	246.4099	343.945	352.5399	406.8142	452.1103	586.138	690.4696	756.6295	777.8426	820.0512	822.6418	880.5513	903.6682	935.6034	955.0013	1018.7534	1036.2812	1038.8715	1072.9926	1100.9438	1116.1369	1150.733	1176.1927	1183.5743	1192.9298	1204.4348	1239.8776	1256.8113	1298.1776	1377.7249	1405.8818	1441.9697	1483.1349	1499.6856	1515.0592	1527.5414	1929.8803	2969.4596	3003.0908	3010.9534	3047.2359	3074.7853	3121.916	3126.0107	3150.9974	3152.496	3158.3524
CCOC1C2CC1C2=O	CCO[C@@H]1[C@H]2C[C@@H]1C2=O	
InChI=1S/C7H10O2/c1-2-9-7-4-3-5(7)6(4)8/h4-5,7H,2-3H2,1H3	InChI=1S/C7H10O2/c1-2-9-7-4-3-5(7)6(4)8/h4-5,7H,2-3H2,1H3/t4-,5+,7+
