19
gdb 3934	3.6750184	1.3573487	1.2707172	1.6526	75.01	-0.23824	0.07479	0.31303000000000003	1053.2903	0.158211	-422.509632	-422.502285	-422.501341	-422.540951	30.067	
O	 0.3682184578	-0.1668990348	 0.3063983104	-0.433557
C	-0.7794894799	 0.4406713542	 0.8504533766	 0.112375
C	-2.0433648664	 0.1643280831	-0.0272699041	-0.350278
C	-2.365309988	 1.6458744428	 0.1134852847	 0.428091
C	-2.9336050427	 2.8532662722	-0.6191714958	-0.313654
C	-2.3685447158	 3.9144966891	 0.4067643854	-0.210646
C	-1.7370188466	 2.931222935	 1.444881742	 0.040648
O	-2.7830907747	 1.9195212279	 1.5109858695	-0.343508
C	-0.9221416547	 1.9889456621	 0.5567954728	-0.090765
H	 1.1145627688	 0.0331327407	 0.8808370207	 0.282584
H	-0.9254075491	 0.1776794556	 1.9023405616	 0.085283
H	-1.7276265074	-0.0947773442	-1.042010408	 0.119155
H	-2.7828914315	-0.5521355282	 0.3350530924	 0.11073
H	-2.5272489169	 2.9711014627	-1.6267249794	 0.102824
H	-4.0245787383	 2.860667201	-0.6704790435	 0.109128
H	-1.6414656792	 4.5973599402	-0.041937156	 0.098399
H	-3.1612176458	 4.5033913409	 0.8726839839	 0.109058
H	-1.4325433504	 3.3364393478	 2.412734152	 0.071561
H	-0.1788660491	 2.3717855022	-0.1458566855	 0.072573
145.4792	246.9251	276.837	318.325	326.139	398.1859	458.047	493.1609	593.0838	677.7251	743.1685	793.3684	823.0543	860.5881	868.9131	884.5153	902.2693	935.0957	963.6349	977.9052	1017.8071	1031.1088	1046.4906	1105.8919	1138.2615	1151.8621	1161.5988	1199.5589	1222.0717	1232.1089	1244.2756	1249.1318	1272.2242	1290.5562	1304.0743	1321.6126	1333.0409	1413.3656	1466.6861	1476.0504	1498.5728	3055.4287	3060.672	3065.5439	3069.7915	3086.756	3095.5868	3110.1714	3126.2696	3131.1188	3811.449
OC1CC23CCC(O2)C13	O[C@@H]1C[C@@]23CC[C@@H](O2)[C@@H]13	
InChI=1S/C7H10O2/c8-4-3-7-2-1-5(9-7)6(4)7/h4-6,8H,1-3H2	InChI=1S/C7H10O2/c8-4-3-7-2-1-5(9-7)6(4)7/h4-6,8H,1-3H2/t4-,5-,6-,7-/m1/s1
