19
gdb 4279	2.4473775	1.686902	1.2584778	1.7535	74.59	-0.24234	-0.02877	0.21357	1061.1318	0.156834	-422.56891	-422.5605	-422.559556	-422.60295	31.162	
C	-0.7992021043	 2.2124772554	-1.2590307168	-0.392106
C	-0.9401959357	 1.2438872551	-0.0881472511	 0.021677
O	-2.2715462479	 0.7611091409	 0.0543748853	-0.282925
C	-2.3165683666	-0.6628909857	 0.0151050705	 0.11879
C	-2.5484326108	-1.3180103011	-1.3811469489	-0.246482
C	-1.1949511251	-2.0740794737	-1.2365801535	-0.233944
C	-0.8820709263	-1.2248771658	 0.0319038928	-0.16689
C	-0.0322580888	 0.0116475992	-0.2277537023	 0.363952
O	 1.1370001243	 0.0419139444	-0.5114640704	-0.316005
H	-1.0856784636	 1.7326100567	-2.1995164708	 0.121101
H	-1.4378997513	 3.0861827562	-1.1084795306	 0.127459
H	 0.2416875243	 2.5381520347	-1.3368837371	 0.137869
H	-0.6510820123	 1.7608001171	 0.8411564229	 0.105839
H	-3.0017786915	-1.0033699619	 0.7950881621	 0.083437
H	-3.4404039595	-1.9403411931	-1.477481137	 0.107105
H	-2.5565713613	-0.5702183441	-2.1775478043	 0.114334
H	-1.3173844458	-3.132520596	-0.9993752603	 0.113767
H	-0.477454718	-1.983568217	-2.0547967438	 0.11946
H	-0.5115415698	-1.7544910911	 0.9126444734	 0.103561
40.9759	54.2409	199.1022	209.1015	252.1339	368.6966	394.8892	494.9158	573.2027	597.9825	664.5583	702.8489	779.3207	790.4919	872.6486	890.6431	925.7433	936.0045	958.344	994.8734	1042.7338	1073.1424	1101.8736	1109.5812	1126.5103	1177.8104	1183.3271	1223.2562	1245.1133	1254.5983	1268.1849	1299.9972	1317.4334	1350.4684	1366.9155	1396.3557	1471.7636	1484.9046	1493.4897	1496.6251	1844.3348	2974.8289	3046.2303	3069.2429	3073.3922	3074.6598	3089.4064	3116.7841	3122.3211	3131.9245	3134.128
CC1OC2CCC2C1=O	C[C@H]1O[C@H]2CC[C@H]2C1=O	
InChI=1S/C7H10O2/c1-4-7(8)5-2-3-6(5)9-4/h4-6H,2-3H2,1H3	InChI=1S/C7H10O2/c1-4-7(8)5-2-3-6(5)9-4/h4-6H,2-3H2,1H3/t4-,5-,6+/m1/s1
