19
gdb 2232	2.4282171	2.1125944	1.6799889	1.0484	73.07	-0.22907	0.09171	0.32078	905.4219	0.159133	-422.550664	-422.543636	-422.542692	-422.581588	28.831	
C	-0.1551423174	-0.0442796753	-0.0381590707	-0.517523
C	 1.3377964797	 0.0501053715	 0.0594181331	 0.444151
O	 2.0139572263	-1.0644021905	 0.7002278762	-0.338715
C	 3.2163522514	-0.5077984076	 0.0880190999	 0.054756
C	 3.4048830868	 0.7570596325	 0.9491115481	-0.238651
C	 2.0063930315	 1.3512170723	 0.636278887	 0.040605
O	 2.0908219229	 2.2303082275	-0.4830021138	-0.274718
C	 2.5552033147	 1.4262723497	-1.5852275177	-0.118246
C	 2.3500950792	-0.0067841544	-1.1139107857	-0.111675
H	-0.59784463	-0.1155061177	 0.9611035431	 0.131181
H	-0.5531431148	 0.8510482084	-0.525353628	 0.135527
H	-0.4617284702	-0.9239748358	-0.6110835205	 0.125869
H	 4.0331484571	-1.2212362461	-0.0177127646	 0.079187
H	 3.5435216562	 0.4791449465	 1.9958237465	 0.109894
H	 4.2061895304	 1.4314456396	 0.637533235	 0.106228
H	 1.4922244116	 1.8724084757	 1.442803336	 0.079356
H	 1.9534800019	 1.6667055157	-2.4686342786	 0.109373
H	 3.6041783369	 1.6595073772	-1.8161560131	 0.099207
H	 2.1576598859	-0.7635289493	-1.872668242	 0.084192
201.7291	221.8778	246.8057	274.8005	413.5496	455.0326	520.4781	599.4802	621.8606	720.7706	731.0851	822.8138	834.8844	881.8344	895.7238	901.7285	913.511	961.388	974.0732	1001.763	1025.0456	1060.6867	1071.7656	1127.3062	1139.2484	1142.7142	1167.6988	1195.1862	1225.6942	1255.3601	1279.7322	1293.2995	1310.3975	1335.7194	1357.8315	1392.0494	1417.3757	1477.81	1482.126	1494.0968	1524.4758	3003.0429	3038.2133	3057.6782	3071.8872	3106.9182	3118.3809	3123.6567	3125.5746	3131.5148	3138.6972
CC12OC3CC1OCC23	C[C@]12O[C@@H]3C[C@H]1OC[C@H]23	
InChI=1S/C7H10O2/c1-7-4-3-8-6(7)2-5(4)9-7/h4-6H,2-3H2,1H3	InChI=1S/C7H10O2/c1-7-4-3-8-6(7)2-5(4)9-7/h4-6H,2-3H2,1H3/t4-,5+,6+,7+/m0/s1
