19
gdb 5772	3.7391672	1.1177497	1.1015718	2.85	75.9	-0.23731	-0.00507	0.23224	1186.1973	0.157639	-422.551151	-422.542994	-422.54205	-422.583953	30.846	
C	 1.3728692742	-0.0876710875	-0.1306809647	-0.243118
O	-0.0132081887	-0.136863718	 0.1252633947	-0.248053
C	-0.4180350047	 0.672085632	 1.2088895227	 0.143738
C	-0.1044145147	 0.0484056542	 2.6218689926	-0.26065
C	-1.5434980929	-0.1483377793	 3.1522285445	-0.144302
C	-2.2750244845	-0.6962953064	 1.8821277384	-0.243468
C	-1.9526395168	 0.7107996608	 1.269982571	-0.171531
C	-2.1708175226	 1.1906122489	 2.7223028754	 0.427093
O	-2.7301038058	 2.1022093585	 3.2534087094	-0.323117
H	 1.968342084	-0.466094455	 0.7136505212	 0.107852
H	 1.5626149046	-0.718779887	-1.0019406669	 0.130825
H	 1.7061868003	 0.9377771292	-0.3537911007	 0.108556
H	 0.0135039181	 1.677503751	 1.0989643687	 0.074871
H	 0.4173747734	-0.9060639787	 2.5099876675	 0.115039
H	 0.4964408869	 0.7037871709	 3.2575628514	 0.11137
H	-1.6786502715	-0.571309295	 4.1454483756	 0.084695
H	-1.8095675487	-1.5443736678	 1.3790504142	 0.124294
H	-3.3422074674	-0.8611588126	 2.0358092236	 0.117275
H	-2.4820332031	 1.132766572	 0.4195038413	 0.088632
100.4502	128.8729	168.0849	206.5405	260.7421	355.276	429.5862	466.658	502.5817	634.5599	676.1007	781.0835	786.2625	823.1623	860.9467	935.8304	958.9986	976.5956	997.3047	1017.273	1033.4247	1055.1389	1089.5091	1120.7721	1128.4723	1172.7579	1183.4101	1198.0837	1215.045	1227.5826	1249.4794	1254.7406	1313.603	1322.0561	1395.696	1480.6309	1480.8946	1488.9617	1500.3917	1510.0615	1903.0164	2977.2311	2996.836	3025.5464	3059.728	3085.0293	3110.2031	3117.9099	3145.0035	3153.4776	3159.1621
COC1CC2CC1C2=O	CO[C@@H]1C[C@@H]2C[C@H]1C2=O	
InChI=1S/C7H10O2/c1-9-6-3-4-2-5(6)7(4)8/h4-6H,2-3H2,1H3	InChI=1S/C7H10O2/c1-9-6-3-4-2-5(6)7(4)8/h4-6H,2-3H2,1H3/t4-,5+,6+/m0/s1
