19
gdb 1470	2.8981446	1.6398031	1.6306265	2.9856	74.05	-0.23206	0.07109	0.30315	948.7528	0.156926	-422.515444	-422.507717	-422.506773	-422.546958	31.089	
C	 0.060415582	-0.0470472852	 0.0171063101	-0.46016
C	 1.5857855849	-0.1047425056	 0.0229719318	 0.419944
O	 2.0808982409	-0.7921123582	 1.1476702436	-0.468098
C	 2.1501936568	-0.487413248	-1.3845293425	-0.132596
C	 3.6873705416	-0.6804287051	-1.3595624964	-0.249952
C	 3.8592668662	 0.8539932012	-1.2683039177	 0.100793
O	 3.6131168366	 1.341125243	 0.0694220941	-0.296568
C	 2.1912007771	 1.3160209101	-0.1400412052	 0.06143
C	 2.3663506134	 1.049483829	-1.6636024955	-0.095037
H	-0.3044894584	 0.3917770544	 0.9509616705	 0.126635
H	-0.3197044991	 0.5494742191	-0.8185292991	 0.125123
H	-0.3620886691	-1.0546679256	-0.0821715678	 0.108813
H	 1.5937728795	-1.6185931774	 1.2358065218	 0.275536
H	 1.5481622002	-1.1540968739	-2.0043294391	 0.056008
H	 4.1082044299	-1.2690549316	-0.5415319549	 0.113884
H	 4.0522712951	-1.0560314584	-2.3209746516	 0.095573
H	 4.72847977	 1.3327160763	-1.7235537339	 0.076119
H	 1.6854926759	 2.1569291707	 0.3415206412	 0.069868
H	 1.9686111366	 1.638135855	-2.4851147693	 0.072684
173.3289	211.1192	247.9011	253.3086	307.8919	341.6	404.1184	482.1613	545.3089	604.5994	694.9109	765.0078	827.8068	831.7715	841.4283	880.7741	895.5521	950.4708	970.7927	991.8507	1007.6408	1029.2552	1053.8477	1095.2553	1115.5284	1134.0063	1142.5174	1177.7081	1182.6572	1193.6722	1234.6213	1255.7857	1275.0707	1292.7335	1309.1535	1338.9119	1388.8663	1403.5116	1463.6028	1488.8273	1494.4319	3021.9967	3050.3038	3074.6356	3088.0326	3089.1188	3090.7698	3110.3702	3119.3964	3157.0117	3802.1474
CC1(O)C2CC3OC1C23	C[C@@]1(O)[C@@H]2C[C@@H]3O[C@H]1[C@H]23	
InChI=1S/C7H10O2/c1-7(8)3-2-4-5(3)6(7)9-4/h3-6,8H,2H2,1H3	InChI=1S/C7H10O2/c1-7(8)3-2-4-5(3)6(7)9-4/h3-6,8H,2H2,1H3/t3-,4+,5-,6+,7-/m1/s1
