19
gdb 3126	2.5654962	1.4820011	1.2216637	4.1413	75.24	-0.26427	0.0118	0.27607	1112.3344	0.156434	-422.59872	-422.590098	-422.589154	-422.631747	32.68	
C	-0.5419860837	 2.0849380253	 1.2095860508	-0.406762
C	-0.7661018864	 1.2732888763	-0.0737282583	-0.14277
C	-2.1810818667	 0.76064393	-0.2499169182	-0.108489
C	-2.4781145133	-0.0645924226	-1.4926295424	-0.361389
C	-2.0989846687	-0.743250756	-0.2081507689	 0.428746
C	-2.9946244425	-1.672816423	 0.5557300425	-0.467056
O	-0.7243915065	-1.1093707154	-0.1201417949	-0.250952
C	 0.0816658404	-0.0095212737	-0.0519363327	 0.408996
O	 1.272623604	-0.0950520427	 0.0177193672	-0.340448
H	-0.8892433925	 1.5349542857	 2.0902750473	 0.124184
H	 0.5221501797	 2.2971803393	 1.3375807556	 0.145297
H	-1.0853513087	 3.0331967609	 1.1643516248	 0.120688
H	-0.427334852	 1.8667646719	-0.9306238354	 0.113939
H	-2.9961175353	 1.2859856051	 0.2348922527	 0.097603
H	-3.5138675857	-0.1290462222	-1.8080613102	 0.120789
H	-1.7553606461	-0.0656164723	-2.3030125952	 0.125398
H	-2.708620424	-1.70972363	 1.6115961043	 0.131067
H	-4.0326859855	-1.3354241455	 0.489494751	 0.123592
H	-2.9391521766	-2.688293791	 0.1509783299	 0.137567
83.5201	149.1776	212.2581	229.826	245.0556	295.4584	324.714	405.5016	466.2929	497.8743	601.1735	643.4243	717.348	749.9039	791.8567	838.9324	875.9693	954.2144	961.8906	986.0629	1037.0327	1045.9372	1053.4871	1076.4895	1118.6125	1131.9375	1142.8532	1188.9484	1249.8827	1291.0341	1295.6056	1335.7548	1397.3995	1406.519	1431.5647	1479.1104	1483.4707	1496.4767	1500.0036	1504.0629	1878.1473	3039.5692	3040.294	3044.9865	3107.0639	3110.6276	3119.3952	3126.3244	3129.3964	3174.4401	3217.238
CC1C2CC2(C)OC1=O	C[C@@H]1[C@H]2C[C@@]2(C)OC1=O	
InChI=1S/C7H10O2/c1-4-5-3-7(5,2)9-6(4)8/h4-5H,3H2,1-2H3	InChI=1S/C7H10O2/c1-4-5-3-7(5,2)9-6(4)8/h4-5H,3H2,1-2H3/t4-,5-,7-/m1/s1
