19
gdb 720	2.8699228	1.4843501	1.2352044	3.8054	74.06	-0.23527	-0.01101	0.22426000000000001	1061.2655	0.158555	-422.575728	-422.567993	-422.567048	-422.608335	29.725	
O	 0.8608052453	 0.015754156	 0.8932149134	-0.317313
C	-0.1201342456	-0.0220364677	 0.1899902306	 0.412197
C	-1.021807529	 1.1922526851	-0.0031529267	-0.305
C	-1.7973043953	 1.1754418447	-1.3295993026	-0.244094
C	-2.652958081	-0.0840306506	-1.4900039399	-0.057301
C	-3.6839602646	-0.3459534264	-0.3724278411	-0.084514
O	-2.846912061	-1.3634061378	 0.2177205628	-0.294102
C	-1.9766569375	-1.3700011291	-0.9414452669	 0.125508
C	-0.5086042715	-1.2918986318	-0.5662929322	-0.340933
H	-1.7210535235	 1.1917478765	 0.8437074983	 0.141685
H	-0.4082108697	 2.0907608102	 0.1033037467	 0.123585
H	-2.4313854269	 2.0667942852	-1.4026661555	 0.107654
H	-1.0887582845	 1.2358471045	-2.1656470403	 0.106679
H	-3.0440136571	-0.1585212279	-2.5067945457	 0.077605
H	-3.8882927595	 0.4756490474	 0.324769219	 0.10382
H	-4.6391901227	-0.7576422336	-0.7238416907	 0.101567
H	-2.1645806708	-2.2598180331	-1.557907336	 0.074878
H	-0.2065515656	-2.1567687774	 0.0319695784	 0.139789
H	 0.0958266305	-1.3223646343	-1.4848196117	 0.12829
55.3523	135.4849	225.0005	290.0974	349.5977	404.4391	454.3899	480.4734	549.4219	650.0065	713.4437	786.4227	800.0059	838.1206	859.9855	914.2893	962.1888	990.6228	1003.2903	1023.2375	1061.9242	1085.0786	1108.0639	1150.6873	1163.0674	1188.606	1210.1068	1237.3324	1281.8363	1293.5118	1316.0737	1343.7499	1350.8689	1361.3759	1386.4557	1397.7799	1431.8945	1452.3795	1492.9363	1527.6572	1820.0136	2999.9491	3010.1699	3020.8009	3023.9579	3032.4033	3052.7121	3062.5384	3086.3832	3093.5044	3099.2474
O=C1CCC2COC2C1	O=C1CC[C@@H]2CO[C@@H]2C1	
InChI=1S/C7H10O2/c8-6-2-1-5-4-9-7(5)3-6/h5,7H,1-4H2	InChI=1S/C7H10O2/c8-6-2-1-5-4-9-7(5)3-6/h5,7H,1-4H2/t5-,7-/m1/s1
