19
gdb 1304	2.9520569	0.9813256	0.9362952	1.5662	79.23	-0.24101	0.03148	0.27249	1351.6038	0.152956	-422.510394	-422.500016	-422.499071	-422.54561	38.217	
C	 0.7199505218	-1.3344278051	-2.2180864126	-0.407262
C	-0.7934609573	-1.4619110336	-2.0464519838	 0.120458
O	-1.1580962215	-2.7225212927	-1.4873579922	-0.432013
C	-1.3643371649	-0.3210307348	-1.2209401355	-0.06643
C	-2.8147216139	 0.0635120955	-1.3434406888	-0.353736
C	-1.7346473442	 0.9912131073	-1.8806952666	 0.193823
O	-1.5300990564	 1.0270959301	-3.2708293934	-0.451513
C	-1.4724900992	 2.2309986264	-1.1954482612	 0.298643
C	-1.2724935425	 3.2827731918	-0.6465377633	-0.464236
H	 1.2238073199	-1.311531317	-1.2431415024	 0.101393
H	 1.1086728291	-2.1853591706	-2.78403994	 0.121142
H	 0.96982316	-0.4112471435	-2.7488925934	 0.137118
H	-1.2656458958	-1.448165655	-3.0320699917	 0.101982
H	-0.7098759286	-2.80693698	-0.6384548627	 0.274225
H	-0.919870648	-0.2205938742	-0.233030279	 0.091838
H	-3.3977237188	-0.4588786257	-2.0946813227	 0.126159
H	-3.3604105545	 0.3674644066	-0.4578948422	 0.121943
H	-2.1499075109	 1.6652170285	-3.6416468394	 0.289531
H	-1.0837263245	 4.2068052159	-0.1585935891	 0.196938
52.78	97.3374	123.9973	197.497	248.0398	255.148	277.8901	294.7498	340.9577	377.0132	413.8626	441.975	506.8455	555.6727	577.7178	610.0555	675.1288	712.6447	808.9013	897.7438	906.8958	925.8685	963.1249	1030.4221	1051.3857	1064.9437	1100.5597	1116.8347	1188.117	1228.8883	1242.3177	1289.1731	1329.1892	1357.7334	1399.5286	1417.8142	1427.74	1476.543	1493.3587	1496.4719	2230.1799	3024.2886	3081.7998	3102.3956	3124.4862	3133.5699	3135.8916	3230.0247	3502.109	3797.5291	3799.4564
CC(O)C1CC1(O)C#C	C[C@@H](O)[C@@H]1C[C@@]1(O)C#C	
InChI=1S/C7H10O2/c1-3-7(9)4-6(7)5(2)8/h1,5-6,8-9H,4H2,2H3	InChI=1S/C7H10O2/c1-3-7(9)4-6(7)5(2)8/h1,5-6,8-9H,4H2,2H3/t5-,6+,7+/m1/s1
