19
gdb 6082	2.7589149	1.0198882	0.8181608	1.8064	78.76	-0.24853	0.03149	0.28002	1424.4399	0.153979	-422.492774	-422.482862	-422.481918	-422.528318	36.075	
O	-0.9182665766	 5.1069566029	 0.2479029504	-0.42222
C	-0.4430072285	 4.3310534211	-0.8350846377	-0.063027
C	-0.8043226976	 2.8638702424	-0.6755265315	-0.090612
O	-0.188465971	 2.4294181838	 0.5366577678	-0.292139
C	-0.5178143511	 1.1256825689	 0.9260520333	 0.26317
C	-0.5255942149	 0.906166041	 2.4171896443	-0.313206
C	-1.8320367748	 0.9319086846	 1.666484704	-0.316179
C	-0.0404694067	 0.0790761946	 0.0565282441	 0.317333
C	 0.3578609703	-0.7793954441	-0.6858447598	-0.503884
H	-0.5969776045	 4.6689522778	 1.044242731	 0.287538
H	-0.9092756757	 4.7252530662	-1.7438195015	 0.110013
H	 0.6487953065	 4.4220347701	-0.9482359748	 0.096572
H	-1.8949049802	 2.7457712568	-0.6047632701	 0.09986
H	-0.440356265	 2.2716972948	-1.5263853521	 0.105564
H	-0.1528424516	-0.0407698276	 2.7878198498	 0.131931
H	-0.2697599191	 1.7731284977	 3.0151943101	 0.128773
H	-2.3694493454	 0.0029233309	 1.518899837	 0.130433
H	-2.4500551158	 1.8169854136	 1.7671642308	 0.129954
H	 0.7144303517	-1.5412513655	-1.3340934551	 0.200125
37.9472	75.8871	135.9755	162.9018	199.5902	225.9948	301.6431	365.2009	405.8132	418.3456	506.564	552.529	576.29	594.8128	683.5192	706.2798	775.6469	850.0041	898.8847	909.3301	938.2774	961.7226	999.0438	1054.9179	1078.1698	1083.8769	1104.4976	1135.4677	1194.1419	1235.8911	1260.0038	1265.9673	1307.03	1387.7024	1405.3573	1437.3519	1450.5039	1483.5153	1498.2446	1507.5402	2231.6149	2985.4142	3000.2239	3048.0878	3081.9195	3142.4917	3147.5093	3231.5221	3245.671	3500.5684	3802.9061
OCCOC1(CC1)C#C	OCCOC1(CC1)C#C	
InChI=1S/C7H10O2/c1-2-7(3-4-7)9-6-5-8/h1,8H,3-6H2	InChI=1S/C7H10O2/c1-2-7(3-4-7)9-6-5-8/h1,8H,3-6H2
