19
gdb 1167	4.1518686	0.9970026	0.8884075	1.8929	76.38	-0.26136	0.01764	0.27899999999999997	1352.7966	0.155897	-422.561914	-422.552962	-422.552018	-422.596763	32.193	
C	 1.3572877999	 4.1888197709	-1.7086896971	-0.478645
C	 2.1236583274	 2.9295548322	-2.0368195041	 0.42043
O	 3.2988581618	 2.8702137792	-2.2960596617	-0.353014
O	 1.3037840708	 1.8545758515	-2.0097348857	-0.259412
C	 1.9109361482	 0.5944615441	-2.3353545656	 0.157195
C	 0.8303247595	-0.5195961134	-2.2508958888	-0.271861
C	 1.6077952983	-1.1625870153	-1.0929686936	-0.042874
C	 3.0085784148	-1.4696026796	-1.5388759944	-0.277646
C	 2.6600928736	-0.0536750425	-1.1696803636	-0.061339
H	 0.8456231525	 4.080835943	-0.7484851473	 0.14786
H	 2.0443414809	 5.0334381828	-1.675793293	 0.147329
H	 0.5892487491	 4.365224031	-2.4675960619	 0.149752
H	 2.4743038118	 0.7069986524	-3.2648433635	 0.095591
H	-0.122434363	-0.0853573732	-1.9429767115	 0.119486
H	 0.6769854863	-1.1340804248	-3.1437992523	 0.098092
H	 1.1652642968	-1.630142273	-0.2223134177	 0.087122
H	 3.6311234705	-1.9902004609	-0.8183905283	 0.116056
H	 3.2118161153	-1.7367978339	-2.5741863296	 0.107677
H	 3.1736556256	 0.4866880995	-0.3854898901	 0.098199
51.4836	68.1746	93.896	130.999	221.3836	325.9808	354.3365	406.2101	498.4207	608.2643	649.2002	722.2374	776.9241	815.0711	880.0245	906.6981	927.7445	945.3751	964.8329	997.8921	1016.8728	1056.6928	1058.9964	1065.5153	1078.0072	1088.9809	1119.2397	1168.7469	1214.1836	1243.1151	1255.117	1266.3399	1301.2908	1347.9838	1383.4744	1400.9918	1469.5315	1476.102	1476.8092	1495.1278	1822.541	3050.5578	3056.7167	3079.7359	3103.1176	3121.6127	3123.6479	3168.971	3185.5768	3195.7689	3208.3635
CC(=O)OC1CC2CC12	CC(=O)O[C@@H]1C[C@H]2C[C@@H]12	
InChI=1S/C7H10O2/c1-4(8)9-7-3-5-2-6(5)7/h5-7H,2-3H2,1H3	InChI=1S/C7H10O2/c1-4(8)9-7-3-5-2-6(5)7/h5-7H,2-3H2,1H3/t5-,6-,7-/m1/s1
