19
gdb 4817	3.2392255	0.6973862	0.598344	2.462	79.12	-0.25251	-0.02495	0.22756	1793.2914	0.15333	-422.533729	-422.523094	-422.52215	-422.57068	36.703	
O	 2.8928651541	-2.2648813327	 1.0122320934	-0.418995
C	 3.2024897237	-1.4414409468	-0.0878817619	-0.064664
C	 2.5986744088	-0.0218519911	 0.0386253652	-0.164976
C	 3.0057491579	 0.8641827747	-1.1583542256	-0.211884
C	 2.5290346808	 2.3195950991	-1.0292014348	-0.280954
C	 2.82300553	 3.1192623203	-2.27728413	 0.160362
O	 3.439639214	 4.1523003522	-2.3091469083	-0.236096
C	 1.1469158813	-0.1216679949	 0.1795581547	 0.317118
C	-0.0444075442	-0.2596315702	 0.2813115301	-0.480457
H	 1.9311010789	-2.3099316502	 1.0737735708	 0.287112
H	 4.2937993543	-1.3612870022	-0.116769947	 0.114013
H	 2.8713101193	-1.8857651735	-1.0400243728	 0.094444
H	 3.0042814325	 0.4187441583	 0.9593599588	 0.119295
H	 4.0984130182	 0.8419148819	-1.2455160876	 0.116517
H	 2.6035584882	 0.4241416827	-2.0793490775	 0.114085
H	 1.4395499822	 2.3210446676	-0.8829032175	 0.134685
H	 2.9895779602	 2.8222669535	-0.1737137843	 0.122842
H	 2.4136567018	 2.6684532023	-3.2129949311	 0.070903
H	-1.097883112	-0.3553623909	 0.3801205054	 0.206651
50.6422	65.0127	91.8295	112.3378	141.9815	174.605	231.1717	291.2931	315.8326	396.9194	427.6973	511.7994	546.1934	608.1256	632.7061	663.0197	756.1808	802.3665	860.9199	979.5623	999.6954	1024.4455	1071.4701	1089.8095	1112.0479	1122.5539	1191.679	1214.5813	1254.5076	1303.2923	1306.3759	1369.5225	1373.5058	1389.4964	1428.8472	1431.23	1464.4291	1490.3557	1506.6313	1837.6921	2224.3546	2846.9624	2978.8682	3019.4159	3021.1978	3031.7202	3068.565	3081.849	3101.6161	3499.7506	3784.5686
OCC(CCC=O)C#C	OC[C@@H](CCC=O)C#C	
InChI=1S/C7H10O2/c1-2-7(6-9)4-3-5-8/h1,5,7,9H,3-4,6H2	InChI=1S/C7H10O2/c1-2-7(6-9)4-3-5-8/h1,5,7,9H,3-4,6H2/t7-/m1/s1
