19
gdb 5030	2.5889083	1.6764761	1.2761624	2.1041	74.83	-0.24161	-0.00302	0.23859	1041.2663	0.156405	-422.517771	-422.509425	-422.50848	-422.550255	32.634	
C	 1.0093192137	-0.6775938823	-0.9692461362	-0.418528
C	 0.8560991911	 0.1056907422	 0.324802765	-0.002084
C	 1.7300725858	 1.3992640171	 0.4683086733	 0.001352
O	 2.8641112488	 0.539245764	 0.8278410637	-0.334142
C	 1.8191548775	-0.2287767576	 1.5341758104	 0.328021
C	 2.2775630763	-1.5983691078	 1.9676794699	-0.186135
O	 2.8824164484	-2.3212088476	 0.9153546509	-0.41528
C	 1.3428814278	 0.8023251165	 2.5745776661	-0.128094
C	 1.2877274414	 1.9180188531	 1.8443828939	-0.089873
H	 0.6531611453	-1.7048741426	-0.8524419097	 0.129785
H	 0.4179682128	-0.2053589931	-1.7621319108	 0.10843
H	 2.0506149568	-0.7174633448	-1.2935873666	 0.121847
H	-0.1956505372	 0.2218185028	 0.5997815276	 0.071403
H	 1.9300611996	 2.0892579773	-0.3507924864	 0.079223
H	 2.9644419018	-1.4837189284	 2.8227725328	 0.099092
H	 1.4178180082	-2.1832910233	 2.3136469863	 0.114153
H	 3.4973677829	-1.7094079482	 0.4926618082	 0.295393
H	 1.1136706384	 0.6186185697	 3.6143129631	 0.111641
H	 0.9961859807	 2.9244839531	 2.1061443984	 0.113798
95.7304	175.0322	221.4987	244.3144	269.9253	331.642	388.4033	435.666	493.4993	534.0401	631.1234	674.46	699.1027	751.3381	788.964	816.7735	861.0531	893.667	902.6145	959.9213	998.4688	1040.4811	1049.2739	1073.985	1089.216	1098.4017	1121.1373	1201.9115	1221.4042	1238.4525	1259.9586	1298.0612	1320.8596	1372.5661	1383.1076	1406.9658	1443.7142	1486.4492	1494.2934	1498.8041	1616.0934	2969.0276	3037.9054	3065.9677	3072.4244	3103.5956	3130.7839	3137.6114	3227.3394	3254.8412	3789.0705
CC1C2OC1(CO)C=C2	C[C@@H]1[C@@H]2O[C@@]1(CO)C=C2	
InChI=1S/C7H10O2/c1-5-6-2-3-7(5,4-8)9-6/h2-3,5-6,8H,4H2,1H3	InChI=1S/C7H10O2/c1-5-6-2-3-7(5,4-8)9-6/h2-3,5-6,8H,4H2,1H3/t5-,6-,7-/m1/s1
