19
gdb 3982	5.3623633	0.843973	0.7868432	1.021	77.04	-0.23489	0.07555	0.31044	1476.2595	0.155719	-422.486746	-422.478228	-422.477284	-422.520298	31.634	
C	 5.0516685694	 2.4774247732	 0.1899097122	-0.40041
C	 4.8016430356	 0.995958221	 0.0015794088	 0.126985
O	 4.2097120386	 0.4035243267	 1.205342291	-0.308425
C	 3.0137977001	 0.1170938086	 0.4868624105	 0.088199
C	 3.2732000661	-0.8578051246	-0.6298627844	-0.082421
C	 2.090474894	-1.4003624324	-1.355632833	 0.073159
C	 1.8594240699	-2.8414865757	-1.5116448467	-0.18829
O	 2.339527012	-2.0568680749	-2.6052743083	-0.239345
C	 3.5670838119	 0.62262769	-0.8200711341	-0.147073
H	 5.7728697558	 2.6378314006	 0.9967521738	 0.129545
H	 5.4590456955	 2.9141650416	-0.7286942037	 0.117605
H	 4.1241506054	 2.9984464779	 0.4446403667	 0.123462
H	 5.7275007858	 0.4723822077	-0.2696600962	 0.084488
H	 2.0648928718	 0.2467141655	 0.9960340482	 0.104704
H	 4.1073202955	-1.5477262199	-0.5190373476	 0.094828
H	 1.2169854165	-0.7446874802	-1.3734152685	 0.089831
H	 2.5767647326	-3.5452896287	-1.0909907549	 0.115197
H	 0.8439209038	-3.2221089885	-1.614948751	 0.114702
H	 3.1205446397	 1.217152462	-1.6065153828	 0.103258
66.6329	121.3505	145.6152	230.0647	245.658	286.6686	348.8529	461.4056	473.1426	485.2698	778.0678	801.42	844.0775	855.6119	866.4969	909.0815	937.023	948.5057	998.4943	1018.4201	1026.7253	1063.0724	1090.9685	1094.0354	1099.0582	1124.5087	1151.5477	1161.826	1176.6707	1212.6518	1228.5318	1256.6774	1297.1052	1303.4324	1366.6356	1390.535	1406.711	1470.8423	1485.4277	1491.0769	1532.747	3023.4296	3035.8057	3078.6003	3084.341	3107.7405	3119.9714	3129.9281	3165.8787	3168.6398	3198.5845
CC1OC2C(C3CO3)C12	C[C@H]1O[C@@H]2[C@@H]([C@@H]3CO3)[C@H]12	
InChI=1S/C7H10O2/c1-3-5-6(4-2-8-4)7(5)9-3/h3-7H,2H2,1H3	InChI=1S/C7H10O2/c1-3-5-6(4-2-8-4)7(5)9-3/h3-7H,2H2,1H3/t3-,4+,5+,6+,7+/m1/s1
