19
gdb 1691	2.9269264	1.2045387	1.1096065	2.6453	75.12	-0.24217	-0.02058	0.22159	1176.2337	0.155111	-422.541832	-422.532846	-422.531902	-422.576143	33.307	
O	-0.062722008	 2.7406473596	 0.3009636988	-0.487519
C	-1.0120691228	 2.0762779847	-0.5140863311	 0.395573
C	-0.2524256635	 0.9160204284	-1.1737826429	-0.30817
C	 0.3187706172	-0.0079991353	-0.1153999683	 0.153841
O	-0.2487739346	-0.9949860697	 0.2831130896	-0.249889
C	-1.8307547051	 2.9324933436	-1.5499810541	-0.309593
C	-3.1242683846	 2.4091999793	-0.9155053588	-0.027908
C	-3.1713042683	 2.8201490382	 0.5248975949	-0.308538
C	-2.3279808767	 1.6320674689	 0.138353433	-0.093783
H	-0.540337031	 3.3152142587	 0.9080866255	 0.281846
H	-0.9343386215	 0.3451751026	-1.808791321	 0.122869
H	 0.5587756393	 1.332930377	-1.7813329687	 0.113207
H	 1.300921382	 0.2960074243	 0.3028583767	 0.093571
H	-1.6722200315	 4.0140216855	-1.4835903365	 0.096504
H	-1.6673824055	 2.6157011479	-2.582407658	 0.107086
H	-4.0060628619	 2.0898393401	-1.4553894967	 0.09226
H	-2.7264971058	 3.7649358808	 0.8363395313	 0.095422
H	-4.077027781	 2.5711679383	 1.06787305	 0.121443
H	-2.5044630568	 0.6473229468	 0.5529485963	 0.111779
41.6577	84.4471	161.7088	192.2606	262.5987	289.5684	353.7142	401.6751	438.7297	516.7142	534.7107	633.7268	755.4218	791.2594	843.767	877.6116	899.1487	946.5483	949.9568	978.0534	990.302	1012.1785	1025.0479	1068.0695	1084.3963	1104.8768	1112.716	1138.013	1159.8692	1200.7099	1239.297	1267.2429	1284.8999	1311.5458	1341.9405	1390.0719	1425.9847	1461.6221	1478.7035	1498.1828	1821.8381	2914.8433	3044.1617	3046.728	3087.8898	3108.4646	3117.345	3189.8767	3191.7079	3205.545	3817.2971
OC1(CC=O)CC2CC12	O[C@]1(CC=O)C[C@@H]2C[C@H]12	
InChI=1S/C7H10O2/c8-2-1-7(9)4-5-3-6(5)7/h2,5-6,9H,1,3-4H2	InChI=1S/C7H10O2/c8-2-1-7(9)4-5-3-6(5)7/h2,5-6,9H,1,3-4H2/t5-,6-,7+/m0/s1
