19
gdb 1713	2.6053258	1.5174837	1.281436	3.2853	74.49	-0.23632	-0.02631	0.21001	1061.7244	0.156214	-422.553857	-422.545351	-422.544407	-422.586963	32.092	
C	-0.1523745348	 0.0440811456	-0.1426124831	-0.448731
C	 1.3810882324	 0.1098486154	-0.0311396414	 0.161722
C	 1.9397237453	-0.6985269928	 1.1632206971	-0.134152
O	 3.1070850281	-0.0209118035	 1.6259081727	-0.257051
C	 3.0097364972	 1.3281485379	 1.260110971	 0.122182
C	 1.7591063452	 2.0864952661	 1.6209087007	-0.350028
C	 1.9391330964	 1.5105040811	 0.2241616181	-0.112341
C	 1.9536982515	-0.3888020925	-1.3578061078	 0.14015
O	 2.5069104413	-1.4421335915	-1.5299867511	-0.248463
H	-0.6156409473	 0.5209057587	 0.7257622689	 0.128981
H	-0.5082619748	 0.564403397	-1.0384277794	 0.122921
H	-0.5000566346	-0.9927399632	-0.1967369789	 0.132783
H	 1.1888418041	-0.7631879377	 1.9626001266	 0.091265
H	 2.2278426229	-1.709349809	 0.8662640028	 0.136505
H	 3.9764146425	 1.8163592673	 1.2346128668	 0.106556
H	 1.0451525649	 1.6312467605	 2.298989583	 0.120499
H	 1.8391392073	 3.1640386427	 1.7164138281	 0.118685
H	 2.0488789579	 2.1863124881	-0.6174186146	 0.090238
H	 1.7890195545	 0.3156494498	-2.2074513995	 0.078279
69.9809	129.1709	196.4359	229.789	303.579	312.2648	328.0984	377.8271	449.016	557.9255	624.0054	705.5311	775.3527	792.4607	851.017	889.5472	929.2904	960.2708	969.3743	990.7361	1010.0119	1036.277	1048.8879	1064.9717	1098.8823	1145.9117	1179.1649	1189.0054	1202.268	1237.0706	1271.7978	1323.2658	1373.2931	1396.8818	1402.962	1427.7067	1476.2929	1492.3202	1497.6499	1519.2911	1834.9162	2850.8381	3007.7233	3032.809	3100.1072	3108.4596	3113.524	3132.5077	3161.3207	3189.3296	3218.8665
CC1(COC2CC12)C=O	C[C@@]1(CO[C@@H]2C[C@H]12)C=O	
InChI=1S/C7H10O2/c1-7(3-8)4-9-6-2-5(6)7/h3,5-6H,2,4H2,1H3	InChI=1S/C7H10O2/c1-7(3-8)4-9-6-2-5(6)7/h3,5-6H,2,4H2,1H3/t5-,6+,7-/m0/s1
