19
gdb 2093	2.3637788	1.6649877	1.5009957	1.887	75.61	-0.24523	0.06373	0.30896	1007.7503	0.155259	-422.504097	-422.495345	-422.494401	-422.536548	34.119	
C	 1.0638823006	 0.8396456876	 1.5662531915	-0.525408
C	 1.3546239862	 0.1987558943	 0.2386896566	 0.281245
C	 0.348099722	-0.3125912251	-0.8223379527	-0.381276
C	 1.7375600503	-0.6048618584	-1.4251266432	 0.37459
O	 2.0744018598	-1.1267856462	-2.6589176486	-0.479575
C	 2.3657875239	 0.700933399	-0.8560842591	-0.126882
C	 3.5659747458	-0.0495087274	-0.2336729405	-0.347217
C	 2.3579659352	-0.9894191092	-0.0443847435	 0.297753
O	 2.303534397	-2.279152928	 0.4559534106	-0.48351
H	 0.5041502679	 0.1572943663	 2.2164584287	 0.119518
H	 1.9861193198	 1.1199023724	 2.0880843641	 0.117578
H	 0.461932283	 1.747077305	 1.446710193	 0.124559
H	-0.2612924588	-1.1766084928	-0.5384981148	 0.093569
H	-0.25808365	 0.4455486183	-1.3288492896	 0.090093
H	 1.8618586362	-2.066914087	-2.6533659714	 0.289066
H	 2.3414345803	 1.6777440145	-1.3345989838	 0.080206
H	 4.3403966852	-0.3857033196	-0.9278146498	 0.106151
H	 4.0099497608	 0.3889439344	 0.6663639307	 0.084951
H	 2.613204915	-2.2711345583	 1.3681895718	 0.28459
175.1574	195.1175	209.8812	230.2962	258.6752	274.5478	305.2611	321.1326	466.7625	474.7418	529.3591	592.0801	656.8201	690.1848	710.0552	790.2733	872.1573	898.274	943.6761	976.3482	994.3128	1042.4977	1050.7587	1087.6912	1092.0284	1109.8647	1142.8021	1147.6831	1174.7962	1206.0726	1229.676	1271.8395	1293.0503	1333.5165	1352.1496	1406.964	1414.5724	1488.3709	1494.6272	1504.3049	1518.1362	3022.327	3038.9654	3044.0982	3085.342	3089.6972	3098.931	3109.5637	3142.2774	3800.1671	3802.6134
CC12CC3(O)C1CC23O	C[C@@]12C[C@@]3(O)[C@@H]1C[C@@]23O	
InChI=1S/C7H10O2/c1-5-3-6(8)4(5)2-7(5,6)9/h4,8-9H,2-3H2,1H3	InChI=1S/C7H10O2/c1-5-3-6(8)4(5)2-7(5,6)9/h4,8-9H,2-3H2,1H3/t4-,5-,6-,7-/m1/s1
