19
gdb 5944	2.2586293	1.1756122	0.9063933	2.4075	77.38	-0.25219	0.02231	0.2745	1339.9109	0.15452	-422.500366	-422.490455	-422.489511	-422.535812	35.423	
O	 1.3398235078	 0.7380341352	-0.0303994946	-0.418544
C	 0.3462041402	-0.1118112427	 0.5234424905	-0.07302
C	-0.9269230195	 0.6553077884	 0.8937604416	-0.256435
C	-2.0050924734	-0.2286668899	 1.5254913694	 0.213905
C	-3.1644968103	 0.5233175454	 2.2475661139	-0.333829
C	-2.628023088	-0.1485887546	 3.5239208997	-0.065342
O	-1.5464987754	-0.7745279416	 2.8013492562	-0.308052
C	-2.4486043248	-1.2865076057	 0.6200824205	 0.345435
C	-2.8319290602	-2.146278602	-0.1279174323	-0.478858
H	 1.6514449575	 1.3205565883	 0.6693301546	 0.28044
H	 0.1222564429	-0.8545901977	-0.2474335685	 0.124365
H	 0.7179171567	-0.6525252587	 1.4048656724	 0.110142
H	-0.6795101688	 1.4420450915	 1.6182597937	 0.086698
H	-1.3339824025	 1.1434360822	 0.0007567155	 0.114472
H	-3.0714248569	 1.6099329474	 2.2126645354	 0.115502
H	-4.1668516096	 0.2300925877	 1.9381318518	 0.124734
H	-2.2584741883	 0.5234375396	 4.3067184496	 0.105883
H	-3.29547237	-0.8902564856	 3.9779832815	 0.110842
H	-3.1628300674	-2.9120696072	-0.785557221	 0.201661
59.573	87.0103	102.1236	135.2894	189.9285	202.4924	299.283	339.7714	371.9989	412.3776	521.2741	548.1886	626.3079	664.8029	706.331	773.7126	788.9879	860.5946	908.6289	972.441	986.7817	1002.3529	1024.074	1071.7806	1099.2841	1117.966	1158.9562	1174.9531	1210.4458	1256.4237	1265.3641	1298.7316	1335.3663	1350.5032	1400.7879	1420.2324	1469.4751	1486.8324	1514.5238	1531.897	2229.1088	3013.2317	3021.8229	3025.1528	3065.4047	3072.9922	3088.2021	3099.6798	3151.0925	3499.339	3817.315
OCCC1(CCO1)C#C	OCC[C@@]1(CCO1)C#C	
InChI=1S/C7H10O2/c1-2-7(3-5-8)4-6-9-7/h1,8H,3-6H2	InChI=1S/C7H10O2/c1-2-7(3-5-8)4-6-9-7/h1,8H,3-6H2/t7-/m1/s1
