19
gdb 1523	2.5563536	1.4629865	1.1157341	3.2874	77.6	-0.24074	-0.03691	0.20383	1154.3822	0.153702	-422.553518	-422.544118	-422.543173	-422.587479	34.597	
C	-2.4349309908	 2.9925074563	 0.7755581	-0.451708
C	-1.1003345119	 2.4086840944	 0.3712159249	 0.283897
C	 0.1242946523	 2.9936137946	 1.0376219936	-0.464284
O	-0.9551847483	 2.1469482214	-1.0330495361	-0.310807
C	-1.0508712728	 1.0274384228	-0.1756899556	 0.289811
C	-2.1246976699	-0.0763716299	-0.2174641856	-0.342626
C	-1.0452512669	-1.1189333746	 0.2118064601	-0.344847
C	 0.0302241775	-0.0215622571	 0.0497853711	 0.338576
O	 1.2273234421	-0.0086489684	 0.0621735509	-0.306552
H	-2.6193248417	 2.8360945954	 1.843701098	 0.123982
H	-2.4430855259	 4.0722505339	 0.5907181383	 0.13218
H	-3.2512221781	 2.5426852744	 0.2067336566	 0.13117
H	 0.0514755793	 2.9023030378	 2.1265221167	 0.119835
H	 1.0281812965	 2.48341085	 0.7009703703	 0.160719
H	 0.2070818881	 4.0589639783	 0.7961750098	 0.126004
H	-2.9648956397	 0.0506049469	 0.4672844135	 0.114568
H	-2.5079048489	-0.2437566387	-1.2264706495	 0.127046
H	-1.1333193696	-1.4747355181	 1.2422693212	 0.13496
H	-0.9102929611	-1.9817539793	-0.4444933481	 0.138077
84.4104	122.193	158.507	183.2822	197.4398	242.0985	305.2412	352.2565	409.4999	464.309	492.1356	537.2946	619.4757	695.2254	726.3869	758.2638	836.6455	920.8403	950.7117	955.4334	986.9212	1019.2941	1039.969	1086.5147	1100.5195	1130.7833	1175.7825	1206.5245	1218.9398	1254.7906	1257.0177	1407.9269	1414.718	1430.4907	1444.8427	1475.8711	1482.9885	1484.0118	1498.5299	1512.3399	1881.2331	3034.7662	3039.6596	3067.8686	3077.0137	3096.3709	3101.5009	3117.7642	3131.4731	3134.2505	3144.7586
CC1(C)OC11CCC1=O	CC1(C)O[C@@]21CCC2=O	
InChI=1S/C7H10O2/c1-6(2)7(9-6)4-3-5(7)8/h3-4H2,1-2H3	InChI=1S/C7H10O2/c1-6(2)7(9-6)4-3-5(7)8/h3-4H2,1-2H3/t7-/m0/s1
