19
gdb 3661	2.5962107	1.4996464	1.3199606	2.2857	76.5	-0.22635	0.06958	0.29593	1061.5816	0.154887	-422.470312	-422.461656	-422.460712	-422.503117	33.393	
C	 2.9413049739	 0.3744023631	-3.3082863301	-0.520846
C	 1.4614058216	 0.5646413689	-3.240535125	 0.33405
C	 0.6027532004	 1.860813559	-3.3043761844	-0.258161
C	-0.3394218837	 0.6364226395	-3.3850766662	-0.062584
O	 0.6062227509	 0.0104363936	-4.3386542005	-0.34713
C	 0.4426672851	-0.0095503777	-2.2388653554	 0.41582
C	 0.3851125056	-1.3203495534	-1.5322942839	-0.428358
C	 0.3792637086	-0.000378359	-0.7602903164	-0.016342
O	 1.5384963221	 0.4165906768	-0.0925152814	-0.425163
H	 3.4046172647	 0.7902244309	-2.4092634242	 0.143789
H	 3.1856492863	-0.6909782636	-3.3645044665	 0.131179
H	 3.3557613352	 0.8728791987	-4.1893823803	 0.129894
H	 0.5624414737	 2.4904545078	-2.4122811125	 0.10408
H	 0.6973475337	 2.4238837367	-4.2342550038	 0.099724
H	-1.4020248201	 0.5851162805	-3.6212861701	 0.092444
H	-0.5283018887	-1.9066453639	-1.5595659551	 0.114668
H	 1.3005630201	-1.9033570572	-1.4907220702	 0.117052
H	-0.5571709059	 0.2890278051	-0.2806699257	 0.086999
H	 1.6259138965	-0.1093869858	 0.7096449818	 0.288885
123.8363	139.7113	183.0078	193.6027	306.2208	316.8104	329.3603	414.9223	441.2253	496.0091	619.9437	649.4016	682.1482	707.6626	804.3167	831.8124	868.5733	908.153	948.9336	968.5325	996.7392	1022.5578	1031.5836	1068.575	1085.9849	1106.3081	1145.2159	1153.2008	1161.0667	1204.0551	1220.2047	1228.3155	1291.8719	1317.7232	1377.6481	1411.1454	1434.0605	1476.7363	1482.0964	1489.676	1528.2093	3042.0033	3063.6214	3085.9362	3113.7473	3119.1042	3123.7394	3126.0989	3145.968	3206.6956	3800.9186
CC12CC(O1)C21CC1O	C[C@@]12C[C@@H](O1)[C@]12C[C@H]1O	
InChI=1S/C7H10O2/c1-6-3-5(9-6)7(6)2-4(7)8/h4-5,8H,2-3H2,1H3	InChI=1S/C7H10O2/c1-6-3-5(9-6)7(6)2-4(7)8/h4-5,8H,2-3H2,1H3/t4-,5-,6+,7+/m1/s1
