19
gdb 2939	2.9914521	1.313549	1.212825	2.6911	77.43	-0.22311	0.0217	0.24481	1119.4667	0.157176	-422.539741	-422.531507	-422.530563	-422.571889	32.757	
C	 1.7633092931	-0.6457103603	 1.9518344762	-0.517462
C	 0.4538112701	-0.6819641599	 1.2406544826	 0.335655
C	 0.1182222241	-0.3165070769	-0.0101508396	-0.202592
C	-1.3605422378	-0.6463186906	-0.1108812828	-0.142467
C	-1.3471762635	-2.0855620172	 0.5695304086	 0.194398
O	-2.5366881743	-2.7924051734	 0.6781400975	-0.451675
C	-0.8578440067	-1.2053442745	 1.8073353384	-0.233205
C	-1.8337222908	-0.0930270371	 1.2692409226	 0.142477
O	-3.2231574969	-0.3027670293	 1.488988719	-0.454525
H	 1.7156270594	-0.0259616931	 2.856365191	 0.124378
H	 2.0705910975	-1.6476973576	 2.2773562263	 0.129448
H	 2.5512296704	-0.2432606795	 1.3082865943	 0.125333
H	 0.7440506931	 0.0880138185	-0.7939648864	 0.096665
H	-1.9070177638	-0.438576399	-1.0302364648	 0.068296
H	-0.5930889434	-2.769881377	 0.173590572	 0.08245
H	-3.205276444	-2.1648771462	 0.9896039906	 0.285319
H	-0.8940949587	-1.5708061846	 2.8351637064	 0.055587
H	-1.5563799986	 0.9434162985	 1.4972250643	 0.071726
H	-3.4168076393	-0.0983022808	 2.4100708237	 0.290195
149.7338	178.1203	245.8157	271.712	288.4603	342.1844	374.7057	412.6822	474.9452	529.5415	571.5926	632.278	645.4519	779.4028	800.9929	854.4421	888.5431	911.1502	944.5716	946.2175	1007.8357	1029.6249	1050.005	1069.5448	1085.0811	1124.99	1165.1005	1185.9258	1210.5033	1220.4774	1240.3557	1245.1244	1280.2232	1310.7315	1334.4271	1409.9845	1414.8507	1472.8723	1478.0441	1487.5991	1670.2994	3015.137	3030.9527	3060.7067	3088.573	3103.6401	3104.7466	3127.3296	3220.7565	3716.6394	3809.868
CC1=CC2C(O)C1C2O	CC1=C[C@H]2[C@H](O)[C@@H]1[C@@H]2O	
InChI=1S/C7H10O2/c1-3-2-4-6(8)5(3)7(4)9/h2,4-9H,1H3	InChI=1S/C7H10O2/c1-3-2-4-6(8)5(3)7(4)9/h2,4-9H,1H3/t4-,5+,6-,7+
