19
gdb 3498	2.9295794	1.2984926	0.963376	2.7223	76.35	-0.24252	0.01766	0.26018	1217.7174	0.15741	-422.545016	-422.536661	-422.535717	-422.57831	31.601	
O	 2.957164507	 1.4179288909	-2.8053299798	-0.450953
C	 2.4221493257	 1.0542142642	-1.5460095764	 0.111842
C	 2.6236043016	 2.1275780831	-0.5074510435	-0.081507
C	 2.9878569034	 1.6130438617	 0.6652698398	-0.070234
C	 3.1309437776	 0.1070050722	 0.610089779	-0.302163
C	 3.1416250178	-0.1691254857	-0.9126952182	-0.022273
C	 2.5486398731	-1.4765250751	-1.3658920959	 0.050006
C	 3.3518101552	-2.5543269936	-1.9555515485	-0.18029
O	 2.5792742791	-1.6862647312	-2.7911838456	-0.249402
H	 2.8760662695	 0.6383200791	-3.3684926717	 0.290793
H	 1.3409174802	 0.8455306284	-1.6511564908	 0.069137
H	 2.4292616346	 3.1720677135	-0.7202250464	 0.103453
H	 3.1353875718	 2.1765247129	 1.5800072963	 0.0966
H	 4.0307526962	-0.2615287629	 1.1149595609	 0.109147
H	 2.2787590429	-0.3843325983	 1.1032105815	 0.106725
H	 4.1745963398	-0.1051589702	-1.2734429762	 0.087177
H	 1.5924645563	-1.7470597995	-0.9132474879	 0.094831
H	 4.4317351547	-2.4341891539	-2.029643046	 0.118401
H	 3.0004158533	-3.5839777655	-1.9119398006	 0.118712
74.4879	94.4432	173.125	243.8424	300.3824	364.5841	397.4342	435.317	479.7338	544.1814	593.7987	748.9624	773.6041	832.7215	858.2199	895.615	945.4799	966.4724	974.2683	990.498	1041.5316	1071.8527	1086.3736	1111.2718	1133.6895	1148.8011	1162.1952	1175.4933	1191.6692	1245.8065	1271.157	1289.963	1297.242	1322.3649	1351.6101	1369.0703	1438.5205	1455.2921	1492.532	1527.089	1685.8002	2918.5828	2999.0219	3042.5897	3060.0561	3085.3162	3093.7044	3173.8579	3187.8311	3215.9951	3785.1661
OC1C=CCC1C1CO1	O[C@@H]1C=CC[C@H]1[C@@H]1CO1	
InChI=1S/C7H10O2/c8-6-3-1-2-5(6)7-4-9-7/h1,3,5-8H,2,4H2	InChI=1S/C7H10O2/c8-6-3-1-2-5(6)7-4-9-7/h1,3,5-8H,2,4H2/t5-,6-,7+/m1/s1
