19
gdb 1796	3.0739735	1.6371308	1.3914205	2.4369	73.4	-0.25373	0.07486	0.32859	973.0575	0.158693	-422.547184	-422.539959	-422.539015	-422.578175	30.08	
O	 0.5554458306	 0.6608054265	 0.5336767015	-0.487361
C	-0.8103016132	 0.5485180823	 0.8425893214	 0.414173
C	-1.7593229311	 0.8958875311	-0.3248298072	-0.254979
C	-2.7534885238	 1.3946277283	 0.7608523792	-0.070403
C	-1.5105256864	 1.6847178393	 1.657144467	-0.286479
C	-3.4955985802	 0.2128889719	 1.3738380605	 0.052482
O	-3.5492845532	-0.9997148899	 0.6135159242	-0.253386
C	-2.6571045102	-0.9393861968	 1.7350835377	 0.046483
C	-1.1672039445	-0.8264797201	 1.438420583	-0.306096
H	 1.0684282083	 0.3698878921	 1.2957739629	 0.273334
H	-1.3544239685	 1.7323723618	-0.8987792063	 0.103908
H	-2.0835905994	 0.0937228427	-0.9867762139	 0.116881
H	-3.4187298539	 2.2207522799	 0.5075589726	 0.068697
H	-1.0547618845	 2.6497712393	 1.4249091261	 0.105973
H	-1.6163271943	 1.5693453748	 2.7406928542	 0.084508
H	-4.3985329251	 0.4301868025	 1.9426992365	 0.090072
H	-2.945448816	-1.5915789116	 2.55814316	 0.093154
H	-0.6178914794	-0.9627647348	 2.3808917498	 0.089438
H	-0.8462661453	-1.6223087993	 0.7558740807	 0.119599
202.5652	254.9583	300.7074	326.9126	387.8259	420.0953	442.1226	457.8995	548.8991	617.3061	681.07	783.1653	814.4547	853.628	881.7518	898.2213	918.1301	934.3489	953.2794	990.872	1008.5181	1049.1072	1067.8815	1084.9712	1113.551	1147.3793	1159.5961	1178.574	1222.6197	1239.1164	1254.6619	1264.5736	1291.6376	1334.5956	1340.2863	1366.637	1396.7314	1451.2453	1469.7135	1473.4803	1505.8104	3008.784	3046.5442	3063.9533	3078.0638	3097.5313	3113.9181	3117.7415	3126.814	3149.2759	3798.5536
OC12CC(C1)C1OC1C2	O[C@]12C[C@H](C1)[C@H]1O[C@H]1C2	
InChI=1S/C7H10O2/c8-7-1-4(2-7)6-5(3-7)9-6/h4-6,8H,1-3H2	InChI=1S/C7H10O2/c8-7-1-4(2-7)6-5(3-7)9-6/h4-6,8H,1-3H2/t4-,5-,6+,7-/m0/s1
