19
gdb 4966	2.6539665	1.3932725	1.1504741	2.0198	74.59	-0.22984	0.06521	0.29505	1138.6118	0.156158	-422.488317	-422.479744	-422.478799	-422.521647	32.189	
C	 1.3613139424	 1.1997455555	 0.0002386999	-0.411875
C	 1.0543141894	-0.2893253606	 0.0931770351	 0.011328
C	 1.7501152837	-1.1515178745	-0.9649979685	-0.174601
C	 2.002728649	-2.4964002583	-0.2631766314	 0.022499
O	 1.4276750553	-2.427783246	 1.0420567607	-0.293479
C	 1.9398912495	-1.0693294076	 1.1045931891	-0.002933
C	 2.969670547	-1.379049268	-0.0648126988	 0.278191
C	 4.4411890668	-1.2310084274	-0.2623592436	-0.226032
O	 5.2203057279	-2.0988115229	 0.5499465018	-0.407561
H	 1.0115736372	 1.7278439616	 0.8941704359	 0.116352
H	 2.4370996036	 1.3810344989	-0.1018167134	 0.115012
H	 0.8668875983	 1.6510026156	-0.8660594149	 0.120875
H	-0.0193234605	-0.4615096271	 0.2329851652	 0.075021
H	 1.7330203473	-1.0479318989	-2.0436043404	 0.089938
H	 2.0891962358	-3.4563187731	-0.7547189132	 0.113151
H	 2.1283936155	-0.7170729279	 2.1187862897	 0.080026
H	 4.6917891819	-1.489140442	-1.2976361893	 0.116331
H	 4.7387898972	-0.179543663	-0.1159738804	 0.092282
H	 4.9674170226	-1.9508558441	 1.4668007765	 0.285474
74.0673	119.5495	178.7014	229.1008	254.7593	275.6998	316.2316	420.7366	504.1649	565.8051	631.1698	747.9144	789.5411	803.9603	878.2732	904.0206	918.6978	931.9869	963.3274	997.6052	1023.99	1028.8563	1052.6504	1074.72	1086.0097	1111.3689	1127.9811	1167.019	1210.7064	1225.3302	1243.227	1283.0369	1293.52	1366.5072	1370.7076	1409.5348	1411.9166	1454.7061	1492.0814	1494.7002	1500.6144	2965.5089	3027.8022	3038.7447	3061.6595	3094.8331	3098.6282	3121.0481	3187.5369	3212.7425	3818.0245
CC1C2C3OC1C23CO	C[C@H]1[C@@H]2[C@@H]3O[C@H]1[C@]23CO	
InChI=1S/C7H10O2/c1-3-4-6-7(4,2-8)5(3)9-6/h3-6,8H,2H2,1H3	InChI=1S/C7H10O2/c1-3-4-6-7(4,2-8)5(3)9-6/h3-6,8H,2H2,1H3/t3-,4+,5+,6-,7-/m0/s1
