19
gdb 1573	2.4215341	1.5055578	1.1757215	4.4635	75.38	-0.22824	-0.08658	0.14166	1122.1156	0.155229	-422.604801	-422.595552	-422.594608	-422.638639	34.237	
C	-0.67765282	 1.8397407048	-1.2751488874	-0.421732
C	-0.8938660444	 1.254574365	 0.1408151813	 0.155912
C	-0.5535288831	 2.3011967728	 1.204149269	-0.429515
C	-2.322726621	 0.6598344544	 0.2814725841	-0.264822
C	-2.2703149861	-0.7620826035	-0.3189907447	-0.342544
C	-0.8507570024	-1.2402691786	-0.0599780031	 0.32266
O	-0.4245618943	-2.3627502376	-0.0738476351	-0.276966
C	 0.0067267353	 0.0239304871	 0.2604657266	 0.29865
O	 1.1731663614	-0.0038968373	 0.5485173509	-0.298842
H	-0.8976692076	 1.1141988675	-2.0652943113	 0.120197
H	-1.3348248944	 2.7032055261	-1.421914354	 0.124595
H	 0.3586996369	 2.1660284836	-1.4001641799	 0.139326
H	-0.7150011446	 1.908787482	 2.213086055	 0.119667
H	 0.4965021667	 2.5956378044	 1.1247169447	 0.138153
H	-1.1761125262	 3.1937419501	 1.0830097363	 0.1146
H	-2.5856889878	 0.5981811094	 1.3432759592	 0.112137
H	-3.0743191341	 1.2912964837	-0.1996520934	 0.109453
H	-3.0046681093	-1.4563495357	 0.095316303	 0.138068
H	-2.4260963552	-0.7446062883	-1.4054268409	 0.141004
55.7198	149.5032	192.4454	209.1228	238.7819	284.991	321.9481	336.0974	345.621	412.6456	529.8867	556.268	588.9193	674.3594	701.7238	791.0838	872.4047	925.9265	958.4325	971.4585	993.8544	996.6195	1049.4973	1070.9385	1115.6905	1191.5603	1222.7015	1244.0967	1276.4305	1299.7692	1343.7761	1394.8119	1417.4517	1448.9385	1480.7599	1485.5575	1499.9635	1501.9824	1507.6149	1837.0315	1857.6081	3030.8096	3035.499	3037.7727	3045.6354	3093.0651	3099.6423	3104.459	3111.2138	3115.1103	3120.0702
CC1(C)CCC(=O)C1=O	CC1(C)CCC(=O)C1=O	
InChI=1S/C7H10O2/c1-7(2)4-3-5(8)6(7)9/h3-4H2,1-2H3	InChI=1S/C7H10O2/c1-7(2)4-3-5(8)6(7)9/h3-4H2,1-2H3
