19
gdb 5814	2.1522709	1.5842849	1.2449248	1.6957	76.91	-0.23209	-0.02033	0.21176	1111.4031	0.156416	-422.574914	-422.565929	-422.564985	-422.609049	32.519	
C	 1.3656347488	-0.113250671	-0.110470309	-0.241718
O	-0.0275681534	 0.121558481	-0.0334515981	-0.24846
C	-0.4346411043	 0.7502673639	 1.1740688148	 0.02778
C	-1.9635171747	 0.6589093899	 1.2432126916	-0.293848
C	-2.6455345565	 1.6344619011	 0.3192689836	-0.04147
C	-2.0387092273	 2.6844818042	-0.2295716175	-0.052692
C	-0.5885656493	 3.0284049102	 0.0116424219	-0.345402
C	-0.001563922	 2.2230472833	 1.1599695107	 0.372996
O	 0.7375070632	 2.6917563582	 1.9924931974	-0.317446
H	 1.710783409	-0.7525403578	 0.7156326612	 0.11374
H	 1.5487824694	-0.6244496964	-1.0582216141	 0.130742
H	 1.9513036933	 0.817018101	-0.089460274	 0.118404
H	 0.0316760138	 0.2615752174	 2.0411152348	 0.079815
H	-2.2479155403	-0.3708489103	 0.996130065	 0.121303
H	-2.2883261483	 0.8288231695	 2.2790644156	 0.122518
H	-3.6965030151	 1.4520323013	 0.1109938824	 0.091798
H	-2.589619521	 3.3491659451	-0.8896242641	 0.094226
H	-0.0015963391	 2.8141700043	-0.8941552023	 0.139844
H	-0.4496298562	 4.0917270753	 0.23089196	 0.127869
69.2665	98.1665	108.1898	164.9097	242.9691	272.2849	378.342	384.3753	466.3622	500.9392	570.8381	605.8075	678.6131	725.9567	859.6939	889.6753	938.962	965.8783	977.5005	999.5573	1040.2375	1046.3708	1130.9083	1142.7668	1179.9385	1184.4311	1205.1063	1235.8924	1253.4193	1307.7329	1330.2371	1360.7584	1374.1726	1412.7435	1441.4474	1459.0924	1479.7996	1488.4889	1509.4588	1729.2057	1823.4687	2985.7786	3005.5431	3007.7664	3021.5021	3036.9005	3057.6072	3079.9744	3120.8456	3151.5837	3174.325
COC1CC=CCC1=O	CO[C@@H]1CC=CCC1=O	
InChI=1S/C7H10O2/c1-9-7-5-3-2-4-6(7)8/h2-3,7H,4-5H2,1H3	InChI=1S/C7H10O2/c1-9-7-5-3-2-4-6(7)8/h2-3,7H,4-5H2,1H3/t7-/m1/s1
