19
gdb 4059	3.5485642	1.5640022	1.5220022	1.8003	73.67	-0.22629	0.09214	0.31843	960.4824	0.159374	-422.547577	-422.540698	-422.539754	-422.578478	28.328	
C	 0.14033888	 0.0670649234	-0.5945787689	-0.414516
C	 1.2012858409	 0.0655061155	 0.4986494721	 0.138031
O	 1.7046521646	 1.4062133922	 0.721710978	-0.293102
C	 3.0504003295	 1.4026425782	 0.3222231604	 0.129325
C	 4.0431600844	 0.530956046	 1.1759479138	 0.049516
C	 4.756236913	 0.1731204785	-0.1460204958	-0.258338
C	 3.3119787759	 0.2551877669	-0.6961524755	-0.113071
C	 2.4893287298	-0.7116138541	 0.1976115754	 0.050766
O	 3.2564289541	-0.6461163792	 1.4259685398	-0.283946
H	-0.2957347313	-0.931239443	-0.7095588889	 0.114647
H	-0.6616328584	 0.7628393226	-0.3329676036	 0.131196
H	 0.5555662331	 0.377654106	-1.5581298246	 0.117261
H	 0.7781973518	-0.2968752523	 1.4417791689	 0.091127
H	 3.384474987	 2.4078244119	 0.0687945028	 0.088604
H	 4.5418163622	 0.8543840849	 2.0876791839	 0.081675
H	 5.389274423	 0.9724872625	-0.5381609584	 0.103843
H	 5.2754141118	-0.7861003294	-0.1700214875	 0.108442
H	 3.0633288751	 0.3187053729	-1.753476397	 0.078533
H	 2.3643005235	-1.7463568137	-0.1235756648	 0.080007
160.1501	214.4936	261.8942	354.6391	437.5734	458.7462	508.4026	645.8494	712.2701	742.8247	801.3571	838.6368	857.4147	879.0531	880.9925	916.3266	935.9423	949.9742	991.4086	1020.4813	1040.5805	1061.9433	1086.9911	1097.9899	1113.0652	1121.7725	1129.8582	1185.8921	1222.739	1238.0166	1248.8528	1273.3709	1290.9747	1302.1224	1332.1932	1368.0571	1380.7341	1405.2951	1486.0246	1487.7696	1496.0942	3037.3284	3051.3573	3072.4887	3107.3331	3112.6167	3118.984	3130.1076	3137.7235	3140.1807	3146.7296
CC1OC2C3CC2C1O3	C[C@@H]1O[C@H]2[C@@H]3C[C@H]2[C@H]1O3	
InChI=1S/C7H10O2/c1-3-6-4-2-5(9-6)7(4)8-3/h3-7H,2H2,1H3	InChI=1S/C7H10O2/c1-3-6-4-2-5(9-6)7(4)8-3/h3-7H,2H2,1H3/t3-,4-,5-,6-,7+/m0/s1
