19
gdb 5457	2.9106441	1.5240298	1.1860411	1.7367	75.02	-0.22576	0.08681	0.31257	1093.1087	0.155233	-422.480897	-422.472377	-422.471433	-422.513938	32.096	
C	 1.417564391	-0.1310654534	 0.0373626321	-0.234329
O	 0.0190989196	 0.043079971	 0.0858555665	-0.254023
C	-0.4311887072	 0.693491817	 1.2483388115	 0.114366
C	-0.2252817853	 2.2110543212	 1.2539700726	-0.166985
C	-1.4854484687	 2.7477906481	 1.9477189953	 0.089011
O	-2.2676182707	 1.6318332842	 2.3773225964	-0.33337
C	-1.9456115235	 1.0206145693	 1.0897758731	 0.387496
C	-2.9368624322	 0.0243412656	 0.5854463448	-0.522759
C	-1.5362448641	 2.4317386362	 0.4988902358	-0.189405
H	 1.7858974498	-0.6896771123	 0.9117782398	 0.106478
H	 1.6416902309	-0.7025670302	-0.8665949367	 0.127258
H	 1.9527043016	 0.8286930294	-0.0092395618	 0.107212
H	-0.1469095511	 0.1279635713	 2.1489984422	 0.065219
H	 0.692846897	 2.7803723469	 1.1892680344	 0.091095
H	-1.5372766643	 3.6750266515	 2.502829814	 0.109828
H	-3.0747602152	-0.7700316116	 1.3270882858	 0.131668
H	-3.9064900465	 0.4942285474	 0.3996231006	 0.127729
H	-2.5688040927	-0.4257606171	-0.3400357446	 0.143003
H	-1.7950342783	 2.9882455255	-0.3903428118	 0.100506
84.6892	156.5419	169.7365	199.5613	243.0647	275.2158	329.9811	437.7528	516.1546	566.1163	655.4937	770.2156	783.3793	799.2286	813.9339	859.3824	912.7341	950.3122	960.5441	995.1295	1013.3542	1029.8728	1053.0804	1078.9558	1117.9212	1144.9726	1150.7139	1183.0218	1191.5152	1223.3236	1242.3158	1281.7536	1343.4344	1363.4683	1371.8259	1417.7332	1478.9752	1481.3809	1485.3847	1487.8382	1507.6735	2977.707	2990.7248	3028.3459	3041.7037	3110.9279	3114.3707	3131.1907	3198.8169	3204.7366	3222.6092
COC1C2C3OC1(C)C23	CO[C@H]1[C@@H]2[C@@H]3O[C@@]1(C)[C@H]23	
InChI=1S/C7H10O2/c1-7-4-3(5(4)9-7)6(7)8-2/h3-6H,1-2H3	InChI=1S/C7H10O2/c1-7-4-3(5(4)9-7)6(7)8-2/h3-6H,1-2H3/t3-,4+,5-,6-,7-/m0/s1
