19
gdb 2145	2.2177839	2.0809293	1.6730946	1.5194	74.42	-0.23191	0.05726	0.28917	928.9299	0.156743	-422.530463	-422.522614	-422.521669	-422.562083	31.603	
C	-0.1342183246	 0.1335142843	-0.2421518348	-0.496488
C	 1.3110248183	 0.032367435	 0.147728712	 0.342652
C	 2.0294182776	 0.9655117655	 1.1600501478	-0.293551
C	 3.2964207584	 0.3884670199	 0.517493931	-0.136719
C	 3.075481118	-1.1808985522	 0.4423673121	 0.076499
C	 3.1697247478	-1.117696604	-1.1005596991	-0.28596
C	 2.5418985414	 0.2513217471	-0.8662864143	 0.357042
O	 2.4685922708	 1.1778575885	-1.891815323	-0.475421
O	 1.658901636	-1.2654387671	 0.6651874778	-0.296663
H	-0.7821132077	-0.0033749495	 0.6297197165	 0.130913
H	-0.350195109	 1.1149283719	-0.6763757953	 0.109015
H	-0.3867114627	-0.6321021474	-0.9815555316	 0.133027
H	 1.9138214989	 2.0285971053	 0.9222965686	 0.084851
H	 1.8199877645	 0.7896262764	 2.2180123609	 0.101458
H	 4.3058672838	 0.7769808887	 0.6383831445	 0.075283
H	 3.618560444	-1.9013012816	 1.0497026866	 0.082403
H	 4.1975241989	-1.0141492165	-1.4588629523	 0.105152
H	 2.6280599154	-1.8813535902	-1.6641829642	 0.101575
H	 2.0479482102	 1.9809336659	-1.5656635932	 0.284932
172.2361	201.2923	215.2759	240.2601	315.2112	379.4808	459.6942	473.9663	532.4382	579.321	636.7462	681.1139	722.7797	810.031	838.3338	886.4001	907.8096	921.6163	949.4995	962.9233	983.5817	1022.934	1036.9055	1056.5605	1112.8402	1140.2394	1144.6358	1175.6412	1183.3084	1211.6789	1230.0211	1266.5354	1301.1566	1308.7553	1332.4019	1384.4474	1421.0477	1477.2711	1482.5039	1486.661	1491.9338	3037.0071	3045.8317	3059.924	3105.0421	3109.3629	3114.4115	3123.7815	3137.2341	3148.8042	3802.7896
CC12CC3C(CC13O)O2	C[C@]12C[C@H]3[C@H](C[C@@]13O)O2	
InChI=1S/C7H10O2/c1-6-2-4-5(9-6)3-7(4,6)8/h4-5,8H,2-3H2,1H3	InChI=1S/C7H10O2/c1-6-2-4-5(9-6)3-7(4,6)8/h4-5,8H,2-3H2,1H3/t4-,5-,6-,7-/m0/s1
