19
gdb 1430	2.4605593	1.542265	1.2454546	4.3539	75.88	-0.267	0.00525	0.27225	1095.9985	0.154659	-422.566533	-422.557163	-422.556219	-422.600117	34.58	
C	-1.3378138256	-0.536510926	 2.5064919475	-0.466655
C	-1.981262578	-0.7573452478	 1.1506020117	 0.236479
C	-3.2407810609	-1.6067895794	 1.1982199089	-0.461982
C	-1.9780176105	 0.2911046543	 0.0865397528	 0.006975
O	-0.7980617318	 1.1312258074	 0.1962911554	-0.265843
C	 0.0085105901	 0.0330592311	-0.0849232522	 0.424438
O	 1.1846416062	 0.0276648109	-0.2548567171	-0.332098
C	-1.137020662	-0.9488347966	-0.1465444596	 0.052496
C	-1.175928847	-2.1205646785	-1.0853626198	-0.5016
H	-0.9972571405	-1.4880178896	 2.9283081844	 0.123543
H	-0.4842617353	 0.1408772751	 2.453904119	 0.149926
H	-2.0651953142	-0.1049169233	 3.2031305141	 0.12096
H	-3.9387026469	-1.1900651137	 1.9318139497	 0.129092
H	-3.7564456806	-1.6456151554	 0.2344903182	 0.122876
H	-3.0138168659	-2.6344905271	 1.5013228119	 0.130847
H	-2.8227589863	 0.7031889548	-0.449758657	 0.122738
H	-0.3898126684	-2.836472854	-0.8232700163	 0.143675
H	-2.131955645	-2.6466972094	-1.0469172631	 0.127779
H	-1.0023074374	-1.8052541928	-2.1191720185	 0.136354
121.273	130.2383	179.2158	188.955	213.1926	256.9923	280.2579	303.9019	354.459	409.0002	523.1923	535.8692	641.6122	677.6708	738.1421	785.9014	857.7945	909.6138	921.9668	973.6778	976.9571	1013.2365	1031.8487	1067.989	1106.3465	1140.8009	1168.2214	1216.1196	1272.7397	1313.1736	1406.0569	1415.9043	1428.7608	1433.7863	1481.4842	1485.4435	1490.4572	1496.5227	1505.0961	1515.3136	1932.8046	3033.3985	3037.458	3042.0037	3093.6341	3099.2489	3100.0242	3109.7421	3128.9443	3139.7446	3207.1151
CC1(C)C2OC(=O)C12C	CC1(C)[C@H]2OC(=O)[C@@]12C	
InChI=1S/C7H10O2/c1-6(2)4-7(6,3)5(8)9-4/h4H,1-3H3	InChI=1S/C7H10O2/c1-6(2)4-7(6,3)5(8)9-4/h4H,1-3H3/t4-,7+/m1/s1
