19
gdb 5835	2.1662473	1.3206397	1.1452239	1.039	78.23	-0.24933	0.03136	0.28069	1209.5526	0.153542	-422.499704	-422.48964	-422.488696	-422.534636	36.363	
C	 1.5428500883	 0.2524231742	-0.0962662949	-0.23999
O	 0.1400800938	 0.1705281977	 0.0284457419	-0.239478
C	-0.3251634758	 0.532827497	 1.2909831623	 0.136981
C	-0.2078917123	-0.4532486385	 2.4869679649	-0.270339
C	-1.6276442077	-0.0048382349	 2.9200407978	-0.28074
C	-1.8680698539	 0.537668475	 1.4654371674	 0.191002
O	-2.4220471119	 1.8330103236	 1.3401465364	-0.468617
C	-2.5621826146	-0.4275890847	 0.6218337312	 0.315924
C	-3.2009397183	-1.1987997518	-0.0436009135	-0.500786
H	 2.0584309136	-0.435092004	 0.5906732667	 0.108562
H	 1.7926694089	-0.0238226786	-1.1231852751	 0.129609
H	 1.9081362879	 1.2731022901	 0.0974488314	 0.106759
H	 0.0382611678	 1.532210654	 1.577671367	 0.080792
H	-0.1996208127	-1.4863346187	 2.1303943323	 0.119263
H	 0.6093613844	-0.3036483873	 3.1938178379	 0.101184
H	-2.317091831	-0.7667895726	 3.2840642229	 0.110381
H	-1.6064759447	 0.8386929686	 3.6138119868	 0.114535
H	-3.3651580299	 1.7411094198	 1.1697010048	 0.284507
H	-3.7426525319	-1.8828297388	-0.6491784883	 0.200451
73.7863	102.2187	120.3945	176.9342	196.7087	219.1705	238.1827	289.6912	357.6992	409.6514	475.2428	510.8257	613.4178	623.1241	648.0204	674.284	729.1002	799.1402	886.9416	933.8532	970.8722	1002.4829	1050.0448	1095.8461	1114.7394	1166.7722	1178.7918	1184.7406	1209.017	1232.5652	1249.5009	1261.7691	1297.614	1371.1606	1397.4697	1477.4675	1482.5447	1488.2508	1496.7526	1509.425	2231.2062	2975.6792	2987.5973	3025.3837	3072.161	3077.1552	3117.878	3128.0203	3144.3586	3500.7961	3819.3874
COC1CCC1(O)C#C	CO[C@@H]1CC[C@]1(O)C#C	
InChI=1S/C7H10O2/c1-3-7(8)5-4-6(7)9-2/h1,6,8H,4-5H2,2H3	InChI=1S/C7H10O2/c1-3-7(8)5-4-6(7)9-2/h1,6,8H,4-5H2,2H3/t6-,7-/m1/s1
