19
gdb 4670	3.6089021	1.1499378	0.9756337	1.9483	77.57	-0.25566	0.01094	0.2666	1259.94	0.156724	-422.561164	-422.552236	-422.551291	-422.595293	32.285	
C	 1.5660219431	-0.1910360679	 0.2793655744	-0.238385
O	 0.2318941085	-0.4547944892	 0.7247085603	-0.245503
C	-0.4934278463	 0.6428969168	 1.0485659477	 0.346572
O	-0.0632479362	 1.7693312265	 0.9666367387	-0.38435
C	-1.8413063387	 0.2960625658	 1.5317307765	 0.251549
C	-2.5689206541	-0.9804061399	 1.1734986607	-0.31941
C	-2.2366035693	-0.7505856898	 2.607758875	-0.084675
C	-3.1983802161	 0.2616650669	 3.241270661	-0.223632
C	-2.8063092515	 1.3115416597	 2.1490300428	-0.293464
H	 2.1365226866	 0.3324107166	 1.051066985	 0.138542
H	 2.0090819265	-1.165710477	 0.073152304	 0.129046
H	 1.5583162102	 0.4235820103	-0.6245658267	 0.139511
H	-3.5983459084	-0.9082065992	 0.8289363545	 0.110211
H	-1.964666265	-1.7200903371	 0.6624950604	 0.134048
H	-1.5632960688	-1.4087602979	 3.1429108511	 0.101856
H	-4.2478890454	-0.047486945	 3.2751419704	 0.101188
H	-2.8945042622	 0.5735011702	 4.2422192221	 0.110292
H	-3.6065647368	 1.6635715691	 1.4910939758	 0.09908
H	-2.2824749261	 2.1754655611	 2.5590736963	 0.127523
63.0771	107.356	129.8671	161.6331	197.2239	301.8088	315.6344	383.2285	462.6217	479.0898	704.1091	743.6726	783.1683	786.8225	851.4066	865.1896	929.8471	939.5872	969.8613	1001.9826	1028.3239	1038.9496	1087.6337	1107.7735	1142.9291	1178.2483	1180.083	1210.1679	1221.8872	1238.8774	1247.6487	1284.8432	1333.3786	1400.4071	1475.5479	1478.8531	1481.5163	1483.1007	1500.1775	1505.9539	1799.5482	3049.604	3050.5446	3060.118	3109.8763	3111.2801	3122.8648	3134.9593	3154.3632	3191.5926	3225.1102
COC(=O)C12CC1CC2	COC(=O)[C@@]12C[C@@H]1CC2	
InChI=1S/C7H10O2/c1-9-6(8)7-3-2-5(7)4-7/h5H,2-4H2,1H3	InChI=1S/C7H10O2/c1-9-6(8)7-3-2-5(7)4-7/h5H,2-4H2,1H3/t5-,7-/m0/s1
