19
gdb 4521	3.4432985	1.3254851	1.0809033	1.8296	78.25	-0.24058	0.007	0.24758	1147.2785	0.157809	-422.526526	-422.518557	-422.517613	-422.558871	30.699	
C	 0.0191099353	 1.5433313316	-0.0831323982	-0.39205
C	-0.0140502339	 0.0115264435	 0.009009417	 0.105213
O	-1.3675417259	-0.4622432687	-0.0712433387	-0.274637
C	-2.0694676009	-0.6420597252	 1.1568516352	-0.130256
C	-1.3336183528	-1.7588230813	 1.888922834	 0.086191
O	-1.4268735552	-1.8683047088	 3.3372641541	-0.306856
C	 0.0232735133	-1.7745294482	 3.4715624492	-0.156658
C	 0.1001113381	-1.3463170314	 2.0284867448	 0.220509
C	 0.7133685382	-0.4761707585	 1.2441409602	-0.240865
H	 1.0513409139	 1.9048457709	-0.1376611258	 0.114558
H	-0.5125214193	 1.871223766	-0.9797788905	 0.1272
H	-0.4539917216	 2.0009699415	 0.7912077041	 0.122339
H	 0.4588418165	-0.3970872036	-0.894072278	 0.100185
H	-2.0784984837	 0.2627421083	 1.7805783063	 0.099114
H	-3.0959857264	-0.8904674462	 0.8754443876	 0.109997
H	-1.5246266065	-2.7288886048	 1.4116795085	 0.088654
H	 0.3303088438	-1.0454325466	 4.2299089035	 0.119513
H	 0.4639771166	-2.7525991883	 3.7098228052	 0.109706
H	 1.6629810503	-0.0102063603	 1.4913519315	 0.098144
95.7407	181.6895	222.9263	232.8462	308.2177	352.348	399.2954	463.866	473.8242	537.3682	694.094	776.9584	808.8029	832.8817	859.9118	923.9872	959.712	975.5663	987.2267	1017.8871	1055.499	1065.8313	1097.419	1123.9421	1137.1826	1138.7718	1165.3243	1238.7698	1255.7463	1297.8945	1326.0627	1338.6049	1355.3252	1376.3634	1387.986	1399.9578	1486.5037	1494.2348	1503.1994	1510.6406	1788.1774	3002.1571	3007.8255	3014.5215	3021.29	3038.8073	3061.7909	3097.8013	3108.7119	3125.9828	3168.9375
CC1OCC2OCC2=C1	C[C@@H]1OC[C@@H]2OC[C]2[CH]1	
InChI=1S/C7H10O2/c1-5-2-6-3-9-7(6)4-8-5/h2,5,7H,3-4H2,1H3	InChI=1S/C7H10O2/c1-5-2-6-3-9-7(6)4-8-5/h2,5,7H,3-4H2,1H3/t5-,7-/m0/s1
