19
gdb 5284	2.4708612	1.5249862	1.0860681	3.4375	77.42	-0.25499	-0.03471	0.22028	1140.4405	0.156298	-422.533116	-422.52429	-422.523346	-422.566848	32.494	
O	 1.3429972658	 0.0266058068	 0.5319847169	-0.416914
C	 0.1426420995	-0.4063040865	-0.055695871	-0.159028
C	-0.3430835381	 0.3354593221	-1.2831975873	 0.295046
C	-1.7602098977	 0.0813108097	-1.8339850201	-0.282997
C	-1.2087523358	 0.2389730295	-3.2887304894	-0.248077
C	 0.1693976784	 0.5181930516	-2.6951686227	-0.084176
C	 0.0880379257	 1.7277413696	-1.7598627366	-0.162885
C	 1.3997854267	 2.2994240143	-1.3803078728	 0.132518
O	 2.4572651488	 1.7024653579	-1.3785558275	-0.29606
H	 1.9973803976	 0.1713694917	-0.1639560459	 0.297675
H	 0.1770294047	-1.4801484343	-0.3141536555	 0.089963
H	-0.6277927323	-0.3036614254	 0.7205994753	 0.109431
H	-2.1059054365	-0.9346036966	-1.6260569258	 0.114262
H	-2.5333245989	 0.7847532079	-1.5102123145	 0.105085
H	-1.2497039211	-0.6972687288	-3.8498294367	 0.113828
H	-1.6415826581	 1.0342824727	-3.9032611523	 0.104339
H	 1.1390068436	 0.2685552898	-3.1096615777	 0.110598
H	-0.6893403385	 2.4742857724	-1.9132351054	 0.085844
H	 1.3736216661	 3.3818334858	-1.133450111	 0.091548
69.702	97.4222	197.0541	216.6859	223.6194	247.2036	321.1919	360.8672	443.2637	529.7618	651.8914	696.258	710.0195	779.8253	831.8439	928.7142	940.7772	951.1855	975.1351	1019.5874	1036.5563	1048.5915	1080.4089	1088.1612	1115.475	1131.7277	1153.4997	1212.8911	1232.5326	1253.4544	1257.869	1281.7518	1343.7071	1381.0843	1415.3835	1434.2791	1447.7254	1477.55	1497.854	1506.2729	1780.276	2908.0623	2939.3676	3027.6288	3049.5433	3056.6167	3097.4231	3115.2589	3119.3656	3188.522	3752.4643
OCC12CCC1C2C=O	OC[C@]12CC[C@H]1[C@@H]2C=O	
InChI=1S/C7H10O2/c8-3-6-5-1-2-7(5,6)4-9/h3,5-6,9H,1-2,4H2	InChI=1S/C7H10O2/c8-3-6-5-1-2-7(5,6)4-9/h3,5-6,9H,1-2,4H2/t5-,6-,7+/m0/s1
