19
gdb 806	3.1238238	1.4628797	1.2847801	3.1082	74.7	-0.25008	-0.02734	0.22274000000000002	1039.0881	0.158633	-422.585642	-422.578006	-422.577062	-422.617817	29.644	
O	 0.1986282462	-0.1371512165	 0.9210626482	-0.263122
C	 0.4287167114	-0.1462346687	-0.2615489039	 0.081846
C	-0.283154991	 0.7222963541	-1.2650256603	 0.334704
C	-0.7321605664	 2.1213293155	-0.8023575298	-0.244936
C	-1.7584624894	 2.5140307961	-1.9143802403	-0.225118
C	-1.7266528022	 1.2867253081	-2.8568642594	-0.051848
C	-0.3376881243	 1.2234248752	-3.5119793933	-0.073736
O	 0.5439080136	 0.8636887831	-2.4272513434	-0.323683
C	-1.5891864138	 0.127407998	-1.8480073636	-0.262305
H	 1.1809362664	-0.8278637754	-0.7155176621	 0.0895
H	-1.179150705	 2.0723024309	 0.1929593532	 0.122347
H	 0.1268658909	 2.7940577086	-0.758532467	 0.111885
H	-2.7602430395	 2.6575935303	-1.4996229469	 0.103466
H	-1.4833266615	 3.4365841449	-2.4329369739	 0.102551
H	-2.55333466	 1.2236465259	-3.5660284209	 0.072703
H	-0.2763017991	 0.4586772925	-4.2970274352	 0.10008
H	-0.0233498728	 2.1838253001	-3.9373597551	 0.102333
H	-2.3980877649	 0.0761210577	-1.1161620362	 0.116036
H	-1.4368249888	-0.8521283102	-2.3084155202	 0.107297
81.2537	161.6546	223.4528	243.0838	367.8028	405.1023	450.8943	486.7919	578.7714	708.197	773.1496	790.6653	827.6689	854.3307	893.7955	933.1072	952.7008	964.2647	974.4507	981.0426	999.7045	1040.3759	1098.9769	1129.288	1154.4423	1162.2949	1193.9569	1220.4505	1250.0929	1255.8728	1279.4596	1300.6598	1329.8669	1342.4636	1378.1885	1403.5741	1482.08	1488.5713	1507.607	1534.6192	1829.0226	2899.0433	3014.0111	3054.3142	3056.7126	3068.5927	3076.5568	3095.0198	3108.427	3126.3668	3130.8217
O=CC12CCC(CO1)C2	O=C[C@@]12CC[C@@H](CO1)C2	
InChI=1S/C7H10O2/c8-5-7-2-1-6(3-7)4-9-7/h5-6H,1-4H2	InChI=1S/C7H10O2/c8-5-7-2-1-6(3-7)4-9-7/h5-6H,1-4H2/t6-,7+/m1/s1
