19
gdb 6042	2.7237138	0.9960937	0.8155867	1.7299	79.7	-0.23947	0.03513	0.2746	1464.9703	0.152612	-422.490981	-422.480644	-422.4797	-422.5266	37.26	
C	 0.3474466882	-0.8126406678	 0.0893218571	-0.385685
C	 0.8150352776	 0.5952010293	 0.4124302275	-0.035566
O	 1.6259529011	 1.0517056176	-0.6628760101	-0.246952
C	 2.1111632809	 2.3327384115	-0.4784657087	 0.103962
C	 3.3481033689	 2.5619982154	 0.3595136323	-0.383187
C	 3.394643019	 2.6999524998	-1.165549992	 0.16731
O	 3.3926363276	 3.9995520772	-1.6949541169	-0.450963
C	 4.1191891978	 1.7169745639	-1.9268068558	 0.334172
C	 4.7707937365	 0.9457428893	-2.5797322228	-0.500618
H	-0.2840290257	-1.1972460405	 0.8957363182	 0.115025
H	-0.2294186023	-0.8217124652	-0.8395946667	 0.130144
H	 1.2034472805	-1.4821208292	-0.032872215	 0.129614
H	-0.0450415143	 1.2712921001	 0.5449227739	 0.090524
H	 1.3904316302	 0.6135598582	 1.3508156586	 0.092817
H	 1.3609025746	 3.1248684831	-0.4720774246	 0.103225
H	 3.4199876855	 3.4820202396	 0.9286415056	 0.120993
H	 3.8321380774	 1.6908911749	 0.7855941492	 0.130572
H	 4.3083428017	 4.2994933359	-1.7289903763	 0.287213
H	 5.3238011946	 0.2515096069	-3.1625041237	 0.197398
63.8704	77.2006	100.8811	174.3997	186.0543	240.3224	282.4005	303.4401	332.5598	356.5196	421.6596	505.6728	560.9381	592.8581	637.9211	679.2337	684.7933	820.2994	846.7097	897.0701	913.8895	930.352	1009.8944	1026.6744	1062.0836	1095.579	1150.174	1184.5422	1188.1445	1239.8615	1280.1013	1295.0319	1352.7601	1387.629	1405.421	1430.9979	1477.8815	1482.8284	1499.8704	1528.2005	2235.5562	2972.4503	3003.9736	3046.2564	3096.6473	3120.7275	3124.1445	3137.983	3239.445	3502.9471	3794.7008
CCOC1CC1(O)C#C	CCO[C@H]1C[C@@]1(O)C#C	
InChI=1S/C7H10O2/c1-3-7(8)5-6(7)9-4-2/h1,6,8H,4-5H2,2H3	InChI=1S/C7H10O2/c1-3-7(8)5-6(7)9-4-2/h1,6,8H,4-5H2,2H3/t6-,7-/m0/s1
