19
gdb 4749	1.933071	1.3835711	1.0488818	2.717	77.88	-0.24718	-0.02216	0.22502	1241.6586	0.151622	-422.517987	-422.507217	-422.506273	-422.553983	37.894	
C	 1.3862758928	 0.149506841	-0.1808992195	-0.257639
O	-0.0023615075	 0.0897445296	 0.0999271654	-0.273614
C	-0.4539774708	 0.6964331188	 1.3163510249	 0.15076
C	 0.1496672375	 0.0181630823	 2.5619259092	-0.425069
C	-0.1409098278	 2.2189014697	 1.3220059404	-0.324419
C	-0.5615162978	 2.8835557822	 0.0269870862	 0.170325
O	 0.1801875557	 3.5365066529	-0.6621800229	-0.250861
C	-1.9109161624	 0.4937745021	 1.3212390476	 0.349225
C	-3.1008588788	 0.3378201739	 1.3693048752	-0.463832
H	 1.9939582498	-0.344171146	 0.5882459995	 0.110334
H	 1.5198297461	-0.388277118	-1.1221805947	 0.137209
H	 1.7428834804	 1.1779944768	-0.3169861081	 0.131046
H	-0.0302031658	-1.0584758152	 2.5167841708	 0.138599
H	 1.2255835901	 0.1994661242	 2.6268666623	 0.121941
H	-0.3171905682	 0.41288533	 3.4675550069	 0.131891
H	-0.6912448034	 2.6804348591	 2.1508701127	 0.133049
H	 0.9254117338	 2.3998209368	 1.4789591651	 0.1214
H	-1.6247356193	 2.7276902915	-0.2526176109	 0.097283
H	-4.1529046045	 0.1929825683	 1.3973446501	 0.202373
62.744	82.7946	105.6681	144.338	166.8426	211.8059	217.7625	272.6917	313.1248	351.4867	413.0364	459.2872	475.9828	545.5597	595.0051	636.1078	669.66	714.9156	814.7079	866.5776	939.3015	1005.0587	1027.9436	1088.5538	1120.9698	1154.7706	1182.6468	1186.1408	1223.3537	1275.1523	1308.1405	1399.225	1424.5707	1453.0404	1473.7967	1488.6066	1497.4296	1503.3957	1510.4647	1828.9736	2240.5124	2916.9058	3009.6583	3042.8868	3052.1953	3070.4701	3108.5966	3121.6609	3129.1163	3136.6652	3500.1851
COC(C)(CC=O)C#C	CO[C@@](C)(CC=O)C#C	
InChI=1S/C7H10O2/c1-4-7(2,9-3)5-6-8/h1,6H,5H2,2-3H3	InChI=1S/C7H10O2/c1-4-7(2,9-3)5-6-8/h1,6H,5H2,2-3H3/t7-/m1/s1
