19
gdb 2854	3.0273815	1.4743302	1.2330097	0.4083	73.5	-0.24262	0.07645	0.31907	1050.93	0.158309	-422.542861	-422.535089	-422.534144	-422.574729	31.091	
O	-1.95881072	 3.6844658834	 2.5131371299	-0.444155
C	-2.1242997785	 2.44079996	 1.8612107305	 0.121327
C	-2.8619457042	 2.6752502781	 0.5503822483	-0.066009
C	-2.6399167159	 1.5171316457	-0.4081232197	-0.054326
C	-2.19210588	 0.1693330404	 0.1568614547	-0.277234
C	-0.8257537811	 0.4812270155	 0.8321322448	 0.138784
O	 0.280234047	 0.0842763142	 0.0328331887	-0.440473
C	-0.8699293498	 2.0001134756	 1.0322977752	-0.116507
C	-1.5693060639	 2.5642710939	-0.2412823792	-0.1012
H	-1.3550788571	 3.552743772	 3.2516153286	 0.280362
H	-2.5388600804	 1.6916352696	 2.5550443338	 0.056578
H	-3.6840731717	 3.37007536	 0.4269832431	 0.090965
H	-3.2551411532	 1.5438795134	-1.300705171	 0.087158
H	-2.9157501111	-0.24675399	 0.8661609796	 0.102856
H	-2.0424251593	-0.576167801	-0.6296643539	 0.104927
H	-0.7010389582	-0.0574215563	 1.7770313334	 0.081001
H	 0.2289297604	 0.5771242626	-0.7945143431	 0.279756
H	 0.0728686634	 2.4392130608	 1.3585844884	 0.069616
H	-1.1659128063	 3.2052142221	-1.0133743421	 0.086574
126.5628	179.5386	261.7844	282.8066	329.7227	362.9591	404.3814	426.2989	509.4092	704.5158	752.6183	766.9375	781.4976	828.787	851.1939	894.6164	933.6048	946.4457	968.2361	980.9897	993.5628	1046.8747	1055.1637	1059.0923	1076.2156	1099.3976	1125.2004	1183.8929	1192.0018	1199.9685	1224.7725	1240.0672	1271.8882	1298.0262	1303.1879	1327.3795	1340.0516	1396.7317	1427.2064	1436.5248	1487.5135	2963.5825	3042.2174	3065.3207	3090.2224	3118.1419	3174.4242	3184.8756	3204.9939	3788.7046	3808.9772
OC1C2C3CC(O)C1C23	O[C@H]1[C@@H]2[C@@H]3C[C@@H](O)[C@H]1[C@H]23	
InChI=1S/C7H10O2/c8-3-1-2-4-5(2)7(9)6(3)4/h2-9H,1H2	InChI=1S/C7H10O2/c8-3-1-2-4-5(2)7(9)6(3)4/h2-9H,1H2/t2-,3-,4+,5-,6+,7+/m1/s1
