19
gdb 3673	2.9533231	1.5026844	1.3022112	2.3807	74.94	-0.23763	0.06988	0.30751	1039.0341	0.157882	-422.514083	-422.506323	-422.505379	-422.546085	30.717	
O	 0.4609869991	 0.2176685968	 1.0811759971	-0.424002
C	-0.749511406	 0.6728051841	 0.5439285331	-0.009899
C	-1.9436744374	-0.2707307033	 0.4657660798	-0.426564
C	-1.872765446	 0.8065643103	 1.5003636304	 0.437431
C	-1.9345596989	 0.6507686496	 3.019836101	 0.00096
C	-1.2397446701	 1.9317552822	 3.5296170232	-0.219077
C	-1.9843739963	 2.9461160221	 2.5972771363	-0.218077
C	-2.8638183912	 1.9182093713	 1.8506680373	-0.02782
O	-3.337796629	 1.0740199038	 2.9483987832	-0.303813
H	 0.8921245584	-0.3363719648	 0.4218326353	 0.289513
H	-0.6527460341	 1.4188687958	-0.2468195228	 0.085172
H	-2.6295991408	-0.1646990659	-0.3693256783	 0.113389
H	-1.7839380054	-1.2916497009	 0.7991559226	 0.118008
H	-1.7738683334	-0.2950295125	 3.5353310759	 0.081434
H	-1.4444851966	 2.1033081054	 4.588289853	 0.102936
H	-0.1596392714	 1.9063368698	 3.3703437739	 0.11781
H	-2.5952415325	 3.6618538437	 3.1512090622	 0.105371
H	-1.3142984079	 3.4955722249	 1.9306270949	 0.099342
H	-3.6485826005	 2.2638856174	 1.177525412	 0.077886
126.2416	141.7472	216.1868	292.0173	309.6637	413.85	434.0966	444.1614	589.1671	637.1836	749.1021	813.9636	835.2706	847.4416	870.3152	875.3978	918.4843	946.396	949.7666	982.3902	990.1651	1016.2997	1036.3942	1052.6271	1095.5185	1128.656	1162.8061	1191.4995	1197.3778	1217.2825	1236.9476	1251.7726	1275.7306	1292.8789	1304.37	1318.4248	1379.1162	1438.2499	1478.6717	1497.7551	1519.076	3064.7678	3076.2873	3083.1532	3112.6326	3119.3871	3122.0559	3131.5692	3135.0006	3207.6858	3802.1796
OC1CC11C2CCC1O2	O[C@H]1C[C@]21[C@H]1CC[C@@H]2O1	
InChI=1S/C7H10O2/c8-4-3-7(4)5-1-2-6(7)9-5/h4-6,8H,1-3H2	InChI=1S/C7H10O2/c8-4-3-7(4)5-1-2-6(7)9-5/h4-6,8H,1-3H2/t4-,5-,6+,7+/m0/s1
