19
gdb 3002	2.4351473	1.6973646	1.2933166	3.0418	75.17	-0.23299	-0.01052	0.22247	1036.2262	0.156722	-422.574958	-422.56647	-422.565525	-422.607556	32.758	
C	-0.122679208	 2.5602418535	 0.0536222234	-0.506188
C	-0.6842131074	 1.1649614577	 0.04441305	 0.181841
C	-1.7277904892	 0.6147950884	 1.0861375191	-0.314602
C	-2.0039982668	-0.4573942969	-0.0064286966	-0.075046
C	-0.6719100425	-1.2300574656	-0.0223609464	-0.339222
C	 0.276886551	-0.0112641925	 0.0053731054	 0.407379
O	 1.4788522153	 0.0053668577	-0.0295824447	-0.340569
C	-1.7174786398	 0.6546876382	-1.0577160035	 0.142236
O	-2.751589635	 1.5394784189	-1.3894258678	-0.445601
H	 0.3250023762	 2.799636159	 1.0234820186	 0.12647
H	 0.6617453492	 2.6617281833	-0.7027876353	 0.136242
H	-0.9039091084	 3.2965698042	-0.158797161	 0.114845
H	-1.351865113	 0.2785322859	 2.0567998483	 0.108603
H	-2.5551290425	 1.3092395732	 1.2552198221	 0.095611
H	-2.9279468645	-1.034656514	-0.0321246857	 0.075475
H	-0.5276258751	-1.8711966391	 0.8528050992	 0.127875
H	-0.5092173992	-1.8341900119	-0.9205098282	 0.127394
H	-1.2919505408	 0.3362665912	-2.013925184	 0.09183
H	-3.2209228196	 1.803906659	-0.5915158628	 0.285427
119.1965	151.5368	212.6111	232.2828	257.4851	297.7611	362.4743	422.9437	482.9327	540.0817	598.694	611.8877	650.4437	748.8611	818.7302	855.8593	864.961	909.7975	964.5065	984.1215	999.2981	1024.3376	1067.029	1082.8295	1105.5162	1159.3983	1178.5676	1190.1039	1220.5375	1244.8968	1258.2838	1285.1215	1303.0122	1351.1386	1414.4653	1444.4843	1461.6812	1487.1396	1487.7692	1524.2198	1860.2653	3037.4316	3054.2837	3055.3169	3070.6611	3101.3761	3103.523	3106.0715	3110.6381	3118.9864	3816.7628
CC12CC(CC1=O)C2O	C[C@]12C[C@H](CC1=O)[C@H]2O	
InChI=1S/C7H10O2/c1-7-3-4(6(7)9)2-5(7)8/h4,6,9H,2-3H2,1H3	InChI=1S/C7H10O2/c1-7-3-4(6(7)9)2-5(7)8/h4,6,9H,2-3H2,1H3/t4-,6+,7-/m0/s1
