19
gdb 3896	3.6750001	1.2081472	1.1159871	1.7975	74.76	-0.2354	0.054	0.2894	1190.9002	0.156003	-422.500961	-422.492779	-422.491835	-422.533773	31.874	
O	-0.058390367	 0.0849349229	-0.1066324631	-0.434314
C	-0.5402489728	 0.8983386212	 0.9439160109	 0.139282
C	-1.9620078378	 1.4989558547	 0.7283142878	-0.329379
C	-2.5247453139	 0.4060512737	 1.6664008422	 0.447908
C	-1.0947747786	 0.1332779709	 2.1817775702	-0.326828
O	-3.5573788874	 0.7860257786	 2.6099761763	-0.327147
C	-4.4624498324	-0.1504431328	 2.0202962274	 0.094498
C	-3.9647079523	-1.5500661021	 2.1885058538	-0.30605
C	-3.4196188967	-0.6810679685	 1.0703028666	-0.208653
H	-0.6997711379	-0.6133030179	-0.275059291	 0.280665
H	 0.2568909778	 1.6172777845	 1.1399933078	 0.090874
H	-2.0707211913	 2.4870285325	 1.1836621037	 0.116587
H	-2.3303249706	 1.5310435404	-0.3007261081	 0.102565
H	-0.913227184	 0.6730451405	 3.1153630515	 0.118533
H	-0.7816173595	-0.9078425886	 2.3009548212	 0.101564
H	-5.4947778859	 0.1501509312	 1.8879826903	 0.106394
H	-3.3483209911	-1.7970540679	 3.0485258924	 0.119427
H	-4.6408403446	-2.3343461299	 1.8616561681	 0.115904
H	-3.4902839141	-0.9390480035	 0.0213476721	 0.09817
59.4468	158.4396	199.1176	260.3496	305.1338	378.1878	402.6798	463.8447	478.7628	527.7919	752.4746	786.8806	796.0617	810.1076	831.3204	892.7064	921.9918	940.8347	964.1289	973.0625	991.9574	1008.9305	1045.6094	1053.0365	1063.8089	1084.2509	1104.1297	1122.6014	1166.3724	1193.721	1202.7939	1229.6716	1265.1333	1276.7438	1315.2378	1334.5665	1352.3161	1434.647	1449.039	1471.3175	1475.0741	3053.5118	3058.8299	3096.4079	3114.4868	3115.1336	3118.2435	3181.1949	3192.1537	3209.276	3808.246	59.4468	158.4397	199.1177	260.3498	305.1337	378.1878	402.6798	463.8446	478.7628	527.792	752.4745	786.8806	796.0617	810.1076	831.3204	892.7065	921.9918	940.8348	964.1289	973.0624	991.9574	1008.9305	1045.6092	1053.0365	1063.809	1084.2506	1104.1297	1122.6015	1166.3724	1193.7211	1202.7939	1229.6715	1265.1333	1276.7437	1315.2377	1334.5665	1352.316	1434.647	1449.0392	1471.3172	1475.0741	3053.5118	3058.8299	3096.4079	3114.4868	3115.1336	3118.2435	3181.1949	3192.1537	3209.276	3808.2461
OC1CC2(C1)OC1CC21	O[C@H]1C[C@@]2(C1)O[C@@H]1C[C@H]21	
InChI=1S/C7H10O2/c8-4-2-7(3-4)5-1-6(5)9-7/h4-6,8H,1-3H2	InChI=1S/C7H10O2/c8-4-2-7(3-4)5-1-6(5)9-7/h4-6,8H,1-3H2/t4-,5-,6+,7-/m0/s1
