19
gdb 672	2.474956	1.671402	1.6389948	3.3582	73.61	-0.22643	-0.01763	0.20879999999999999	959.5499	0.15981	-422.595888	-422.588483	-422.587539	-422.627822	29.058	
O	 1.2135280631	-0.0597304048	-0.6092719267	-0.325069
C	 0.0800619749	-0.0349594117	-0.2001412775	 0.424593
C	-0.7486278436	-1.2717539853	 0.153213273	-0.32646
C	-2.1999794144	-0.8227317835	 0.4052720016	-0.045489
C	-2.7187750102	-0.0666425992	-0.8360858756	-0.218808
C	-1.9012425376	 1.2481835741	-0.9971363947	-0.236575
C	-0.7445925786	 1.2352856361	 0.0167784512	 0.002519
O	-1.2467390856	 1.2046213863	 1.3560648235	-0.280605
C	-2.1904668443	 0.1502769958	 1.5880866799	-0.060602
H	-0.6720228421	-1.9940494683	-0.6665466967	 0.12727
H	-0.3127639134	-1.7484809535	 1.0397326117	 0.130764
H	-2.8405942384	-1.678840667	 0.636800755	 0.074437
H	-2.6205894326	-0.7011607384	-1.7230565315	 0.10369
H	-3.7844267311	 0.1533719988	-0.7210043617	 0.104788
H	-1.5077075051	 1.3604782927	-2.011955643	 0.117541
H	-2.5193088933	 2.1270801028	-0.7898807506	 0.115273
H	-0.1110998795	 2.1201342636	-0.0576846329	 0.094346
H	-1.8959708148	-0.3559989416	 2.5161891288	 0.10365
H	-3.1898915834	 0.5821031031	 1.7441055663	 0.094738
73.3273	154.6665	268.9903	332.4696	367.1262	438.5203	496.3235	502.0157	601.0402	623.6399	738.2669	812.077	818.0131	860.0168	874.8971	903.9781	958.5549	966.6366	1009.3818	1035.559	1071.2379	1085.3572	1097.9959	1116.4043	1178.8229	1214.0086	1234.2633	1253.8488	1263.2811	1301.4012	1323.2878	1337.7083	1349.0886	1359.6848	1371.5749	1404.8804	1444.0277	1477.8115	1500.3034	1525.076	1838.9699	2993.3442	3036.3517	3038.0412	3040.701	3052.4488	3066.5504	3077.9723	3084.4208	3100.7916	3112.7806
O=C1CC2CCC1OC2	O=C1C[C@@H]2CC[C@H]1OC2	
InChI=1S/C7H10O2/c8-6-3-5-1-2-7(6)9-4-5/h5,7H,1-4H2	InChI=1S/C7H10O2/c8-6-3-5-1-2-7(6)9-4-5/h5,7H,1-4H2/t5-,7+/m0/s1
