19
gdb 4283	3.2941754	1.2958042	1.0306228	1.8009	76.18	-0.2416	0.00563	0.24723	1162.6596	0.158755	-422.550436	-422.54254	-422.541596	-422.582938	30.57	
O	-0.1737554725	-0.1568299638	 0.1729333177	-0.432457
C	-1.1998612346	 0.5629433988	 0.8484599498	 0.081428
C	-1.2198849454	 2.0432803635	 0.4326192525	-0.247774
C	-2.2602243814	 2.8437360314	 1.2182180355	 0.104556
O	-1.8569577157	 4.2190924215	 1.439045598	-0.29096
C	-1.651225919	 3.9864012554	 2.847505772	-0.089041
C	-2.2685616659	 2.5670094102	 2.7411965898	-0.094846
C	-1.5131882048	 1.3625564563	 3.2016869884	-0.08393
C	-1.0664588556	 0.4392787038	 2.3495983237	-0.098191
H	 0.6684731506	 0.2411951392	 0.4208737148	 0.276583
H	-2.12575557	 0.0718520316	 0.5187212661	 0.101313
H	-0.233111834	 2.4682071563	 0.6541309634	 0.098536
H	-1.3798060954	 2.1311022789	-0.6459059669	 0.108948
H	-3.2413927584	 2.7990839728	 0.7313908259	 0.079766
H	-0.5870094726	 4.004893271	 3.1181061021	 0.097177
H	-2.1919277279	 4.7107333599	 3.4665926273	 0.104475
H	-3.2840738606	 2.553838879	 3.1504209598	 0.09349
H	-1.3779664481	 1.232511439	 4.2735149746	 0.09313
H	-0.5687978687	-0.4602917547	 2.7028436156	 0.097796
85.0442	125.5468	233.8754	294.4532	341.8172	380.0531	417.6456	427.2262	518.1764	586.1133	707.7827	730.2186	768.4975	824.7684	886.5933	944.1872	952.9062	1002.1732	1008.016	1023.2331	1059.1938	1063.2154	1084.1325	1091.9693	1135.4005	1151.8313	1164.2612	1220.4941	1235.6212	1266.0159	1283.1925	1311.4861	1334.9407	1348.5613	1370.6801	1382.3051	1403.3151	1427.7114	1491.2087	1525.398	1707.4307	3008.329	3012.9687	3028.1709	3036.1021	3046.6793	3067.0984	3093.9342	3141.8308	3170.5577	3795.3295
OC1CC2OCC2C=C1	O[C@@H]1C[C@@H]2OC[C@@H]2C=C1	
InChI=1S/C7H10O2/c8-6-2-1-5-4-9-7(5)3-6/h1-2,5-8H,3-4H2	InChI=1S/C7H10O2/c8-6-2-1-5-4-9-7(5)3-6/h1-2,5-8H,3-4H2/t5-,6-,7-/m0/s1
