19
gdb 481	3.8303792	1.2340575	1.2140248	1.0835	75.36	-0.23963	0.08358	0.32321	1089.9988	0.157923	-422.51139	-422.503602	-422.502658	-422.544221	29.453	
C	 1.0103406511	 3.2484277495	 1.2763779595	-0.203905
C	 1.6334031054	 1.8554637952	 1.6038302336	-0.288227
C	 0.7926518719	 1.2657764406	 0.4707990418	 0.322527
C	-0.0038510183	 2.5671489404	 0.3068751252	-0.318337
C	 0.3147795412	-0.1534620177	 0.3108217656	-0.046852
O	 1.0091201521	-1.1112305681	 1.0854063199	-0.253089
C	 2.1645922909	-1.432499782	 0.3318443851	 0.027015
O	 2.5321474952	-0.2674127176	-0.3874479464	-0.251624
C	 1.3182195692	 0.403228351	-0.6525241329	-0.033736
H	 0.5757340414	 3.7913190749	 2.1179508782	 0.10155
H	 1.7066931068	 3.9128268083	 0.7600667275	 0.10716
H	 2.7146639022	 1.7611656071	 1.4843954112	 0.112763
H	 1.3553525234	 1.4690781039	 2.5879828963	 0.109629
H	-0.0626166816	 2.9775895	-0.7053307949	 0.101164
H	-1.0181420816	 2.5043976695	 0.7134645195	 0.104408
H	-0.7128959492	-0.4046961243	 0.0657619918	 0.098624
H	 2.9745390953	-1.703418287	 1.0143274373	 0.121478
H	 1.9500055561	-2.2601829437	-0.3662366784	 0.089417
H	 1.1236422987	 0.6241856401	-1.6978261397	 0.100035
55.1194	137.5134	167.0374	248.5076	248.9918	408.681	460.3352	633.1533	719.5126	735.1456	751.3782	783.3009	839.2276	855.3577	869.9559	937.1519	952.2184	955.7394	1011.7438	1041.0059	1050.1769	1079.2659	1085.5473	1114.6847	1139.9972	1161.6705	1185.0537	1215.8145	1223.4609	1226.6135	1245.5635	1253.9895	1277.4414	1280.3044	1307.7558	1414.918	1421.5742	1477.5178	1481.6776	1504.9382	1536.8872	2952.4869	3044.2993	3062.7967	3070.5555	3088.9004	3096.0973	3109.7826	3127.5843	3144.6449	3154.3521	55.1213	137.5135	167.0376	248.5077	248.9916	408.681	460.3354	633.1532	719.5127	735.1457	751.3783	783.301	839.2276	855.3576	869.956	937.1519	952.2184	955.7392	1011.7438	1041.0057	1050.1768	1079.2658	1085.5474	1114.6846	1139.997	1161.6706	1185.0537	1215.8143	1223.4608	1226.6133	1245.5634	1253.9894	1277.4412	1280.3046	1307.7558	1414.9181	1421.5743	1477.5175	1481.6773	1504.9379	1536.8872	2952.4868	3044.2993	3062.7967	3070.5556	3088.9005	3096.0973	3109.7826	3127.5843	3144.645	3154.3521
C1CC2(C1)C1OCOC21	C1CC2(C1)[C@@H]1OCO[C@H]21	
InChI=1S/C7H10O2/c1-2-7(3-1)5-6(7)9-4-8-5/h5-6H,1-4H2	InChI=1S/C7H10O2/c1-2-7(3-1)5-6(7)9-4-8-5/h5-6H,1-4H2/t5-,6+
