19
gdb 1758	2.1958858	1.960875	1.6808889	0.9084	73.18	-0.23578	0.07763	0.31340999999999997	937.2734	0.159409	-422.560958	-422.553604	-422.552659	-422.592409	29.611	
O	 0.5602676616	 0.1683510234	 0.0524201622	-0.472874
C	-0.6013780052	 0.4258457218	 0.7638915534	 0.375737
C	-1.9621999983	 0.1013705462	 0.2294714155	-0.089267
C	-2.8856478516	 1.313019793	 0.358810235	-0.241226
C	-1.9614824093	 2.4464063838	 0.8755232641	-0.212004
C	-0.8057693235	 1.7191115213	 1.5847972978	 0.016978
O	-1.1824713695	 1.3081622999	 2.9032079016	-0.27555
C	-1.7856433958	 0.0121376984	 2.8544055393	-0.096608
C	-1.4362690052	-0.5794781088	 1.5027718161	-0.162881
H	 1.2605913006	-0.037966373	 0.6818060387	 0.284655
H	-2.0512295829	-0.5500379455	-0.6327858682	 0.09156
H	-3.3359644641	 1.5651965455	-0.6050141069	 0.101723
H	-3.7133566741	 1.1209040985	 1.0507292492	 0.106151
H	-1.5538439442	 3.0034784714	 0.0240674665	 0.102506
H	-2.4598420615	 3.1575847684	 1.5390254974	 0.103135
H	 0.1001334739	 2.3247268279	 1.6704812527	 0.077868
H	-1.3745746725	-0.5926463235	 3.6720084667	 0.101477
H	-2.8709970416	 0.0954951402	 3.0159158603	 0.095741
H	-1.2152153169	-1.6380507993	 1.4269468287	 0.092878
115.301	236.044	242.3038	303.4273	336.0244	403.5577	488.8585	568.6651	607.8763	692.2599	712.1414	743.6693	812.341	849.4962	887.9223	912.4441	934.0512	960.5036	986.5644	1003.5456	1029.068	1060.3414	1069.4829	1090.7115	1113.288	1171.469	1187.0245	1201.9083	1224.3504	1249.0436	1288.4928	1305.0847	1308.9211	1318.7793	1344.8569	1352.9612	1385.762	1468.1109	1477.4768	1502.3772	1530.1706	2986.4046	3039.9276	3041.6855	3042.1721	3081.8562	3087.4457	3106.6709	3173.1924	3183.3783	3789.7721
OC12C3CCC1OCC23	O[C@]12[C@@H]3CC[C@H]1OC[C@H]23	
InChI=1S/C7H10O2/c8-7-4-1-2-6(7)9-3-5(4)7/h4-6,8H,1-3H2	InChI=1S/C7H10O2/c8-7-4-1-2-6(7)9-3-5(4)7/h4-6,8H,1-3H2/t4-,5+,6-,7+/m1/s1
