19
gdb 415	2.1804055	2.012334	1.2731805	1.3223	74.84	-0.23477	0.07452	0.30929	1032.7288	0.157062	-422.520721	-422.51278	-422.511836	-422.553582	30.949	
C	 0.9396163549	 1.3182224414	-0.0795580515	-0.3471
C	 1.4307804728	-0.1142883268	-0.1847292949	-0.318899
C	-0.0275703824	 0.1887347222	 0.0394789957	 0.388933
O	-0.9300182276	 0.0148569361	-1.0286607342	-0.295696
C	-1.7942010706	-1.0603395388	-0.6658128599	-0.106527
C	-2.0669274823	-0.8418204586	 0.8280829452	-0.308907
C	-0.7398736237	-0.2566596474	 1.3063722028	 0.341625
C	-0.5295088065	 0.2907496446	 2.6478938026	-0.251579
O	 0.0138384243	-0.9845335966	 2.2802361614	-0.27004
H	 1.1874537236	 1.8925044661	 0.8066141616	 0.113912
H	 0.8859893845	 1.8985663572	-0.9940670531	 0.126249
H	 1.7068571323	-0.4755831914	-1.1686984621	 0.119948
H	 1.9856236933	-0.5332280432	 0.6466640336	 0.129789
H	-2.6829034844	-1.0004237778	-1.2974372468	 0.111047
H	-1.3014859731	-2.0294938194	-0.8377336171	 0.100874
H	-2.872898494	-0.113484862	 0.9618388356	 0.116175
H	-2.3183720195	-1.7523244981	 1.3756558316	 0.120728
H	 0.2021306252	 1.08069726	 2.811090873	 0.115982
H	-1.3412065869	 0.2619758825	 3.3750121166	 0.113487
35.9582	194.3319	242.6502	258.4935	312.9152	396.3814	410.3759	488.0484	557.3236	575.1544	643.4214	770.5485	796.1424	844.6222	874.8322	901.3215	917.5688	951.1658	964.0286	982.1179	992.558	1044.8811	1068.7823	1076.6284	1105.628	1127.8197	1147.6813	1169.8178	1194.2426	1208.5387	1246.316	1255.0882	1309.0392	1357.8414	1387.976	1430.7464	1450.2408	1474.2765	1494.5054	1517.5491	1537.8417	2990.1836	3057.2602	3077.4287	3107.2643	3122.7918	3133.3018	3140.9078	3161.8296	3218.3515	3238.913
C1CC11OCCC11CO1	C1CC21OCC[C@@]12CO1	
InChI=1S/C7H10O2/c1-2-6(1)7(5-9-7)3-4-8-6/h1-5H2	InChI=1S/C7H10O2/c1-2-6(1)7(5-9-7)3-4-8-6/h1-5H2/t7-/m0/s1
