19
gdb 3669	3.9938181	1.1171264	1.0297476	0.852	76.47	-0.24464	0.06929	0.31393	1195.0577	0.156397	-422.482049	-422.47367	-422.472726	-422.514604	32.741	
O	-4.5863806461	 0.4875219603	 2.8411359543	-0.422531
C	-4.1227760125	 0.0725344602	 1.5843821967	-0.031749
C	-3.5901125853	 1.1745236168	 0.6874736258	-0.413833
C	-2.6708558513	 0.1467162019	 1.2715149362	 0.434934
C	-1.4447253061	 0.2581960185	 2.1904988757	-0.192232
C	-1.3712265234	-1.3016540345	 2.1373608534	-0.225789
C	-1.6690034489	-0.8566639443	 0.6682908805	-0.170757
C	-0.6082464338	 0.2586710303	 0.8612145674	 0.171573
O	 0.726275996	-0.1793991393	 0.8765533276	-0.445713
H	-4.3442773383	-0.1888838624	 3.4822336494	 0.286338
H	-4.7209199706	-0.707496435	 1.1102007633	 0.08285
H	-3.8385568647	 1.1394265937	-0.3687116243	 0.111959
H	-3.5819270316	 2.169395253	 1.1218273204	 0.12262
H	-1.3262595378	 0.909159965	 3.0576678081	 0.0735
H	-0.3929855849	-1.745859933	 2.3157847292	 0.111375
H	-2.171038361	-1.8441577888	 2.6474036796	 0.078593
H	-1.8052842496	-1.4897370536	-0.2090289693	 0.075528
H	-0.7377557193	 1.1469990087	 0.2308044938	 0.069282
H	 1.2794421794	 0.5565679724	 1.1558543522	 0.284053
122.7649	141.0489	215.5876	257.9328	278.9471	324.749	358.3351	426.0764	444.1772	513.7508	627.187	674.8303	758.146	809.4909	842.4562	889.7558	898.0491	906.1512	966.8883	985.0093	1018.9258	1029.8151	1052.925	1071.9244	1096.7639	1119.1916	1129.7457	1146.6725	1155.7505	1173.7501	1191.4441	1211.5032	1221.3348	1253.8547	1298.0576	1310.8493	1365.7615	1421.8053	1433.5581	1492.3211	1518.168	3029.6135	3067.078	3081.8759	3106.3682	3112.6945	3122.3404	3152.7164	3210.1924	3806.5023	3822.8337
OC1CC11C2CC1C2O	O[C@H]1C[C@]21[C@H]1C[C@@H]2[C@@H]1O	
InChI=1S/C7H10O2/c8-5-2-7(5)3-1-4(7)6(3)9/h3-6,8-9H,1-2H2	InChI=1S/C7H10O2/c8-5-2-7(5)3-1-4(7)6(3)9/h3-6,8-9H,1-2H2/t3-,4+,5-,6+,7-/m0/s1
