19
gdb 1240	3.803749	0.7869977	0.6998887	1.5023	79.18	-0.26708	0.01061	0.27769	1624.0415	0.153059	-422.557369	-422.54664	-422.545696	-422.594973	36.958	
C	-0.5602795976	-1.5981985034	-2.5271230668	-0.383711
C	-0.0896123357	-0.238527423	-2.0065990986	-0.085665
C	-0.6098608898	 0.927244734	-2.8722825707	-0.392748
C	-0.5332168891	-0.0307099546	-0.5675463351	 0.463533
O	-1.4120623427	-0.6305527224	-0.0004906398	-0.357627
O	 0.1826851479	 0.9581790032	 0.0175105627	-0.248887
C	-0.201093657	 1.258925593	 1.3743702728	-0.23122
C	 0.6276331628	 2.3463928587	 1.8650654026	 0.286785
C	 1.2952940978	 3.2436998454	 2.3013144389	-0.413777
H	-0.1574378625	-2.4175848748	-1.9256843172	 0.122785
H	-1.650617009	-1.6684013348	-2.4915972808	 0.134192
H	-0.2352149171	-1.7387208497	-3.5622414768	 0.110607
H	 1.0056231665	-0.1942620396	-2.0088585566	 0.103658
H	-0.2553756176	 1.8891833259	-2.494310904	 0.133733
H	-0.2628259603	 0.8119098159	-3.9032323947	 0.121091
H	-1.704851835	 0.9420360991	-2.8848748142	 0.127569
H	-1.2633398413	 1.5251268355	 1.3998409072	 0.152214
H	-0.0837503873	 0.3604901017	 1.9900129875	 0.152449
H	 1.8872199971	 4.0374918396	 2.6853820137	 0.205018
18.4487	43.1529	102.3548	131.2442	203.0964	218.0071	241.0254	283.5118	318.7025	328.3787	332.0357	430.2129	547.6566	617.7009	645.7105	684.1045	758.451	848.1622	923.3878	935.2593	972.445	981.6918	1014.1519	1027.9495	1117.7744	1130.0236	1180.3793	1212.0866	1248.0352	1326.9698	1365.1755	1392.3405	1405.2284	1421.8438	1486.4665	1487.4872	1488.7838	1500.1427	1512.7432	1813.9916	2251.065	3038.1495	3044.0685	3045.0914	3046.0584	3078.1338	3108.49	3116.5144	3124.9846	3126.1222	3505.7529	18.451	43.1535	102.3558	131.246	203.096	218.0081	241.0262	283.512	318.7026	328.381	332.0362	430.2128	547.6559	617.7024	645.7104	684.1067	758.4512	848.1622	923.3879	935.2592	972.4449	981.692	1014.1512	1027.9495	1117.7742	1130.0236	1180.3793	1212.0866	1248.0328	1326.9697	1365.175	1392.3395	1405.2277	1421.8435	1486.4659	1487.4858	1488.7824	1500.1423	1512.7427	1813.9924	2251.0638	3038.1495	3044.0686	3045.0915	3046.0584	3078.1338	3108.49	3116.5143	3124.9846	3126.1223	3505.7545
CC(C)C(=O)OCC#C	CC(C)C(=O)OCC#C	
InChI=1S/C7H10O2/c1-4-5-9-7(8)6(2)3/h1,6H,5H2,2-3H3	InChI=1S/C7H10O2/c1-4-5-9-7(8)6(2)3/h1,6H,5H2,2-3H3
