19
gdb 5778	3.243719	1.360697	1.3012155	2.6912	74.5	-0.23677	0.0006	0.23737	1054.3019	0.159438	-422.559664	-422.552243	-422.551299	-422.591433	29.823	
O	 1.6466350299	 0.4518941644	 0.0510710655	-0.424448
C	 0.2645211834	 0.1892247999	-0.1084331859	-0.079105
C	-0.0947374173	 0.0811983694	-1.5846753308	 0.12599
O	 0.3202460207	 1.2936214055	-2.2497348165	-0.315549
C	-0.8482176798	 1.7687473964	-2.9913272067	 0.068629
C	-1.4841352049	 0.4455125927	-3.4402365257	-0.223993
C	-1.606336051	-0.0393524682	-1.9679351595	-0.117091
C	-2.3177448045	 1.154479626	-1.3516085348	-0.079411
C	-1.8669150781	 2.2521363136	-1.9703022487	-0.076685
H	 1.8323835103	 1.2092664932	-0.5174007731	 0.290054
H	 0.0615132775	-0.761068416	 0.3987582176	 0.098672
H	-0.3481419975	 0.9693683329	 0.3659186494	 0.086264
H	 0.4643596846	-0.7576171491	-2.0221122516	 0.081054
H	-0.5001272861	 2.4739411689	-3.743741549	 0.077283
H	-2.453146216	 0.567462123	-3.9259327102	 0.105606
H	-0.8151728322	-0.1605861578	-4.057416717	 0.103814
H	-2.0355552299	-1.0245276416	-1.7891416677	 0.072109
H	-2.9828724424	 1.1037341713	-0.4988851948	 0.104178
H	-2.0745739667	 3.2866815355	-1.7305302004	 0.102627
102.4648	170.9975	207.1376	363.0471	444.4277	464.6697	483.6863	507.356	511.6916	678.2282	754.5074	796.5059	824.1736	836.6017	871.3442	895.1669	923.6279	943.6753	963.6676	975.4447	982.0562	1018.4884	1048.5861	1081.9018	1109.2211	1126.8445	1144.2115	1191.5457	1227.016	1250.4041	1272.5171	1283.1254	1297.197	1322.3784	1354.6747	1363.6535	1403.5621	1440.427	1489.3572	1500.4565	1634.3147	2996.9169	3009.7645	3066.6507	3067.5231	3124.872	3135.3877	3141.3225	3202.3839	3228.6423	3788.399
OCC1OC2CC1C=C2	OC[C@@H]1O[C@H]2C[C@@H]1C=C2	
InChI=1S/C7H10O2/c8-4-7-5-1-2-6(3-5)9-7/h1-2,5-8H,3-4H2	InChI=1S/C7H10O2/c8-4-7-5-1-2-6(3-5)9-7/h1-2,5-8H,3-4H2/t5-,6+,7-/m0/s1
