19
gdb 888	3.2357847	0.9173081	0.7909358	2.7764	77.67	-0.24532	-0.03571	0.20961000000000002	1329.4595	0.154938	-422.568554	-422.559042	-422.558098	-422.605159	32.906	
O	-2.2737571119	-3.3433258582	-0.5290852583	-0.235386
C	-1.6153067294	-2.728234855	-1.3250571869	 0.162677
C	-0.1897080396	-2.2634137096	-1.067376414	-0.37462
C	 0.00802683	-0.8158088205	-1.5302738098	 0.346424
O	-0.3199609466	-0.4847489231	-2.6479211772	-0.311706
C	 0.5582637142	 0.1484989575	-0.5107735396	-0.072445
C	-0.4568783284	 0.626870592	 0.5906940543	-0.23076
C	 0.1141254754	 2.0610199583	 0.4213507735	-0.207631
C	 0.7580935495	 1.6260952751	-0.9224592651	-0.234392
H	-2.0051363728	-2.4433806833	-2.3238448371	 0.108755
H	 0.0676301442	-2.4266217848	-0.0190613099	 0.127163
H	 0.4675189665	-2.8824592269	-1.6937211369	 0.156832
H	 1.4456784292	-0.2873648904	-0.0391518226	 0.090127
H	-1.491110507	 0.5529120451	 0.2426571902	 0.118826
H	-0.3835306276	 0.1573471278	 1.573348648	 0.111281
H	-0.607457581	 2.8799531555	 0.3913064299	 0.106803
H	 0.8651407063	 2.2881920565	 1.1827879605	 0.106871
H	 0.1360182064	 1.8636520157	-1.7882374396	 0.128035
H	 1.7804851724	 1.9519214883	-1.1232972894	 0.103145
22.8207	50.6595	100.866	106.0953	179.8234	204.5798	299.2167	355.6589	470.1155	573.6725	597.6284	682.1419	762.4691	784.9383	816.9563	875.2355	928.5255	938.0161	955.5458	981.3638	1013.1975	1033.2561	1065.9715	1106.163	1134.1902	1184.2205	1209.2613	1227.2331	1247.4666	1259.4181	1274.8281	1278.2862	1290.1383	1368.7368	1407.6178	1439.8094	1478.8683	1486.9165	1508.0642	1787.9804	1837.1409	2930.3109	3029.5754	3049.638	3060.6994	3062.8546	3074.6739	3107.5395	3121.5569	3122.2246	3133.4863	22.8228	50.662	100.867	106.0958	179.8242	204.5798	299.2167	355.659	470.1152	573.6726	597.6285	682.1417	762.4691	784.9382	816.9561	875.2354	928.5256	938.0161	955.5457	981.3635	1013.1974	1033.2555	1065.9709	1106.1622	1134.1896	1184.2194	1209.261	1227.2327	1247.4661	1259.4178	1274.8275	1278.286	1290.1376	1368.7362	1407.616	1439.808	1478.8679	1486.9163	1508.064	1787.9795	1837.1393	2930.3104	3029.5755	3049.638	3060.6994	3062.8547	3074.674	3107.5395	3121.5569	3122.2246	3133.4864
O=CCC(=O)C1CCC1	O=CCC(=O)C1CCC1	
InChI=1S/C7H10O2/c8-5-4-7(9)6-2-1-3-6/h5-6H,1-4H2	InChI=1S/C7H10O2/c8-5-4-7(9)6-2-1-3-6/h5-6H,1-4H2
