19
gdb 3519	2.214825	1.5444729	0.9536403	4.5886	76.04	-0.22956	-0.08571	0.14384999999999998	1231.3425	0.155269	-422.604409	-422.595126	-422.594182	-422.638532	33.944	
C	-3.235640217	 1.3897998931	-0.8708996138	-0.404894
C	-2.3081711196	 0.5468962635	 0.0012645952	-0.001919
C	-2.1494800233	-0.9123165173	-0.4854677096	-0.348505
C	-0.8507231898	-1.3994411102	 0.1344180896	 0.317547
O	-0.4800672917	-2.5275331188	 0.3129426196	-0.277799
C	-0.0441767692	-0.1267212861	 0.5390099869	 0.302157
O	 1.0105708306	-0.139377976	 1.1143463343	-0.28828
C	-0.856167217	 1.085157288	 0.0994503312	-0.102444
C	-0.631505206	 2.3166547242	 0.9725954866	-0.41034
H	-3.3305656002	 2.4099079236	-0.4865857921	 0.12399
H	-2.8556835217	 1.4507664387	-1.8975885751	 0.117449
H	-4.239631722	 0.9550998331	-0.9120771603	 0.121564
H	-2.7162472842	 0.518898983	 1.0215920463	 0.088634
H	-2.9871265043	-1.5691366953	-0.2397235125	 0.135917
H	-2.0290475751	-0.9356714495	-1.5788220496	 0.133283
H	-0.5158065628	 1.3018394513	-0.9283505576	 0.106528
H	-1.0151063617	 2.1497523304	 1.9846107408	 0.12509
H	 0.4374369199	 2.5291171083	 1.0551536046	 0.142081
H	-1.1303951948	 3.197597156	 0.5599289955	 0.119942
63.7399	104.2165	184.9101	222.4953	238.4566	271.0044	290.4202	318.8093	376.1705	463.4659	500.9667	527.2425	591.8717	680.7995	744.4022	817.6931	888.9984	926.7783	977.1529	992.6469	1021.9138	1062.4175	1091.0635	1114.2203	1164.7459	1179.4828	1212.8171	1261.5227	1272.0399	1312.5876	1349.7034	1378.9687	1408.0966	1416.5207	1447.4629	1493.1735	1494.9213	1496.6718	1502.5977	1839.7698	1860.0319	2962.5837	3004.0382	3016.3764	3029.0849	3042.6989	3095.8012	3105.9421	3107.9105	3111.5789	3125.9291
CC1CC(=O)C(=O)C1C	C[C@H]1CC(=O)C(=O)[C@@H]1C	
InChI=1S/C7H10O2/c1-4-3-6(8)7(9)5(4)2/h4-5H,3H2,1-2H3	InChI=1S/C7H10O2/c1-4-3-6(8)7(9)5(4)2/h4-5H,3H2,1-2H3/t4-,5+/m0/s1
