19
gdb 4925	2.2665473	1.0912436	0.8491622	3.0098	80.6	-0.24909	0.03746	0.28655	1427.8111	0.154995	-422.50689	-422.496687	-422.495743	-422.543688	35.079	
C	 1.5419609261	-0.0007450341	 0.0731943534	-0.502038
C	 0.0857088368	-0.0113144857	 0.0642363174	 0.093659
C	-1.1199406478	-0.0088297824	 0.0312411642	-0.02158
C	-2.5717207215	-0.02416636	 0.0429320252	 0.067486
C	-3.0960702065	-0.9804756046	 1.1287961938	-0.109497
O	-2.681678584	-0.5988713661	 2.422525131	-0.42116
C	-3.3251089531	-0.200493669	-1.3058810879	-0.117482
O	-4.1496969753	 0.9469048328	-1.037343359	-0.272021
C	-3.3100845717	 1.3448620895	 0.0650942616	-0.107382
H	 1.929574686	 0.7637136128	 0.7554559082	 0.152811
H	 1.9467126941	-0.9674124862	 0.3920342521	 0.151353
H	 1.9405674023	 0.2131599996	-0.9244658547	 0.154551
H	-4.190488181	-0.9504758988	 1.1301502804	 0.118652
H	-2.78307767	-2.0075729061	 0.8830989555	 0.092156
H	-1.7174726213	-0.5612891887	 2.4079320953	 0.28542
H	-2.6910255515	-0.0613846505	-2.1901656421	 0.103916
H	-3.9114125918	-1.1209120169	-1.415809891	 0.106606
H	-2.6718517046	 2.1988963242	-0.1916154155	 0.102836
H	-3.878552845	 1.5639330401	 0.974465912	 0.121713
25.2583	76.4266	92.1205	113.0297	146.3419	224.8668	289.0426	309.6857	341.5299	400.1693	439.4245	486.0752	528.9346	618.8732	829.3196	866.2986	909.0233	973.3164	990.6787	1030.9674	1040.3982	1051.9277	1054.1224	1071.2536	1106.4113	1152.7051	1159.6983	1182.7733	1225.9345	1298.0405	1318.8319	1367.9266	1379.8492	1414.5068	1428.6607	1477.2395	1478.008	1502.3358	1511.6441	1534.0089	2358.2663	2980.7665	3011.5297	3026.0895	3029.1696	3062.3429	3078.7838	3085.8509	3090.7949	3091.7249	3780.013
CC#CC1(CO)COC1	CC#CC1(CO)COC1	
InChI=1S/C7H10O2/c1-2-3-7(4-8)5-9-6-7/h8H,4-6H2,1H3	InChI=1S/C7H10O2/c1-2-3-7(4-8)5-9-6-7/h8H,4-6H2,1H3
