19
gdb 1777	2.5443458	1.6375079	1.3285881	2.4855	75.87	-0.22114	-0.01477	0.20637	1052.8592	0.155488	-422.561308	-422.552462	-422.551517	-422.594271	33.249	
C	-0.7284179524	-2.4961530074	-0.2372536275	-0.502251
C	-0.9445423281	-1.0254890847	 0.0031470938	 0.139811
C	-1.6304905114	-0.0346234963	-1.0111088315	-0.32449
C	-0.9561140381	 1.0652166257	-0.1315649629	 0.30615
C	-0.8084378192	 2.5130838305	-0.4833614381	-0.496943
O	-1.6137297963	 0.881702101	 1.139825629	-0.310476
C	-1.6319623218	-0.5587959514	 1.2991108371	-0.109697
C	 0.1915056696	 0.0284858308	-0.0346832685	 0.385014
O	 1.3801323702	 0.0087789605	-0.1503093569	-0.323644
H	-0.1320358789	-2.9368884512	 0.5686680889	 0.132665
H	-1.6788884798	-3.0383650739	-0.2863876045	 0.122824
H	-0.1916281884	-2.6644563897	-1.1755591754	 0.13209
H	-1.2270736965	-0.1032067273	-2.0237150186	 0.116904
H	-2.723038291	-0.0213418936	-1.0113309406	 0.113757
H	-0.2351091895	 3.0313602987	 0.2904712743	 0.14154
H	-0.2807773008	 2.6210396612	-1.434745331	 0.130048
H	-1.7872301179	 2.9949160023	-0.5660575728	 0.131307
H	-1.0794358588	-0.8478868287	 2.2015529509	 0.111228
H	-2.6673493709	-0.9108407264	 1.3877523442	 0.104161
130.9191	165.6454	176.9552	209.1111	213.9199	254.7678	286.2073	360.5715	451.4174	529.4141	578.5181	596.2614	679.0657	717.4124	805.3082	862.7986	873.6199	891.8022	926.5252	975.1774	1000.1984	1011.1154	1039.9118	1090.0939	1150.4557	1160.6912	1178.683	1202.3341	1232.6274	1288.0556	1346.8768	1385.4686	1414.9132	1425.6996	1475.5226	1477.1505	1489.8458	1490.8958	1491.3096	1528.9266	1898.2223	3013.0526	3033.5686	3045.9926	3055.1729	3065.1323	3097.8669	3108.2664	3117.299	3125.3692	3136.5265
CC12CC(C)(OC1)C2=O	C[C@@]12C[C@@](C)(OC1)C2=O	
InChI=1S/C7H10O2/c1-6-3-7(2,5(6)8)9-4-6/h3-4H2,1-2H3	InChI=1S/C7H10O2/c1-6-3-7(2,5(6)8)9-4-6/h3-4H2,1-2H3/t6-,7-/m1/s1
