19
gdb 5768	1.8927492	1.7710785	1.1402126	2.2534	77.76	-0.24528	-0.0209	0.22438	1137.9957	0.15549	-422.530384	-422.521281	-422.520337	-422.564729	32.674	
C	 1.5309402995	-0.0893895222	-0.066402388	-0.242541
O	 0.1210048692	-0.1806581317	 0.0151343228	-0.241986
C	-0.4128247053	 0.5110901982	 1.1108049373	 0.042916
C	-1.9610074032	 0.4064092221	 1.2057738368	-0.263423
C	-1.8336698206	-0.2331707999	 2.5935180015	-0.103469
C	-1.0087258065	-1.4632733274	 2.54039848	-0.329705
C	-0.2761484945	-0.1340889009	 2.5013221096	 0.259267
C	 0.641611516	 0.284755626	 3.560694577	 0.048996
O	 1.5535941863	 1.066172571	 3.4092290295	-0.27848
H	 2.0201721897	-0.4899677228	 0.831915638	 0.120905
H	 1.841105651	-0.6732792202	-0.9359327083	 0.123745
H	 1.8584391	 0.9526120626	-0.1956022723	 0.114398
H	-0.0526902686	 1.548219967	 1.1335857187	 0.089071
H	-2.4509675679	 1.3812031751	 1.2104450788	 0.114488
H	-2.4191005879	-0.2260109451	 0.4406481042	 0.115507
H	-2.4307156931	 0.0200648245	 3.46075163	 0.106222
H	-0.9063798325	-2.0135764103	 3.4706302452	 0.124783
H	-0.9814818697	-2.0725277793	 1.641661176	 0.137074
H	 0.4330327482	-0.1705211166	 4.558019573	 0.06223
62.7041	93.5964	134.6414	168.2468	207.6569	253.8156	290.1065	399.5612	424.377	481.6914	567.5968	685.16	745.689	798.0542	829.238	879.8346	941.0784	986.997	1014.0783	1026.246	1043.4252	1054.271	1083.8038	1113.3309	1144.0054	1162.7023	1182.4147	1226.9468	1240.4769	1246.4931	1270.6262	1316.777	1371.606	1396.4726	1437.3225	1472.679	1481.5385	1486.2645	1493.2059	1505.1247	1793.6097	2848.4122	2991.7852	3020.8482	3046.0882	3067.3221	3120.0285	3122.4213	3128.0039	3193.429	3211.7306
COC1CC2CC12C=O	CO[C@H]1C[C@H]2C[C@@]12C=O	
InChI=1S/C7H10O2/c1-9-6-2-5-3-7(5,6)4-8/h4-6H,2-3H2,1H3	InChI=1S/C7H10O2/c1-9-6-2-5-3-7(5,6)4-8/h4-6H,2-3H2,1H3/t5-,6-,7-/m0/s1
