19
gdb 2844	2.9407488	1.5838109	1.2287356	2.0135	74.13	-0.23608	0.06287	0.29895	1055.5406	0.157376	-422.528804	-422.520907	-422.519963	-422.560614	31.371	
C	 1.5528873056	-0.633376998	-1.199369813	-0.408242
C	 1.4443143399	 0.1182870694	 0.1225723055	-0.013802
C	 2.3563696393	-0.4377357974	 1.2215913703	-0.146547
C	 3.3846031032	 0.6696044473	 0.9821406894	-0.135203
C	 2.3096943652	 1.4288104944	 0.171447218	 0.071523
O	 1.7424170805	 2.4106112949	 1.0307822094	-0.264703
C	 1.7211115519	 1.8475703049	 2.3448948178	-0.156316
C	 2.6387358913	 0.6253423187	 2.2761399703	 0.359482
O	 3.3312786867	 0.2434993006	 3.4207599821	-0.472583
H	 1.1102962266	-1.6326513922	-1.127067886	 0.114751
H	 1.0331281348	-0.0931694193	-1.9980254589	 0.116317
H	 2.600236724	-0.7553767918	-1.4979960288	 0.117082
H	 0.3912338144	 0.2755906696	 0.3857129926	 0.068703
H	 2.5466122794	-1.4829197514	 1.4428555909	 0.081206
H	 4.4611077922	 0.6511352197	 0.8865468145	 0.097311
H	 2.5589412233	 1.899423388	-0.779256103	 0.082552
H	 2.1190399214	 2.5751454511	 3.0615464645	 0.110605
H	 0.6905405521	 1.5981191409	 2.6362622321	 0.090172
H	 2.7486935383	-0.3053525991	 3.9563331022	 0.287692
163.8716	224.4893	238.699	250.9877	283.3886	345.8661	377.2289	415.4312	481.6969	583.0149	685.6492	742.4646	782.0548	850.0541	865.2634	881.428	920.0627	943.7511	961.5102	983.5764	1034.1458	1051.6046	1062.5105	1075.4034	1093.7923	1137.781	1156.9908	1193.0631	1203.6813	1237.5499	1264.2026	1271.5801	1310.8885	1323.6302	1351.8511	1378.6898	1408.7653	1441.5026	1495.2964	1500.4322	1523.8963	2994.9575	3025.9288	3029.0206	3057.0625	3094.4212	3096.8254	3122.8331	3166.0603	3216.0511	3802.725
CC1C2C3C1OCC23O	C[C@H]1[C@H]2[C@H]3[C@@H]1OC[C@@]23O	
InChI=1S/C7H10O2/c1-3-4-5-6(3)9-2-7(4,5)8/h3-6,8H,2H2,1H3	InChI=1S/C7H10O2/c1-3-4-5-6(3)9-2-7(4,5)8/h3-6,8H,2H2,1H3/t3-,4-,5-,6+,7+/m0/s1
