19
gdb 5335	2.7666449	1.2222879	0.9809054	4.3722	79.09	-0.26399	-0.0352	0.22879	1282.9405	0.156538	-422.618548	-422.609418	-422.608474	-422.65273	33.144	
C	 0.7101493621	-0.1876782947	 0.9018733592	-0.382246
C	 0.9270318066	 0.3840677907	-0.5108105807	-0.290737
C	 1.7987342869	-0.4883108156	-1.357322641	 0.183835
C	 3.0267986202	-0.3013918597	-1.8436457838	-0.22783
C	 3.4618259154	-1.5058809919	-2.6302735075	 0.073268
C	 4.718365619	-2.1969331619	-2.1059775806	-0.393726
O	 2.342737106	-2.4019234123	-2.5503282875	-0.234439
C	 1.3414596466	-1.8341457941	-1.8096233601	 0.388905
O	 0.2944077601	-2.3844687662	-1.602825423	-0.354306
H	 0.2537939828	-1.1787345968	 0.8452434884	 0.152477
H	 1.6591211413	-0.2740776775	 1.4404805149	 0.114552
H	 0.0486351421	 0.4637457617	 1.4802146543	 0.116508
H	-0.0479390103	 0.4807873148	-1.0035476075	 0.12688
H	 1.3613365517	 1.3875798332	-0.4517677459	 0.103393
H	 3.6587722488	 0.5693123601	-1.7166306477	 0.119238
H	 3.5998328529	-1.2515830672	-3.690728251	 0.109967
H	 4.5946828568	-2.4670969669	-1.053750884	 0.132392
H	 4.9172279784	-3.1042987945	-2.6815760682	 0.139292
H	 5.5816874626	-1.5306080312	-2.1983811982	 0.122576
62.2322	116.0897	141.4297	192.215	233.1628	241.7016	300.2651	334.7845	442.6636	508.1712	537.8513	620.2503	716.9038	771.5326	795.3358	812.9582	878.4674	887.7214	948.9488	970.9662	1047.8185	1058.9297	1093.7896	1102.6458	1116.0963	1146.6481	1217.9797	1272.3439	1337.4251	1341.2688	1351.4913	1367.3302	1404.5241	1405.6666	1476.9317	1486.7435	1495.2166	1497.1072	1512.1241	1713.7517	1854.6374	3010.9499	3034.26	3042.862	3045.1941	3076.2372	3111.7886	3120.6392	3131.8279	3133.0325	3209.3522
CCC1=CC(C)OC1=O	CCC1=C[C@@H](C)OC1=O	
InChI=1S/C7H10O2/c1-3-6-4-5(2)9-7(6)8/h4-5H,3H2,1-2H3	InChI=1S/C7H10O2/c1-3-6-4-5(2)9-7(6)8/h4-5H,3H2,1-2H3/t5-/m1/s1
