19
gdb 2597	2.4527704	1.5691732	1.0575194	3.0024	79.3	-0.24227	-0.04682	0.19545	1159.9527	0.157144	-422.575624	-422.566879	-422.565935	-422.609101	32.311	
C	 1.4689576277	 0.7114238956	-0.4617308875	-0.471559
C	 0.0472004911	 0.3683027778	-0.1022207125	 0.207848
C	-0.9849934119	 1.1737880018	-0.3919596918	-0.138636
C	-2.4583167899	 0.8742159179	-0.2412082274	-0.149692
O	-2.7920940023	-0.482128479	-0.4597822696	-0.233694
C	-2.6650442298	-1.3332509924	 0.6598412865	-0.071751
C	-1.3605086975	-1.1409059625	 1.4525361915	-0.346546
C	-0.1278338755	-0.9558835138	 0.5755078381	 0.332752
O	 0.728931298	-1.8133584889	 0.4980970745	-0.31597
H	 2.1095510276	 0.7264730037	 0.426941004	 0.131885
H	 1.8841241052	-0.054926173	-1.1233984096	 0.149958
H	 1.5316282104	 1.6829159631	-0.9575085262	 0.114065
H	-0.7686346766	 2.1329624476	-0.8602114856	 0.097034
H	-2.8388028895	 1.2269041888	 0.733615506	 0.106435
H	-3.0018150284	 1.4416280555	-1.0045910359	 0.123084
H	-3.5186954458	-1.2041881542	 1.3449623565	 0.094584
H	-2.7083428681	-2.3485422943	 0.2549664219	 0.126262
H	-1.4535015357	-0.2630465337	 2.102551209	 0.117991
H	-1.1950914689	-2.0155088699	 2.086728488	 0.12595
67.5128	151.2549	159.0691	199.9811	280.8016	306.591	326.3106	354.4806	405.4838	506.2411	587.8908	647.6145	694.0853	767.7175	830.4156	860.8951	897.1214	917.9667	1010.951	1031.5772	1057.7674	1073.7319	1079.92	1103.3371	1172.1898	1228.4105	1248.8951	1258.3562	1304.8366	1347.8833	1382.8426	1389.4802	1410.3332	1419.3532	1467.4589	1470.672	1485.222	1487.1536	1507.7127	1705.0143	1771.9072	2951.219	2972.6755	3038.558	3042.2871	3061.2173	3084.5697	3096.2033	3111.8588	3125.9977	3139.258
CC1=CCOCCC1=O	CC1=CCOCCC1=O	
InChI=1S/C7H10O2/c1-6-2-4-9-5-3-7(6)8/h2H,3-5H2,1H3	InChI=1S/C7H10O2/c1-6-2-4-9-5-3-7(6)8/h2H,3-5H2,1H3
