19
gdb 3462	2.536158	1.6459308	1.2464325	2.2824	75.82	-0.22294	0.01506	0.238	1061.6728	0.155316	-422.555796	-422.546788	-422.545844	-422.588611	34.864	
C	 0.0845204361	 0.1981682108	 0.0963613857	-0.400933
C	 1.5821612928	-0.1360445484	 0.0797258719	-0.094923
C	 2.0523161962	-0.8784649013	-1.1611590265	-0.079638
C	 2.7628891158	-1.9723551524	-0.8758707948	-0.150668
C	 2.8422193807	-2.1901265022	 0.5984812995	 0.363973
O	 4.0243968439	-2.6511198494	 1.1651376738	-0.484892
C	 1.5139730441	-2.4678999538	 1.2955988227	-0.402988
C	 2.0560096757	-1.0558420408	 1.2097955804	 0.289166
O	 2.5991950777	-0.4714787202	 2.3599872949	-0.478474
H	-0.1854855666	 0.7257407129	 1.0174145567	 0.110809
H	-0.1832895269	 0.8441215059	-0.74599522	 0.115398
H	-0.5272702054	-0.7070616641	 0.0309200403	 0.118634
H	 2.1399939766	 0.8075542817	 0.1733404928	 0.092297
H	 1.8028607065	-0.5354459793	-2.1595585202	 0.095464
H	 3.2158356308	-2.6503765219	-1.5894931703	 0.104198
H	 4.2720870245	-2.0056503032	 1.8406166005	 0.290567
H	 0.6475857266	-2.7593888363	 0.71144348	 0.112498
H	 1.6050941704	-2.9378021676	 2.2704831964	 0.110068
H	 1.9295857106	-0.4610168903	 3.0512968863	 0.289443
130.2698	189.6943	216.5655	221.7713	237.3606	279.4031	319.7255	327.7527	421.2358	449.7578	503.7492	576.5884	596.0587	697.2206	737.0876	762.7571	824.8806	862.3466	913.7747	922.7525	941.9987	968.4799	1017.6038	1040.5595	1077.8809	1093.0283	1110.3468	1161.1525	1190.653	1230.1363	1293.1067	1316.9206	1326.5964	1357.8466	1388.0042	1406.5786	1419.151	1464.4896	1496.6906	1499.7454	1662.8625	2997.7066	3031.9425	3098.2234	3105.9028	3119.1498	3183.9469	3212.0558	3215.8842	3756.3223	3810.3487
CC1C=CC2(O)CC12O	C[C@@H]1C=C[C@]2(O)C[C@]12O	
InChI=1S/C7H10O2/c1-5-2-3-6(8)4-7(5,6)9/h2-3,5,8-9H,4H2,1H3	InChI=1S/C7H10O2/c1-5-2-3-6(8)4-7(5,6)9/h2-3,5,8-9H,4H2,1H3/t5-,6+,7+/m1/s1
