19
gdb 1937	2.9743525	1.3936791	1.2820198	2.2093	74.06	-0.23866	0.07819	0.31685	1063.4933	0.156771	-422.535811	-422.527664	-422.52672	-422.567694	33.096	
O	-3.3863433876	-0.2754095666	 2.9462084532	-0.463485
C	-2.475595121	 0.6912242899	 2.5105513592	 0.404598
C	-1.3559482943	 1.0914246339	 3.433964837	-0.367757
C	-1.0631532013	 0.2886118315	 2.1765150118	-0.161156
C	-0.6485831062	 0.9929799795	 0.8930599791	 0.410058
O	 0.0484225415	 0.2271831905	-0.043545141	-0.470938
C	-0.5010093389	 2.4938554871	 0.8806675613	-0.366688
C	-1.8048422507	 1.8479500609	 0.4409547777	-0.075102
C	-2.9579480433	 1.6758314831	 1.4293106061	-0.316933
H	-3.9210217835	 0.1130352571	 3.6470005384	 0.281062
H	-1.0432895735	 2.12671202	 3.5133244857	 0.109671
H	-1.2997141308	 0.5360974701	 4.3649863002	 0.110028
H	-0.7387258496	-0.7390570994	 2.2873536755	 0.097466
H	 0.9757193075	 0.211736286	 0.2174038361	 0.28166
H	-0.4469982192	 3.0610451439	 1.803620007	 0.107619
H	 0.1078159007	 2.895117027	 0.0769951404	 0.111012
H	-2.0409580642	 1.9125248414	-0.6149133519	 0.096778
H	-3.3102617003	 2.6263725194	 1.8475761145	 0.095704
H	-3.8072704052	 1.2063439646	 0.9233499295	 0.116404
152.5511	205.2647	279.588	287.0579	326.7177	352.5429	389.3169	415.5901	451.2855	479.9673	584.3725	607.862	683.9896	753.4822	837.0438	847.8683	885.7255	903.8135	910.9578	939.3004	981.696	1005.6931	1026.1765	1041.747	1052.828	1067.1921	1088.0292	1102.5264	1183.6686	1205.299	1244.4082	1249.6152	1281.3709	1299.7722	1333.5549	1347.3435	1390.0079	1407.0476	1480.4844	1485.3179	1502.9277	3033.1866	3084.3877	3125.3097	3133.1547	3177.6182	3188.4177	3211.1313	3217.47	3795.5531	3796.6408
OC12CC1C1(O)CC1C2	O[C@@]12C[C@@H]1[C@]1(O)C[C@@H]1C2	
InChI=1S/C7H10O2/c8-6-1-4-2-7(4,9)5(6)3-6/h4-5,8-9H,1-3H2	InChI=1S/C7H10O2/c8-6-1-4-2-7(4,9)5(6)3-6/h4-5,8-9H,1-3H2/t4-,5-,6-,7-/m0/s1
