19
gdb 5661	2.0327256	1.2598288	0.9026584	2.5615	78.04	-0.25174	0.01472	0.26646000000000003	1342.4318	0.154643	-422.505681	-422.495875	-422.494931	-422.54116	35.352	
C	 3.6488552124	-3.9876311052	-0.3086943748	-0.419141
C	 3.2060354973	-2.5351188983	-0.2425512684	-0.079921
C	 1.7774315016	-2.1885074366	-0.7150293317	 0.121835
C	 0.876868058	-1.4069346042	 0.2251855303	-0.070679
O	-0.2027208991	-0.8325034449	-0.483317047	-0.421048
O	 2.2825225559	-1.3081361506	-1.7571473578	-0.316747
C	 3.6609689267	-1.6037178286	-1.4072417879	-0.049102
C	 4.4426629174	-0.4287853467	-1.0650130116	 0.323637
C	 5.0983811621	 0.5335350986	-0.7660786648	-0.441057
H	 3.1347302253	-4.5871731506	 0.4497915878	 0.125463
H	 3.4281928303	-4.4260201018	-1.287931634	 0.12485
H	 4.7254901797	-4.079587744	-0.131652195	 0.12706
H	 3.4367663829	-2.103094227	 0.7346289905	 0.094077
H	 1.2243157513	-3.0258974858	-1.1603515345	 0.081141
H	 0.4493651118	-2.0734933625	 0.9833179826	 0.106581
H	 1.4740688524	-0.6396401778	 0.7441069635	 0.090202
H	 0.1936929421	-0.3244109899	-1.2019315253	 0.29489
H	 4.1500294112	-2.1505827379	-2.2248994114	 0.104052
H	 5.6765835006	 1.3868123538	-0.5093928207	 0.203908
30.5594	101.6503	142.152	166.5756	208.3276	229.3076	271.261	332.2393	414.9559	452.8845	477.7217	529.0075	551.52	621.1039	674.2577	716.7706	849.1333	872.9641	931.3343	975.0573	1023.5115	1045.2727	1064.5797	1094.8471	1112.2133	1122.0876	1150.527	1218.4816	1224.3349	1263.9207	1286.5985	1341.4023	1349.0497	1384.5691	1411.1252	1415.3123	1435.5924	1495.43	1496.9554	1497.2378	2233.8968	2974.2676	3008.6803	3022.8046	3031.8466	3066.454	3073.7399	3101.8209	3104.2551	3501.5269	3784.8773
CC1C(CO)OC1C#C	C[C@@H]1[C@@H](CO)O[C@H]1C#C	
InChI=1S/C7H10O2/c1-3-6-5(2)7(4-8)9-6/h1,5-8H,4H2,2H3	InChI=1S/C7H10O2/c1-3-6-5(2)7(4-8)9-6/h1,5-8H,4H2,2H3/t5-,6-,7+/m0/s1
