19
gdb 5551	2.2694609	1.3372533	0.9674321	0.7522	75.88	-0.25664	-0.03295	0.22368999999999997	1262.3464	0.154977	-422.52601	-422.516929	-422.515985	-422.560516	32.556	
C	 1.3289389206	 1.0871138922	 0.6402592761	-0.384584
C	 0.8027988546	-0.28525319	 0.2076119598	-0.200043
C	 1.565661196	-0.8622386723	-0.9786414283	-0.016877
C	 1.335732038	-0.2183844801	-2.3596885049	 0.022682
O	-0.041541109	-0.4340003593	-2.7169462822	-0.242369
C	 0.8884015384	-1.4879322284	-2.942873285	 0.018957
C	 1.077209679	-2.2248318913	-1.5854574572	-0.163311
C	 2.109885614	-3.3215625405	-1.6468865586	 0.129992
O	 3.2766060327	-3.1944678876	-1.3714204885	-0.237065
H	 0.7624246808	 1.4773661294	 1.4910107704	 0.116144
H	 2.3824450404	 1.0337883448	 0.9361669491	 0.117512
H	 1.2483450286	 1.8175045966	-0.172262204	 0.119098
H	 0.8680515554	-0.9878313885	 1.047971038	 0.098353
H	-0.2574809762	-0.2119845015	-0.0596511534	 0.111863
H	 2.6366754695	-0.9436510923	-0.7690921048	 0.107151
H	 1.8327556536	 0.6276655087	-2.8191272286	 0.108359
H	 0.9669489238	-1.889205766	-3.9467706532	 0.114369
H	 0.1348545462	-2.6301243311	-1.201038183	 0.097475
H	 1.7164195338	-4.2996262529	-2.0068771218	 0.082295
68.5829	79.5789	149.6047	167.8154	205.0705	229.057	267.3123	385.8811	407.0401	576.6343	690.3557	694.7164	789.8361	825.0981	859.9156	865.8197	895.6736	927.7733	965.8756	992.6445	1034.7924	1038.6698	1068.4337	1087.1632	1106.7841	1142.2767	1194.8774	1224.9516	1234.4148	1251.992	1277.6975	1331.4104	1351.8903	1383.0306	1397.5237	1412.3407	1425.6651	1489.1769	1498.9482	1505.2006	1820.9095	2871.7039	3027.3329	3031.4313	3057.48	3062.421	3079.7496	3099.714	3105.566	3180.2155	3196.9191
CCC1C2OC2C1C=O	CC[C@@H]1[C@@H]2O[C@@H]2[C@H]1C=O	
InChI=1S/C7H10O2/c1-2-4-5(3-8)7-6(4)9-7/h3-7H,2H2,1H3	InChI=1S/C7H10O2/c1-2-4-5(3-8)7-6(4)9-7/h3-7H,2H2,1H3/t4-,5-,6-,7+/m0/s1
