19
gdb 3811	3.1063202	1.5810883	1.2815194	2.5136	73.59	-0.23236	0.06818	0.30054000000000003	1028.4911	0.157809	-422.532204	-422.524495	-422.523551	-422.56397	30.905	
C	-3.1975718453	 0.2386356083	 3.6079759159	-0.491007
C	-2.4786504509	 0.4262213981	 2.2952411996	 0.296897
C	-0.9721668168	 0.2001335538	 2.2054176018	-0.323665
C	-0.6853739756	-0.1116266382	 0.7007509772	 0.164712
O	 0.4172412862	 0.5782518727	 0.1558138948	-0.446109
C	-1.9981609375	 0.2871376416	 0.0215704726	 0.043276
O	-2.1318247159	 1.7349033397	 0.2602120997	-0.32844
C	-3.0502511239	 1.4405036823	 1.3196948399	 0.0635
C	-3.1437170929	-0.0211579588	 0.9974088988	-0.203196
H	-3.0744027778	-0.7834291621	 3.984311035	 0.121049
H	-2.8119743788	 0.9237697964	 4.3712460858	 0.124259
H	-4.2720316039	 0.4268560726	 3.5061247475	 0.117061
H	-0.3954698782	 1.0777354342	 2.5151738965	 0.104221
H	-0.6702711574	-0.6301884477	 2.8517292216	 0.100529
H	-0.4840478788	-1.1783048304	 0.5532830212	 0.085764
H	 0.1558491641	 1.5091274316	 0.1445221616	 0.285492
H	-2.0879784159	 0.0488194214	-1.0388426352	 0.085572
H	-3.7943229077	 2.1893553499	 1.5676157669	 0.102981
H	-3.982016933	-0.6941948556	 0.8822843588	 0.097104
113.3639	218.1613	236.4861	275.746	317.6567	410.1349	467.7371	502.8905	507.1676	577.4742	662.4516	762.6454	766.1957	829.9206	865.573	883.5391	892.5923	919.6572	962.3541	989.8238	1015.7874	1040.9331	1056.4414	1076.5024	1102.3495	1115.2228	1168.2703	1195.5794	1215.7333	1237.9037	1257.668	1290.2053	1306.6872	1323.8918	1344.5739	1403.3953	1419.4387	1440.8993	1487.7817	1492.853	1502.8344	3022.7371	3044.5077	3054.3495	3085.2229	3087.905	3092.3568	3113.473	3174.3834	3207.5922	3757.2465
CC12CC(O)C3OC1C23	C[C@]12C[C@H](O)[C@@H]3O[C@H]1[C@H]23	
InChI=1S/C7H10O2/c1-7-2-3(8)5-4(7)6(7)9-5/h3-6,8H,2H2,1H3	InChI=1S/C7H10O2/c1-7-2-3(8)5-4(7)6(7)9-5/h3-6,8H,2H2,1H3/t3-,4+,5-,6-,7+/m0/s1
