19
gdb 4566	2.2039319	1.6125963	1.3234058	1.2038	76.2	-0.25346	0.03707	0.29053	1069.9328	0.155319	-422.535793	-422.526438	-422.525494	-422.569447	35.205	
C	-0.0467091456	-0.1574147894	 0.2086489228	-0.432319
C	 1.441770711	-0.0202666435	-0.0990061694	 0.092156
O	 2.1731682509	-0.1828082325	 1.1264892336	-0.283526
C	 3.5475666444	-0.4009463967	 0.7829848876	-0.088101
C	 3.54849839	-1.0394519365	-0.630648315	-0.281449
C	 2.0489631809	-1.1643103677	-0.9673767566	 0.135866
O	 1.5192562007	-2.4230703174	-0.5989252126	-0.436962
C	 1.7253075543	 1.2872397848	-0.7143535729	 0.357559
C	 1.9676434224	 2.346686423	-1.2289636629	-0.483748
H	-0.2575467956	-1.1469050597	 0.6157302359	 0.122139
H	-0.3455950453	 0.6042371775	 0.9320758835	 0.133536
H	-0.6319103537	-0.0221162459	-0.7042265724	 0.129146
H	 4.0914167359	 0.5513798976	 0.7889143382	 0.110411
H	 3.9738012667	-1.045429254	 1.556416063	 0.109742
H	 4.0572235939	-0.3959588277	-1.3513322101	 0.120368
H	 4.0187727006	-2.0241942474	-0.6590339669	 0.114386
H	 1.8328202096	-1.0406111775	-2.029741136	 0.097244
H	 1.6536998115	-2.5189476263	 0.3519900888	 0.284732
H	 2.1739192675	 3.2873556393	-1.6773945086	 0.198819
104.1813	123.2447	140.5609	184.5534	218.5403	278.0241	333.1914	387.8652	411.3188	468.6514	510.0926	559.9982	631.8659	635.5344	666.0464	730.3309	800.9772	821.501	877.5458	905.2959	907.3387	980.6818	1032.3011	1044.3775	1102.2226	1134.6565	1176.2329	1200.4536	1222.5209	1239.5985	1264.7789	1297.0093	1318.1966	1381.7789	1405.6068	1428.301	1480.8164	1482.7259	1484.6243	1522.4086	2225.3435	3029.1198	3061.0846	3077.8677	3086.7977	3109.8009	3129.4247	3136.2806	3151.7429	3498.7679	3784.9958
CC1(OCCC1O)C#C	C[C@]1(OCC[C@H]1O)C#C	
InChI=1S/C7H10O2/c1-3-7(2)6(8)4-5-9-7/h1,6,8H,4-5H2,2H3	InChI=1S/C7H10O2/c1-3-7(2)6(8)4-5-9-7/h1,6,8H,4-5H2,2H3/t6-,7+/m1/s1
