19
gdb 4417	3.0492795	1.2636646	1.0809344	4.172	75.68	-0.27098	0.01381	0.28479	1176.748	0.156267	-422.581602	-422.573034	-422.57209	-422.614988	32.138	
C	-2.9006027602	 1.199730075	-2.0509489418	-0.4162
C	-3.1276194675	 0.1716314559	-0.9547939505	-0.020521
C	-4.1048923604	 0.4908864849	 0.2160889018	-0.237795
C	-3.098180883	-0.1758868211	 1.1951861191	-0.28499
C	-2.0203897256	-0.0615135435	 0.1030167417	 0.433891
C	-0.7891021086	-0.9600111526	-0.0623669668	-0.514438
C	-0.0069379445	 0.3346685452	 0.1482179497	 0.442151
O	 1.1263297642	 0.6894704793	 0.1960185122	-0.319334
O	-1.1322547246	 1.1053627722	 0.2936834515	-0.271289
H	-2.5935519097	 2.1596525857	-1.6272592331	 0.13744
H	-2.1204832255	 0.8779073018	-2.7496408387	 0.118152
H	-3.8184537231	 1.3549361161	-2.6274621817	 0.118275
H	-3.3855722544	-0.8010858446	-1.3913939826	 0.081007
H	-4.185818358	 1.5675063284	 0.3882462155	 0.116716
H	-5.1087746055	 0.0657796784	 0.1598764718	 0.10248
H	-2.8772850484	 0.3361285908	 2.1336773472	 0.120369
H	-3.3457554201	-1.2203972114	 1.4051469933	 0.110498
H	-0.6321973946	-1.7113137609	 0.7143471442	 0.142145
H	-0.6521991905	-1.4153629495	-1.0456267429	 0.14144
84.7983	86.4895	195.5863	215.3806	233.2426	318.5856	395.4205	455.5487	502.8295	520.672	555.2473	668.3629	749.6792	796.6593	849.7335	867.2086	888.5784	931.591	948.4069	967.7422	1039.1538	1056.7848	1084.0588	1127.0179	1157.8621	1172.5797	1187.2064	1208.0732	1234.1003	1255.8557	1265.9938	1280.371	1321.8727	1367.4923	1410.5184	1448.0387	1464.8684	1491.5731	1493.684	1498.4293	1938.461	3030.9711	3035.5622	3062.4442	3067.0033	3079.6616	3096.7837	3115.8197	3119.8663	3130.0085	3135.5768
CC1CCC11CC(=O)O1	C[C@@H]1CC[C@]21CC(=O)O2	
InChI=1S/C7H10O2/c1-5-2-3-7(5)4-6(8)9-7/h5H,2-4H2,1H3	InChI=1S/C7H10O2/c1-5-2-3-7(5)4-6(8)9-7/h5H,2-4H2,1H3/t5-,7-/m1/s1
