19
gdb 4950	1.9801236	1.7568398	1.0662001	3.7357	76.86	-0.23876	-0.01046	0.2283	1161.4735	0.155151	-422.548405	-422.53906	-422.538116	-422.58261	34.26	
C	 2.1204725342	 0.5592159855	 0.9920252865	-0.384727
C	 1.6015386523	 0.7203407193	-0.4449334652	-0.297286
C	 1.9460960192	-0.4672449777	-1.302694944	 0.223454
C	 1.071110791	-1.7191622659	-1.3640915943	 0.057918
O	-0.1852862336	-1.5167140061	-0.7893613966	-0.427854
C	 1.3777585476	-1.032901692	-2.6505294961	-0.190002
C	 2.7788306354	-1.4488146159	-3.1158476499	-0.367073
C	 3.315659471	-0.8224306131	-1.8011158232	 0.35948
O	 4.4192399289	-0.5361871544	-1.4259493652	-0.318851
H	 1.6535306551	-0.3021350591	 1.4797150194	 0.123752
H	 3.2036584671	 0.4101486684	 0.9962841764	 0.141889
H	 1.8937637395	 1.4488716857	 1.5874043085	 0.109116
H	 0.5162375633	 0.8530706004	-0.4405724636	 0.117916
H	 2.0379253496	 1.6202910132	-0.8947091202	 0.103916
H	 1.5063983819	-2.700082576	-1.1588380833	 0.09351
H	-0.8257816233	-2.0398639191	-1.2827068771	 0.294318
H	 0.6052252737	-0.5843676182	-3.2616481502	 0.107116
H	 2.9534343673	-2.5180577362	-3.2747883453	 0.117843
H	 3.1515826299	-0.8923632288	-3.9803852766	 0.135565
62.8599	101.1965	171.879	196.2864	240.2684	275.6172	279.2114	299.3153	364.3261	489.7852	532.0833	567.0635	655.9826	699.2036	770.5833	812.2961	849.2964	933.9318	946.8332	979.4319	996.6859	1014.8753	1061.2138	1089.5563	1103.4707	1137.0909	1170.1048	1207.288	1216.9547	1267.1213	1283.5485	1317.878	1344.451	1376.6661	1408.4714	1434.7622	1460.3252	1482.0893	1497.9328	1510.4138	1867.5546	3035.4043	3040.7735	3048.9512	3064.7073	3090.6119	3108.1765	3109.5289	3125.1159	3204.5684	3808.8569
CCC12C(O)C1CC2=O	CC[C@@]12[C@@H](O)[C@@H]1CC2=O	
InChI=1S/C7H10O2/c1-2-7-4(6(7)9)3-5(7)8/h4,6,9H,2-3H2,1H3	InChI=1S/C7H10O2/c1-2-7-4(6(7)9)3-5(7)8/h4,6,9H,2-3H2,1H3/t4-,6-,7+/m0/s1
