19
gdb 2743	3.1406604	1.3439578	1.1330831	1.9629	76.32	-0.25582	0.06446	0.32028	1130.032	0.156051	-422.506061	-422.497629	-422.496685	-422.538925	32.608	
O	-0.7586078727	-0.0167417607	 0.4498310238	-0.430515
C	-2.1491543281	 0.0821330742	 0.5437840292	 0.008784
C	-3.0141681382	 0.1757841257	-0.7371813887	 0.327679
C	-3.4499053157	-0.9308763399	-1.6434476917	-0.346685
C	-2.4421452813	 0.0925214777	-2.1196827269	-0.308334
C	-3.8098621177	 1.3584634305	-0.1506237403	-0.397171
C	-2.7077705396	 1.4696069212	 0.9066996282	 0.37639
C	-2.4902044899	 2.3044749057	 2.0819668609	-0.269442
O	-1.7732073826	 2.5492665319	 0.8550653885	-0.276985
H	-0.4383743662	 0.8847369622	 0.3041820612	 0.292127
H	-2.4995799404	-0.7109060186	 1.215343588	 0.087201
H	-3.0967015732	-1.9346857356	-1.4275958778	 0.1164
H	-4.4528414022	-0.8894809278	-2.0570562206	 0.11063
H	-1.4045059441	-0.2144112759	-2.2008772877	 0.12541
H	-2.7615330342	 0.8234036594	-2.8557337137	 0.111049
H	-3.9341056117	 2.2411342019	-0.7828004158	 0.119848
H	-4.7797099475	 1.0732153471	 0.2699982504	 0.108925
H	-3.2143641328	 3.0728721943	 2.3481490297	 0.121227
H	-1.8838204219	 1.9286493367	 2.9048806635	 0.123462
66.1181	206.7452	210.7625	227.7795	260.4567	327.0595	368.9131	418.2683	467.2738	498.6975	603.89	699.8422	783.6066	799.2966	806.4164	863.5886	879.7571	901.47	949.0047	963.2754	991.7974	1052.4667	1062.4899	1080.5683	1110.0882	1125.0505	1132.9417	1165.7652	1182.3309	1190.3991	1204.76	1237.8972	1263.6728	1324.3352	1373.9023	1426.921	1446.8795	1463.0859	1477.1366	1503.6831	1534.535	3036.9713	3049.2197	3085.2893	3107.8017	3120.3014	3126.8042	3173.1652	3199.9831	3217.5329	3743.4283
OC1C2(CC2)CC11CO1	O[C@@H]1C2(CC2)C[C@]21CO2	
InChI=1S/C7H10O2/c8-5-6(1-2-6)3-7(5)4-9-7/h5,8H,1-4H2	InChI=1S/C7H10O2/c8-5-6(1-2-6)3-7(5)4-9-7/h5,8H,1-4H2/t5-,7-/m1/s1
