19
gdb 5251	3.4828506	1.3314444	1.2753868	1.9363	74.59	-0.21292	0.07603	0.28895	1087.8977	0.157262	-422.514255	-422.506389	-422.505445	-422.546724	30.263	
C	 1.3144312333	 0.8870998368	 0.391471332	-0.375491
C	 0.7848378129	-0.4642548557	-0.1083504681	-0.305992
C	 1.580892432	-0.9920841797	-1.2574535643	 0.466393
O	 2.967675945	-1.291149606	-1.0359963748	-0.339329
C	 2.9298860917	-2.2319553833	-2.1540322255	 0.057039
C	 3.4439095097	-1.4788826591	-3.3716524445	-0.075815
O	 2.5218626401	-0.3898097373	-3.5164392999	-0.266291
C	 1.3874455147	-0.6997120803	-2.7412388383	 0.035883
C	 1.3920955398	-2.1204638671	-2.2510637451	-0.286863
H	 0.7396466488	 1.2358637594	 1.2542291679	 0.110516
H	 2.3627185201	 0.8012886399	 0.6904093103	 0.139237
H	 1.251379984	 1.6480474901	-0.3925996554	 0.122802
H	 0.8054838368	-1.1994135188	 0.7059613551	 0.108825
H	-0.2612882413	-0.3724270269	-0.4250190837	 0.102918
H	 3.4053161814	-3.184926878	-1.9197646942	 0.088314
H	 4.4458763563	-1.071880712	-3.206928914	 0.119708
H	 3.447766868	-2.1087545995	-4.2749454192	 0.092501
H	 0.4805302044	-0.2144224054	-3.0823211633	 0.106801
H	 0.6525274121	-2.8977582571	-2.388808985	 0.098843
84.3049	129.619	189.6868	256.0654	300.4757	361.188	424.3165	523.8509	640.9975	731.2914	751.5945	780.9388	801.0644	842.1213	886.6882	890.6686	916.6176	939.7833	971.2575	999.0591	1017.7816	1020.2292	1047.8163	1082.3683	1102.8142	1115.809	1171.7405	1198.6411	1224.2332	1259.5894	1270.464	1292.2111	1321.4688	1353.4922	1373.6264	1408.6653	1452.9861	1472.7369	1495.5524	1500.1113	1508.8743	2985.7604	3024.9795	3042.6019	3061.7903	3087.5743	3112.6922	3114.8247	3121.6754	3188.3487	3199.7688
CCC12OC3COC1C23	CC[C@]12O[C@@H]3CO[C@H]1[C@H]23	
InChI=1S/C7H10O2/c1-2-7-5-4(9-7)3-8-6(5)7/h4-6H,2-3H2,1H3	InChI=1S/C7H10O2/c1-2-7-5-4(9-7)3-8-6(5)7/h4-6H,2-3H2,1H3/t4-,5-,6+,7-/m1/s1
