19
gdb 6061	5.4082715	0.4949837	0.4694812	1.9032	84.54	-0.25381	0.0163	0.27010999999999996	2333.7624	0.153967	-422.479958	-422.469575	-422.468631	-422.517752	34.787	
C	-6.3973623989	 0.0945982104	 1.6668646729	-0.386966
C	-5.4314649813	-1.0579877517	 1.4558248355	-0.017658
O	-4.126053857	-0.5278171852	 1.3194054595	-0.240973
C	-3.1546962967	-1.5339338163	 1.1173087588	-0.208657
C	-1.8333233139	-0.9393398418	 0.9734756459	 0.024825
C	-0.7339537205	-0.4661669486	 0.8425260057	 0.171541
C	 0.5848272807	 0.0884271026	 0.7133869541	-0.12315
C	 0.8035042844	 1.4377857081	 0.153931116	-0.157857
O	 1.1023272087	 0.2815674496	-0.6150029441	-0.214292
H	-6.1347579125	 0.6546540102	 2.5686450274	 0.129567
H	-6.3665125674	 0.7807011813	 0.8159491172	 0.130238
H	-7.4193545772	-0.2806166082	 1.7750633926	 0.115987
H	-5.4698511391	-1.7587750274	 2.3075155989	 0.086941
H	-5.7036477281	-1.6334881155	 0.5544145737	 0.087921
H	-3.1507048372	-2.244077993	 1.9629884108	 0.116711
H	-3.3909264146	-2.1255213836	 0.2152269848	 0.12004
H	 1.3247842569	-0.2896079709	 1.4179755938	 0.117304
H	-0.0584209607	 2.0139267735	-0.1764942135	 0.128733
H	 1.6610606047	 2.0174099265	 0.49360672	 0.119748
25.6252	58.9852	64.822	112.0889	136.4767	173.7639	246.8332	280.8914	316.7284	375.5371	473.2011	533.3812	573.2736	746.7638	821.5098	834.8989	899.6318	913.6926	996.9075	1025.1635	1034.7061	1083.9634	1131.6902	1147.6185	1156.8158	1161.6079	1188.2338	1189.9302	1254.0795	1283.8581	1295.8561	1378.7023	1404.4855	1407.6695	1447.1156	1483.3712	1494.3904	1500.479	1519.2435	1531.4416	2369.9519	2942.8127	2954.8123	2962.4448	2975.8984	3046.2294	3086.1019	3115.7029	3120.6535	3124.0743	3180.7406
CCOCC#CC1CO1	CCOCC#C[C@@H]1CO1	
InChI=1S/C7H10O2/c1-2-8-5-3-4-7-6-9-7/h7H,2,5-6H2,1H3	InChI=1S/C7H10O2/c1-2-8-5-3-4-7-6-9-7/h7H,2,5-6H2,1H3/t7-/m1/s1
