19
gdb 1140	3.1486286	1.2129271	1.1425387	2.8036	75.02	-0.23831	-0.01152	0.22679	1154.4608	0.156914	-422.574169	-422.565664	-422.56472	-422.607761	31.618	
C	 1.9588643036	-0.7407104554	 2.0137347502	-0.491189
C	 3.025315452	-0.2857804671	 1.0334098038	 0.373808
O	 4.0318979209	 0.2761877133	 1.4016260592	-0.310502
C	 2.8056074367	-0.5878860308	-0.4501400527	-0.093086
C	 1.4104293978	-0.2273904017	-1.0319098111	-0.257468
C	 1.1848984681	-1.2015841269	-2.2139173527	-0.244429
C	 1.9864275417	-2.4282724248	-1.8322275396	 0.051893
O	 1.7843802746	-2.8549407652	-0.474541925	-0.255397
C	 2.9473075579	-2.0726120039	-0.7813912467	 0.02158
H	 2.3867529034	-0.7859059156	 3.016201997	 0.138298
H	 1.1389536903	-0.0123551273	 2.0234296529	 0.142574
H	 1.5327294169	-1.7043171618	 1.7223072826	 0.160026
H	 3.6010993729	-0.0566817345	-0.9844723373	 0.096076
H	 0.6386257535	-0.3909844279	-0.2782415879	 0.1237
H	 1.3569469757	 0.8204753699	-1.3347296559	 0.111737
H	 0.1253391855	-1.4185559761	-2.379497195	 0.114575
H	 1.5886570423	-0.7976982456	-3.150268889	 0.110201
H	 2.1672162204	-3.2288531576	-2.544759968	 0.099912
H	 3.9007914659	-2.5755680509	-0.6437043746	 0.107689
52.5016	117.2005	168.8009	184.8778	259.56	328.8953	377.4779	421.5066	535.7204	588.925	662.2975	678.5767	796.3109	825.0137	838.6859	871.4958	928.1187	931.9619	953.4848	993.0914	1016.4087	1035.6004	1074.7817	1085.5471	1117.4184	1185.9983	1213.951	1241.2294	1258.2569	1291.9982	1305.5609	1314.5589	1331.6511	1363.1358	1385.5025	1429.5888	1472.0123	1474.0209	1482.4064	1495.4894	1804.1797	3038.9872	3040.3583	3054.546	3080.9369	3089.0694	3108.0071	3129.7583	3147.2873	3155.052	3160.0885
CC(=O)C1CCC2OC12	CC(=O)[C@@H]1CC[C@@H]2O[C@H]12	
InChI=1S/C7H10O2/c1-4(8)5-2-3-6-7(5)9-6/h5-7H,2-3H2,1H3	InChI=1S/C7H10O2/c1-4(8)5-2-3-6-7(5)9-6/h5-7H,2-3H2,1H3/t5-,6-,7+/m0/s1
