19
gdb 5679	3.011954	0.8470614	0.8000105	2.7405	82.15	-0.22798	0.04241	0.27039	1541.6463	0.154406	-422.512242	-422.501828	-422.500884	-422.549244	36.809	
C	 1.4298005868	 0.0446180374	-0.0165971164	-0.501509
C	-0.0251860574	 0.0289012687	 0.0177199945	 0.085709
C	-1.2299306293	 0.0281736336	 0.0495002644	 0.040852
C	-2.6716949562	 0.0375064749	 0.0684473879	 0.201814
O	-3.2846097446	 1.1231070434	-0.5740111382	-0.459289
C	-3.4079318914	-0.4942943096	 1.2767420819	-0.330133
C	-3.4176796297	-1.2908826898	-0.0074382344	-0.113565
C	-4.6383441716	-1.3268515977	-0.8991854032	-0.096943
O	-4.3207360042	-0.9895960419	-2.2560242563	-0.422099
H	 1.8547476544	 0.00925847	 0.9928464803	 0.147717
H	 1.8306909066	-0.8080735331	-0.5762992192	 0.143872
H	 1.798940341	 0.957571529	-0.496977542	 0.152321
H	-3.4436380181	 0.8439018148	-1.487233881	 0.292134
H	-2.8239594769	-0.8667369841	 2.1095473811	 0.123064
H	-4.3125113424	 0.0419655906	 1.5421784689	 0.126768
H	-2.7931965749	-2.1798098653	-0.0297229487	 0.09581
H	-5.1282144148	-2.309385863	-0.8474079152	 0.099757
H	-5.3657293713	-0.5754729101	-0.5859359617	 0.126194
H	-3.661449546	-1.6180123479	-2.5691517328	 0.287527
17.1209	71.6275	98.4746	124.308	187.3131	241.2555	308.8834	320.4633	346.1258	370.5133	439.0383	493.669	519.6071	557.5744	585.7665	671.6971	805.6112	858.689	904.657	941.1286	1004.6821	1026.4721	1037.4218	1051.9301	1054.8983	1071.2547	1104.9765	1122.2538	1234.2547	1258.2506	1295.4865	1355.4553	1392.2496	1398.889	1414.5295	1428.5273	1471.0065	1476.5641	1479.6059	1500.9056	2363.9276	3006.943	3024.109	3082.2717	3086.8839	3109.6001	3139.6422	3146.7255	3235.3238	3730.8255	3811.2357	17.0977	71.6274	98.4738	124.309	187.313	241.2564	308.8859	320.466	346.1275	370.5163	439.0385	493.6699	519.6082	557.5764	585.7676	671.697	805.6113	858.6893	904.657	941.1285	1004.6823	1026.4724	1037.4218	1051.9309	1054.8992	1071.255	1104.9765	1122.2533	1234.2542	1258.2506	1295.4865	1355.4546	1392.2493	1398.8887	1414.5297	1428.5269	1471.0068	1476.5648	1479.6065	1500.9049	2363.929	3006.9431	3024.1089	3082.2716	3086.8838	3109.6002	3139.6423	3146.7255	3235.3238	3730.8258	3811.2363
CC#CC1(O)CC1CO	CC#C[C@]1(O)C[C@H]1CO	
InChI=1S/C7H10O2/c1-2-3-7(9)4-6(7)5-8/h6,8-9H,4-5H2,1H3	InChI=1S/C7H10O2/c1-2-3-7(9)4-6(7)5-8/h6,8-9H,4-5H2,1H3/t6-,7-/m0/s1
