19
gdb 6025	3.5618463	0.9580247	0.8155107	2.6755	76.01	-0.24277	-0.02931	0.21346	1435.8309	0.155247	-422.529983	-422.520912	-422.519968	-422.564373	32.764	
C	 1.282414144	-0.7553516224	-1.0770138482	-0.384347
C	 0.9991182268	 0.0397534582	 0.1997507721	-0.167999
C	 1.6013796652	 1.4505541914	 0.1641235229	-0.200479
C	 1.3304956651	 2.2465030381	 1.4439315762	-0.16016
C	 2.0110856818	 3.6224242348	 1.5795067767	 0.017233
O	 1.7146916922	 4.0896679839	 2.8871595406	-0.23254
C	 2.8502849855	 3.2104595911	 2.7355986565	-0.112596
C	 2.2579979453	 1.8087719886	 2.628996545	 0.420776
O	 2.5408939688	 0.7475463852	 3.1013326269	-0.303749
H	 0.8359164735	-1.753132244	-1.0293383243	 0.116261
H	 0.8756181237	-0.2501418879	-1.960428546	 0.111605
H	 2.3594044421	-0.8808840958	-1.2344541837	 0.116254
H	-0.0852950987	 0.118967608	 0.3520506264	 0.096214
H	 1.3944811216	-0.4934431942	 1.0707215064	 0.131018
H	 2.6846094596	 1.3830028955	-0.0071059399	 0.099134
H	 1.1911079497	 2.0069849559	-0.6895697081	 0.099833
H	 0.2614602892	 2.2814335782	 1.6735829533	 0.108552
H	 2.2469751374	 4.3490433854	 0.811221733	 0.122146
H	 3.8099783275	 3.5592946399	 3.097691784	 0.122844
80.195	89.3939	113.349	171.1247	223.2026	251.3884	317.5229	328.0539	451.8789	515.1037	668.6257	719.7687	748.1184	813.3875	842.5229	851.063	902.6579	915.8123	935.4933	973.3938	1020.2453	1047.9786	1059.7479	1087.4237	1116.3904	1130.6449	1199.638	1212.502	1236.1474	1263.901	1293.4569	1331.9692	1344.5745	1352.6069	1396.7683	1414.128	1487.4352	1495.5997	1500.9407	1512.213	1887.9901	3006.4996	3024.2013	3029.5863	3039.7435	3073.5064	3077.1727	3100.2607	3104.9436	3190.9217	3204.1125
CCCC1C2OC2C1=O	CCC[C@@H]1[C@H]2O[C@H]2C1=O	
InChI=1S/C7H10O2/c1-2-3-4-5(8)7-6(4)9-7/h4,6-7H,2-3H2,1H3	InChI=1S/C7H10O2/c1-2-3-4-5(8)7-6(4)9-7/h4,6-7H,2-3H2,1H3/t4-,6+,7-/m0/s1
