19
gdb 4127	2.3783512	1.7013996	1.3204176	2.7571	74.91	-0.23516	-0.00856	0.2266	1032.5645	0.156876	-422.573605	-422.565062	-422.564118	-422.606279	32.74	
C	-0.6661330493	 2.4804162986	 0.3848435286	-0.505092
C	-0.9642920282	 1.0470012747	 0.0320123401	 0.17734
C	-1.7292968282	 0.0357648438	 0.9675740634	-0.300527
C	-1.0654916452	-1.0712312222	 0.0883663566	-0.139619
C	-1.7243045529	-0.808582276	-1.2846770845	-0.270273
C	-1.6450296368	 0.7572833254	-1.3359493996	 0.115383
O	-2.8817025968	 1.4136663523	-1.5252138997	-0.436255
C	 0.1025807951	-0.069785636	 0.0244177617	 0.405249
O	 1.2945693079	-0.1109486892	 0.10211333	-0.326444
H	-0.2622749354	 2.569799542	 1.397568341	 0.121867
H	 0.0747206744	 2.895941736	-0.3066930872	 0.132347
H	-1.5696433945	 3.0934890244	 0.3124420244	 0.127469
H	-1.3668017681	 0.0562989523	 1.9967485125	 0.120989
H	-2.8233413201	 0.0725995659	 0.9580236146	 0.089959
H	-0.9442000901	-2.0992079903	 0.4228514655	 0.086548
H	-1.1986148896	-1.2889588753	-2.1136477412	 0.118279
H	-2.7676786078	-1.1400293474	-1.3084514624	 0.104729
H	-1.0188758165	 1.1102839261	-2.1600104455	 0.099874
H	-3.4954156978	 1.1133641548	-0.8464406184	 0.278178
128.194	160.1051	186.0773	208.5285	260.7434	278.8614	347.5321	435.3948	449.28	528.7319	597.7874	686.7055	695.0416	778.0023	790.1034	850.0675	865.7587	929.4087	936.9048	988.1919	994.5182	1015.8812	1063.8637	1084.8869	1100.5742	1147.6211	1155.6919	1194.1134	1224.5878	1233.8137	1262.4858	1302.2563	1311.7766	1352.9014	1412.2772	1441.4977	1485.8059	1487.9949	1492.5187	1504.5686	1895.6068	3036.9553	3049.6546	3051.8351	3074.3197	3103.3465	3105.9403	3111.9409	3124.1216	3146.7304	3809.1764
CC12CC(CC1O)C2=O	C[C@@]12C[C@@H](C[C@H]1O)C2=O	
InChI=1S/C7H10O2/c1-7-3-4(6(7)9)2-5(7)8/h4-5,8H,2-3H2,1H3	InChI=1S/C7H10O2/c1-7-3-4(6(7)9)2-5(7)8/h4-5,8H,2-3H2,1H3/t4-,5-,7-/m1/s1
