19
gdb 5112	2.513638	1.5868699	1.2035387	1.0663	74.54	-0.22638	0.06067	0.28705	1096.9442	0.15464	-422.481697	-422.472839	-422.471894	-422.515091	33.842	
C	 1.2561717998	 0.9470287768	 0.4924268373	-0.378619
C	 0.8268171195	-0.4803905731	 0.1241477389	-0.307541
C	 1.5282902017	-0.9925408509	-1.0917242772	 0.369215
O	 2.917089779	-1.3643447799	-1.0187317745	-0.29271
C	 1.9630369262	-2.3099275415	-1.5438577598	-0.076114
C	 1.645533942	-1.9652648688	-3.0312030743	-0.156062
C	 2.4042451692	-0.7298085909	-3.4842140026	-0.352722
C	 1.2072105018	-0.5873096397	-2.5876651803	 0.320947
O	 0.0404881576	 0.070841871	-2.9298551051	-0.454999
H	 0.7372124962	 1.2913135206	 1.3915802154	 0.115646
H	 2.3329327967	 0.9922857613	 0.6797461304	 0.134643
H	 1.0247808449	 1.6496845112	-0.3151243417	 0.108775
H	 1.0312879571	-1.1622434383	 0.9569107697	 0.110803
H	-0.2526141686	-0.5093188743	-0.0646501839	 0.116951
H	 1.9196413986	-3.2851540488	-1.0730315229	 0.105177
H	 1.1626681964	-2.6425229073	-3.722133549	 0.101072
H	 3.4084221263	-0.5338022847	-3.1295553165	 0.133686
H	 2.2033093227	-0.4604340029	-4.5169476277	 0.112257
H	 0.2364765729	 1.0112350203	-3.0090405464	 0.289594
63.3262	127.7915	180.0351	232.4829	259.6653	315.2252	386.5889	415.4213	434.0496	457.1295	556.6925	608.4748	669.9961	740.7371	793.1273	810.5421	864.7	906.5144	912.6972	937.9334	971.2719	992.0241	1001.4274	1031.2321	1067.7805	1090.4435	1103.0216	1159.0926	1214.1742	1233.7613	1247.5134	1298.1228	1311.3401	1348.1368	1388.7733	1405.3332	1459.6374	1467.6044	1487.9986	1497.8599	1508.4991	3037.1338	3039.2997	3076.9494	3107.0499	3118.535	3134.0328	3183.7172	3213.2964	3229.8624	3786.7065
CCC12OC1C1CC21O	CC[C@@]12O[C@@H]1[C@@H]1C[C@]21O	
InChI=1S/C7H10O2/c1-2-7-5(9-7)4-3-6(4,7)8/h4-5,8H,2-3H2,1H3	InChI=1S/C7H10O2/c1-2-7-5(9-7)4-3-6(4,7)8/h4-5,8H,2-3H2,1H3/t4-,5+,6+,7+/m0/s1
