19
gdb 5399	1.9316988	1.697589	1.111772	4.2771	77.31	-0.23663	-0.01258	0.22405	1167.0529	0.154881	-422.534535	-422.525214	-422.52427	-422.56881	33.684	
C	 1.4868254992	-0.1411341875	 0.0178802372	-0.23922
O	 0.0831322328	 0.0215351942	-0.0114355417	-0.236578
C	-0.4263557343	 0.7407392552	 1.0721651753	-0.074414
C	-1.9785143779	 0.8852740467	 1.1103094387	 0.411876
O	-2.8580445616	 0.0943287322	 1.3006836988	-0.320493
C	-1.9037831567	 2.373407558	 1.056209422	-0.234019
C	-1.0457819698	 2.7831174313	-0.1400039923	-0.325594
C	-0.3425491363	 2.2877097275	 1.0712884234	 0.328175
C	 0.6075336809	 3.1044715448	 1.8995699164	-0.503049
H	 1.8143837598	-0.6315531128	 0.9471569393	 0.109877
H	 1.7560558463	-0.7734335606	-0.8311829069	 0.134257
H	 2.0155966492	 0.8186973254	-0.0744573294	 0.110035
H	-0.0763402219	 0.3215677767	 2.0308895861	 0.085925
H	-2.5661773252	 3.0787460036	 1.5430577993	 0.110817
H	-1.0620999963	 2.1878258144	-1.046981535	 0.1385
H	-1.0162637754	 3.8557951546	-0.3051484976	 0.122393
H	 0.6592238439	 2.7336317952	 2.9290556321	 0.126224
H	 1.6214938584	 3.0763067105	 1.4844033513	 0.129346
H	 0.2973730746	 4.1538688107	 1.934980743	 0.125942
70.9437	98.9833	159.7227	183.1163	200.1331	265.109	272.8919	334.0748	347.0167	517.5415	534.649	584.275	659.5804	724.3623	770.6172	854.4268	929.8987	950.3042	986.9094	998.8024	1029.1537	1056.977	1080.6107	1109.3021	1134.8483	1150.9827	1177.0441	1196.506	1222.6471	1248.7054	1275.3796	1351.9342	1399.707	1423.8661	1478.5038	1483.7284	1490.2455	1495.1391	1499.2978	1507.1591	1885.4611	2967.8746	2982.2568	3026.4191	3032.672	3087.6834	3099.5712	3119.9916	3127.5022	3194.8605	3212.8753
COC1C(=O)C2CC12C	CO[C@@H]1C(=O)[C@@H]2C[C@]12C	
InChI=1S/C7H10O2/c1-7-3-4(7)5(8)6(7)9-2/h4,6H,3H2,1-2H3	InChI=1S/C7H10O2/c1-7-3-4(7)5(8)6(7)9-2/h4,6H,3H2,1-2H3/t4-,6+,7-/m0/s1
