19
gdb 4558	2.8201849	1.2316024	0.907652	0.4425	78.71	-0.23769	0.03197	0.26966	1289.8984	0.156017	-422.521147	-422.512237	-422.511293	-422.554505	33.59	
C	 0.1426545281	 0.5855734101	 0.0360535909	-0.410721
C	 1.3543270706	-0.3308997066	 0.050178449	 0.134971
C	 2.6753543621	 0.4244178845	 0.19446192	-0.083603
O	 3.779873722	-0.4621658794	 0.1030048256	-0.252479
C	 3.7732718071	-1.1691999698	-1.1205795928	-0.093855
C	 2.4574741909	-1.9530402411	-1.2718026518	-0.070458
O	 1.3522506476	-1.0572259556	-1.1800688104	-0.278168
C	 2.3980041077	-2.6589717288	-2.5448824612	 0.294079
C	 2.4030383968	-3.2429580537	-3.5943618333	-0.413757
H	 0.0636417833	 1.134884451	 0.9791691752	 0.118108
H	 0.2156333623	 1.3061484175	-0.7841851648	 0.128083
H	-0.7699859724	 0.0010104679	-0.1036360868	 0.132219
H	 1.2797861873	-1.0477371216	 0.8860649507	 0.072691
H	 2.7388231474	 1.1981313406	-0.5889108887	 0.092146
H	 2.7441673872	 0.9081093465	 1.1732665455	 0.109018
H	 3.8746391277	-0.4828936195	-1.9756815955	 0.102933
H	 4.6276798035	-1.8504517331	-1.1050393421	 0.119004
H	 2.4034856947	-2.6812525585	-0.444011453	 0.100544
H	 2.392415056	-3.7633117603	-4.5202136266	 0.199245
111.7349	131.0246	160.1764	203.7387	273.2713	298.7953	345.1427	420.1777	445.6218	469.8978	519.1434	548.9542	592.7931	630.299	677.7922	861.0826	879.7162	932.4473	959.38	972.891	1022.1624	1063.8601	1114.8865	1131.3204	1139.8781	1161.4851	1176.5848	1252.7271	1303.159	1323.4043	1337.9873	1344.6444	1387.3805	1401.262	1414.6344	1428.1054	1477.4782	1483.0458	1491.9242	1499.7818	2244.9579	2953.5771	2958.2201	2974.9523	2992.9123	3044.0273	3089.2611	3103.8483	3116.8007	3126.0753	3503.8756
CC1COCC(O1)C#C	C[C@@H]1COC[C@@H](O1)C#C	
InChI=1S/C7H10O2/c1-3-7-5-8-4-6(2)9-7/h1,6-7H,4-5H2,2H3	InChI=1S/C7H10O2/c1-3-7-5-8-4-6(2)9-7/h1,6-7H,4-5H2,2H3/t6-,7+/m1/s1
