19
gdb 2698	2.8452083	1.1878411	0.9898482	2.1608	75.91	-0.24834	-0.02672	0.22162	1244.3164	0.15557	-422.544986	-422.535836	-422.534891	-422.579485	33.358	
O	-1.1702711885	-2.3749912148	-0.5289028099	-0.42557
C	-1.0822124783	-1.2137221465	 0.2351335637	 0.057628
C	-2.1522086876	-0.049604711	 0.1205392092	-0.099914
C	-0.9836962737	 0.9890282694	 0.2495856001	-0.350092
C	-0.0563148439	-0.1569643607	-0.1705031086	 0.338458
O	 0.919789571	-0.2406171544	-0.8640608729	-0.310633
C	-2.866277054	-0.0032827763	-1.2049565644	 0.057783
C	-4.190086723	-0.6981392196	-1.3789152171	-0.26336
C	-4.1291358684	 0.8094801578	-1.3596681367	-0.285051
H	-0.5475945769	-2.2824349029	-1.2607103356	 0.297043
H	-0.96643686	-1.4763323132	 1.2958557408	 0.106249
H	-2.870293874	-0.0347707193	 0.9434630746	 0.076627
H	-1.0002577162	 1.8607419186	-0.406966773	 0.133244
H	-0.8088451776	 1.3114899082	 1.2798225234	 0.128568
H	-2.2074405903	-0.0197178452	-2.0706420851	 0.084082
H	-4.3892705811	-1.1967207774	-2.320568782	 0.115596
H	-4.612963876	-1.2005543135	-0.515378512	 0.114455
H	-4.2862337454	 1.3449297359	-2.2893665975	 0.114167
H	-4.5118802363	 1.3226978251	-0.4833444769	 0.110721
65.4867	74.6708	133.9418	160.4425	224.4635	270.7387	295.2202	385.3417	418.4152	562.5015	607.4864	728.546	744.0756	761.9743	803.1605	830.5538	875.3878	921.1807	943.9752	962.7114	1017.7105	1048.7836	1061.8808	1066.6329	1081.8803	1132.0538	1135.041	1169.5918	1196.6166	1200.7089	1228.526	1241.1972	1263.1482	1302.3	1335.3697	1406.8079	1436.449	1448.5124	1471.2858	1508.2685	1870.2782	3014.5274	3067.8788	3083.0731	3127.2078	3130.4027	3133.7257	3137.6327	3209.1876	3224.8848	3777.3956
OC1C(CC1=O)C1CC1	O[C@@H]1[C@@H](CC1=O)C1CC1	
InChI=1S/C7H10O2/c8-6-3-5(7(6)9)4-1-2-4/h4-5,7,9H,1-3H2	InChI=1S/C7H10O2/c8-6-3-5(7(6)9)4-1-2-4/h4-5,7,9H,1-3H2/t5-,7+/m0/s1
