19
gdb 1246	3.1489171	0.7397561	0.6189291	2.7974	84.18	-0.27033	-0.06573	0.2046	1773.4367	0.15302	-422.534687	-422.523692	-422.522748	-422.571971	37.539	
C	 1.6601926708	-0.906210906	 2.7791496138	-0.392329
C	 0.2876188863	-0.9201875415	 2.0965274477	 0.015144
C	-0.5794469657	-2.0791867289	 2.6030154797	-0.399245
C	 0.4648435844	-0.9746650826	 0.5540917452	-0.05086
O	 1.3344629471	 0.0409169304	 0.06500944	-0.414561
C	-0.822862316	-0.9439744564	-0.1434149591	 0.067375
C	-1.8905901919	-0.8784834276	-0.7068913965	 0.062156
C	-3.1477287731	-0.7837249717	-1.4035056641	 0.015845
O	-4.0643618731	-1.561688255	-1.270770612	-0.227215
H	 1.5472668256	-0.7771891332	 3.8597670608	 0.11326
H	 2.187067097	-1.8530021773	 2.6099850138	 0.115566
H	 2.2874454676	-0.1003711971	 2.3936071177	 0.128852
H	-0.2275149661	 0.0250160682	 2.3212937465	 0.075794
H	-0.6961921155	-2.0186816113	 3.6891330224	 0.119537
H	-1.5752690014	-2.0724921167	 2.1530910423	 0.13711
H	-0.1118404147	-3.0442931505	 2.3747892993	 0.118274
H	 0.9694404532	-1.9180147687	 0.3048649816	 0.12851
H	 0.8773596466	 0.8851133552	 0.1526104836	 0.285529
H	-3.218032851	 0.0820632307	-2.0931042225	 0.101258
39.7929	62.8493	76.3154	131.4853	202.2774	213.1631	234.5592	246.8651	296.7342	301.5546	342.8276	392.743	438.5641	512.3799	574.6897	649.728	806.796	862.7384	925.3902	939.9953	967.3488	1020.6794	1050.2718	1117.7646	1127.4137	1157.775	1190.5784	1260.799	1289.2883	1346.0421	1363.7904	1399.9129	1413.681	1421.8722	1423.6802	1488.9571	1490.4635	1502.6728	1513.7478	1767.7839	2316.6056	2919.0556	3000.1222	3029.2434	3033.0209	3038.055	3097.3471	3103.1335	3123.7354	3134.1167	3802.7641
CC(C)C(O)C#CC=O	CC(C)[C@H](O)C#CC=O	
InChI=1S/C7H10O2/c1-6(2)7(9)4-3-5-8/h5-7,9H,1-2H3	InChI=1S/C7H10O2/c1-6(2)7(9)4-3-5-8/h5-7,9H,1-2H3/t7-/m1/s1
