19
gdb 926	5.7440072	0.7078924	0.6813568	1.6737	77.25	-0.25131	-0.02522	0.22608999999999999	1625.1259	0.154976	-422.530092	-422.521076	-422.520132	-422.565111	32.413	
O	 1.5441638851	-0.0857502229	 0.2534486027	-0.237367
C	 0.363725106	 0.045196044	 0.0550329504	 0.160901
C	-0.2398935416	 0.7843308424	-1.1187164057	-0.298046
C	-1.1370167004	 1.9400563489	-0.668759224	 0.024856
C	-1.9444713681	 2.7010878076	-1.7664241124	-0.34097
C	-3.1328122029	 2.6955345133	-0.8027728595	 0.469263
C	-3.9822601157	 3.8122039354	-0.3871076183	-0.265539
O	-4.4916205804	 2.7285305375	-1.1819015344	-0.269033
C	-2.4817465715	 1.6136506667	 0.0605390651	-0.337081
H	-0.3833354297	-0.3820112977	 0.764448516	 0.075798
H	 0.5735172494	 1.1398489951	-1.7587962301	 0.123223
H	-0.8440275752	 0.0682149737	-1.6948974767	 0.115318
H	-0.5509276351	 2.6492780115	-0.0761346971	 0.090988
H	-1.5599302135	 3.6652640919	-2.1063078844	 0.111246
H	-2.1413275079	 2.0681414051	-2.6380874986	 0.115539
H	-4.3595174907	 3.8572838805	 0.6339379388	 0.117301
H	-3.9094932094	 4.7707135085	-0.8998394977	 0.117441
H	-2.5207738258	 1.7289935602	 1.1460105148	 0.111952
H	-2.8618361426	 0.6213017883	-0.2054646189	 0.114212
45.1121	67.0149	84.0455	176.4839	288.7793	311.6948	327.97	399.2473	432.9836	492.0112	551.6293	720.3639	823.877	831.4014	844.8982	880.8831	887.6235	945.2101	970.6251	978.8028	1038.7192	1070.7033	1099.8944	1126.4119	1140.2993	1163.2608	1193.0847	1195.5105	1222.8847	1249.0857	1259.2863	1279.5862	1311.494	1369.6544	1430.9391	1437.3013	1461.8522	1467.9861	1493.622	1538.1808	1834.732	2857.3619	3009.4083	3048.1534	3052.4681	3059.5768	3078.8324	3092.8089	3110.5664	3113.9082	3166.2189
O=CCC1CC2(CO2)C1	O=CC[C@H]1C[C@]2(CO2)C1	
InChI=1S/C7H10O2/c8-2-1-6-3-7(4-6)5-9-7/h2,6H,1,3-5H2	InChI=1S/C7H10O2/c8-2-1-6-3-7(4-6)5-9-7/h2,6H,1,3-5H2/t6-,7+
