19
gdb 2252	2.7503856	1.868281	1.6593442	0.2428	73.23	-0.23773	0.06904	0.30677	922.4974	0.158548	-422.539097	-422.531914	-422.53097	-422.570156	29.254	
C	 0.0419652759	-0.0797052008	 0.1506297465	-0.511112
C	 1.5167173926	 0.0438094406	-0.094006188	 0.425151
O	 2.2510036486	-1.1883161658	-0.0183064121	-0.339706
C	 3.2695218878	-0.6073495013	-0.8957343781	 0.056059
C	 4.3669711601	-0.0116057654	-0.0181160494	-0.21375
C	 3.6514103198	 0.7763437088	 1.1121582358	-0.214251
C	 2.3211818418	 1.254911563	 0.5401254288	 0.026385
O	 2.5686317246	 1.8003663628	-0.7973062153	-0.308055
C	 2.2607769222	 0.5162134014	-1.3436317978	 0.016721
H	-0.1503256373	-0.3739430973	 1.1885265653	 0.130502
H	-0.4550552356	 0.8780454512	-0.0309661395	 0.131622
H	-0.3965046169	-0.8366557234	-0.5056600547	 0.1298
H	 3.6120824742	-1.3266528238	-1.6428743979	 0.077055
H	 5.0068340202	-0.7999050785	 0.3876616692	 0.10384
H	 4.9923627702	 0.6555854691	-0.6188623388	 0.113682
H	 3.4639240009	 0.1306431735	 1.9755823279	 0.112742
H	 4.2535430658	 1.6242744652	 1.4503307332	 0.103741
H	 1.7747795219	 1.9630154655	 1.168589416	 0.075172
H	 1.905282973	 0.5379431251	-2.3750431613	 0.084403
198.5974	212.4091	240.4739	270.9191	371.3885	450.9482	483.2781	536.2495	635.8545	728.5143	754.1028	780.8872	816.4792	859.0547	870.1146	884.4819	904.227	943.1072	989.7903	998.4151	1012.6493	1058.4655	1079.9868	1133.4661	1136.9873	1164.4122	1183.1918	1189.3946	1253.8573	1277.3231	1298.7337	1305.8589	1319.0773	1352.831	1366.967	1386.4645	1415.4756	1465.618	1478.538	1482.4315	1491.6504	3035.4437	3052.3184	3059.2741	3077.8642	3085.1039	3094.7607	3104.0312	3104.6645	3109.6224	3120.0941
CC12OC3CCC1OC23	C[C@]12O[C@@H]3CC[C@H]1O[C@H]23	
InChI=1S/C7H10O2/c1-7-5-3-2-4(9-7)6(7)8-5/h4-6H,2-3H2,1H3	InChI=1S/C7H10O2/c1-7-5-3-2-4(9-7)6(7)8-5/h4-6H,2-3H2,1H3/t4-,5-,6+,7+/m1/s1
