19
gdb 4222	2.9097661	1.7420611	1.5522691	1.5093	72.52	-0.22375	0.08124	0.30499	947.5072	0.159613	-422.555821	-422.54874	-422.547796	-422.587339	28.582	
C	 0.0551814105	 2.1974054409	-1.491523329	-0.395086
C	 0.2123994701	 0.6783106654	-1.6362848611	 0.01787
C	-1.0015613303	-0.0918036963	-1.0297101686	-0.241906
C	-0.5122484304	-1.0771243529	 0.0281757145	 0.16787
O	 0.4170973671	-1.981865715	-0.5568986036	-0.263132
C	 1.6272351848	-1.2576961572	-0.5724191892	 0.029446
C	 1.4888253479	-0.196485819	 0.4782368504	 0.044731
O	 0.2040238221	-0.3680042807	 1.0361196176	-0.26465
C	 1.5071878133	 0.197516519	-0.9880740179	-0.129763
H	-0.0009175084	 2.4798226686	-0.4348930304	 0.127172
H	 0.9005365917	 2.7304343472	-1.94021033	 0.108622
H	-0.8600633267	 2.5439404558	-1.9832979866	 0.112514
H	 0.2733808525	 0.4432531514	-2.7053065908	 0.080664
H	-1.7056513178	 0.6013680157	-0.5578297655	 0.104127
H	-1.5479403958	-0.6437498432	-1.8001861769	 0.106207
H	-1.3131157742	-1.6497647653	 0.5008460854	 0.093204
H	 2.4943449807	-1.8766251766	-0.759998218	 0.108593
H	 2.2351171941	 0.0984536807	 1.2036311184	 0.107437
H	 2.4215821889	 0.6665144114	-1.3417737488	 0.08608
67.8086	250.9332	281.6152	346.7539	383.1229	425.1355	565.8387	593.8615	693.004	731.4093	748.2709	781.5222	818.783	849.6499	876.2537	933.0763	944.654	977.9086	999.6826	1017.54	1047.0897	1071.7581	1074.2482	1105.0175	1117.3527	1126.6839	1161.7918	1178.7312	1234.2766	1274.6879	1294.9411	1314.2085	1347.5992	1362.0999	1373.7113	1385.1519	1405.9805	1419.1835	1479.2181	1495.3269	1500.1228	3024.8131	3026.6392	3047.4255	3091.5213	3096.4625	3097.9661	3103.9406	3143.3348	3201.3171	3210.5403
CC1CC2OC3C(O2)C13	C[C@@H]1C[C@H]2O[C@@H]3[C@H](O2)[C@H]13	
InChI=1S/C7H10O2/c1-3-2-4-8-6-5(3)7(6)9-4/h3-7H,2H2,1H3	InChI=1S/C7H10O2/c1-3-2-4-8-6-5(3)7(6)9-4/h3-7H,2H2,1H3/t3-,4-,5+,6-,7+/m1/s1
