19
gdb 4923	2.8089411	0.8726766	0.7461452	1.7293	77.32	-0.26009	0.05161	0.3117	1538.1446	0.154218	-422.502312	-422.492286	-422.491342	-422.538198	35.928	
O	 0.8905074895	 2.5391764541	-0.070569485	-0.414814
C	-0.1885209838	 3.1956347499	-0.7122198142	-0.126013
C	-1.1601385855	 2.1968587881	-1.3118643537	 0.379254
C	-0.628026826	 1.2731732179	-2.3900563487	-0.26097
C	-0.389023202	 1.9914935122	-3.7370183875	-0.365752
C	 0.074552071	 1.0829991494	-4.7780765269	 0.296791
C	 0.4523753004	 0.312447043	-5.6193639487	-0.430128
C	-2.6046639763	 2.4415706246	-1.1903636262	-0.231447
O	-1.9474651884	 1.539638013	-0.2969465077	-0.293602
H	 0.5045568743	 1.9775835537	 0.6117635519	 0.294853
H	-0.7326810499	 3.8524216431	-0.0179574314	 0.093467
H	 0.256350333	 3.8262250008	-1.4893728283	 0.114161
H	 0.3115927943	 0.8320258036	-2.0437391828	 0.130658
H	-1.3406509725	 0.4561713995	-2.5319269994	 0.120228
H	-1.3172260883	 2.478589297	-4.0636039168	 0.129451
H	 0.3467775298	 2.7946975774	-3.6065668546	 0.13727
H	 0.789732991	-0.3583151473	-6.3699989385	 0.195389
H	-2.9669482786	 3.3651353014	-0.7404263759	 0.114444
H	-3.2865834017	 1.9761844985	-1.9011556458	 0.116756
54.1485	56.8534	111.8982	120.1707	219.1516	236.0548	333.3966	363.6691	371.0684	390.6763	453.3784	509.6166	574.453	620.1295	641.2911	753.3382	775.4559	851.1847	908.5995	944.8144	956.4599	1009.1727	1031.3868	1059.2291	1078.1954	1128.6012	1166.0198	1179.3171	1208.3532	1283.5061	1290.4521	1320.0653	1359.3888	1378.1296	1419.6442	1438.2278	1473.9908	1491.138	1493.3642	1528.7606	2241.0966	2999.0875	3019.7761	3051.2667	3062.118	3076.5488	3081.0047	3111.0294	3166.2949	3507.2864	3798.606
OCC1(CCC#C)CO1	OC[C@]1(CCC#C)CO1	
InChI=1S/C7H10O2/c1-2-3-4-7(5-8)6-9-7/h1,8H,3-6H2	InChI=1S/C7H10O2/c1-2-3-4-7(5-8)6-9-7/h1,8H,3-6H2/t7-/m1/s1
