19
gdb 4617	6.1271055	0.5333428	0.5309505	1.0413	82.39	-0.24621	0.03043	0.27664	2069.5657	0.155632	-422.511528	-422.501533	-422.500589	-422.54843	35.272	
O	-6.4626782875	-2.3625286928	 0.3917116415	-0.402472
C	-5.2016466774	-2.3767312701	-0.2650176198	-0.192124
C	-4.2593883496	-1.3880280496	 0.2572167414	 0.104688
C	-3.5027439506	-0.5820645057	 0.7397554939	 0.016358
C	-2.5750631743	 0.3839247898	 1.2888907616	-0.163926
C	-1.736346248	 1.270628573	 0.3102755078	-0.26934
C	-0.549397372	 1.1418564382	 1.3007272757	 0.163584
O	 0.7658158516	 1.072974074	 0.8208941382	-0.430984
C	-1.2271154811	-0.1154607715	 1.9055491994	-0.270838
H	-6.292016586	-2.4027401027	 1.3384540622	 0.286343
H	-4.7413991256	-3.3773950245	-0.2224222948	 0.114695
H	-5.4159945354	-2.1751926067	-1.32075241	 0.138155
H	-3.093970419	 1.0249320621	 2.0098755609	 0.105822
H	-1.5307916627	 0.7251971379	-0.6164534435	 0.103938
H	-2.1144456572	 2.264815658	 0.0650043765	 0.110677
H	-0.5548537212	 1.967432326	 2.0193444226	 0.096492
H	 0.8141363673	 0.3537401995	 0.1820056521	 0.277555
H	-0.8888047565	-1.0232209001	 1.395341793	 0.102813
H	-1.1805098947	-0.2722492847	 2.9849459313	 0.108564
16.9537	58.6993	99.1848	128.2837	216.0663	258.1969	299.877	327.2735	392.9992	435.8544	466.6764	520.6731	529.1048	589.3607	733.7277	806.9552	872.8369	910.2245	960.7212	990.5364	1010.6953	1046.7406	1047.8789	1075.1251	1128.1242	1157.229	1193.9725	1212.4191	1214.8221	1235.141	1257.4293	1284.9949	1337.4047	1355.2982	1360.1107	1418.9445	1441.3361	1470.765	1493.8779	1499.2802	2353.7475	2970.2331	3044.6823	3052.8564	3057.7196	3057.9917	3067.6071	3119.5735	3124.6795	3805.0022	3816.8589
OCC#CC1CC(O)C1	OCC#C[C@@H]1C[C@H](O)C1	
InChI=1S/C7H10O2/c8-3-1-2-6-4-7(9)5-6/h6-9H,3-5H2	InChI=1S/C7H10O2/c8-3-1-2-6-4-7(9)5-6/h6-9H,3-5H2/t6-,7+
