19
gdb 519	3.0373604	1.8498718	1.5297691	2.3661	73.35	-0.25	0.06646	0.31646	924.4722	0.160203	-422.545708	-422.539043	-422.538098	-422.576375	27.701	
C	-0.3968573224	 1.3142792428	-0.0568205773	-0.188375
O	-0.2113170897	-0.0005167073	-0.6488160261	-0.304805
C	 1.1445344003	-0.0684230884	-0.1336171855	 0.120145
C	 2.3441084354	-0.236546648	-1.0842011179	-0.261719
C	 2.9098073976	 1.2079626476	-0.9947754462	 0.070354
C	 3.420464731	 1.5525973701	 0.4425692454	-0.227283
C	 2.0874324738	 1.9037378568	 1.2009327476	-0.311041
C	 1.112258322	 1.4494878606	 0.1263567733	 0.377335
O	 1.7041313178	 1.9746080357	-1.0717374614	-0.28972
H	-0.8621883186	 2.023509921	-0.7467880602	 0.11927
H	-0.9695502545	 1.2589544616	 0.8776031511	 0.100322
H	 1.1847155322	-0.7183655626	 0.7483854731	 0.070497
H	 3.0411781045	-1.0136554128	-0.7595476988	 0.096285
H	 2.0185246435	-0.4505104965	-2.1049488952	 0.121786
H	 3.5894787805	 1.4933355881	-1.7980038422	 0.08009
H	 3.9595608583	 0.7208443956	 0.9041567603	 0.102929
H	 4.0937640779	 2.4113238106	 0.411970932	 0.112184
H	 1.9751875008	 1.3586662516	 2.1414014497	 0.102336
H	 2.0135890095	 2.9746465733	 1.4041908283	 0.109412
171.329	246.176	315.1842	361.0261	410.5216	468.0077	567.8539	654.2761	717.0671	791.8087	806.2063	844.1266	856.2758	859.6497	890.0944	924.8324	937.1675	976.3785	991.0658	1012.5695	1035.3182	1054.8463	1096.9348	1105.2666	1156.3955	1168.215	1195.274	1199.7883	1238.0576	1254.6227	1282.219	1286.9403	1317.3277	1321.3027	1332.9573	1355.1379	1377.0514	1470.7487	1484.0416	1503.3255	1503.9342	3021.2436	3033.2233	3062.6073	3065.566	3071.3116	3096.1931	3105.8159	3118.7156	3120.2524	3126.6562
C1OC2CC3CCC12O3	C1O[C@H]2C[C@@H]3CC[C@]12O3	
InChI=1S/C7H10O2/c1-2-7-4-8-6(7)3-5(1)9-7/h5-6H,1-4H2	InChI=1S/C7H10O2/c1-2-7-4-8-6(7)3-5(1)9-7/h5-6H,1-4H2/t5-,6-,7-/m0/s1
