19
gdb 4823	2.2407244	1.325248	1.0521853	1.831	78.63	-0.23384	0.03535	0.26919	1231.8346	0.153366	-422.513261	-422.503129	-422.502184	-422.54792	37.544	
C	 1.2087733714	-0.1570419686	 1.085050758	-0.383644
C	 0.8806151316	 0.2520828835	-0.3544898134	-0.235184
C	 1.6322592036	-0.5553934933	-1.3866822153	 0.336646
O	 3.0257391959	-0.3752028738	-1.346788553	-0.475034
C	 1.1187774195	-0.784011071	-2.7762693675	 0.082643
O	 2.0082892252	-0.7229645258	-3.8281314733	-0.425158
C	 1.1515653905	-1.9658480079	-1.7760921544	-0.366598
C	 2.1391067831	-2.9887777968	-1.8929549265	 0.302923
C	 3.0310108452	-3.7973676075	-1.952174662	-0.421355
H	 0.9358049464	-1.2009328302	 1.2729178231	 0.118228
H	 2.279318986	-0.0476856657	 1.2796246113	 0.128219
H	 0.6681452971	 0.4669755694	 1.8022772849	 0.115353
H	-0.1943414238	 0.1493207598	-0.5450566463	 0.09892
H	 1.1252375904	 1.310712857	-0.5071703546	 0.112501
H	 3.4379455839	-1.2236836248	-1.1294486211	 0.295021
H	 0.1276195299	-0.425769228	-3.0394211439	 0.109374
H	 2.8647331828	-0.4968466754	-3.4338706515	 0.291421
H	 0.1906120717	-2.2696781228	-1.3708877654	 0.114755
H	 3.7824650196	-4.542502298	-2.0406826692	 0.200967
83.4815	104.7843	136.0975	166.6294	209.5291	270.9828	299.7236	312.6324	346.1038	392.9921	405.425	530.2506	562.4364	577.089	637.2617	666.6039	680.5545	696.6625	785.8263	822.9627	860.3642	962.5627	988.3657	1029.581	1056.5359	1096.3471	1104.2789	1144.8552	1215.4321	1245.4096	1319.4826	1330.6873	1352.9635	1364.0581	1392.4323	1406.6988	1462.9451	1474.7182	1496.2658	1510.1466	2220.9447	3027.7975	3039.3273	3064.6244	3107.867	3119.4707	3145.3522	3154.2453	3501.6092	3709.3587	3724.5202
CCC1(O)C(O)C1C#C	CC[C@]1(O)[C@@H](O)[C@H]1C#C	
InChI=1S/C7H10O2/c1-3-5-6(8)7(5,9)4-2/h1,5-6,8-9H,4H2,2H3	InChI=1S/C7H10O2/c1-3-5-6(8)7(5,9)4-2/h1,5-6,8-9H,4H2,2H3/t5-,6+,7-/m1/s1
