19
gdb 2904	2.8727422	1.4872502	1.1667529	1.1261	75.27	-0.22267	0.06351	0.28618	1113.6226	0.154049	-422.484302	-422.475227	-422.474283	-422.517256	34.695	
C	-0.0786798377	 0.067574528	 0.0490940037	-0.433199
C	 1.4297147499	 0.1956954832	 0.0080308907	-0.08225
C	 2.1662972489	-0.6662136831	-1.0071722784	-0.173627
C	 3.7019558791	-0.4003419733	-0.9873912633	-0.065628
O	 4.0092851089	 0.6218672528	-0.0157506558	-0.288038
C	 3.7934172482	-0.7261070733	 0.4334924096	 0.352111
C	 4.8127602969	-1.4042558733	 1.2846738588	-0.50959
C	 2.2349611059	-0.9945298866	 0.4687507116	 0.297486
O	 1.7053477571	-2.1074606545	 1.0976720952	-0.454255
H	-0.471578329	 0.385978472	 1.0214862255	 0.112767
H	-0.5424482484	 0.6985259737	-0.7160113507	 0.12162
H	-0.399499799	-0.9645940954	-0.1167971747	 0.12754
H	 1.8200683132	 1.1887189805	 0.2020427134	 0.107908
H	 1.6527944512	-1.1999632594	-1.7959008224	 0.095738
H	 4.4016029275	-0.5314963966	-1.8048724402	 0.104564
H	 4.7927988037	-1.0122635371	 2.3083821548	 0.125515
H	 4.6087709187	-2.4780293683	 1.3320120124	 0.138601
H	 5.8157499612	-1.2475437515	 0.879234208	 0.133617
H	 1.4285638834	-1.8514304482	 1.9851165618	 0.28912
151.4614	179.4366	189.0033	203.6434	230.6429	260.5835	303.3392	339.5102	404.1932	456.0059	465.1969	566.1228	631.5762	686.0372	764.741	794.4431	855.3231	892.0055	913.9861	936.3088	979.9017	992.0924	1029.4708	1042.037	1098.7697	1120.0523	1133.1792	1162.5262	1201.5516	1219.983	1257.7181	1282.0093	1354.7929	1399.5776	1412.8427	1428.9691	1468.4288	1484.0229	1495.7668	1498.1233	1507.0344	3031.532	3033.2368	3090.2454	3097.8296	3112.8873	3125.4282	3170.2905	3181.1138	3206.3477	3780.2748
CC1C2C3OC3(C)C12O	C[C@@H]1[C@H]2[C@H]3O[C@@]3(C)[C@@]12O	
InChI=1S/C7H10O2/c1-3-4-5-6(2,9-5)7(3,4)8/h3-5,8H,1-2H3	InChI=1S/C7H10O2/c1-3-4-5-6(2,9-5)7(3,4)8/h3-5,8H,1-2H3/t3-,4+,5-,6-,7-/m1/s1
