19
gdb 950	2.9854809	1.0059974	0.7919075	3.1514	76.94	-0.24589	-0.02888	0.21701	1417.3637	0.1559	-422.603461	-422.594439	-422.593495	-422.638542	32.209	
O	 0.4520450459	-1.0943667961	 0.0452409392	-0.239466
C	 0.514507346	 0.0979794566	-0.1040801402	 0.15895
C	-0.2820668204	 0.8962901123	-1.108065906	-0.293231
C	-1.0491010894	 2.0493723907	-0.4536912164	-0.106106
C	-2.3249211653	 1.7048426887	 0.3328229412	-0.226444
C	-3.117848736	 3.0304330228	 0.35629779	-0.220868
C	-2.8803310492	 3.6352520854	-1.0374358299	-0.315364
C	-1.5138409007	 3.1032239111	-1.4754856493	 0.405724
O	-0.8989862594	 3.4301491454	-2.4573397747	-0.318991
H	 1.1991171967	 0.7189760144	 0.5236884547	 0.06911
H	 0.4193884827	 1.3366818358	-1.8314586149	 0.14352
H	-0.9525301709	 0.2223632493	-1.6494547249	 0.12111
H	-0.3620709468	 2.5952550634	 0.215226965	 0.106859
H	-2.8918869089	 0.9365319394	-0.2078481402	 0.111938
H	-2.1229117277	 1.3133931297	 1.3328653096	 0.112932
H	-4.1757056855	 2.8830795564	 0.5845038957	 0.109997
H	-2.7086739165	 3.6928023994	 1.1278040683	 0.109401
H	-3.6160012394	 3.2653480383	-1.763727722	 0.137944
H	-2.9105590853	 4.7263540673	-1.0864541853	 0.132985
48.1802	68.9077	92.669	162.1782	210.9932	281.332	356.8314	448.635	509.5588	550.7283	567.8891	617.4767	726.5486	795.3273	829.5878	894.7103	914.2398	941.788	977.3301	1015.3398	1034.194	1044.9889	1126.3365	1149.2041	1162.1558	1185.4253	1219.6231	1233.9677	1264.3461	1298.2534	1314.3095	1330.4411	1341.1903	1364.154	1427.9086	1446.6728	1461.0928	1493.2358	1504.6186	1837.0925	1842.6863	2837.2657	2971.0847	3018.7209	3034.4516	3035.8437	3045.8928	3097.4938	3099.5076	3103.3586	3110.1338
O=CCC1CCCC1=O	O=CC[C@@H]1CCCC1=O	
InChI=1S/C7H10O2/c8-5-4-6-2-1-3-7(6)9/h5-6H,1-4H2	InChI=1S/C7H10O2/c8-5-4-6-2-1-3-7(6)9/h5-6H,1-4H2/t6-/m0/s1
