19
gdb 5203	2.3587398	1.6703961	1.1629126	2.6544	75.73	-0.253	0.07392	0.32692	1088.4021	0.156645	-422.484922	-422.476565	-422.475621	-422.517737	32.127	
O	 1.3969106684	 0.5694842309	-0.1149473661	-0.414781
C	 0.1826460468	-0.1538669353	-0.2775241201	-0.213172
C	-0.9457504156	 0.7282291407	-0.7424811276	 0.35341
C	-1.5076197316	 1.9883500077	-0.0377612316	-0.328129
C	-2.3551618256	 1.8540699884	-1.3142980406	-0.057921
C	-2.3808122849	 0.2887341021	-1.2277900571	-0.150395
C	-1.9233531064	 0.1695865098	-2.6966318818	 0.112119
O	-1.1339552515	-0.9315626728	-3.0881333671	-0.437707
C	-1.1338487075	 1.370807964	-2.1700659506	-0.096565
H	 1.2441310588	 1.2449878843	 0.5536819014	 0.281572
H	 0.3795639644	-0.9232051618	-1.0275014599	 0.131964
H	-0.1058490483	-0.6601666269	 0.6594203724	 0.078172
H	-2.0234151332	 1.8324694625	 0.9163287728	 0.089181
H	-0.8461154507	 2.8600514208	 0.0193550125	 0.090452
H	-3.169958639	 2.4861747644	-1.6686389205	 0.071905
H	-3.0973706842	-0.3130269344	-0.6646491704	 0.06621
H	-2.6922733341	 0.3990258669	-3.4494620563	 0.061705
H	-1.7186581212	-1.672698895	-3.274843196	 0.283346
H	-0.4145760844	 2.0036221939	-2.6901047535	 0.078634
82.253	159.6691	194.0684	262.1706	268.9747	306.5264	349.2114	425.7815	448.7887	556.1256	678.4262	741.358	780.4854	846.4738	875.1757	899.2825	909.4989	926.7955	941.8855	1006.6625	1042.0514	1049.7479	1061.9307	1090.7839	1098.0281	1109.3517	1137.8785	1145.2645	1186.0593	1196.7772	1208.3071	1235.7568	1255.6108	1295.2718	1306.2785	1342.2026	1374.8726	1413.9959	1437.5147	1501.6838	1510.4876	2958.9738	2989.8647	3025.8771	3082.5164	3090.4931	3106.7033	3111.4315	3120.5465	3813.4505	3818.7547
OCC12CC3C1C(O)C23	OC[C@]12C[C@@H]3[C@H]1[C@H](O)[C@H]23	
InChI=1S/C7H10O2/c8-2-7-1-3-4(7)6(9)5(3)7/h3-6,8-9H,1-2H2	InChI=1S/C7H10O2/c8-2-7-1-3-4(7)6(9)5(3)7/h3-6,8-9H,1-2H2/t3-,4+,5-,6+,7-
