19
gdb 982	5.6530926	0.7011295	0.6491567	3.1981	78.69	-0.25155	-0.02627	0.22527999999999998	1689.0883	0.155342	-422.561422	-422.552169	-422.551225	-422.597258	32.171	
O	-0.410654668	 5.5904759704	 2.4720099602	-0.239711
C	-0.7252732523	 4.7725551294	 1.6491625958	 0.140768
C	 0.0774682176	 3.5163366635	 1.357619201	-0.150012
O	-0.4968107439	 2.8787781787	 0.2470353083	-0.265579
C	 0.0530586204	 1.5986002885	-0.044675615	 0.117549
C	 1.455197911	 1.6512000596	-0.710210257	-0.236417
C	 1.4168925604	 0.59766885	-1.8468532873	-0.262126
C	-0.0604063414	 0.3572913496	-2.0422928528	-0.060033
C	-0.7951131504	 0.899481642	-1.0747072709	-0.091244
H	-1.6453302294	 4.8638639827	 1.0306548857	 0.095799
H	 1.1295372314	 3.7990419001	 1.1947432257	 0.122851
H	 0.0539665997	 2.873740212	 2.2562943495	 0.118181
H	 0.0787716889	 1.019503536	 0.8962007696	 0.070103
H	 1.5731154847	 2.6531023965	-1.1352401222	 0.117496
H	 2.2741652108	 1.4861856879	-0.0062892702	 0.099806
H	 1.9164465279	 0.9400267114	-2.7600988734	 0.10985
H	 1.9240401774	-0.3310482169	-1.5522259195	 0.112152
H	-0.4508555101	-0.2262704762	-2.8690007278	 0.099232
H	-1.8725050649	 0.8440042549	-0.9748328598	 0.101334
45.5082	60.0724	77.7113	106.9144	152.9973	297.1195	310.6033	393.6894	487.906	578.7013	630.5382	743.0647	758.2027	783.4577	851.843	880.9038	926.1863	972.3003	989.9706	1026.3926	1033.0655	1077.0345	1090.7539	1116.3553	1128.6981	1159.16	1181.3683	1228.4259	1237.8171	1288.1941	1307.4017	1330.2643	1342.7364	1366.999	1393.9109	1416.3313	1479.7258	1484.3928	1498.1583	1691.9632	1844.4093	2898.9413	2932.2702	2951.7578	2999.4103	3017.9603	3051.408	3061.9481	3109.0916	3187.2591	3216.1795
O=CCOC1CCC=C1	O=CCO[C@@H]1CCC=C1	
InChI=1S/C7H10O2/c8-5-6-9-7-3-1-2-4-7/h1,3,5,7H,2,4,6H2	InChI=1S/C7H10O2/c8-5-6-9-7-3-1-2-4-7/h1,3,5,7H,2,4,6H2/t7-/m0/s1
