19
gdb 1230	4.0452001	0.5974261	0.5722871	3.153	83.65	-0.23828	0.03372	0.272	1971.5364	0.154132	-422.509225	-422.498739	-422.497795	-422.546222	37.098	
C	-6.0186137489	 2.0471958286	-2.3688508752	-0.381389
C	-5.8134937728	 2.7890572149	-1.0393905276	-0.01478
O	-5.4938423816	 4.1636785859	-1.2550457636	-0.415836
C	-4.8133653433	 2.1218059251	-0.2010200383	 0.105733
C	-3.9533118583	 1.589308739	 0.456568835	 0.018206
C	-2.9416944283	 0.9624042822	 1.2537961786	-0.204277
C	-2.7570653179	-0.5574720683	 1.2282311172	-0.314595
C	-1.72404122	 0.3380240908	 0.6122263321	 0.111928
O	-0.5195595302	 0.5631866648	 1.2783784393	-0.421083
H	-6.3622326272	 1.0230395854	-2.1957485781	 0.12123
H	-6.7618502495	 2.5778579608	-2.9696467212	 0.12406
H	-5.0795803629	 2.0020694113	-2.9298770088	 0.11412
H	-6.7705961199	 2.8150737008	-0.5036287359	 0.114995
H	-4.5714510206	 4.201458171	-1.5312549545	 0.281363
H	-2.736162788	 1.4260395471	 2.2141577468	 0.124859
H	-2.5094309826	-1.0223540549	 2.1758421664	 0.121623
H	-3.4044131146	-1.1322277723	 0.5764877191	 0.124643
H	-1.6750677386	 0.3787566393	-0.4750831297	 0.098966
H	 0.0192699852	-0.2311737714	 1.1967902183	 0.290233
22.1745	72.4386	77.4753	174.5747	206.7493	255.643	269.0267	289.2658	320.7155	368.9068	410.4133	452.2358	504.6126	564.9604	578.4474	711.7287	807.8968	862.0398	899.9346	928.3215	947.0084	1024.6553	1052.1488	1079.44	1089.1979	1096.5842	1114.3636	1167.0691	1204.5506	1221.4841	1278.3434	1293.2805	1338.5304	1352.1862	1397.1694	1416.62	1428.2438	1481.3612	1487.8611	1491.9279	2352.8415	3032.1583	3038.7945	3113.5953	3114.0855	3125.9277	3141.5942	3155.3662	3238.054	3800.3646	3806.1821
CC(O)C#CC1CC1O	C[C@H](O)C#C[C@H]1C[C@@H]1O	
InChI=1S/C7H10O2/c1-5(8)2-3-6-4-7(6)9/h5-9H,4H2,1H3	InChI=1S/C7H10O2/c1-5(8)2-3-6-4-7(6)9/h5-9H,4H2,1H3/t5-,6-,7-/m0/s1
