19
gdb 1484	2.4124792	2.0330283	1.6053381	0.9793	74.18	-0.23069	0.01205	0.24274	925.53	0.157527	-422.560877	-422.553043	-422.552099	-422.592345	31.754	
C	-0.048213337	-0.1655190294	 0.0332294803	-0.472311
C	 1.4746189984	-0.05766517	-0.0079118081	 0.425749
O	 2.0323319036	-0.7155271017	 1.114347363	-0.486479
C	 2.081038065	 1.3780043151	-0.1050222039	-0.133623
C	 1.5027824338	 1.8002370725	-1.4838042407	-0.086262
O	 1.5102673187	 0.5830246671	-2.2479178617	-0.277484
C	 2.1120266163	-0.4245750081	-1.3858378718	-0.004691
C	 3.5599030895	-0.0387125253	-1.1638232521	-0.06806
C	 3.538046158	 1.0454015993	-0.3824356633	-0.072832
H	-0.443191326	 0.355870764	 0.9107540379	 0.122994
H	-0.5202765958	 0.2306578298	-0.8659695396	 0.142814
H	-0.3406552049	-1.2202929813	 0.1151441882	 0.103745
H	 1.617851131	-1.5815524181	 1.1830223774	 0.274756
H	 1.8662954706	 2.0577705405	 0.7190157292	 0.071916
H	 0.4754757482	 2.1758580662	-1.4088543942	 0.097928
H	 2.1202572044	 2.5603600222	-1.9755713133	 0.100312
H	 1.8932081575	-1.4023767008	-1.81489599	 0.064786
H	 4.4146942661	-0.511316301	-1.6287072051	 0.098725
H	 4.3751168927	 1.6565822491	-0.0700716021	 0.098016
190.3337	225.3089	242.1632	266.4892	319.7611	370.594	385.0097	436.1575	521.4773	546.3706	623.8462	715.0755	746.4327	779.0034	856.0948	886.9055	900.3861	935.7593	953.2107	958.7411	963.3709	973.3718	1003.9245	1058.0763	1096.5593	1124.8427	1153.1109	1183.5922	1206.2077	1222.3659	1264.8881	1279.6475	1290.3308	1344.6111	1356.2373	1390.5935	1403.0567	1486.0728	1501.1221	1527.3954	1640.5139	3022.1408	3026.2154	3060.7465	3090.8594	3121.1696	3124.6659	3149.2434	3203.922	3229.9274	3813.0164
CC1(O)C2COC1C=C2	C[C@]1(O)[C@@H]2CO[C@H]1C=C2	
InChI=1S/C7H10O2/c1-7(8)5-2-3-6(7)9-4-5/h2-3,5-6,8H,4H2,1H3	InChI=1S/C7H10O2/c1-7(8)5-2-3-6(7)9-4-5/h2-3,5-6,8H,4H2,1H3/t5-,6-,7-/m0/s1
