19
gdb 5309	2.7473492	1.1952141	0.8808138	2.2047	80.6	-0.23575	-0.04189	0.19385999999999998	1312.3229	0.155934	-422.60142	-422.591724	-422.59078	-422.637	34.119	
C	 0.2406481727	 2.1553139843	 1.5979484571	-0.503009
C	 1.0266905527	 1.5481804271	 0.479821526	 0.096226
C	 1.2606205708	 0.2579602026	 0.1728174354	 0.177893
C	 0.7804016601	-0.9619431053	 0.9037386872	-0.167226
O	 1.8295834804	-1.8918025001	 1.1567060089	-0.40731
C	 2.1190288124	 0.0938194453	-1.0658330381	-0.298138
C	 2.4031492483	 1.5298417796	-1.5359883261	-0.343922
C	 1.6993734219	 2.4276929613	-0.5128221123	 0.347839
O	 1.6954404511	 3.6384311514	-0.5022849834	-0.331766
H	 0.0155087747	 1.4425828118	 2.3948229224	 0.119297
H	 0.7904502922	 3.0022742491	 2.019920141	 0.147259
H	-0.7090737453	 2.5603251767	 1.2292870953	 0.142564
H	 0.2542921671	-0.6881175911	 1.8281636086	 0.10165
H	 0.063569901	-1.504923545	 0.2742825471	 0.126061
H	 2.4536814578	-1.4689186579	 1.755969377	 0.287005
H	 3.0278716488	-0.4686997364	-0.829093564	 0.123706
H	 1.5907186804	-0.5030247888	-1.8201501085	 0.116264
H	 3.4686490129	 1.7754812174	-1.5660772235	 0.132016
H	 2.00549537	 1.739690698	-2.5335202	 0.13359
49.5969	67.5886	95.4909	119.4416	220.2406	261.7787	281.2556	323.4676	373.9783	478.0014	528.8496	594.5851	617.0274	663.8397	707.3967	830.2545	861.9243	931.7851	1001.1746	1013.0132	1034.0518	1060.1208	1066.4325	1109.4931	1145.0145	1161.5475	1211.0144	1232.2836	1266.5424	1310.9857	1347.4444	1377.2259	1409.8969	1414.1787	1452.9015	1472.0965	1481.6391	1486.7648	1495.542	1705.7086	1804.7067	3009.9896	3031.7571	3037.0861	3050.854	3064.2367	3071.0567	3091.5379	3104.2216	3123.6565	3810.5442
CC1=C(CO)CCC1=O	CC1=C(CO)CCC1=O	
InChI=1S/C7H10O2/c1-5-6(4-8)2-3-7(5)9/h8H,2-4H2,1H3	InChI=1S/C7H10O2/c1-5-6(4-8)2-3-7(5)9/h8H,2-4H2,1H3
