19
gdb 5034	2.484059	1.58557	1.3182526	2.3872	75.33	-0.22389	-0.0172	0.20669	1065.4577	0.15678	-422.552773	-422.544379	-422.543435	-422.58571	31.737	
C	 1.2380159936	-0.1905347857	 1.0147113915	-0.388978
C	 0.8152415897	 0.1963172599	-0.4088609205	-0.299618
C	 1.5430273342	-0.5910871571	-1.460876454	 0.33481
C	 1.2488418948	-0.5753774752	-2.9942472932	-0.305286
C	 2.1717846764	-1.8434827406	-3.0035575266	-0.195103
C	 3.4762134393	-1.2234202114	-2.48005367	-0.082627
O	 2.9700219588	-0.3635123007	-1.4250085179	-0.317977
C	 1.4895804331	-2.1326253674	-1.6446858268	 0.415375
O	 0.9977207348	-3.0719507082	-1.0964868581	-0.323706
H	 1.0266497443	-1.2463575704	 1.2069490959	 0.139334
H	 2.309081371	-0.026634515	 1.1564922359	 0.135477
H	 0.6968576108	 0.4064229885	 1.7541260842	 0.110658
H	-0.2595972901	 0.0279568824	-0.5429702736	 0.108335
H	 0.9944451833	 1.2643635158	-0.5830518977	 0.110133
H	 0.2090183446	-0.7904504212	-3.2473119648	 0.12108
H	 1.6224424196	 0.3006068514	-3.5288753339	 0.116713
H	 2.2178560481	-2.5593292283	-3.8200618162	 0.096042
H	 4.1698473388	-1.9633991956	-2.0646272022	 0.116143
H	 4.0025907948	-0.6188334114	-3.2276644522	 0.109195
86.0792	139.7455	175.4362	199.748	272.3905	296.2726	396.1663	444.0223	488.2248	599.0018	655.252	716.1853	773.8129	786.4535	851.4757	871.9557	921.2909	934.3704	958.4453	983.6898	994.1429	1028.1085	1044.5212	1082.2783	1113.511	1147.2475	1168.8015	1188.0304	1226.0993	1248.3069	1296.0336	1326.1789	1360.0214	1398.5879	1410.069	1474.7106	1476.3608	1497.5492	1512.9782	1530.8465	1901.6691	3024.0561	3031.4563	3047.987	3066.5153	3069.1203	3071.3743	3118.6127	3129.4516	3142.5768	3160.9429
CCC12CC(CO1)C2=O	CC[C@@]12C[C@@H](CO1)C2=O	
InChI=1S/C7H10O2/c1-2-7-3-5(4-9-7)6(7)8/h5H,2-4H2,1H3	InChI=1S/C7H10O2/c1-2-7-3-5(4-9-7)6(7)8/h5H,2-4H2,1H3/t5-,7-/m0/s1
