19
gdb 4602	3.5171249	0.6735271	0.6620192	3.0535	83.09	-0.23814	0.03117	0.26931	1774.0701	0.153889	-422.507566	-422.49686	-422.495916	-422.544678	37.464	
C	 4.4308809044	-0.7336044963	-1.3742405428	-0.456367
C	 3.960502732	-0.0791924282	-0.083557122	 0.121513
C	 4.8027264533	-0.2830119627	 1.1816103742	-0.357209
C	 4.7861397547	 1.0560851671	 0.5038093458	 0.087192
O	 5.8909055727	 1.4765341165	-0.2371895736	-0.422033
C	 2.5343736937	 0.0025537162	 0.0893097033	-0.025094
C	 1.3347807361	 0.0472035674	 0.2121974865	 0.102793
C	-0.1139542504	 0.167850945	 0.3597045921	-0.192499
O	-0.7007778482	 1.1252051405	-0.5135952224	-0.403605
H	 4.1280550862	-1.7844746838	-1.4023498565	 0.122296
H	 3.9919390301	-0.2305265476	-2.2407337841	 0.129911
H	 5.516802665	-0.6717352476	-1.4610789091	 0.128431
H	 4.288615827	-0.3999582869	 2.128229179	 0.122164
H	 5.6970221665	-0.8853292081	 1.0589284215	 0.118507
H	 4.2239992976	 1.8559389777	 0.9836845749	 0.095939
H	 6.6152969639	 1.6409044014	 0.3755911339	 0.291179
H	-0.6002974391	-0.7853520267	 0.1228616856	 0.137568
H	-0.3533286314	 0.3900887927	 1.4126147341	 0.113784
H	-0.1783626039	 1.9310498632	-0.4450844503	 0.285531
21.01	75.4073	93.3808	173.394	178.5295	242.5388	254.8535	264.5266	301.0546	325.5064	361.2851	467.8902	525.8867	540.1352	559.46	659.3158	793.0273	830.5205	912.41	950.9999	985.1674	1008.4659	1041.4804	1045.306	1088.4621	1104.7869	1121.1645	1181.4133	1215.2088	1275.3047	1299.2682	1326.5258	1352.4417	1405.2243	1416.6698	1422.1967	1475.0096	1487.8907	1492.9746	1500.6856	2349.2745	2968.8735	3046.4911	3057.1631	3111.0098	3112.9056	3133.8363	3141.3095	3229.8579	3805.766	3817.1951
CC1(CC1O)C#CCO	C[C@]1(C[C@H]1O)C#CCO	
InChI=1S/C7H10O2/c1-7(3-2-4-8)5-6(7)9/h6,8-9H,4-5H2,1H3	InChI=1S/C7H10O2/c1-7(3-2-4-8)5-6(7)9/h6,8-9H,4-5H2,1H3/t6-,7-/m1/s1
