19
gdb 3227	2.3554358	2.0415427	1.5236008	2.4437	72.92	-0.22619	0.0726	0.29879	947.019	0.158394	-422.560703	-422.553152	-422.552207	-422.592077	30.659	
C	 0.6507914148	-0.4031134792	-0.6357592071	-0.415325
C	 0.9278134841	 0.1997826393	 0.7376138973	-0.054987
C	 1.5174569361	 1.63420163	 0.7319973192	 0.042751
C	 1.8275771629	 1.8876801058	 2.2267426444	-0.233769
C	 2.6962991523	 0.6485623595	 2.4016776441	-0.199545
C	 3.2990818547	 0.4305548957	 1.0215463373	 0.044279
O	 2.8273309226	 1.4486725141	 0.1603947166	-0.258182
C	 2.1354340044	-0.4179134636	 1.4509321244	 0.358957
O	 2.2872351169	-1.782079219	 1.6402575372	-0.478141
H	 0.4860053731	-1.4817733634	-0.5547809905	 0.119264
H	-0.2369465454	 0.0437267194	-1.0950715906	 0.105664
H	 1.5025783593	-0.2399290635	-1.3014105309	 0.135558
H	 0.0287843785	 0.1651992909	 1.3656285371	 0.063763
H	 0.9811574276	 2.4028871746	 0.1786146945	 0.079995
H	 2.3754658166	 2.821677137	 2.3799893617	 0.106524
H	 0.92638269	 1.8896441644	 2.8465773765	 0.097629
H	 3.2319694892	 0.3923930075	 3.3058046761	 0.090987
H	 4.2963383101	 0.0671394913	 0.8205082787	 0.110201
H	 1.7133275421	-2.0516073907	 2.3660780038	 0.284376
193.0617	203.7696	225.4748	286.6438	328.7165	386.0735	427.1094	529.8207	570.9633	610.0353	696.617	728.5277	763.6847	861.1255	883.7822	892.8244	914.8016	940.178	946.8911	992.645	1010.1033	1027.5046	1042.1621	1075.3616	1092.0571	1118.763	1153.6754	1166.6783	1206.6026	1231.6398	1267.836	1275.2573	1299.2918	1309.211	1349.3297	1373.767	1404.3165	1454.2988	1488.4786	1493.5458	1504.4089	3028.5358	3039.6472	3056.4621	3104.6803	3105.4521	3123.386	3142.7204	3209.345	3231.8107	3788.0117
CC1C2CC3C(O2)C13O	C[C@@H]1[C@H]2C[C@@H]3[C@H](O2)[C@]13O	
InChI=1S/C7H10O2/c1-3-5-2-4-6(9-5)7(3,4)8/h3-6,8H,2H2,1H3	InChI=1S/C7H10O2/c1-3-5-2-4-6(9-5)7(3,4)8/h3-6,8H,2H2,1H3/t3-,4-,5-,6+,7+/m1/s1
