19
gdb 1516	3.4892981	1.0592649	0.9568117	2.693	76.56	-0.24388	-0.02768	0.2162	1286.7459	0.152776	-422.554202	-422.544737	-422.543792	-422.588497	35.079	
C	-3.8318774339	 1.4632482584	-1.2364214332	-0.455692
C	-3.3389884921	 0.1370521058	-0.7014102916	 0.284577
C	-3.9192791752	-1.0933267213	-1.3627758207	-0.455691
O	-3.2533498271	 0.0627555043	 0.7425675375	-0.323221
C	-2.0488386997	 0.058398631	-0.0023962545	 0.384713
C	-1.0298502328	-1.095403656	 0.0634365554	-0.438207
C	 0.0740149972	-0.0203654092	 0.1230526274	 0.403099
O	 1.2684470518	-0.0602201334	 0.1033301923	-0.287496
C	-0.9538486095	 1.1280018795	 0.1733296519	-0.438206
H	-3.3941354798	 2.2979653904	-0.6850539507	 0.130605
H	-3.5796536699	 1.5719606647	-2.2969431507	 0.122031
H	-4.9214580653	 1.5280108991	-1.1448455155	 0.129272
H	-3.5412660389	-2.0061643249	-0.897791488	 0.130604
H	-5.0110413132	-1.0924219599	-1.2743388716	 0.129272
H	-3.6714944685	-1.1139782763	-2.4296954972	 0.12203
H	-1.100268974	-1.6885757906	 0.9814855711	 0.146233
H	-0.9749651288	-1.7755032898	-0.7915552861	 0.134922
H	-0.9867885453	 1.6312740484	 1.1455736057	 0.146233
H	-0.8498855851	 1.8836838996	-0.6106951714	 0.134922
47.4477	149.6507	176.1621	180.6855	187.7969	263.8471	349.1645	389.4309	415.2194	442.6912	460.4605	520.7368	529.5404	650.68	686.1902	719.9398	837.4727	914.7256	946.5639	955.4459	965.6008	987.8194	1020.8008	1075.741	1124.0244	1150.7188	1162.0008	1180.2001	1204.1574	1233.3526	1252.1213	1407.4151	1412.9429	1417.1398	1426.3092	1469.1643	1473.3221	1484.8238	1499.342	1530.2414	1901.7378	3033.9951	3039.0756	3050.8747	3055.8261	3095.2397	3100.292	3106.8306	3108.3807	3129.7816	3131.5338
CC1(C)OC11CC(=O)C1	CC1(C)OC21CC(=O)C2	
InChI=1S/C7H10O2/c1-6(2)7(9-6)3-5(8)4-7/h3-4H2,1-2H3	InChI=1S/C7H10O2/c1-6(2)7(9-6)3-5(8)4-7/h3-4H2,1-2H3
