19
gdb 3531	2.069666	1.4526181	0.9883826	2.4494	77.76	-0.24405	-0.03586	0.20819	1254.9408	0.15364	-422.589405	-422.57963	-422.578686	-422.624755	34.763	
C	-3.2826948984	 0.6402534229	-0.9392984619	-0.414669
C	-2.1175880645	 0.4175458656	 0.0133957452	 0.015377
C	-0.7063312766	 0.9046958468	-0.4521261561	-0.360269
C	-0.1554666162	-0.4816721868	-0.1162547691	 0.393754
O	 0.9370431207	-0.9603801346	-0.0252994715	-0.290585
C	-1.5814683084	-1.0349037726	 0.1579325641	-0.236722
C	-1.7487277401	-1.7542884816	 1.4885874661	 0.370238
C	-1.0721976857	-3.1042276473	 1.5785652892	-0.486436
O	-2.3447000078	-1.2459864381	 2.4098641646	-0.293815
H	-4.1911327078	 0.1538507811	-0.5695604992	 0.129091
H	-3.4994989173	 1.707381883	-1.0542105234	 0.123129
H	-3.0657691377	 0.2360564694	-1.9354122365	 0.11114
H	-2.3582281607	 0.8008929223	 1.0078001792	 0.109814
H	-0.6427399237	 1.110805095	-1.5270264573	 0.13202
H	-0.2453228483	 1.7375362519	 0.0858251508	 0.136905
H	-1.8755647722	-1.7039264354	-0.6610496552	 0.113446
H	-1.1541993622	-3.5003728294	 2.5912824666	 0.140864
H	-1.5316891168	-3.8038832806	 0.8707163909	 0.137457
H	-0.0204053363	-3.0012734316	 1.2871227034	 0.169261
49.003	69.8011	132.2826	161.542	179.5134	234.7824	255.298	361.3808	389.0884	435.7791	484.7676	575.6416	600.7267	631.5353	715.4653	807.5201	886.6972	896.3141	945.1467	969.4564	989.9995	1053.4708	1064.291	1110.1357	1121.8251	1146.7034	1166.8597	1203.4258	1223.2936	1254.5108	1298.7082	1381.3888	1386.6736	1413.7293	1438.1348	1467.5769	1473.9677	1494.5321	1499.1825	1805.0858	1881.0457	3025.3426	3032.3778	3039.2409	3046.7254	3079.9959	3095.8752	3097.5145	3102.9633	3109.2975	3153.7929
CC1CC(=O)C1C(C)=O	C[C@@H]1CC(=O)[C@H]1C(=O)C	
InChI=1S/C7H10O2/c1-4-3-6(9)7(4)5(2)8/h4,7H,3H2,1-2H3	InChI=1S/C7H10O2/c1-4-3-6(9)7(4)5(2)8/h4,7H,3H2,1-2H3/t4-,7-/m1/s1
