19
gdb 2090	2.8723735	1.6763765	1.424302	2.5676	74.2	-0.23587	0.07212	0.30799	986.2752	0.157067	-422.529199	-422.521427	-422.520483	-422.560746	31.387	
C	 0.1351315453	 0.2119560706	 0.7165067305	-0.50938
C	 1.6160512567	 0.1988050337	 0.4487218342	 0.320258
C	 2.5209420425	-1.0468987438	 0.4964163119	-0.36742
C	 3.5322171407	-0.143495198	-0.2694320974	 0.372563
O	 4.498906462	-0.6401072548	-1.1357888984	-0.49024
C	 3.9067664696	 0.8927164569	 0.8167780073	-0.28676
C	 2.4818661593	 1.4686513968	 0.8662521672	 0.028614
O	 2.3513177064	 2.0171591809	-0.4814564345	-0.296892
C	 2.2841458943	 0.6421449463	-0.8762017451	 0.024787
H	-0.0787054666	 0.0499411203	 1.7793895457	 0.117105
H	-0.2970986045	 1.1762275463	 0.4288143069	 0.131955
H	-0.3783730736	-0.5732022366	 0.1515152738	 0.117923
H	 2.8262977418	-1.4632432237	 1.4618260205	 0.086934
H	 2.1158516264	-1.8379061412	-0.1422799165	 0.102676
H	 5.2186484742	-1.0132448765	-0.6157023937	 0.281007
H	 4.2506395658	 0.4299749393	 1.7467178839	 0.089815
H	 4.6195711744	 1.6476720956	 0.4786282791	 0.111688
H	 2.1887219574	 2.161353853	 1.655377952	 0.077778
H	 1.9508719279	 0.440770015	-1.8934367974	 0.087588
198.7017	219.1027	224.9528	251.6063	283.8947	374.5726	432.5778	474.373	551.8656	592.2127	623.8039	684.8189	752.0439	822.4896	848.6443	884.6436	902.3586	916.6132	940.7687	979.6444	1007.5985	1041.1552	1048.7365	1072.0674	1108.8101	1150.9412	1161.4632	1185.0679	1195.5621	1214.1685	1223.9478	1250.8632	1304.1239	1331.0147	1350.0071	1386.5176	1412.2968	1476.656	1493.0257	1493.7659	1505.4116	3025.5654	3040.9402	3056.6824	3088.311	3099.6896	3100.8713	3118.4734	3122.6216	3135.3814	3804.3224
CC12CC3(O)CC1OC23	C[C@]12C[C@]3(O)C[C@H]1O[C@H]23	
InChI=1S/C7H10O2/c1-6-3-7(8)2-4(6)9-5(6)7/h4-5,8H,2-3H2,1H3	InChI=1S/C7H10O2/c1-6-3-7(8)2-4(6)9-5(6)7/h4-5,8H,2-3H2,1H3/t4-,5-,6+,7-/m1/s1
