19
gdb 928	4.2732995	0.9426351	0.898792	3.1619	75.42	-0.24667	-0.02107	0.2256	1325.0798	0.157404	-422.547884	-422.539814	-422.53887	-422.581566	30.065	
O	 1.5540403844	-0.179774606	-0.0555162626	-0.23978
C	 0.3797350673	 0.0817136009	 0.0070827021	 0.154263
C	-0.4067586863	 0.7778609948	-1.0790738657	-0.298534
C	-1.1514654392	 2.0278947802	-0.5829148786	 0.009876
C	-1.8951525253	 2.7977365668	-1.729749872	-0.250216
C	-3.3244254719	 2.6688267067	-1.1675906793	 0.085351
C	-3.1715226905	 3.0565288056	 0.319035483	-0.233125
C	-2.4132502734	 1.7143877694	 0.2666901867	 0.064528
O	-3.3602463673	 1.2634604553	-0.7512370858	-0.296407
H	-0.2102898047	-0.1895284587	 0.9140655974	 0.069731
H	 0.2842018705	 1.0249382099	-1.8904376733	 0.118588
H	-1.1574132403	 0.075820502	-1.4685304473	 0.135436
H	-0.4628155774	 2.6827845568	-0.039173221	 0.082766
H	-1.567435239	 3.8346342392	-1.8394673138	 0.10439
H	-1.7980733543	 2.2959496765	-2.6951864819	 0.112294
H	-4.1679006033	 2.9710533925	-1.7874810935	 0.084462
H	-2.6306106613	 3.9693625331	 0.5821675125	 0.097228
H	-4.1113338664	 2.9719657581	 0.8647120491	 0.115311
H	-2.3270350517	 1.0422443669	 1.1204735738	 0.083838
47.7474	81.8253	152.2815	198.6693	348.69	376.0498	438.5857	524.1055	584.9309	699.796	794.7525	811.4572	836.7197	852.4167	876.3811	895.4246	937.83	960.0161	969.9529	1027.3584	1029.2267	1046.0026	1070.4506	1106.5225	1118.6866	1167.7237	1194.2296	1219.472	1232.5165	1248.0618	1268.8794	1274.07	1312.3634	1322.6292	1329.2108	1373.0699	1436.0479	1466.0235	1481.0201	1496.0492	1832.5204	2854.9416	3021.8549	3052.6037	3065.3546	3069.4954	3096.3818	3117.2854	3121.5537	3129.4057	3147.636
O=CCC1CC2CC1O2	O=CC[C@H]1C[C@@H]2C[C@H]1O2	
InChI=1S/C7H10O2/c8-2-1-5-3-6-4-7(5)9-6/h2,5-7H,1,3-4H2	InChI=1S/C7H10O2/c8-2-1-5-3-6-4-7(5)9-6/h2,5-7H,1,3-4H2/t5-,6+,7+/m0/s1
