19
gdb 924	3.8187493	0.6678889	0.6034359	1.9808	77.71	-0.24974	-0.02713	0.22260999999999997	1788.4901	0.153535	-422.559095	-422.549045	-422.548101	-422.596566	34.036	
O	 1.4038826877	 0.0985198492	 0.0987799598	-0.235582
C	 0.2082562638	 0.0761064442	 0.2340530472	 0.16665
C	-0.7277071246	 1.2076259295	-0.1375684785	-0.301749
C	-1.5802654612	 1.6354609988	 1.0452183887	-0.029308
C	-2.1323353232	 3.0377748728	 1.1223690022	-0.297231
C	-1.0338497993	 2.604571572	 2.0651634085	-0.001484
C	-1.323422764	 2.4174438811	 3.5442820101	-0.308826
C	-1.2669216053	 3.7328705636	 4.2948231787	 0.16949
O	-2.1437174235	 4.1610606105	 4.9989574969	-0.235674
H	-0.3018037917	-0.8155964049	 0.6699248367	 0.071875
H	-0.1297292743	 2.038955264	-0.5225757653	 0.12032
H	-1.3794928985	 0.853967207	-0.950020509	 0.12328
H	-2.2250089268	 0.8529584972	 1.4389443727	 0.093594
H	-1.8815644397	 3.7293879411	 0.3252708861	 0.119325
H	-3.1290471997	 3.169883967	 1.5302364679	 0.126458
H	-0.0439643254	 2.9993967437	 1.8481127821	 0.100331
H	-2.3088499964	 1.9710888024	 3.7082026949	 0.119853
H	-0.5698990465	 1.748589131	 3.9861888719	 0.125243
H	-0.3223181214	 4.3066199597	 4.1425353685	 0.073434
33.0395	49.9271	62.1033	86.3342	131.3461	187.6057	321.466	352.8891	357.182	429.8588	507.3259	521.6754	752.077	760.5137	854.2342	867.733	896.276	899.9213	995.3261	1006.822	1050.0071	1072.6163	1085.9351	1093.7264	1123.4423	1162.9474	1174.2854	1213.8517	1220.215	1256.5901	1286.9921	1293.1624	1367.8319	1429.0154	1429.5969	1437.1808	1459.3189	1460.9052	1497.7427	1836.8243	1838.2093	2851.8347	2855.8064	3007.3876	3009.3404	3091.3476	3092.8363	3130.1993	3133.6797	3138.3569	3217.7332
O=CCC1CC1CC=O	O=CC[C@@H]1C[C@H]1CC=O	
InChI=1S/C7H10O2/c8-3-1-6-5-7(6)2-4-9/h3-4,6-7H,1-2,5H2	InChI=1S/C7H10O2/c8-3-1-6-5-7(6)2-4-9/h3-4,6-7H,1-2,5H2/t6-,7-/m1/s1
