19
gdb 2513	2.6609338	1.3477449	0.9362679	4.6755	79.16	-0.24118	0.00949	0.25067	1257.8583	0.155928	-422.607332	-422.597942	-422.596998	-422.642124	33.554	
C	 1.1051057908	-2.0639571433	-0.3025886273	-0.492183
C	-0.0347753526	-1.086531249	-0.217145099	 0.187045
C	 0.0294048599	 0.19580572	 0.1526126287	 0.200865
C	 1.2590562522	 0.9366653428	 0.5970377729	-0.487953
C	-1.2350754152	 1.0234432423	 0.1010852132	-0.445155
C	-2.5235919749	 0.2465550765	 0.306309341	 0.416062
O	-3.5224253786	 0.7339730376	 0.7609433608	-0.330057
O	-2.5186192485	-1.0575390495	-0.0447300003	-0.219119
C	-1.3642976034	-1.658432175	-0.6425794081	-0.147096
H	 0.9859842859	-2.8726976238	 0.4297650301	 0.13433
H	 1.1331781733	-2.541294635	-1.2909494165	 0.129244
H	 2.0771620452	-1.5991061293	-0.1356244169	 0.130665
H	 1.1273317109	 1.3244654343	 1.6152022918	 0.134455
H	 2.1604834363	 0.3227036575	 0.586773109	 0.126581
H	 1.4378934826	 1.8092429077	-0.0446826825	 0.13022
H	-1.2313463455	 1.8203464446	 0.8495963912	 0.14037
H	-1.3133226252	 1.5334752909	-0.8719085884	 0.142989
H	-1.4289266192	-2.716852804	-0.3698646747	 0.127554
H	-1.4741676341	-1.6071963251	-1.7372364652	 0.121185
40.71	120.1638	139.0719	153.1421	178.2777	287.3983	328.1955	330.2416	424.8181	455.773	503.0548	553.3953	588.732	725.6717	745.9174	827.9155	925.2585	937.1295	971.7435	1004.3072	1058.8087	1076.6034	1097.6075	1142.9657	1173.4646	1196.5183	1227.9617	1268.1369	1272.664	1348.398	1407.1811	1420.0148	1431.7985	1456.3149	1478.6364	1482.8114	1485.6589	1497.5476	1504.5986	1764.5483	1847.5685	2984.2309	2996.5666	3017.9625	3020.7803	3060.6029	3062.8923	3069.1598	3092.08	3130.5237	3143.1036
CC1=C(C)CC(=O)OC1	CC1=C(C)CC(=O)OC1	
InChI=1S/C7H10O2/c1-5-3-7(8)9-4-6(5)2/h3-4H2,1-2H3	InChI=1S/C7H10O2/c1-5-3-7(8)9-4-6(5)2/h3-4H2,1-2H3
