19
gdb 3875	2.2571989	1.6776806	1.2271714	1.5797	75.47	-0.25298	0.05071	0.30368999999999996	1089.5223	0.155282	-422.501628	-422.492953	-422.492009	-422.534936	32.516	
C	 3.1341907149	 1.1889880784	-0.4355101761	-0.387394
C	 1.957562619	 0.2382636884	-0.2354050428	-0.116185
C	 1.9907588561	-1.0620364534	-1.1145832107	-0.359277
C	 2.416333704	-1.8515343385	 0.1317561063	 0.393856
C	 3.4807228846	-2.8381634228	 0.3184984874	-0.263909
O	 2.092550556	-3.1934857415	 0.4324289734	-0.277563
C	 2.0886981229	-0.6656698961	 1.0072722942	 0.389693
C	 1.3569808275	-0.654561426	 2.2729912585	-0.266943
O	 2.7577795665	-0.3346205238	 2.2086770338	-0.279457
H	 3.1660572128	 1.9400124203	 0.359291989	 0.129019
H	 4.0871341313	 0.6496368105	-0.416541263	 0.12059
H	 3.0573023548	 1.7070085918	-1.3967365095	 0.115246
H	 1.0125243482	 0.7855759832	-0.2883631845	 0.081022
H	 1.0041610362	-1.3645461186	-1.4736991266	 0.119428
H	 2.6925596655	-1.0572139154	-1.9517830574	 0.109841
H	 3.9957026755	-3.2464312137	-0.549998851	 0.11718
H	 4.0404965129	-2.8448036894	 1.2518765808	 0.128966
H	 0.6991909704	 0.180842267	 2.5091973761	 0.116736
H	 1.118875891	-1.5997379503	 2.7574027423	 0.129149
64.6057	168.5951	198.2829	210.803	217.1317	258.4131	344.4488	402.4142	463.9568	537.2283	589.535	617.9893	801.3794	832.2685	862.7882	881.0426	886.0013	929.1258	940.6574	963.4663	1026.8238	1080.7118	1119.1264	1122.9529	1126.7838	1134.02	1159.1479	1170.5854	1178.8838	1193.0681	1245.5879	1258.9312	1345.9389	1402.4456	1413.5574	1453.7243	1481.5544	1494.0087	1496.3871	1526.732	1538.2501	3035.2061	3062.4627	3069.2373	3084.7192	3085.4784	3104.729	3111.3875	3121.8463	3177.6201	3178.931
CC1CC2(CO2)C11CO1	C[C@H]1C[C@@]2(CO2)[C@@]21CO2	
InChI=1S/C7H10O2/c1-5-2-6(3-8-6)7(5)4-9-7/h5H,2-4H2,1H3	InChI=1S/C7H10O2/c1-5-2-6(3-8-6)7(5)4-9-7/h5H,2-4H2,1H3/t5-,6+,7-/m0/s1
