19
gdb 4931	2.037207	1.4222467	1.2763686	2.33	78.09	-0.24971	0.03131	0.28102	1146.2198	0.154232	-422.502058	-422.492326	-422.491382	-422.536271	36.009	
C	 1.3428133121	-0.1918693728	 0.0469680627	-0.253383
O	-0.0509660716	-0.1377558339	 0.2910251431	-0.299697
C	-0.464362845	 0.6769845564	 1.3819568566	 0.177989
C	-0.2705954243	-0.0433957801	 2.7555196433	-0.27838
C	-1.660986995	-0.7072576103	 2.5767329074	-0.272388
C	-2.0055835897	 0.3885646823	 1.5283377811	 0.130903
O	-2.7029903972	 0.0689411686	 0.3687932428	-0.430535
C	-0.0214995272	 2.056799309	 1.253898487	 0.272489
C	 0.3268133162	 3.2055247232	 1.1739015562	-0.447595
H	 1.8941369635	-0.5963502287	 0.9066985779	 0.111682
H	 1.4826977382	-0.8582332297	-0.8068948964	 0.130373
H	 1.7443630983	 0.7995434306	-0.1944507671	 0.129488
H	 0.5995035491	-0.6981512555	 2.8281929777	 0.110864
H	-0.2433102657	 0.6757954041	 3.5766939327	 0.117442
H	-1.5860366477	-1.6875765752	 2.1007535903	 0.109711
H	-2.3075731138	-0.7816753092	 3.4527009524	 0.102517
H	-2.5037382493	 1.2415084896	 1.9962975648	 0.099436
H	-2.0851939539	-0.4268338395	-0.185023591	 0.292929
H	 0.6281706431	 4.2213493512	 1.0990880685	 0.196156
102.3548	114.4821	141.299	166.407	193.5311	213.2772	321.0154	368.5396	403.9653	433.6006	487.8969	527.7828	605.2055	609.0728	621.6238	667.1422	708.2947	781.0314	877.6623	928.9055	958.7135	1016.875	1081.1153	1096.0149	1137.5408	1153.9746	1167.3581	1184.8021	1213.8794	1222.5336	1236.314	1258.1959	1292.8886	1343.8727	1441.3599	1466.5642	1479.4734	1485.9417	1489.6257	1511.4845	2225.2955	3006.2351	3068.4529	3073.0677	3078.4629	3084.0919	3124.768	3125.3483	3139.76	3499.3932	3766.6788
COC1(CCC1O)C#C	CO[C@@]1(CC[C@@H]1O)C#C	
InChI=1S/C7H10O2/c1-3-7(9-2)5-4-6(7)8/h1,6,8H,4-5H2,2H3	InChI=1S/C7H10O2/c1-3-7(9-2)5-4-6(7)8/h1,6,8H,4-5H2,2H3/t6-,7+/m0/s1
