19
gdb 3720	3.0265836	1.4598637	1.1546084	1.7064	75.13	-0.24099	0.05152	0.29251	1104.7381	0.156179	-422.5004	-422.492125	-422.491181	-422.533471	31.122	
C	 0.0874670982	 0.3917452492	-0.0309540756	-0.409002
C	 1.0370642579	-0.7767791311	-0.021270453	-0.015069
O	 2.2066788626	-0.6675763491	 0.8154734401	-0.295482
C	 2.3837409204	-0.7141366598	-0.5903802341	 0.432499
C	 3.2470671279	-1.7785651261	-1.2896595548	-0.349144
C	 3.8623649401	-0.6598630189	-2.1760329568	-0.080247
C	 3.0109309665	-0.2295345598	-3.3852394151	-0.07754
O	 2.2667482695	 0.7318395624	-2.5965415758	-0.290089
C	 3.0268854536	 0.4119946942	-1.4126544385	 0.006084
H	-0.5220143567	 0.399480904	 0.8787551881	 0.123762
H	 0.6313678301	 1.3369705157	-0.0914877112	 0.13101
H	-0.584649305	 0.3259859343	-0.8923240171	 0.129291
H	 0.5692279934	-1.7623807563	 0.0261276926	 0.087984
H	 3.9726965901	-2.2172037931	-0.5991968768	 0.122848
H	 2.7221741114	-2.5847009463	-1.8105186846	 0.105885
H	 4.9447747435	-0.6322823557	-2.283453912	 0.08498
H	 3.5673050803	 0.2691748375	-4.1880218416	 0.106104
H	 2.3650223341	-1.0010049563	-3.8239236532	 0.101095
H	 3.4090752721	 1.291853265	-0.8891693005	 0.085031
64.6356	138.7586	181.162	198.0678	273.1738	347.0799	373.931	449.7884	488.9583	594.9467	752.1715	777.5697	794.3168	840.3013	882.9668	909.0837	937.5442	967.3207	990.3312	1013.2916	1025.4694	1049.434	1097.1177	1117.0981	1139.9965	1153.0932	1160.3164	1181.4679	1192.8949	1223.3896	1253.2596	1283.0577	1309.7745	1354.8698	1357.7209	1413.5444	1464.7759	1473.2543	1489.0582	1519.525	1522.5463	3011.7344	3041.2078	3053.1972	3056.2014	3084.0854	3086.8085	3106.2613	3107.6064	3132.7957	3133.4919
CC1OC11CC2COC12	C[C@@H]1O[C@]21C[C@H]1CO[C@@H]21	
InChI=1S/C7H10O2/c1-4-7(9-4)2-5-3-8-6(5)7/h4-6H,2-3H2,1H3	InChI=1S/C7H10O2/c1-4-7(9-4)2-5-3-8-6(5)7/h4-6H,2-3H2,1H3/t4-,5-,6+,7-/m0/s1
