19
gdb 2184	3.1398028	1.7672099	1.7553448	1.7948	73.54	-0.24444	0.08937	0.33381	900.9747	0.159096	-422.573204	-422.566382	-422.565438	-422.603828	28.7	
C	-0.0358769594	 0.1354595593	 0.4015437475	-0.474395
C	 1.3287142665	-0.1130128965	-0.1802288767	 0.471578
C	 1.6964448155	-1.4723624802	-0.803187485	-0.267501
C	 3.0988624365	-1.0007757519	-1.1388582683	-0.109088
C	 3.5735841014	-0.2309837887	 0.1480591059	 0.096732
C	 3.965610936	 0.9717522094	-0.7399332426	-0.243486
C	 2.8979296772	 0.444794718	-1.7254014036	 0.096731
O	 1.5901800502	 0.8005163599	-1.2495815955	-0.306433
O	 2.3368974222	 0.0536579795	 0.8208913413	-0.306436
H	-0.2272266414	-0.5644652578	 1.2180056007	 0.128299
H	-0.0936304412	 1.1548390562	 0.7898351043	 0.13799
H	-0.7996138977	 0.0075476967	-0.3688241376	 0.128293
H	 1.6624490415	-2.2871234676	-0.0767068904	 0.106488
H	 1.0854259139	-1.7099910161	-1.6766600339	 0.106487
H	 3.8090700333	-1.6589242708	-1.6323946434	 0.079355
H	 4.2793418908	-0.6602293798	 0.8606548001	 0.075339
H	 3.815691414	 1.970343277	-0.3256653051	 0.108739
H	 4.9778088399	 0.8660851519	-1.1430908471	 0.095967
H	 2.9614847211	 0.6578527217	-2.7934391206	 0.07534
183.8283	257.0085	300.544	363.6159	413.1251	477.508	575.6304	598.769	615.2577	667.6458	798.1882	824.2875	828.9206	845.8796	883.0777	883.1092	917.8974	941.0328	969.7954	982.7979	1002.3643	1041.4971	1066.9904	1072.6901	1135.2136	1141.6115	1164.6018	1197.6656	1210.0433	1221.3391	1263.3933	1270.6825	1294.6259	1338.9323	1345.346	1355.3165	1425.988	1462.6082	1476.9481	1480.2329	1490.3751	3055.122	3059.5612	3073.0101	3098.7021	3100.6788	3128.1047	3131.3734	3138.7297	3140.6789	3157.4878
CC12CC3C(CC3O1)O2	C[C@@]12C[C@@H]3[C@@H](C[C@@H]3O1)O2	
InChI=1S/C7H10O2/c1-7-3-4-5(8-7)2-6(4)9-7/h4-6H,2-3H2,1H3	InChI=1S/C7H10O2/c1-7-3-4-5(8-7)2-6(4)9-7/h4-6H,2-3H2,1H3/t4-,5-,6+,7+
