19
gdb 4667	3.4300863	1.1389552	0.9457393	2.1136	77.44	-0.23867	-0.02007	0.2186	1289.8363	0.155054	-422.532703	-422.52359	-422.522646	-422.567258	32.991	
C	 0.9216103425	-0.8353360389	 0.3335129102	-0.382756
C	 0.8831689307	 0.4666639699	-0.4607492032	-0.283134
C	 1.7156650137	 1.5716119191	 0.1615380039	 0.273937
O	 2.3449039733	 1.4365923249	 1.1914163678	-0.333694
C	 1.7231356015	 2.8710795512	-0.5562918089	 0.371294
C	 2.8048446193	 3.9096005985	-0.4360155086	-0.320909
C	 1.405606772	 4.2756395167	-0.0363727926	-0.154685
C	 0.5249516066	 4.3746043786	-1.2773909516	-0.097008
O	 0.954580889	 3.0664514541	-1.7484528094	-0.325028
H	 0.538735928	-0.6870496256	 1.3465728307	 0.12939
H	 0.317447307	-1.6037909726	-0.156466728	 0.109351
H	 1.9456234846	-1.2061757557	 0.4266538123	 0.130874
H	 1.2360240602	 0.326950391	-1.4920039971	 0.13451
H	-0.1402135653	 0.846668847	-0.5781148663	 0.12952
H	 3.4864680157	 3.7422295324	 0.3902118061	 0.147572
H	 3.239168503	 4.2994891992	-1.3523133487	 0.121271
H	 1.1334026454	 4.5671991766	 0.9684838471	 0.120331
H	-0.5480503484	 4.3690966504	-1.0584359052	 0.1163
H	 0.7548312912	 5.1682156731	-1.9974187288	 0.112865
55.5415	69.6498	147.3904	168.3778	202.7858	276.4952	332.4058	373.9708	445.7341	505.6955	565.5825	706.8128	762.1978	779.3877	836.4107	847.8555	921.4768	954.6433	975.0082	994.0597	998.4958	1014.6657	1052.0454	1075.8226	1092.298	1112.898	1131.6028	1161.7176	1194.7754	1268.7216	1288.0401	1340.0308	1351.5369	1402.7897	1413.5848	1439.6056	1464.4559	1492.8782	1497.8289	1516.3304	1780.4556	3026.6762	3030.6876	3050.8587	3051.2338	3082.0007	3122.3538	3123.0649	3125.1864	3213.7783	3231.2794
CCC(=O)C12CC1CO2	CCC(=O)[C@]12C[C@H]1CO2	
InChI=1S/C7H10O2/c1-2-6(8)7-3-5(7)4-9-7/h5H,2-4H2,1H3	InChI=1S/C7H10O2/c1-2-6(8)7-3-5(7)4-9-7/h5H,2-4H2,1H3/t5-,7-/m0/s1
