19
gdb 1655	3.1218656	1.1492185	1.0431966	2.6471	78.71	-0.24022	-0.03034	0.20987999999999998	1221.2386	0.155261	-422.541401	-422.532419	-422.531475	-422.575398	33.383	
O	 1.8410900111	 2.4616050305	-0.7837497872	-0.472866
C	 2.4029937562	 1.1937961648	-0.802545945	 0.30027
C	 3.7557243619	 1.0078593341	-1.484286231	-0.415711
C	 2.5222853461	 0.499155002	-2.1515386504	 0.284733
C	 2.2014396207	-0.94856832	-2.5615383636	-0.304512
C	 1.8514222774	-0.4136902089	-3.9828580449	-0.208987
C	 1.9085664791	 1.048126252	-3.4445225958	-0.275986
C	 2.1090648761	 0.3927972598	 0.3961103415	 0.094518
O	 1.4105700806	 0.8197110528	 1.2917752633	-0.298348
H	 1.3478007039	 2.4973091943	 0.0517160771	 0.295637
H	 4.2013660159	 1.9246680525	-1.8566216642	 0.137244
H	 4.452929109	 0.2955307403	-1.0512159559	 0.119511
H	 3.028397017	-1.6610524977	-2.4986106648	 0.104259
H	 1.3383614315	-1.3708374571	-2.0389865395	 0.10948
H	 2.6362203811	-0.6232281428	-4.7129735329	 0.108907
H	 0.8957608988	-0.7385613352	-4.3985116164	 0.105733
H	 2.5170418861	 1.7583268833	-4.0091892962	 0.107146
H	 0.9239902428	 1.4925186632	-3.2777606033	 0.119382
H	 2.5580555946	-0.6198563979	 0.4344084791	 0.089591
60.6012	96.2129	142.2885	193.6626	268.2698	299.3705	393.0532	399.1509	411.9777	454.7219	530.602	653.8286	718.7313	786.5756	832.2755	840.7374	876.0343	901.0178	917.0402	940.7774	953.438	1024.7616	1053.4719	1061.196	1081.1554	1135.1609	1183.0073	1219.8333	1224.6498	1250.0508	1271.0011	1277.8254	1318.5073	1352.4579	1384.6199	1445.471	1477.514	1480.0095	1488.6991	1506.6852	1778.7672	2933.4968	3051.4392	3063.8143	3072.6952	3097.2659	3109.9124	3115.4087	3129.7607	3211.8957	3690.5172
OC1(CC11CCC1)C=O	O[C@@]1(CC21CCC2)C=O	
InChI=1S/C7H10O2/c8-5-7(9)4-6(7)2-1-3-6/h5,9H,1-4H2	InChI=1S/C7H10O2/c8-5-7(9)4-6(7)2-1-3-6/h5,9H,1-4H2/t7-/m0/s1
