19
gdb 3710	2.7077717	1.5191268	1.1933203	1.0334	76.07	-0.24574	0.06743	0.31317	1098.9981	0.155086	-422.509797	-422.500991	-422.500047	-422.542805	33.638	
C	 0.0765657103	 0.359064908	 0.0964059773	-0.406454
C	 1.0456180986	-0.792909863	 0.0376506987	-0.029918
O	 2.2659520552	-0.6640814186	 0.7955623421	-0.308568
C	 2.3528319168	-0.7464933464	-0.6208050818	 0.380183
C	 3.0559959715	-1.8740169863	-1.4117904155	-0.33501
C	 3.6153195584	-0.7980338743	-2.3531128584	-0.103901
C	 4.4591789281	 0.165810144	-1.5554885161	-0.346843
C	 2.9600107285	 0.3095771954	-1.5191831302	 0.312903
O	 2.315210802	 1.4535686365	-1.9566167745	-0.458398
H	-0.4296754912	 0.3767420621	 1.0674961255	 0.121748
H	 0.5872000864	 1.3097888634	-0.0580462996	 0.122251
H	-0.6875211135	 0.2515380544	-0.6807862776	 0.122196
H	 0.5873979479	-1.7809584023	 0.1308772053	 0.085971
H	 3.8005178304	-2.4467295894	-0.8505212936	 0.109706
H	 2.3514457919	-2.5623017356	-1.8853834715	 0.110577
H	 3.6856505318	-0.871347911	-3.4299185346	 0.099563
H	 5.0175590893	-0.1710680704	-0.685288527	 0.118671
H	 4.9515721866	 0.9328231694	-2.1459160012	 0.113287
H	 2.676727791	 2.206732384	-1.4774762575	 0.292035
105.5965	141.8474	190.5972	213.7779	254.9894	298.38	329.2533	424.4365	425.5095	462.3193	553.5043	578.0379	672.2868	760.6896	798.7121	856.5222	882.4994	897.9848	948.1378	971.2652	1010.0611	1018.0806	1030.2173	1074.813	1084.2619	1113.3349	1134.3156	1152.1748	1188.6109	1218.5221	1242.1886	1268.9872	1311.118	1357.5481	1403.0821	1410.2392	1471.1489	1475.3377	1483.063	1497.2761	1528.8482	3039.9872	3052.328	3073.1251	3099.955	3106.7886	3107.372	3152.1737	3198.1539	3210.2793	3803.9373
CC1OC11CC2CC12O	C[C@@H]1O[C@]21C[C@@H]1C[C@]21O	
InChI=1S/C7H10O2/c1-4-7(9-4)3-5-2-6(5,7)8/h4-5,8H,2-3H2,1H3	InChI=1S/C7H10O2/c1-4-7(9-4)3-5-2-6(5,7)8/h4-5,8H,2-3H2,1H3/t4-,5-,6+,7-/m0/s1
