19
gdb 1203	3.1202064	1.0775958	0.8484442	1.9771	76.71	-0.25077	0.02644	0.27721	1340.7507	0.156289	-422.523997	-422.514615	-422.513671	-422.559182	33.952	
O	 1.0369703324	 3.804869151	-2.0337746253	-0.422568
C	-0.0585083008	 2.9070242163	-1.8628667879	-0.067765
C	-1.3270536624	 3.6280253017	-1.7220874229	 0.291042
C	-2.3471031311	 4.2447607086	-1.5640298676	-0.438354
C	 0.1876955733	 1.9424812152	-0.6905590263	-0.00042
C	-0.8422894005	 0.7839802389	-0.5875452827	-0.253853
C	 0.0346327321	-0.4846536114	-0.6562080431	-0.075561
O	 1.3327154698	-0.0797064135	-0.2520986736	-0.240278
C	 1.5374942057	 1.1993151927	-0.8259946908	-0.100341
H	 0.9794052174	 4.46774955	-1.3364009318	 0.285382
H	-0.0822254485	 2.3208675958	-2.7912074619	 0.116511
H	-3.2533876269	 4.7858905458	-1.4449656538	 0.201453
H	 0.1804232179	 2.5292771109	 0.2337146997	 0.078927
H	-1.389595411	 0.8356369741	 0.3557247739	 0.114013
H	-1.5810543793	 0.8150638447	-1.3935145358	 0.109442
H	-0.293261272	-1.2849052295	 0.0118312928	 0.10929
H	 0.0593739441	-0.8832039065	-1.6840844159	 0.087634
H	 2.3621339134	 1.6804720917	-0.2973924299	 0.111984
H	 1.8173469766	 1.1122430235	-1.8896949071	 0.093459
32.9677	74.7147	121.3489	210.2432	233.334	257.4252	293.4412	357.4713	425.7384	471.1851	583.1675	629.6065	659.0731	673.477	685.9645	821.1059	883.9823	930.3969	942.4151	966.5363	1004.6673	1054.4213	1055.6392	1094.6309	1125.3378	1133.2846	1202.8328	1233.6875	1265.2879	1269.6405	1289.4529	1308.5413	1318.3097	1359.0292	1378.4874	1405.0413	1417.5513	1495.2958	1504.9306	1521.85	2231.0985	2961.9125	2968.6012	3023.2224	3051.7608	3066.1962	3092.3164	3111.1115	3115.3253	3501.976	3804.3454
OC(C#C)C1CCOC1	O[C@H](C#C)[C@H]1CCOC1	
InChI=1S/C7H10O2/c1-2-7(8)6-3-4-9-5-6/h1,6-8H,3-5H2	InChI=1S/C7H10O2/c1-2-7(8)6-3-4-9-5-6/h1,6-8H,3-5H2/t6-,7+/m0/s1
