19
gdb 2849	2.9935021	1.4854236	1.1757747	0.9622	74.95	-0.24284	0.07163	0.31447	1083.1788	0.155609	-422.515391	-422.506874	-422.50593	-422.547576	33.865	
C	 0.6483715437	-0.3505815865	-0.7067214278	-0.405329
C	 0.9018624243	 0.211610764	 0.6871382149	-0.02971
C	 1.806794282	 1.4487114931	 0.7072469888	-0.134348
C	 3.0679634222	 0.619926408	 0.8813825109	-0.230861
C	 2.5817086441	 1.4422877331	 2.0362413624	 0.389223
O	 3.2079526642	 2.5668933913	 2.5339116681	-0.462857
C	 2.109841731	 0.2240800236	 2.8302940153	-0.37649
C	 2.0572007976	-0.4885484433	 1.4491623202	 0.397146
O	 2.1412452037	-1.8630816378	 1.3295641838	-0.478575
H	 0.2131309404	-1.3522411555	-0.6475827523	 0.124572
H	-0.0434039619	 0.2895282349	-1.2644976399	 0.106751
H	 1.5797994575	-0.4207066388	-1.2778818857	 0.117588
H	-0.0407033979	 0.2776017693	 1.2473176903	 0.056996
H	 1.7093574004	 2.3608233594	 0.1311032613	 0.084547
H	 4.0047990893	 0.6015138338	 0.3445762071	 0.096123
H	 2.5306576745	 3.1782190158	 2.8441046034	 0.285078
H	 2.9235657153	-0.1640167471	 3.4534570959	 0.090776
H	 1.1804294307	 0.274554234	 3.4106282117	 0.086787
H	 2.858942609	-2.1788713611	 1.8884734417	 0.282583
190.7665	219.759	232.162	234.5205	260.555	302.7775	331.3361	420.2127	437.1647	464.006	486.6559	599.3481	660.229	751.0137	764.6382	822.8684	847.6835	912.4778	913.5964	941.1792	963.9771	1000.7759	1050.496	1068.6229	1077.1938	1098.3203	1107.8681	1133.5765	1184.6932	1201.2318	1254.0508	1279.5901	1300.1725	1313.2577	1357.0361	1402.1747	1410.6163	1442.3996	1494.6939	1496.0655	1506.0105	3008.7451	3021.9163	3034.6419	3079.7047	3100.9679	3112.1674	3191.0204	3229.3737	3791.4168	3810.8701
CC1C2C3C2(O)CC13O	C[C@@H]1[C@@H]2[C@H]3[C@]2(O)C[C@@]13O	
InChI=1S/C7H10O2/c1-3-4-5-6(3,8)2-7(4,5)9/h3-5,8-9H,2H2,1H3	InChI=1S/C7H10O2/c1-3-4-5-6(3,8)2-7(4,5)9/h3-5,8-9H,2H2,1H3/t3-,4-,5-,6-,7+/m1/s1
