19
gdb 4700	3.571181	0.6908956	0.5872703	2.3179	79.25	-0.24723	-0.01326	0.23397	1851.6453	0.151941	-422.521931	-422.510981	-422.510037	-422.560007	36.909	
C	-1.6864009958	 3.0892575637	 2.7540455216	-0.382801
C	-0.6650091124	 2.5341946898	 1.7659527441	-0.26965
C	-1.2844690784	 1.6613572625	 0.6947399332	 0.342504
O	-2.4683893616	 1.4254403454	 0.6267196473	-0.30395
C	-0.3517577981	 1.050039807	-0.3539485438	-0.142815
O	 0.9867780896	 1.4232130093	-0.127855347	-0.244445
C	 1.8748750437	 0.8724779213	-1.0842065596	-0.205817
C	 3.2387090015	 1.2938529167	-0.7966189203	 0.27646
C	 4.3722959555	 1.6260719791	-0.582341982	-0.406894
H	-2.216876062	 2.2812821581	 3.2646127037	 0.129684
H	-1.1945875974	 3.7109513753	 3.5071319	 0.110416
H	-2.4380081822	 3.6954638441	 2.2416704719	 0.129632
H	-0.104798612	 3.3312590527	 1.2597748332	 0.134932
H	 0.1129624057	 1.9420280436	 2.2654695269	 0.134971
H	-0.4790440171	-0.0447316207	-0.318608879	 0.122275
H	-0.7021420405	 1.3785366239	-1.3465902539	 0.122256
H	 1.8141363162	-0.2290241102	-1.0734818939	 0.124416
H	 1.5909034565	 1.1944386514	-2.1004814858	 0.124401
H	 5.3734121289	 1.922634437	-0.3878123264	 0.204425
27.618	67.5152	78.5116	86.4627	107.2301	187.1816	193.863	272.5451	315.4782	333.7851	418.6926	478.0271	584.1635	609.4735	613.5739	682.2011	747.5395	766.9387	929.4821	975.7987	999.0891	1032.8461	1035.7972	1085.0088	1115.7172	1144.5578	1180.0407	1238.5175	1257.1353	1276.8332	1355.9457	1375.6683	1413.5438	1424.9163	1437.5426	1478.539	1493.1555	1498.2215	1505.3636	1812.3371	2249.6753	2956.1996	2968.3921	2977.1379	2997.7422	3034.7052	3050.9401	3057.2323	3122.5316	3124.9958	3506.0901
CCC(=O)COCC#C	CCC(=O)COCC#C	
InChI=1S/C7H10O2/c1-3-5-9-6-7(8)4-2/h1H,4-6H2,2H3	InChI=1S/C7H10O2/c1-3-5-9-6-7(8)4-2/h1H,4-6H2,2H3
