19
gdb 4788	2.2230534	1.1850091	0.9584207	1.7409	77.53	-0.23577	-0.02061	0.21516000000000002	1318.568	0.152105	-422.528384	-422.517406	-422.516462	-422.565603	37.571	
C	 1.5728581927	 0.2589315485	-0.2927546998	-0.246674
O	 0.2257957803	-0.0542341035	 0.0161803216	-0.246566
C	-0.2583416491	 0.5750883479	 1.1908115383	 0.036237
C	-1.7927474332	 0.482384554	 1.1171951967	-0.385995
C	-2.452889329	 1.007103081	 2.3045052851	 0.289618
C	-2.9740190927	 1.4358943505	 3.298699331	-0.440566
C	 0.3409821609	-0.1105859766	 2.4386909256	 0.383354
C	-0.0080860426	-1.570425487	 2.6478889899	-0.489496
O	 1.0846703607	 0.4973614822	 3.1715310399	-0.302098
H	 2.2674946399	-0.0651090824	 0.4939035614	 0.124931
H	 1.8137375474	-0.2664605292	-1.2193977072	 0.13205
H	 1.7055384266	 1.3395815052	-0.4456890857	 0.11759
H	 0.0545801164	 1.6275135948	 1.2320508287	 0.094942
H	-2.11661712	 1.0255286235	 0.2223469262	 0.145147
H	-2.0705395294	-0.5661116592	 0.9578334911	 0.143052
H	-3.4380651363	 1.8195327972	 4.1734162758	 0.202219
H	 0.6841267652	-2.0150703092	 3.3637290222	 0.141009
H	-1.0253298152	-1.6426337553	 3.05081344	 0.154938
H	 0.0126694573	-2.1145921821	 1.699710399	 0.146306
32.9942	60.7651	97.0952	117.0119	156.9725	169.9529	224.8009	265.6037	279.1221	352.1981	399.6575	465.2427	498.8781	547.8135	619.047	637.5974	654.7491	741.3753	904.8785	944.0609	992.4818	1027.1361	1040.9486	1080.136	1135.8608	1182.7577	1185.949	1224.7038	1249.8895	1309.1045	1337.5964	1371.2832	1377.0908	1462.486	1473.9477	1478.0023	1481.7279	1489.4035	1511.0119	1816.6152	2242.6243	2994.8322	3019.2674	3038.4192	3041.39	3050.2713	3075.9311	3109.998	3124.2661	3155.2921	3505.5478
COC(CC#C)C(C)=O	CO[C@@H](CC#C)C(=O)C	
InChI=1S/C7H10O2/c1-4-5-7(9-3)6(2)8/h1,7H,5H2,2-3H3	InChI=1S/C7H10O2/c1-4-5-7(9-3)6(2)8/h1,7H,5H2,2-3H3/t7-/m0/s1
