19
gdb 1518	3.3797732	1.2673457	1.116103	3.3788	75.57	-0.24777	0.0737	0.32147	1155.2993	0.154093	-422.503723	-422.494889	-422.493945	-422.536834	33.409	
C	 0.0114598798	 0.06953549	-0.0405703517	-0.455357
C	 1.5200362938	 0.0148363291	 0.0550759185	 0.26892
C	 2.0730504542	-0.575598335	 1.3343035865	-0.45331
O	 2.1889919359	-0.4290990818	-1.1489135366	-0.319146
C	 2.3389686657	 0.9214739155	-0.7631545588	 0.404592
C	 1.8979482451	 2.1628989293	-1.587008919	-0.35863
C	 3.2360977616	 2.8009207384	-1.1782498421	 0.027715
O	 4.2699214084	 1.9588671638	-1.6857220915	-0.238496
C	 3.6594857772	 1.5971291428	-0.4351236818	-0.084802
H	-0.4062914966	 0.698343372	 0.7535636908	 0.119321
H	-0.3073278455	 0.4668159285	-1.0063321539	 0.131783
H	-0.4117145493	-0.9345858911	 0.0720928892	 0.127662
H	 1.6965365541	-1.5949486475	 1.4730951119	 0.128034
H	 3.1637714044	-0.6197945101	 1.3084977839	 0.12901
H	 1.7639305501	 0.0151599527	 2.2034917779	 0.119942
H	 1.7772907059	 2.0085281131	-2.6611403933	 0.125351
H	 1.0151322494	 2.6583753343	-1.1743003879	 0.111471
H	 3.4705239118	 3.8427903611	-0.998503974	 0.109478
H	 4.3152218939	 1.477099945	 0.4188938521	 0.106462
118.6591	151.6746	163.1392	189.8301	208.232	295.7413	362.2541	405.1509	443.8063	467.4941	529.1171	612.9201	706.2862	790.1752	835.3892	854.9045	892.9353	926.7883	939.1604	947.0615	975.929	994.1503	1029.2472	1055.6027	1104.4078	1127.4704	1143.2167	1179.2148	1217.679	1240.5725	1245.6034	1272.2698	1367.8957	1407.0091	1415.864	1456.1694	1472.1334	1473.2052	1484.9302	1498.7855	1530.81	3032.6149	3037.8022	3066.1013	3093.3538	3098.4833	3127.2429	3129.9368	3131.3995	3187.9464	3203.2668
CC1(C)OC11CC2OC12	CC1(C)O[C@]21C[C@@H]1O[C@H]21	
InChI=1S/C7H10O2/c1-6(2)7(9-6)3-4-5(7)8-4/h4-5H,3H2,1-2H3	InChI=1S/C7H10O2/c1-6(2)7(9-6)3-4-5(7)8-4/h4-5H,3H2,1-2H3/t4-,5-,7+/m0/s1
