19
gdb 5557	2.0909564	1.5776999	1.0128433	2.1537	76.51	-0.23788	0.00299	0.24087	1199.5102	0.15635	-422.548439	-422.539619	-422.538675	-422.581917	32.893	
C	 1.3748667931	 0.7530352598	 0.3601292178	-0.495013
C	-0.0180292382	 0.211981256	 0.2711095474	 0.303664
C	-1.1428222107	 0.9158869652	 0.0857144956	-0.201288
C	-2.3433144947	 0.0412361247	 0.1976893148	 0.006327
O	-2.470396662	-0.5821365096	 1.5010567787	-0.270053
C	-1.8485813179	-1.322043953	 0.4516693807	 0.043151
C	-0.3226168312	-1.2750079084	 0.4461487832	-0.1618
C	 0.2569565191	-2.1484164783	-0.6796716435	-0.07462
O	-0.1010148175	-3.5148188496	-0.5477652999	-0.414291
H	 1.8178708514	 0.5393937757	 1.3413111591	 0.131441
H	 2.0383552559	 0.2999666613	-0.3866195183	 0.128816
H	 1.3905394606	 1.8361766129	 0.2129599577	 0.128342
H	-1.1923346401	 1.9880780748	-0.064437232	 0.096581
H	-3.2841349691	 0.2668206357	-0.2943296057	 0.09554
H	-2.358010634	-2.2270215938	 0.1351772213	 0.107126
H	 0.0792727496	-1.6364562969	 1.4047948023	 0.082957
H	-0.153632789	-1.825985842	-1.6425688943	 0.117105
H	 1.3488063741	-2.0238424591	-0.7312596879	 0.091937
H	 0.2813181506	-3.8441101354	 0.272262533	 0.284078
106.1456	122.0727	166.6668	181.566	224.995	281.5433	328.5613	404.5918	459.1731	496.0745	573.5701	618.6611	731.9911	809.8427	853.7422	860.0556	875.3221	920.0969	970.2506	1004.829	1023.9159	1043.8078	1061.6737	1075.7591	1094.5363	1129.9694	1180.683	1182.331	1250.813	1262.8486	1279.6653	1334.8402	1347.7754	1383.2596	1405.0765	1412.6396	1415.1368	1479.3717	1486.0446	1506.7536	1691.9823	2990.9919	2998.9672	3019.6462	3065.808	3075.576	3112.4523	3160.5779	3171.1172	3200.1454	3812.5284
CC1=CC2OC2C1CO	CC1=C[C@@H]2O[C@@H]2[C@H]1CO	
InChI=1S/C7H10O2/c1-4-2-6-7(9-6)5(4)3-8/h2,5-8H,3H2,1H3	InChI=1S/C7H10O2/c1-4-2-6-7(9-6)5(4)3-8/h2,5-8H,3H2,1H3/t5-,6-,7+/m0/s1
