19
gdb 2836	3.1914881	1.4128687	1.1847399	1.2758	75.37	-0.24497	0.06322	0.30818999999999996	1091.915	0.155877	-422.494839	-422.486363	-422.485419	-422.527211	33.138	
C	-0.0030906064	 0.2844186371	 0.1962054347	-0.427842
C	 1.490592285	 0.0959701209	-0.0228790792	-0.00385
C	 2.3631540875	-0.5322138133	 1.091520312	-0.094381
C	 3.6526761718	 0.1995892793	 0.5714464087	-0.108013
C	 3.9924139787	 0.7168086126	 1.9815261747	 0.067643
O	 4.7367449126	 1.9008607382	 2.1505237635	-0.453803
C	 2.4576827293	 0.7937278658	 1.907421804	 0.359837
O	 1.5706577341	 1.1720071717	 2.8954707282	-0.474899
C	 2.4771505569	 1.2206051027	 0.3718766456	-0.157906
H	-0.2110414636	 0.7119402361	 1.1800462782	 0.138423
H	-0.4261356985	 0.9511123033	-0.5641625901	 0.108722
H	-0.5315955906	-0.6727255884	 0.1208490263	 0.111767
H	 1.6884916547	-0.3250449729	-1.0169695867	 0.061372
H	 2.33570534	-1.5374128764	 1.5154416246	 0.072685
H	 4.3133026097	-0.1674283058	-0.2110471236	 0.079908
H	 4.4063474525	-0.0121487792	 2.6854920436	 0.085962
H	 4.4946726677	 2.510129821	 1.4441316479	 0.282213
H	 1.9154637484	 1.9722386398	 3.3085411839	 0.290429
H	 2.5519203101	 2.2311986576	-0.0371622764	 0.061732
162.5101	186.9674	195.7478	225.5444	290.7706	298.349	316.4806	383.5125	417.9904	539.8582	582.9805	663.411	735.485	773.3709	834.994	856.6078	860.6274	897.5755	943.7854	969.2416	1016.418	1032.8702	1063.3877	1068.5748	1093.7826	1117.8806	1132.5639	1150.1509	1164.8288	1214.9861	1222.7837	1244.7874	1269.8187	1278.8752	1318.2823	1387.1601	1400.4032	1416.3597	1449.5467	1499.1873	1504.7911	3020.3037	3030.4606	3068.9907	3077.3273	3085.2146	3102.1708	3126.3577	3145.0805	3794.9081	3801.8543
CC1C2C3C(O)C2(O)C13	C[C@@H]1[C@H]2[C@@H]3[C@@H](O)[C@@]2(O)[C@H]13	
InChI=1S/C7H10O2/c1-2-4-3-5(2)7(4,9)6(3)8/h2-6,8-9H,1H3	InChI=1S/C7H10O2/c1-2-4-3-5(2)7(4,9)6(3)8/h2-6,8-9H,1H3/t2-,3+,4+,5-,6-,7+/m1/s1
