19
gdb 1317	2.4352862	1.1652255	0.9433569	2.9055	78.03	-0.25324	0.01445	0.26769000000000004	1317.7183	0.153517	-422.505956	-422.496041	-422.495097	-422.540891	36.551	
C	 3.1043368177	-2.1662563401	-3.9511459976	-0.385723
C	 3.3464195588	-1.6624482561	-2.5336114665	 0.158258
O	 3.5118501384	-2.8053053462	-1.7082252781	-0.450799
C	 2.1839893829	-0.7865197603	-2.0293901547	-0.308821
C	 2.5150818791	-0.0748072332	-0.7255252473	 0.165634
C	 1.6225523452	-0.191427155	 0.4470328678	-0.213184
O	 2.8228128732	-0.9582144194	 0.3886944754	-0.271399
C	 3.3819826193	 1.0759725398	-0.8314929735	 0.341863
C	 4.0959453266	 2.0344839598	-0.957590896	-0.439009
H	 2.1648737448	-2.7262741289	-4.0041386075	 0.117818
H	 3.0601633689	-1.3350929111	-4.6615026966	 0.108391
H	 3.9149038203	-2.8369008391	-4.2481794221	 0.126565
H	 4.2647196728	-1.0502525072	-2.5278476852	 0.074114
H	 3.4622240949	-2.5129303431	-0.7897777306	 0.295721
H	 1.9264381039	-0.0312879295	-2.7793615752	 0.11197
H	 1.3101085375	-1.430378181	-1.8827053529	 0.108698
H	 1.6183068498	 0.5979652946	 1.1954547439	 0.129712
H	 0.6962596693	-0.7547493166	 0.3453012761	 0.125191
H	 4.7316058166	 2.8798215527	-1.0571558393	 0.205
50.6358	89.0652	163.4423	182.5638	224.0519	237.3504	304.7716	352.3118	374.0265	443.8616	471.0137	480.8461	551.7143	580.1984	632.266	667.3775	708.8303	808.5758	853.6507	915.9573	919.6519	951.4228	972.4881	1068.2378	1086.5357	1130.5404	1154.4013	1174.5792	1207.1281	1269.7285	1307.207	1326.1597	1365.0929	1386.6521	1403.3104	1452.0001	1461.3303	1484.884	1499.8911	1515.9961	2239.6477	2952.8649	3037.8917	3043.6386	3090.1213	3093.5058	3111.4651	3121.9851	3186.161	3500.364	3777.1869
CC(O)CC1(CO1)C#C	C[C@H](O)C[C@]1(CO1)C#C	
InChI=1S/C7H10O2/c1-3-7(5-9-7)4-6(2)8/h1,6,8H,4-5H2,2H3	InChI=1S/C7H10O2/c1-3-7(5-9-7)4-6(2)8/h1,6,8H,4-5H2,2H3/t6-,7-/m0/s1
