19
gdb 2575	2.6484401	1.7814141	1.3950446	1.6412	75.56	-0.2339	0.01552	0.24942	1001.1517	0.159074	-422.576737	-422.569164	-422.56822	-422.60854	29.635	
C	 0.6489165703	 1.5516680083	-1.2760983155	-0.498122
C	-0.4558259938	 0.6138314141	-0.893566418	 0.343581
C	-0.400921088	-0.7162519981	-0.9860491029	-0.168645
C	-1.5435677197	-1.5885688852	-0.519959522	-0.266826
C	-2.5836510148	-0.7247007264	 0.2048336644	 0.042975
C	-2.0320139184	-0.0859395564	 1.5118916995	-0.099557
O	-1.6438478879	 1.2351005131	 1.1212791802	-0.259097
C	-1.7217216165	 1.2263281251	-0.3008563665	 0.071545
O	-2.84744242	 0.432220798	-0.5952232393	-0.242573
H	 0.9608397472	 2.1554668456	-0.4144328483	 0.137636
H	 1.5237963026	 1.0127848745	-1.6494456031	 0.122471
H	 0.3240310074	 2.2566485485	-2.0522640157	 0.126031
H	 0.4770270283	-1.2064030733	-1.4008969805	 0.084641
H	-2.0088526123	-2.1031223294	-1.3721454708	 0.113902
H	-1.1783068298	-2.3762372525	 0.1522191853	 0.106196
H	-3.5258252743	-1.2548242927	 0.3559728284	 0.086101
H	-2.7979244696	-0.0034124453	 2.2890668265	 0.111011
H	-1.1760097128	-0.6428860055	 1.9106072207	 0.102897
H	-1.9046663779	 2.2478250878	-0.6442029924	 0.085833
115.1927	183.3593	220.6945	280.3513	326.8299	355.5309	458.5191	510.736	584.1777	650.6402	765.4368	797.0168	816.4805	835.7961	896.2601	921.9645	942.4036	962.4344	1006.5602	1014.0884	1053.0971	1062.1359	1070.7756	1087.9825	1118.8852	1186.4661	1199.9961	1216.8465	1292.3906	1304.6052	1330.5012	1355.9337	1362.3163	1379.8221	1393.3355	1411.2639	1472.1272	1478.0575	1490.9035	1518.9925	1736.0868	3010.8221	3015.9788	3030.5155	3042.7469	3064.3597	3078.2132	3088.338	3100.2361	3111.7833	3150.1278
CC1=CCC2COC1O2	CC1=CC[C@H]2CO[C@@H]1O2	
InChI=1S/C7H10O2/c1-5-2-3-6-4-8-7(5)9-6/h2,6-7H,3-4H2,1H3	InChI=1S/C7H10O2/c1-5-2-3-6-4-8-7(5)9-6/h2,6-7H,3-4H2,1H3/t6-,7+/m0/s1
