19
gdb 1344	3.0637881	1.1154306	0.8865458	1.7979	75.65	-0.2504	-0.0269	0.2235	1301.9185	0.154779	-422.525998	-422.516913	-422.515969	-422.560615	32.698	
C	 4.1792329896	 2.7739751955	 0.1632699288	-0.421404
C	 3.1250606748	 3.8482378743	 0.4726325734	-0.089212
C	 2.1287537986	 3.3292771515	 1.4924629007	 0.170844
O	 1.7581507652	 3.9315938817	 2.4669989839	-0.253788
C	 2.3505859209	 4.2684067966	-0.7892487111	-0.019378
C	 1.3771342204	 5.4904305042	-0.588393704	-0.286836
C	 2.2366422864	 6.281168999	-1.5812047239	 0.033228
O	 2.2546693048	 5.5438297398	-2.8112759246	-0.247266
C	 3.1528215387	 5.1466932642	-1.7751347102	 0.019115
H	 4.7628877676	 2.5217101482	 1.0537568328	 0.129673
H	 3.7071171928	 1.8551740496	-0.2023826616	 0.126349
H	 4.8752939383	 3.1167166496	-0.6072135571	 0.129228
H	 3.5984861386	 4.7339963857	 0.9119876928	 0.094467
H	 1.7248150075	 2.315074929	 1.2574978426	 0.07386
H	 1.9005153321	 3.3932524272	-1.2698510552	 0.085651
H	 0.3356528825	 5.3483611662	-0.8851721994	 0.11434
H	 1.4169433431	 5.8790175938	 0.4319615662	 0.129083
H	 2.4064582739	 7.3494094308	-1.6455373457	 0.10712
H	 4.2094839642	 5.1127592431	-2.0161270783	 0.104925
56.7681	72.2465	144.8826	174.7698	195.7837	276.4136	331.189	374.6504	429.6622	460.7935	566.6182	749.1961	818.578	848.9354	859.3577	887.2609	921.6404	942.7878	961.1364	988.1345	993.3076	1033.8373	1056.8716	1103.8611	1123.807	1155.178	1192.7533	1219.6702	1235.4396	1240.1678	1262.9674	1278.7291	1320.6739	1368.3093	1387.5924	1408.2815	1427.6912	1475.9367	1495.9192	1499.3031	1829.3487	2844.4029	3036.4412	3044.2351	3058.5016	3071.4473	3104.6242	3115.3251	3129.3287	3177.0682	3195.1232
CC(C=O)C1CC2OC12	C[C@H](C=O)[C@H]1C[C@@H]2O[C@H]12	
InChI=1S/C7H10O2/c1-4(3-8)5-2-6-7(5)9-6/h3-7H,2H2,1H3	InChI=1S/C7H10O2/c1-4(3-8)5-2-6-7(5)9-6/h3-7H,2H2,1H3/t4-,5-,6+,7-/m1/s1
