19
gdb 1447	3.2556703	1.6226188	1.3827153	3.2434	73.33	-0.24533	0.06262	0.30795	988.2314	0.156541	-422.49876	-422.491061	-422.490117	-422.530261	31.057	
C	-0.0633301596	 0.6704282983	-1.3909442876	-0.476902
C	 1.4544181094	 0.816228361	-1.4769869505	 0.326114
C	 1.849525683	 1.5002024034	-2.7861861541	-0.453377
C	 2.4005564242	-0.3955219845	-1.1159054237	-0.022078
O	 3.407818868	 0.5705213105	-0.7246544944	-0.264407
C	 2.2828518931	 1.3462569414	-0.2413907808	-0.022098
C	 1.7617618461	 0.4537068614	 0.9208168087	 0.019488
O	 2.7124684186	-0.5203177163	 1.3543744593	-0.226892
C	 1.8500245993	-0.8522925612	 0.2651040033	 0.019484
H	-0.4020003323	 0.1869013002	-0.4734004295	 0.118575
H	-0.5416024704	 1.6546521791	-1.4490081593	 0.120483
H	-0.4353466916	 0.0830806483	-2.237965116	 0.120483
H	 1.496243011	 0.9182924212	-3.6450587641	 0.112658
H	 1.3892335579	 2.4924070866	-2.8550164566	 0.112653
H	 2.9316805896	 1.612956059	-2.8643411302	 0.139585
H	 2.7384584215	-1.1356963173	-1.8414318811	 0.082157
H	 2.4995053022	 2.40018507	-0.0661171344	 0.082157
H	 1.0050466257	 0.7670574209	 1.6305532578	 0.105958
H	 1.1708386742	-1.6861722322	 0.3988343131	 0.105958
181.314	215.2826	235.7798	245.4833	314.6194	368.9346	447.8713	462.4414	524.5218	605.5046	734.012	734.2387	821.2824	830.9856	833.7239	887.2407	907.6698	913.3123	948.033	960.7374	962.5472	985.4174	1018.2923	1066.5701	1076.7293	1154.2894	1166.1749	1189.4747	1235.1205	1243.5835	1257.2763	1270.2672	1290.6315	1309.2758	1390.2185	1402.4862	1418.2182	1484.3449	1491.9879	1502.8257	1515.4511	3029.9534	3036.1078	3085.1806	3091.1458	3120.2497	3122.8755	3132.8691	3139.8472	3178.3875	3191.0456
CC1(C)C2OC1C1OC21	CC1(C)[C@H]2O[C@@H]1[C@@H]1O[C@H]21	
InChI=1S/C7H10O2/c1-7(2)5-3-4(8-3)6(7)9-5/h3-6H,1-2H3	InChI=1S/C7H10O2/c1-7(2)5-3-4(8-3)6(7)9-5/h3-6H,1-2H3/t3-,4+,5-,6+
