19
gdb 3612	2.2309648	1.463772	0.9277458	0.2467	80.38	-0.2209	-0.03661	0.18429	1240.8535	0.157712	-422.566113	-422.557393	-422.556449	-422.599549	33.386	
O	 0.3628870334	 1.1035704724	 0.0607683503	-0.442003
C	-0.7212192178	 0.5306980799	 0.7911349893	 0.059261
C	-0.2084593286	-0.2956724205	 1.9786381458	-0.250912
C	-1.2614489053	-0.6558115759	 3.0329316717	 0.066526
O	-0.6326606765	-1.2652428813	 4.1649694464	-0.431537
C	-2.4043946608	-1.5195357088	 2.5652904152	-0.109202
C	-2.8419572197	-1.7673822065	 1.3224051421	-0.075584
C	-2.3871239661	-1.2418068197	 0.0352374943	-0.08576
C	-1.5031888201	-0.2690094148	-0.2145202723	-0.058545
H	 0.8727706411	 1.6472440585	 0.6694302004	 0.281902
H	-1.3724014797	 1.3368439711	 1.1780439586	 0.081588
H	 0.2668865447	-1.207670539	 1.5986104348	 0.104181
H	 0.5675197333	 0.2785888977	 2.4984402363	 0.095269
H	-1.6785880986	 0.2747437659	 3.4437698292	 0.099989
H	-0.3193165678	-2.1325396992	 3.8835944797	 0.277778
H	-2.9202707869	-2.0030069953	 3.3924361455	 0.098887
H	-3.683020841	-2.453253114	 1.2417177694	 0.090884
H	-2.8697027677	-1.6968817597	-0.8263377485	 0.090476
H	-1.300714286	 0.0124406992	-1.2437923682	 0.106802
51.5503	157.9184	243.8974	273.6708	296.1712	330.8533	335.3597	376.7239	397.0421	458.8031	499.4769	591.1756	649.6811	712.8141	797.1027	847.7566	853.4717	923.2921	949.1833	1003.8771	1018.5006	1025.3543	1038.7877	1075.1555	1094.1757	1128.3628	1177.4992	1231.8095	1245.0046	1259.8928	1273.9912	1314.4082	1371.0998	1383.8484	1396.2832	1413.2083	1441.6289	1453.148	1486.5521	1687.0986	1717.9828	2918.6716	3004.4605	3029.5615	3076.0988	3132.6796	3149.7577	3160.8999	3180.7608	3794.281	3822.3297
OC1CC(O)C=CC=C1	O[C@@H]1C[C@H](O)C=CC=C1	
InChI=1S/C7H10O2/c8-6-3-1-2-4-7(9)5-6/h1-4,6-9H,5H2	InChI=1S/C7H10O2/c8-6-3-1-2-4-7(9)5-6/h1-4,6-9H,5H2/t6-,7+
