19
gdb 744	2.5454739	1.7408209	1.2811161	1.9487	74.65	-0.23623	-0.01434	0.22189	1019.6003	0.159073	-422.562433	-422.554961	-422.554017	-422.594208	29.708	
O	-0.5495872091	-2.4267691831	 1.0931212346	-0.318898
C	-0.2489964463	-1.2561611281	 1.0215157188	 0.391674
C	-0.607815188	-0.2832378709	 2.1460428587	-0.320488
C	 0.4940972264	 0.706098866	 2.560716731	-0.08681
O	 0.8244935653	 1.7016126175	 1.6087649457	-0.263899
C	 1.22381853	 1.2913170307	 0.313917366	 0.134322
C	 1.8868744656	-0.1092948544	 0.1986801872	-0.273088
C	 0.4882560377	-0.7048602665	-0.1842314384	-0.104941
C	 0.0673934368	 0.7470534354	-0.5725007336	-0.257636
H	-1.4943964553	 0.2861904086	 1.8376001551	 0.130587
H	-0.8962503076	-0.8880267046	 3.0103587134	 0.124929
H	 0.1513872907	 1.2658437984	 3.4357737942	 0.117712
H	 1.3898177379	 0.1479357094	 2.8699284658	 0.102086
H	 1.786858194	 2.1371855097	-0.0867793757	 0.086086
H	 2.5556176453	-0.1404366453	-0.6646139249	 0.115762
H	 2.4195505578	-0.5182084005	 1.0589954701	 0.115801
H	 0.4784781209	-1.467694899	-0.9631499676	 0.088238
H	 0.2590696223	 0.9351949522	-1.6319883039	 0.109812
H	-0.9427371743	 1.0827302047	-0.3293492963	 0.108752
92.3204	216.7162	251.4612	335.7517	351.8617	418.2918	437.2067	481.533	519.4663	665.2892	718.5702	776.2162	792.5054	856.5357	889.7176	913.7964	916.8019	935.8422	980.9191	1030.9997	1056.8104	1061.443	1092.2631	1125.7837	1165.7871	1175.7537	1228.8408	1252.7852	1260.199	1270.0151	1278.0617	1291.7394	1336.2567	1347.893	1390.154	1417.8326	1448.8053	1468.5841	1491.2688	1514.848	1800.3368	2999.0021	3032.9405	3066.1972	3071.8025	3083.2009	3085.8944	3101.2601	3109.3467	3125.6186	3126.9383
O=C1CCOC2CC1C2	O=C1CCO[C@H]2C[C@@H]1C2	
InChI=1S/C7H10O2/c8-7-1-2-9-6-3-5(7)4-6/h5-6H,1-4H2	InChI=1S/C7H10O2/c8-7-1-2-9-6-3-5(7)4-6/h5-6H,1-4H2/t5-,6+
