19
gdb 2841	4.0866389	1.181869	1.0902812	2.4734	75.34	-0.25161	0.06723	0.31884	1153.5312	0.155669	-422.494715	-422.486372	-422.485427	-422.526908	33.055	
C	-4.4415334528	-1.7846120012	 0.1830138899	-0.474868
C	-3.4361683282	-1.0189713995	-0.6635996752	 0.425729
O	-3.8657578391	-0.9360282888	-2.0109318672	-0.484196
C	-2.8935129115	 0.3294473107	-0.1630300577	-0.083085
C	-1.8902338664	-0.3563640231	 0.8294080338	-0.115244
C	-0.7195173128	 0.4827760638	 0.2793235369	 0.142651
O	 0.5998562504	 0.0146474215	 0.3888856768	-0.449784
C	-1.5583175386	 0.1673970594	-0.9732861992	-0.100122
C	-1.923142264	-1.2745763258	-0.4501992512	-0.145334
H	-4.1464725733	-1.825390766	 1.2347182058	 0.123416
H	-5.4282518499	-1.3156696058	 0.1157549048	 0.127297
H	-4.5368370262	-2.8189736658	-0.1724005388	 0.106179
H	-4.1299123989	-1.8163090725	-2.2980511315	 0.275036
H	-3.4320178454	 1.2627657263	 0.0074041722	 0.072033
H	-2.0995476924	-0.6623203306	 1.8550215332	 0.072202
H	-0.6934574602	 1.5316699409	 0.5911470893	 0.082829
H	 0.6192407831	-0.9037398424	 0.0982596155	 0.280235
H	-1.401172467	 0.4530476155	-2.0115888242	 0.084253
H	-1.3611773266	-2.1977819566	-0.6127141232	 0.060771
174.2646	176.607	234.7526	240.9578	270.6291	298.9566	365.9879	397.0284	428.2512	546.112	581.3249	658.7872	749.2604	822.7669	839.3233	843.3035	872.3331	909.0521	926.6351	952.7911	975.6403	1005.0062	1065.6271	1084.1045	1109.2484	1121.6203	1131.2594	1140.5288	1161.259	1173.4265	1182.9151	1212.1421	1235.1789	1281.6204	1290.7085	1304.7009	1395.8935	1410.9299	1447.244	1491.163	1495.2347	3022.342	3067.0593	3075.6222	3088.4474	3101.4884	3111.1853	3120.7033	3138.7447	3803.9978	3809.0571
CC1(O)C2C3C(O)C2C13	C[C@@]1(O)[C@H]2[C@@H]3[C@@H](O)[C@H]2[C@H]13	
InChI=1S/C7H10O2/c1-7(9)4-2-5(7)3(4)6(2)8/h2-6,8-9H,1H3	InChI=1S/C7H10O2/c1-7(9)4-2-5(7)3(4)6(2)8/h2-6,8-9H,1H3/t2-,3+,4-,5+,6-,7-/m0/s1
