19
gdb 1288	2.1296369	1.1733353	0.8710432	2.1133	79.53	-0.23731	0.04629	0.28359999999999996	1367.7397	0.153758	-422.506834	-422.496643	-422.495699	-422.541843	37.671	
C	 0.4423382293	 2.9564337222	 1.294143309	-0.416733
C	-1.0515191075	 2.7848234443	 1.0253303187	 0.117218
O	-1.8254804032	 3.375114315	 2.0695723585	-0.427756
C	-1.542963043	 1.35917394	 0.7860934277	-0.082529
C	-0.9607973856	 0.3840657497	-0.181815842	 0.075901
O	 0.1589182588	 0.7717677057	-0.9170667052	-0.411463
C	-0.8179141839	 0.1127030288	 1.3161434072	-0.303033
C	-1.5417967194	-0.9486360581	 1.9462110518	 0.311008
C	-2.1587088035	-1.8432408112	 2.4638231607	-0.430738
H	 1.0407132175	 2.5567181238	 0.4736343202	 0.139529
H	 0.661295745	 4.0197719962	 1.4200389224	 0.120787
H	 0.7355505585	 2.4438031584	 2.2184564972	 0.104386
H	-1.3157025508	 3.3698584362	 0.1358527002	 0.102395
H	-1.628704851	 2.8932363994	 2.8810413733	 0.278395
H	-2.6248260959	 1.3072033505	 0.8639019723	 0.114077
H	-1.6641705911	-0.2515207198	-0.7181145966	 0.105864
H	 0.681623164	-0.0151486305	-1.1050900485	 0.294007
H	 0.1856611945	 0.2907123169	 1.6911731255	 0.114935
H	-2.7010430727	-2.6307433774	 2.9247794476	 0.19375
55.6468	106.7811	148.9846	195.0293	233.7737	267.7568	296.0785	324.1229	334.0352	385.0756	410.5302	483.7283	491.9097	549.7242	573.5337	585.4657	648.5422	811.3459	846.0193	903.5356	917.4733	976.0455	1020.7926	1052.996	1079.0742	1104.0462	1118.5395	1152.631	1173.4045	1232.3435	1284.7799	1291.4237	1310.1108	1365.1222	1371.6171	1403.7318	1422.0039	1472.1936	1496.8444	1504.1891	2232.9077	3029.9784	3040.2463	3106.3081	3112.1385	3146.6102	3154.2864	3162.5374	3505.6504	3794.7064	3805.4882
CC(O)C1C(O)C1C#C	C[C@H](O)[C@H]1[C@@H](O)[C@@H]1C#C	
InChI=1S/C7H10O2/c1-3-5-6(4(2)8)7(5)9/h1,4-9H,2H3	InChI=1S/C7H10O2/c1-3-5-6(4(2)8)7(5)9/h1,4-9H,2H3/t4-,5+,6+,7-/m0/s1
