19
gdb 5729	3.3740098	1.07568	0.9013759	3.6648	78.8	-0.23742	-0.02542	0.212	1338.8952	0.154996	-422.529112	-422.519818	-422.518874	-422.563837	33.277	
C	 1.5080753018	 0.2082923483	-0.2336284688	-0.236991
O	 0.1232395272	 0.0000363231	-0.0465754246	-0.237349
C	-0.3578254353	 0.4961578598	 1.1612177141	 0.038244
C	-0.1739110064	-0.3483830501	 2.4769952439	-0.380364
C	-1.6884855918	-0.2462535632	 2.7179602751	 0.235461
C	-2.439333992	 0.1796050049	 3.9645357648	-0.305738
C	-2.6425987963	-1.1926799444	 3.4074533802	-0.307918
C	-1.8915291795	 0.3613077921	 1.3606378909	 0.316179
O	-2.8491513261	 0.6057229546	 0.6839999552	-0.308593
H	 2.1098969923	-0.3207452025	 0.5199675617	 0.110161
H	 1.7608267137	-0.1798246802	-1.2228413294	 0.133954
H	 1.7624166717	 1.2785739578	-0.1924022488	 0.109078
H	-0.0497115525	 1.5443049136	 1.3183890896	 0.089806
H	 0.1566425659	-1.3655565665	 2.2502616795	 0.117234
H	 0.4740793272	 0.0886393292	 3.2393489369	 0.105526
H	-1.8548881343	 0.2877614125	 4.8723197094	 0.123346
H	-3.2283833956	 0.9128111185	 3.834871149	 0.134965
H	-2.2051470165	-2.0347854975	 3.9329647998	 0.124188
H	-3.5692503035	-1.4048344303	 2.8844176015	 0.138812
50.2824	85.095	155.7434	180.9705	205.2203	213.8302	291.0989	332.6011	385.823	493.4426	574.3276	702.4129	753.135	787.136	809.8192	830.4337	905.9053	926.6677	971.3856	1028.7412	1042.5022	1059.6151	1063.2634	1083.9653	1129.8762	1170.2123	1182.5474	1186.2876	1198.0561	1229.5	1247.6622	1262.1228	1364.4914	1372.7741	1457.7097	1478.7393	1482.4367	1488.5929	1490.7664	1506.4219	1885.5664	2957.4451	2980.0707	3029.5828	3063.1882	3120.63	3121.0313	3129.7732	3132.4539	3213.5775	3228.5994
COC1CC2(CC2)C1=O	CO[C@@H]1CC2(CC2)C1=O	
InChI=1S/C7H10O2/c1-9-5-4-7(2-3-7)6(5)8/h5H,2-4H2,1H3	InChI=1S/C7H10O2/c1-9-5-4-7(2-3-7)6(5)8/h5H,2-4H2,1H3/t5-/m1/s1
