19
gdb 2446	2.8557926	1.8144475	1.5401953	1.5799	73.08	-0.22211	0.08949	0.3116	946.0047	0.159091	-422.559013	-422.551696	-422.550752	-422.59042	29.259	
C	-0.0308034891	 0.279105066	 0.7156883307	-0.475199
C	 1.4763663909	 0.3803691862	 0.7742048487	 0.226992
C	 2.2256617334	-0.8763298288	 1.2036766434	-0.270185
C	 3.7640385638	-0.6539755137	 1.2277489283	-0.224045
C	 4.0639867634	 0.7811909142	 0.8056549574	 0.166965
O	 3.3938215347	 1.6796459949	 1.6837040937	-0.26682
C	 2.0740133201	 1.7174308442	 1.1866860946	 0.011316
C	 2.1594442628	 1.2781530554	-0.2468125907	 0.011253
O	 3.5234221281	 1.0130404498	-0.4910287641	-0.266828
H	-0.446775491	 0.0265314652	 1.6980717326	 0.120568
H	-0.4853368409	 1.2234340911	 0.3970178248	 0.11574
H	-0.3459811257	-0.4956175392	 0.0069091773	 0.120557
H	 1.8671636203	-1.1809273909	 2.1934034506	 0.105815
H	 1.9673702889	-1.6928464782	 0.5199728058	 0.10583
H	 4.174975452	-0.8182868649	 2.2280799177	 0.107695
H	 4.2760735618	-1.3353994986	 0.5421788045	 0.107681
H	 5.1287230525	 1.0246379751	 0.7944860829	 0.092739
H	 1.4923035027	 2.5430186622	 1.5766964964	 0.104964
H	 1.6514342914	 1.7252986	-1.0918431347	 0.104961
120.192	205.3565	256.2251	284.2733	378.3882	398.1722	489.8867	516.507	627.0301	719.5209	727.6795	808.8991	837.6082	861.9312	866.8365	894.5522	908.8176	951.6152	1013.4962	1040.6241	1064.7126	1067.3963	1072.9298	1089.0545	1115.9843	1150.6952	1201.4294	1219.4524	1267.4973	1278.4921	1284.1697	1298.3946	1365.8731	1370.9446	1378.3988	1412.2346	1427.2729	1473.8966	1490.6308	1495.7841	1507.2431	3018.838	3029.7571	3055.4747	3060.418	3082.4252	3090.4642	3097.4411	3101.9781	3190.8868	3199.7115
CC12CCC3OC1C2O3	C[C@]12CC[C@@H]3O[C@H]1[C@H]2O3	
InChI=1S/C7H10O2/c1-7-3-2-4-8-5(7)6(7)9-4/h4-6H,2-3H2,1H3	InChI=1S/C7H10O2/c1-7-3-2-4-8-5(7)6(7)9-4/h4-6H,2-3H2,1H3/t4-,5+,6-,7+
