19
gdb 3241	2.8261463	1.8737087	1.5017618	1.1949	72.95	-0.23081	0.08278	0.31359	941.5373	0.159659	-422.541442	-422.534547	-422.533603	-422.572338	28.25	
C	 0.3690995759	 1.0857234816	-0.2776056137	-0.425723
C	 0.6520558978	-0.3878709969	-0.001292251	 0.018496
C	 1.2609261592	-1.1454037004	-1.2061063714	 0.044663
O	 2.541545312	-0.4551000615	-1.3542279393	-0.297965
C	 2.8835425564	-1.1398554106	-0.1278027076	 0.071209
C	 2.0171046644	-2.3485290265	-0.5414431001	-0.067784
C	 1.4449950965	-2.9325637128	 0.7422806021	-0.117945
O	 1.5822153227	-1.8710706382	 1.7064973752	-0.273925
C	 1.8483370686	-0.689523097	 0.9558161375	 0.06264
H	 0.0707603427	 1.6018656203	 0.6407024756	 0.114465
H	 1.2555131248	 1.580431641	-0.6812013401	 0.136997
H	-0.4440321447	 1.2014240159	-1.0029473439	 0.111349
H	-0.2447261947	-0.8796463077	 0.3887908827	 0.080526
H	 0.693059775	-1.2287243888	-2.1334084718	 0.077668
H	 3.9450446418	-1.1668476388	 0.1120819505	 0.086698
H	 2.4627278466	-3.0405062943	-1.2535162359	 0.088921
H	 0.3930989619	-3.2364715881	 0.649987222	 0.100896
H	 2.0176395899	-3.7980605246	 1.0938444394	 0.109848
H	 2.1333088731	 0.1028754874	 1.6468413498	 0.078968
194.9416	215.7599	266.7111	296.0848	384.224	456.6609	547.5992	612.0642	716.774	739.9767	792.2588	844.8183	857.1607	872.6497	915.1397	930.1098	949.6565	971.3087	998.6761	1032.9143	1036.9116	1048.0752	1075.8522	1106.4931	1122.556	1153.9165	1188.3276	1200.456	1232.7148	1241.6942	1264.2518	1290.3341	1295.0137	1318.9722	1339.546	1374.8639	1390.7498	1405.8858	1495.3534	1509.2552	1524.0207	3006.4245	3034.3412	3057.0079	3060.7071	3094.8814	3115.7249	3127.2406	3129.168	3137.3371	3147.0184
CC1C2OC3C2COC13	C[C@H]1[C@H]2O[C@@H]3[C@H]2CO[C@H]13	
InChI=1S/C7H10O2/c1-3-5-4-2-8-6(3)7(4)9-5/h3-7H,2H2,1H3	InChI=1S/C7H10O2/c1-3-5-4-2-8-6(3)7(4)9-5/h3-7H,2H2,1H3/t3-,4-,5+,6+,7+/m0/s1
