19
gdb 4054	2.7150555	1.8349453	1.3356933	1.5415	73.76	-0.2373	0.0712	0.3085	992.36	0.157454	-422.515874	-422.508244	-422.5073	-422.547521	30.804	
C	 0.7641902412	 0.8779352574	-0.0206393707	-0.406838
C	 0.7997296046	-0.6320085333	 0.2170231248	-0.03891
C	 1.276291663	-1.4804298086	-1.0071075778	-0.271322
C	 2.4831524439	-2.2068544074	-0.4117748922	-0.039136
C	 2.1761599756	-2.5875211149	 1.0580326594	-0.031443
O	 3.5728789237	-2.3385621596	 1.4666689777	-0.344712
C	 3.2459188086	-1.2437220554	 0.530963241	-0.026277
C	 1.8491592777	-1.0644281705	 1.2300176088	 0.467097
O	 1.7639630857	-0.5057427429	 2.4865607394	-0.502918
H	 0.5191935519	 1.4106178448	 0.9024926213	 0.133652
H	 1.7354677005	 1.2456475661	-0.3715564563	 0.111367
H	 0.0165790888	 1.1379298825	-0.7767702444	 0.112182
H	-0.1891391683	-0.9612813069	 0.5564212287	 0.079563
H	 0.5098762451	-2.1769027935	-1.3598221903	 0.105349
H	 1.558429224	-0.8472733094	-1.854689846	 0.10439
H	 3.0642522342	-2.9045441478	-1.0119926609	 0.08254
H	 1.6756595668	-3.4658295836	 1.4681538493	 0.088663
H	 4.0290637688	-0.5171967689	 0.3111923412	 0.089776
H	 2.5005177142	-0.8821103281	 2.9902871869	 0.286976
115.6097	227.6325	232.5574	303.6193	342.6283	368.3667	473.3254	508.2665	536.2467	656.0855	685.1749	702.1288	768.5107	811.6964	844.6953	893.9089	897.0525	923.962	939.6117	970.7443	1003.3302	1030.5885	1077.1723	1100.7287	1113.0406	1136.3504	1157.1959	1175.6582	1194.8395	1235.9807	1243.6763	1273.3011	1295.2177	1323.1345	1351.6904	1373.4007	1408.1921	1431.3882	1494.4536	1498.1898	1501.4762	3029.6843	3036.3908	3048.9402	3089.6486	3096.849	3107.9888	3113.2021	3115.4833	3144.4022	3734.7965
CC1CC2C3OC2C13O	C[C@H]1C[C@@H]2[C@H]3O[C@@H]2[C@@]13O	
InChI=1S/C7H10O2/c1-3-2-4-5-7(3,8)6(4)9-5/h3-6,8H,2H2,1H3	InChI=1S/C7H10O2/c1-3-2-4-5-7(3,8)6(4)9-5/h3-6,8H,2H2,1H3/t3-,4-,5-,6+,7-/m0/s1
