19
gdb 1475	2.3988884	1.68124	1.3357933	1.9976	76.36	-0.20723	0.01631	0.22354	1036.4345	0.155961	-422.557755	-422.549158	-422.548214	-422.589983	34.186	
C	-0.1206502223	-0.2894842474	 0.1555100674	-0.478852
C	 1.366140333	-0.0470071662	 0.1145114771	 0.325441
O	 2.0599155308	-0.5732177473	 1.2362084478	-0.475973
C	 2.0215508348	 1.2375056978	-0.34357583	-0.181687
C	 1.2566053598	 2.1890638447	-1.2605539867	-0.29431
C	 1.0435198784	 1.3796777216	-2.5258825147	-0.075604
C	 1.5954144899	 0.1660575513	-2.4489976978	-0.141148
C	 2.2442635622	-0.0639428617	-1.1328421184	 0.360165
O	 3.4085972498	-0.8192538734	-1.1229217332	-0.487682
H	-0.5671014655	 0.203201582	 1.0260789183	 0.125335
H	-0.611881885	 0.0798278616	-0.746203857	 0.136647
H	-0.3355256944	-1.3639576797	 0.2272361985	 0.107126
H	 1.7508232897	-1.4779698622	 1.3637408189	 0.285657
H	 2.7969049414	 1.6219158143	 0.3095547646	 0.096194
H	 0.303253228	 2.516621409	-0.8240984485	 0.109889
H	 1.8295230438	 3.1041128469	-1.4593149027	 0.113481
H	 0.4737517381	 1.7564307061	-3.3676302416	 0.096086
H	 1.584819076	-0.5954659935	-3.2198291913	 0.100132
H	 3.5525912117	-1.053858964	-0.1951374509	 0.279105
183.4227	209.3019	212.5044	247.1512	278.0812	299.3294	361.8649	393.135	415.227	490.2108	537.32	547.4464	641.1904	684.706	729.9857	753.4642	828.6301	889.6445	919.8593	943.6167	960.6644	968.7312	1006.8928	1034.92	1083.8801	1107.4819	1121.9493	1167.3536	1181.6386	1211.0945	1277.3482	1299.5493	1310.4019	1351.3332	1410.0292	1433.7545	1444.9129	1472.7581	1492.7309	1499.5208	1668.3978	3014.1388	3019.4282	3039.4099	3080.4943	3136.593	3178.4239	3191.0301	3215.6879	3738.9638	3787.4591
CC1(O)C2CC=CC12O	C[C@]1(O)[C@@H]2CC=C[C@]12O	
InChI=1S/C7H10O2/c1-6(8)5-3-2-4-7(5,6)9/h2,4-5,8-9H,3H2,1H3	InChI=1S/C7H10O2/c1-6(8)5-3-2-4-7(5,6)9/h2,4-5,8-9H,3H2,1H3/t5-,6-,7+/m0/s1
