19
gdb 3387	2.9487908	1.353703	1.075705	2.3071	75.36	-0.22979	0.08024	0.31003000000000003	1168.4004	0.156656	-422.519139	-422.510938	-422.509994	-422.551741	31.364	
C	-0.1847009885	 0.1254985995	-0.164245681	-0.418753
C	 1.3241887682	 0.1839714887	-0.0789565656	-0.07168
C	 2.1471354074	-0.9123032456	-0.6970873872	 0.105583
O	 3.4579667893	-0.6240856968	-1.1170329968	-0.26321
C	 4.1797297513	-0.0651213334	-0.0204209602	-0.16889
C	 3.43541836	-0.4839590325	 1.2480339179	 0.414971
C	 3.8375918421	-0.0802855691	 2.5963847186	-0.252034
O	 4.0802832887	-1.4126190136	 2.1260988003	-0.276619
C	 2.0464037443	-0.8308932881	 0.8043024904	-0.185854
H	-0.6531503113	 0.6302099982	 0.6877712724	 0.121317
H	-0.545887126	 0.6041528105	-1.0806732886	 0.12401
H	-0.5397422355	-0.9106900089	-0.1685776829	 0.118231
H	 1.7464779632	 1.1852607502	-0.1156323404	 0.090818
H	 1.685650113	-1.6888520852	-1.2962252802	 0.10456
H	 5.2014116538	-0.4544993795	-0.0302762082	 0.127586
H	 4.219551832	 1.0301996507	-0.1082291395	 0.102971
H	 4.7273866225	 0.5331317757	 2.7406272678	 0.112574
H	 3.0852341914	 0.0121458923	 3.3787916711	 0.114831
H	 1.4801184343	-1.531203463	 1.4065062223	 0.099588
108.9288	164.5161	201.9098	218.4201	288.3745	315.1195	375.2821	409.0399	457.8497	539.6749	724.9676	800.6955	814.5553	832.4388	858.4976	905.6288	923.5391	972.2781	978.7791	1024.4303	1028.0197	1065.3251	1086.6961	1106.8568	1125.9835	1126.8806	1165.2077	1168.1051	1201.8422	1225.4677	1249.5389	1276.2011	1313.6864	1349.4439	1417.737	1429.2624	1448.343	1493.7403	1501.934	1507.2686	1537.5567	2996.9169	3027.955	3074.5599	3091.0387	3091.98	3095.9271	3139.0487	3159.119	3177.9536	3188.3449
CC1C2OCC3(CO3)C12	C[C@@H]1[C@H]2OC[C@@]3(CO3)[C@@H]12	
InChI=1S/C7H10O2/c1-4-5-6(4)8-2-7(5)3-9-7/h4-6H,2-3H2,1H3	InChI=1S/C7H10O2/c1-4-5-6(4)8-2-7(5)3-9-7/h4-6H,2-3H2,1H3/t4-,5-,6+,7+/m0/s1
