19
gdb 829	3.1468286	0.8081403	0.6991869	3.7641	78.37	-0.2479	-0.01638	0.23152	1609.287	0.1553	-422.529362	-422.520193	-422.519248	-422.564595	32.636	
O	 0.607278916	-1.2078146776	 0.203268323	-0.26872
C	 0.3416923449	-0.0637255783	-0.0703603175	 0.165275
C	 0.0485027121	 0.9988170219	 0.9140781016	-0.093983
C	-0.9540942634	 2.0841276655	 0.5355158892	-0.315698
C	 0.4929599558	 2.4262670713	 0.5990468033	 0.006054
C	 1.0622764303	 3.2886250784	 1.708272801	-0.261363
C	 2.5405923175	 3.0492202715	 1.9098818055	 0.103039
C	 3.4703571033	 4.1320153109	 2.2494854816	-0.179878
O	 3.4059927622	 3.6136524092	 0.9194696566	-0.23626
H	 0.300232836	 0.2817591175	-1.1320925278	 0.063476
H	 0.0760476933	 0.6772384469	 1.9499360678	 0.103158
H	-1.428236294	 2.0106984416	-0.4377929794	 0.126229
H	-1.6084796332	 2.4284876488	 1.3289975141	 0.126522
H	 0.9973979889	 2.5505224478	-0.3560557756	 0.11309
H	 0.9056531934	 4.3465126223	 1.4658637602	 0.111991
H	 0.5291739016	 3.0889445535	 2.6467799242	 0.104011
H	 2.813244487	 2.0336236414	 2.2022045851	 0.10134
H	 3.090114597	 5.14535071	 2.3746570611	 0.113524
H	 4.3862752512	 3.9103293575	 2.7951655261	 0.118192
49.8435	72.7228	104.1305	149.8753	231.9913	267.9788	309.383	381.6655	444.4756	482.0093	515.3048	772.4845	788.108	862.0231	865.071	883.1738	930.6257	943.491	965.7871	1044.0591	1053.5846	1076.193	1083.7938	1109.0121	1132.9781	1158.3576	1162.4704	1181.0883	1183.6473	1222.9148	1259.0222	1294.0068	1305.1603	1321.9196	1417.9847	1444.6378	1448.5781	1467.3457	1490.7724	1531.5664	1822.2077	2836.2442	3024.0158	3065.5765	3082.5551	3100.3776	3132.5726	3144.4223	3169.1224	3173.1343	3219.501
O=CC1CC1CC1CO1	O=C[C@@H]1C[C@H]1C[C@@H]1CO1	
InChI=1S/C7H10O2/c8-3-6-1-5(6)2-7-4-9-7/h3,5-7H,1-2,4H2	InChI=1S/C7H10O2/c8-3-6-1-5(6)2-7-4-9-7/h3,5-7H,1-2,4H2/t5-,6-,7+/m0/s1
