19
gdb 2328	2.4829379	1.817304	1.5431117	1.163	74.41	-0.22825	0.05899	0.28724	969.8727	0.156622	-422.504476	-422.496616	-422.495672	-422.53641	30.846	
C	-0.027660662	 0.0717317255	-0.2802474393	-0.47779
C	 1.4624106738	 0.0148907184	-0.0844989357	 0.30829
C	 2.2192774938	 1.3033176798	 0.3492844611	-0.135461
O	 2.7569059984	 0.6393196623	 1.531935146	-0.337908
C	 2.2641283817	-0.606678258	 1.0816023903	 0.392782
C	 1.8613897688	-1.8299908536	 1.8861124483	-0.33899
C	 2.2055648863	-2.6901564259	 0.6161014345	-0.249661
C	 2.9056027712	-1.4574526011	-0.0404166082	 0.037354
O	 2.1532737247	-0.7842200217	-1.0774730183	-0.34431
H	-0.5081449848	 0.6108220169	 0.5418930085	 0.126644
H	-0.2650847037	 0.5929163814	-1.2148204813	 0.134157
H	-0.4534504961	-0.9337256137	-0.340682871	 0.128093
H	 3.0039287152	 1.61288268	-0.3485395089	 0.114114
H	 1.5993963508	 2.1619773171	 0.6294050305	 0.106286
H	 2.5574650178	-2.0253127121	 2.7071218425	 0.120263
H	 0.8404555643	-1.8664675144	 2.2755098349	 0.104205
H	 2.8598453391	-3.5431027192	 0.8038905934	 0.110438
H	 1.3364352914	-3.0244078469	 0.0470019042	 0.117086
H	 3.9705410593	-1.5367123046	-0.2656811814	 0.084409
131.768	177.8034	192.1006	241.2816	341.6788	368.8364	403.4034	486.3185	510.9243	631.9744	691.8409	723.3556	809.1507	849.5248	866.4004	885.0659	913.5512	919.3494	948.8434	976.1986	1011.3061	1088.3037	1097.7122	1116.9974	1141.6226	1158.0464	1180.8178	1203.8213	1213.9829	1235.929	1256.4769	1277.0376	1321.3859	1322.787	1372.7622	1411.4602	1465.2222	1481.2504	1486.3837	1494.1235	1506.0057	3030.644	3035.7969	3055.8355	3078.24	3091.2431	3099.0119	3101.5529	3104.2956	3118.6717	3139.7948
CC12COC11CCC1O2	C[C@@]12CO[C@]31CC[C@H]3O2	
InChI=1S/C7H10O2/c1-6-4-8-7(6)3-2-5(7)9-6/h5H,2-4H2,1H3	InChI=1S/C7H10O2/c1-6-4-8-7(6)3-2-5(7)9-6/h5H,2-4H2,1H3/t5-,6-,7-/m1/s1
