19
gdb 4144	2.5007676	1.4438083	1.1096316	3.7057	76.91	-0.23607	-0.0106	0.22547	1149.2263	0.155358	-422.553691	-422.544502	-422.543558	-422.587795	33.914	
C	 1.0008739318	-2.8975250973	-3.439571271	-0.500377
C	 1.4021606524	-1.8470992288	-2.418827915	 0.274206
O	 1.6686551107	-0.7066010227	-2.741629628	-0.326268
C	 1.4564132672	-2.2824410548	-1.0018657947	 0.280408
C	 1.2053575686	-1.2717100528	 0.1045103475	-0.311803
C	 2.5423134778	-1.9076939323	 0.050268895	-0.087799
C	 2.4812823248	-3.3202454212	 0.6367383695	-0.272477
C	 1.4104189011	-3.7013554872	-0.4484538046	 0.009959
O	 0.1209092314	-4.0938950202	-0.0299503867	-0.43456
H	 0.8277976574	-2.4198728988	-4.4044472997	 0.139704
H	 1.798561755	-3.6420342821	-3.5489213656	 0.137561
H	 0.1045626425	-3.4337059585	-3.1105109551	 0.147656
H	 1.1487010997	-0.2552802527	-0.2676300665	 0.14284
H	 0.5019146341	-1.5341979919	 0.8888870531	 0.125348
H	 3.4412517734	-1.3447875536	-0.1655129046	 0.109984
H	 3.4067285917	-3.8908697847	 0.5357161955	 0.104927
H	 2.1308938121	-3.378161346	 1.672008172	 0.10356
H	 1.8277205067	-4.4243054717	-1.1619806892	 0.071436
H	 0.1755431616	-4.9855759828	 0.3291799882	 0.285694
58.7889	109.3988	158.79	183.1468	203.8593	294.7094	328.2645	371.4371	413.3186	475.018	568.3052	602.4933	635.9806	700.0055	811.0938	836.9988	857.5836	929.9357	951.7925	970.3345	1011.8659	1033.5273	1051.6205	1073.0422	1086.3162	1123.0822	1130.9702	1193.3652	1209.0678	1236.9337	1248.1755	1301.502	1324.7645	1371.9315	1388.9346	1434.545	1466.1329	1471.2899	1475.7515	1493.1388	1779.6725	3008.7488	3035.0454	3052.1459	3097.0236	3114.8715	3129.9646	3153.3482	3202.2727	3231.6634	3812.5898
CC(=O)C12CC1CC2O	CC(=O)[C@]12C[C@H]1C[C@H]2O	
InChI=1S/C7H10O2/c1-4(8)7-3-5(7)2-6(7)9/h5-6,9H,2-3H2,1H3	InChI=1S/C7H10O2/c1-4(8)7-3-5(7)2-6(7)9/h5-6,9H,2-3H2,1H3/t5-,6-,7-/m1/s1
