19
gdb 3556	1.9516653	1.6591932	0.9292564	5.2579	80.07	-0.25587	-0.03764	0.21822999999999998	1268.6644	0.156499	-422.616909	-422.607966	-422.607022	-422.650411	33.129	
C	-3.7107141327	 1.0969256769	 0.6037625465	-0.40002
C	-2.474453357	 0.3847714891	 0.0804598943	 0.128941
C	-1.1600329365	 1.0274065057	 0.5163993072	-0.312187
C	 0.0075853715	 0.1452546051	 0.1523228298	 0.300306
C	 1.3496556917	 0.7875955321	-0.0259875857	-0.481698
C	-0.2009497348	-1.1720538105	 0.0330280811	-0.289265
C	-1.4976455714	-1.8068527097	 0.3441765403	 0.416319
O	-1.638949009	-2.9950580142	 0.4837098419	-0.342887
O	-2.5626554734	-0.9796370916	 0.5368090359	-0.253031
H	-3.7102585564	 1.113166176	 1.6977970445	 0.12937
H	-3.7393740861	 2.1279544124	 0.2382623764	 0.11778
H	-4.6147947354	 0.5829722798	 0.2684981746	 0.136424
H	-2.4983057075	 0.365216746	-1.0189406984	 0.089104
H	-1.0638442193	 2.0097393781	 0.0391375049	 0.113936
H	-1.1643735718	 1.2091084216	 1.6011954198	 0.125726
H	 1.6367579706	 1.3390983411	 0.878431827	 0.138059
H	 2.1273127396	 0.0519219075	-0.2432679049	 0.135436
H	 1.3251320441	 1.5217177143	-0.8411006798	 0.135511
H	 0.5964900638	-1.8669278897	-0.2048496357	 0.112176
118.3322	136.6704	151.9116	201.6054	230.7373	256.5371	309.0857	434.2563	449.4582	457.7974	498.8467	530.7377	631.9188	736.0906	857.8843	867.6003	893.2296	906.4313	936.7131	997.9181	1033.2575	1039.8092	1092.5424	1129.4392	1155.1582	1175.9334	1232.5191	1262.0271	1306.895	1357.6488	1388.9585	1402.1415	1411.0815	1413.7123	1462.486	1476.7539	1481.2181	1484.2071	1499.2568	1708.2218	1821.7315	2996.2226	3010.3219	3021.1285	3044.8617	3061.9707	3069.3824	3118.2824	3124.0868	3128.9137	3198.8269
CC1CC(C)=CC(=O)O1	C[C@H]1CC(=CC(=O)O1)C	
InChI=1S/C7H10O2/c1-5-3-6(2)9-7(8)4-5/h4,6H,3H2,1-2H3	InChI=1S/C7H10O2/c1-5-3-6(2)9-7(8)4-5/h4,6H,3H2,1-2H3/t6-/m0/s1
