19
gdb 1297	2.5660318	1.3774185	0.9766465	2.7587	75.68	-0.24306	-0.02945	0.21361	1227.2573	0.154781	-422.533123	-422.52405	-422.523106	-422.566994	33.415	
C	 2.3893254818	 1.0136343894	 2.4996105236	-0.397746
C	 1.0719936411	 1.7078589332	 2.1225166109	 0.016338
C	 0.582166444	 2.6193363261	 3.2571296657	-0.397292
C	-0.0069556272	 0.6765582632	 1.7559958075	-0.152785
C	 0.195894557	-0.1667493072	 0.4795959336	 0.018117
O	-0.9826789765	-0.9440805669	 0.3251526667	-0.232596
C	-0.9950358852	 0.3974784372	-0.2083789283	-0.114413
C	-1.2244896139	 1.3053869177	 0.9942872038	 0.416059
O	-1.9139227335	 2.262380762	 1.19140948	-0.305666
H	 2.2517840223	 0.3663419749	 3.3734456885	 0.119156
H	 2.7798705801	 0.3959720981	 1.6846240579	 0.111078
H	 3.155843528	 1.7535956566	 2.75178399	 0.118466
H	 1.2578582168	 2.334454129	 1.2381180336	 0.076335
H	 0.4143294003	 2.039410892	 4.1725129959	 0.112471
H	 1.3285280905	 3.3876280705	 3.4828109979	 0.110199
H	-0.3556698263	 3.1119027073	 2.9913149648	 0.148629
H	-0.2679460043	 0.0616558934	 2.6234565042	 0.10661
H	 1.1117108484	-0.5273460813	 0.0280925258	 0.124185
H	-1.2376704435	 0.521328745	-1.2570422921	 0.122855
73.1694	125.4659	158.0942	201.8156	230.758	255.2273	305.3697	347.4382	422.8866	474.9742	495.5206	665.5944	711.6673	819.4699	848.899	866.7415	894.392	928.5559	933.928	943.0443	969.1434	1023.5235	1034.1014	1081.009	1125.3194	1146.7548	1193.6166	1200.4301	1213.5367	1243.8435	1285.8514	1338.2126	1350.2459	1380.9016	1401.5256	1422.2303	1489.2759	1492.4129	1504.3882	1513.7498	1885.782	2998.8505	3027.892	3032.509	3063.9239	3093.1363	3098.8584	3101.7675	3132.0367	3192.718	3206.9594
CC(C)C1C2OC2C1=O	CC(C)[C@@H]1[C@H]2O[C@H]2C1=O	
InChI=1S/C7H10O2/c1-3(2)4-5(8)7-6(4)9-7/h3-4,6-7H,1-2H3	InChI=1S/C7H10O2/c1-3(2)4-5(8)7-6(4)9-7/h3-4,6-7H,1-2H3/t4-,6+,7-/m0/s1
