19
gdb 2099	2.365612	1.9535851	1.3893169	1.2586	74.96	-0.22853	0.08512	0.31365	1003.576	0.155836	-422.514177	-422.505948	-422.505004	-422.546404	31.827	
C	 4.7266582736	 0.3524435027	 0.0559035682	-0.531579
C	 3.263534139	 0.0917436416	-0.1010894947	 0.402685
O	 2.3051247612	 0.8854480311	 0.6836922775	-0.378288
C	 1.4473839913	-0.026622052	-0.0888371918	 0.402687
C	-0.0349603762	 0.0421105835	 0.0880105502	-0.531581
C	 2.4383981809	-1.2149270235	 0.1473302663	-0.17214
C	 2.4824767863	-2.0241705275	-1.1370391888	-0.115941
O	 2.4075016519	-0.9771422175	-2.1343299069	-0.281409
C	 2.336786379	 0.189123021	-1.3501683224	 0.015789
H	 5.055699719	 0.1418876614	 1.078321792	 0.131915
H	 5.2970456728	-0.2817418921	-0.6302918368	 0.132429
H	 4.9557091718	 1.3978995827	-0.1725889281	 0.135628
H	-0.320178693	-0.2087630501	 1.1144869333	 0.131911
H	-0.4007550201	 1.0488783794	-0.1361873049	 0.135631
H	-0.5273831739	-0.661118923	-0.5912427454	 0.132431
H	 2.4770406931	-1.7073916353	 1.118052118	 0.080104
H	 3.4109508257	-2.5935783934	-1.2669194753	 0.107526
H	 1.6341079133	-2.7093933364	-1.2549279297	 0.107527
H	 2.2737890642	 1.0933460375	-1.9529899907	 0.094675
176.7361	178.9061	211.7143	213.0092	218.7841	239.9529	400.4044	488.559	511.4984	598.0326	659.4901	680.0573	731.2063	761.5892	778.6557	879.4314	915.3212	947.8896	972.5749	992.3779	1012.8051	1061.7498	1084.2045	1094.5855	1103.8144	1142.6124	1184.8186	1195.6269	1203.9548	1260.8868	1277.1692	1279.3294	1359.6724	1399.7162	1407.542	1461.2686	1475.327	1476.8812	1489.3237	1491.4719	1520.3935	3019.617	3036.8512	3037.1572	3056.4844	3109.592	3109.7332	3111.8708	3111.8812	3136.2056	3149.0676
CC12OC3(C)C1COC23	C[C@]12O[C@]3(C)[C@H]1CO[C@H]23	
InChI=1S/C7H10O2/c1-6-4-3-8-5(6)7(4,2)9-6/h4-5H,3H2,1-2H3	InChI=1S/C7H10O2/c1-6-4-3-8-5(6)7(4,2)9-6/h4-5H,3H2,1-2H3/t4-,5+,6-,7+
