19
gdb 725	2.4654535	1.7968299	1.2410634	2.2282	74.25	-0.23821	-0.0179	0.22031	1039.3288	0.159252	-422.601209	-422.593513	-422.592569	-422.634053	29.223	
O	 0.8497674816	-0.0370909865	-1.0197644698	-0.320726
C	-0.1631097135	-0.0312156882	-0.369511104	 0.401188
C	-0.8393660791	-1.2592685527	 0.2502401635	-0.31593
C	-2.1714137225	-0.7492321805	 0.8216973327	-0.24795
C	-1.9365163547	 0.7438008202	 1.0790672152	 0.102155
O	-1.1878368897	 0.9012392391	 2.2816446804	-0.267711
C	-0.4768751193	 2.1311311551	 2.1829945261	-0.071229
C	-0.1106442321	 2.3154475042	 0.6873850949	-0.256533
C	-0.9648146068	 1.2328328273	-0.0042191012	-0.125331
H	-0.9337016858	-2.0602320876	-0.486997711	 0.127628
H	-0.1757033023	-1.6282505051	 1.0398916598	 0.145404
H	-2.9781275172	-0.8623102656	 0.0895847896	 0.105046
H	-2.4786056566	-1.2608075472	 1.7363186367	 0.118949
H	-2.8710328391	 1.3218535321	 1.1275599792	 0.062319
H	-1.1075239143	 2.9633262527	 2.5311983517	 0.092568
H	 0.3921628481	 2.0631353061	 2.8424329303	 0.113174
H	-0.3619378385	 3.3187692126	 0.3365603766	 0.106687
H	 0.9509130362	 2.1507762982	 0.4873299767	 0.130265
H	-1.4595072944	 1.5966875657	-0.9104319573	 0.10003
51.6129	109.5615	190.4988	245.9948	336.2244	448.8002	511.4937	573.2048	638.4246	684.2812	732.4364	796.4881	807.7049	837.899	900.0706	930.1309	933.4938	960.716	1007.138	1013.7437	1034.8526	1083.1018	1118.2135	1144.4262	1163.5581	1205.124	1218.5253	1225.1505	1251.6165	1279.2711	1292.2954	1305.9701	1333.0445	1349.185	1368.5988	1395.3629	1445.3577	1485.6993	1503.9431	1523.7228	1842.3248	2985.4352	2993.6906	3055.2208	3058.5582	3064.0508	3073.6243	3090.0456	3105.8865	3116.3222	3117.181
O=C1CCC2OCCC12	O=C1CC[C@H]2OCC[C@@H]12	
InChI=1S/C7H10O2/c8-6-1-2-7-5(6)3-4-9-7/h5,7H,1-4H2	InChI=1S/C7H10O2/c8-6-1-2-7-5(6)3-4-9-7/h5,7H,1-4H2/t5-,7+/m0/s1
