19
gdb 5498	3.1384209	1.1806678	0.9851777	2.5655	77.77	-0.24112	-0.00844	0.23268	1252.5572	0.155365	-422.550354	-422.541146	-422.540202	-422.584317	34.078	
C	 2.9021054717	 0.8457533992	 1.3726820236	-0.381203
C	 1.934666372	 0.7723848028	 0.1859416728	-0.21156
C	 2.3425527909	-0.2762808623	-0.8368344918	-0.057555
C	 1.8505808114	-0.1493324472	-2.243631264	-0.1639
C	 2.2773653547	-1.377139865	-3.0521966427	-0.363099
C	 3.7384147574	-0.9015681377	-2.8301213307	 0.321192
O	 4.7428613999	-1.0296446478	-3.4838038016	-0.339897
C	 3.374041626	 0.1523818851	-1.8517683881	 0.315645
O	 4.0944305773	 1.300635441	-1.6672780045	-0.451666
H	 2.9812923109	-0.1227935177	 1.8786758011	 0.112912
H	 3.9016081381	 1.1364361494	 1.0386273176	 0.140598
H	 2.5608258116	 1.5787822518	 2.1097713511	 0.112757
H	 0.9250099365	 0.5304344373	 0.5399179991	 0.100785
H	 1.8723646473	 1.7517334138	-0.2996983373	 0.111416
H	 2.4201431668	-1.2823024286	-0.420802094	 0.08773
H	 1.1129009879	 0.5812081261	-2.5480098247	 0.113846
H	 1.9977718245	-2.3476851169	-2.6314544449	 0.117484
H	 2.0243789861	-1.3521428331	-4.114804501	 0.130585
H	 4.6418927389	 1.4211123396	-2.4544808197	 0.303929
79.2133	96.6304	155.9724	202.9742	230.0662	280.3891	334.5897	369.6927	387.3669	446.0106	523.2744	584.5392	690.0284	696.219	721.3162	817.3242	873.7385	915.7109	918.2471	959.1466	1006.2735	1033.4759	1035.7272	1087.0668	1105.0387	1155.453	1166.3121	1200.538	1221.165	1259.3987	1292.2253	1339.2037	1356.8234	1397.0138	1412.3133	1447.9847	1471.7751	1486.5111	1499.3069	1510.1916	1838.3021	3031.7518	3037.1838	3053.8935	3070.6678	3085.2004	3104.5783	3116.7951	3123.8365	3211.933	3767.4017
CCC1C2CC(=O)C12O	CC[C@H]1[C@@H]2CC(=O)[C@]12O	
InChI=1S/C7H10O2/c1-2-4-5-3-6(8)7(4,5)9/h4-5,9H,2-3H2,1H3	InChI=1S/C7H10O2/c1-2-4-5-3-6(8)7(4,5)9/h4-5,9H,2-3H2,1H3/t4-,5-,7-/m0/s1
