19
gdb 4276	2.7453755	1.448842	1.0418365	1.1674	78.9	-0.23507	0.00537	0.24044	1161.0757	0.156805	-422.52809	-422.519506	-422.518562	-422.561228	32.322	
C	-0.0308574166	 1.5046252881	-0.0103494436	-0.488071
C	-0.0314455795	 0.0168685044	-0.1434805638	 0.120753
C	-1.0442823086	-0.8422245035	-0.2079493033	 0.093423
C	-2.3786100977	-1.218423901	 0.3853097323	-0.155351
O	-1.7865767205	-2.4922455556	 0.7974760931	-0.309358
C	-0.6448748187	-2.2737655437	-0.1054721335	 0.11171
C	 0.805158898	-2.2110418916	 0.3878090619	-0.289514
C	 1.2766323428	-0.8079715674	-0.1253560188	 0.068397
O	 2.2990747953	-0.2261899299	 0.6638581201	-0.424788
H	 0.6643554894	 1.831196392	 0.7691707494	 0.127431
H	 0.3068997571	 1.9804888476	-0.9404231467	 0.13545
H	-1.0289890965	 1.8888375892	 0.2168314574	 0.121809
H	-2.7377973714	-0.6223729263	 1.231462399	 0.116151
H	-3.2013892002	-1.3817855778	-0.3233446934	 0.107168
H	-0.767675037	-2.9062938371	-0.9947211011	 0.079391
H	 0.8048509876	-2.1930876876	 1.4842631261	 0.106971
H	 1.4477523469	-3.0299864212	 0.0549222829	 0.102981
H	 1.726129806	-0.8865013279	-1.123592203	 0.097739
H	 1.9912707936	-0.2124438706	 1.5774379651	 0.277707
101.2493	124.8106	149.3579	235.6697	252.5925	318.5489	374.7411	410.0024	479.71	513.5272	547.8381	622.9592	720.2294	775.4044	855.0786	897.993	926.8514	947.3683	980.2142	1014.0832	1052.192	1060.9643	1065.0999	1119.9909	1130.9859	1147.5627	1161.9459	1221.219	1236.0005	1268.8965	1303.5275	1305.5466	1332.0083	1357.5495	1408.6347	1428.9705	1471.9945	1473.8349	1487.8038	1510.105	1779.4435	3007.1331	3014.5135	3022.9108	3026.1233	3043.019	3067.3145	3079.0591	3108.0674	3116.9179	3791.7579
CC1=C2COC2CC1O	C[C]1[C]2CO[C@@H]2C[C@@H]1O	
InChI=1S/C7H10O2/c1-4-5-3-9-7(5)2-6(4)8/h6-8H,2-3H2,1H3	InChI=1S/C7H10O2/c1-4-5-3-9-7(5)2-6(4)8/h6-8H,2-3H2,1H3/t6-,7+/m0/s1
