19
gdb 423	2.8744536	1.6092653	1.2401926	2.6323	74.93	-0.24726	0.07254	0.3198	1044.2446	0.158532	-422.523698	-422.516181	-422.515237	-422.555581	29.805	
C	 0.6934104947	 0.9262033603	-0.759209691	-0.242458
O	-0.0162079558	 0.0332881379	 0.0974134862	-0.27359
C	 1.4135168156	 0.13771724	 0.2482300029	 0.410595
C	 1.8908213786	 0.8333161876	 1.5121029474	-0.153831
O	 2.358209001	-0.0802739986	 2.4882103185	-0.241396
C	 3.5333937734	-0.7460998645	 2.0570833601	-0.107539
C	 3.2937768485	-1.5566424449	 0.7984750766	-0.040997
C	 2.0231002469	-2.3463571738	 0.6784093901	-0.28055
C	 2.1995790995	-1.0824263394	-0.1386737384	-0.119996
H	 0.7471483435	 0.6333070023	-1.8078783399	 0.110925
H	 0.5080647457	 1.9881510404	-0.5915733225	 0.108582
H	 2.69324773	 1.5471832953	 1.2565961876	 0.089334
H	 1.0593977419	 1.3835606172	 1.9597125172	 0.121216
H	 4.3388928482	-0.0111481817	 1.8838281369	 0.087574
H	 3.8379700273	-1.3909300241	 2.8877934987	 0.112256
H	 4.192617776	-1.963759556	 0.3447045145	 0.086376
H	 2.0459531947	-3.2915068054	 0.1483190383	 0.111215
H	 1.3245617887	-2.301142269	 1.5061105551	 0.136492
H	 2.3589467816	-1.2164886335	-1.2035476882	 0.085792
81.4627	213.2289	284.7307	301.2692	331.0959	422.9916	433.0184	456.2646	543.876	654.5148	740.9649	780.9573	817.9763	839.4501	899.9067	913.0369	937.8137	974.0653	1017.135	1042.9155	1056.5875	1074.5953	1097.3438	1107.6723	1128.4814	1131.0294	1151.4172	1172.599	1206.4007	1259.4111	1297.8892	1325.8027	1334.9837	1367.2838	1384.011	1417.4564	1447.0082	1475.2903	1489.5923	1498.287	1531.313	2952.2007	2956.7428	3066.3629	3071.5226	3101.4683	3140.9483	3147.3802	3149.7661	3159.6713	3231.4237
C1OC11COCC2CC12	C1O[C@@]21COC[C@H]1C[C@@H]21	
InChI=1S/C7H10O2/c1-5-2-8-3-7(4-9-7)6(1)5/h5-6H,1-4H2	InChI=1S/C7H10O2/c1-5-2-8-3-7(4-9-7)6(1)5/h5-6H,1-4H2/t5-,6-,7-/m1/s1
