19
gdb 799	3.1106598	1.3552128	1.1343432	3.2483	76.27	-0.24115	-0.02299	0.21816	1120.8791	0.157583	-422.560555	-422.552441	-422.551497	-422.593127	31.032	
O	 0.5837532005	 0.0733780048	-1.100565921	-0.275681
C	 0.4845860979	 0.0108581123	 0.1022228757	 0.099202
C	 0.1103275295	 1.1568797554	 0.9713927696	 0.286897
C	-0.8589420203	 2.1918039868	 0.4114033807	-0.316877
C	 0.584102117	 2.5516803187	 0.5636516052	-0.06194
C	 1.1086848029	 3.4804348991	 1.6461083383	-0.229351
C	 0.7096148077	 3.0281297668	 3.0609580285	-0.217215
C	 0.8848201388	 1.5182321729	 3.1924003955	-0.075339
O	-0.0066197098	 0.8245775261	 2.3225229897	-0.303456
H	 0.6656897776	-0.9304335012	 0.665693724	 0.084209
H	-1.2320976433	 2.0146121172	-0.5910029362	 0.135159
H	-1.5772493046	 2.5705037944	 1.1299214137	 0.123849
H	 1.1460945215	 2.5530050804	-0.3657299024	 0.115937
H	 2.2036819168	 3.4886601774	 1.5804448501	 0.108311
H	 0.7775325205	 4.5079536927	 1.457006793	 0.109275
H	 1.3231445346	 3.5450345295	 3.8062522003	 0.103119
H	-0.3362081209	 3.2771105027	 3.2754672791	 0.110803
H	 1.9283895332	 1.2350730368	 2.9790729404	 0.091525
H	 0.6374474602	 1.168691667	 4.1979997257	 0.111571
99.0522	145.4163	191.6233	234.1914	295.0576	363.6838	396.222	454.882	496.761	565.2173	658.3408	717.6273	752.	838.2939	870.0822	894.4373	911.504	953.2582	996.1362	1014.0406	1049.0384	1072.5237	1096.3918	1106.1091	1132.8527	1143.4109	1222.6346	1238.2328	1267.6808	1273.2699	1308.0632	1366.9983	1371.3971	1401.5306	1408.3869	1416.5356	1467.0077	1481.7509	1494.6285	1505.4686	1807.5278	2900.7093	2976.5717	3026.6606	3038.4284	3062.9753	3086.0264	3096.1658	3137.7001	3155.8065	3235.5572
O=CC12CC1CCCO2	O=C[C@]12C[C@H]1CCCO2	
InChI=1S/C7H10O2/c8-5-7-4-6(7)2-1-3-9-7/h5-6H,1-4H2	InChI=1S/C7H10O2/c8-5-7-4-6(7)2-1-3-9-7/h5-6H,1-4H2/t6-,7-/m1/s1
