19
gdb 2316	2.6011806	1.9871946	1.6370252	1.0704	74.3	-0.24848	0.07971	0.32819	907.0705	0.158903	-422.503181	-422.496247	-422.495303	-422.533793	29.63	
O	 0.7236595504	 0.1815937699	 0.3764353349	-0.48487
C	-0.40861015	 0.5612213306	 1.1419607835	 0.415898
C	-1.6104694657	-0.3653336006	 0.7905857967	-0.222041
O	-1.1958912684	-1.2699674301	 1.8816190024	-0.376294
C	-0.5246075957	-0.1460893456	 2.4859195551	 0.39945
C	-1.2607428934	 0.8569193362	 3.4023198079	-0.286513
C	 0.0413633778	 1.6564749106	 3.1350911564	-0.033729
C	 0.7893926201	 0.2509545366	 3.1877727155	-0.318646
C	-0.175116635	 2.0102323356	 1.622276744	-0.305488
H	 0.751187532	-0.7837079769	 0.3576226432	 0.283535
H	-2.6123407226	 0.0366606015	 0.9708625097	 0.111163
H	-1.5649129336	-0.8596921727	-0.1832961188	 0.109461
H	-2.2058877126	 1.2915907755	 3.0664635795	 0.091981
H	-1.349528469	 0.4923298763	 4.4278081091	 0.101412
H	 0.3613745411	 2.4549173713	 3.8024022081	 0.074657
H	 1.7142357183	 0.1287502569	 2.6243538456	 0.113752
H	 0.8966072104	-0.0872040747	 4.2200948696	 0.10415
H	-1.0215597119	 2.6906176132	 1.4997912076	 0.10537
H	 0.6963392677	 2.4361400865	 1.1226538701	 0.116752
221.4568	272.7023	335.8428	389.9311	430.6848	440.8217	493.5054	513.8506	559.3992	598.32	719.4199	790.4286	805.9985	859.852	864.8997	910.2814	910.7928	940.0788	959.9703	964.5373	997.6529	1032.5111	1049.4184	1091.2245	1108.495	1125.7392	1138.5707	1167.5066	1177.4325	1209.5329	1218.6381	1258.9425	1261.0238	1274.0789	1301.1221	1322.0333	1394.5165	1480.0096	1482.6006	1506.6028	1523.2986	3044.4918	3060.3586	3071.234	3082.1105	3110.5329	3122.1857	3128.6677	3134.2264	3152.9909	3773.2347
OC12COC11CC(C1)C2	O[C@@]12CO[C@@]31C[C@@H](C3)C2	
InChI=1S/C7H10O2/c8-6-1-5-2-7(6,3-5)9-4-6/h5,8H,1-4H2	InChI=1S/C7H10O2/c8-6-1-5-2-7(6,3-5)9-4-6/h5,8H,1-4H2/t5-,6-,7-/m0/s1
