19
gdb 1153	3.9778176	1.1197941	1.0249161	1.5652	76.57	-0.26622	0.01365	0.27987	1231.9071	0.156382	-422.550339	-422.541788	-422.540843	-422.584352	31.575	
C	-0.3117659948	-1.8998513125	 2.8487666536	-0.484291
C	-1.1503344871	-1.7128249883	 1.6076717047	 0.394171
O	-1.6867831057	-2.5908837056	 0.9837113773	-0.34348
O	-1.2206651822	-0.397112972	 1.2820342459	-0.299396
C	-1.9699804944	-0.0509732467	 0.1420882544	 0.466674
C	-3.4893215101	-0.2507510335	-0.1055668764	-0.267958
C	-2.9237430246	 0.5265995369	-1.332192044	-0.060727
C	-2.1211583097	 1.4088546786	-0.3256377067	-0.278654
C	-1.717981564	-0.4607566093	-1.3337947027	-0.267941
H	-0.2642922647	-2.958987964	 3.0986078402	 0.147561
H	 0.6959148971	-1.5086396848	 2.6822003827	 0.150471
H	-0.744321797	-1.3375005216	 3.6811478752	 0.150461
H	-3.8218761917	-1.2744830122	-0.2764136302	 0.116112
H	-4.1652028647	 0.3031204619	 0.5512802714	 0.091752
H	-3.4824235646	 0.873515257	-2.197229392	 0.086536
H	-1.2210605363	 1.8961423937	-0.7087537982	 0.095423
H	-2.7034104405	 2.0719463343	 0.3191025214	 0.095418
H	-1.9264775598	-1.499193638	-1.5906477385	 0.116119
H	-0.7923570452	-0.096754524	-1.787405118	 0.09175
62.3201	79.2453	99.7113	151.5491	339.7934	343.3909	378.3159	546.0595	554.0988	572.8134	608.089	719.5777	783.6614	796.4305	894.5785	913.825	953.8286	959.5494	965.599	970.2095	987.2341	1027.0163	1063.7712	1101.611	1105.9007	1131.2256	1137.2948	1176.6653	1179.6846	1218.6318	1231.6139	1238.4523	1251.1783	1285.477	1394.3365	1469.0312	1475.8586	1498.5907	1499.5876	1558.1211	1827.6045	3055.4986	3057.08	3063.3235	3069.1341	3121.9125	3124.2423	3146.0775	3149.0067	3153.6484	3169.435
CC(=O)OC12CC(C1)C2	CC(=O)O[C@@]12C[C@@H](C1)C2	
InChI=1S/C7H10O2/c1-5(8)9-7-2-6(3-7)4-7/h6H,2-4H2,1H3	InChI=1S/C7H10O2/c1-5(8)9-7-2-6(3-7)4-7/h6H,2-4H2,1H3/t6-,7-
