19
gdb 1666	2.4097069	1.6996068	1.317685	2.9385	74.07	-0.24318	0.0829	0.32608000000000004	1038.8154	0.15546	-422.489379	-422.480935	-422.479991	-422.522943	31.897	
C	 3.4446190431	-0.1489105369	 0.5644195542	-0.468949
C	 3.3693401248	-0.564469222	-0.9055749025	 0.283903
C	 3.4578384901	 0.6739011517	-1.887803911	-0.305855
C	 4.8568957128	 0.1928064879	-2.2922428605	 0.035492
O	 4.7154178692	-1.1212953047	-2.8462940923	-0.242191
C	 4.7642312961	-0.9897402861	-1.42454454	-0.03441
C	 2.2000259111	-1.5127344338	-1.1212882163	 0.02612
C	 2.3117073918	-2.8241089156	-1.7810086616	-0.184287
O	 1.7248768624	-1.7102954446	-2.4512165355	-0.2295
H	 3.5424730486	-1.0244713267	 1.2169086705	 0.12047
H	 4.3062957856	 0.5011815125	 0.7460793614	 0.119319
H	 2.5423272209	 0.394329665	 0.8644713572	 0.124667
H	 2.7322847141	 0.6846177171	-2.7020541351	 0.130899
H	 3.4505830397	 1.629509182	-1.357807745	 0.102696
H	 5.7183474313	 0.7686866972	-2.6085236898	 0.104806
H	 5.5265480521	-1.5533140821	-0.895732267	 0.094875
H	 1.3928603874	-1.3923434281	-0.3941846774	 0.081686
H	 3.2725954266	-3.1419875363	-2.1781188972	 0.131247
H	 1.6239411422	-3.6246316065	-1.5099557422	 0.10901
31.5608	147.8454	209.8666	250.6174	261.9665	292.1265	348.8935	437.6753	487.0329	548.6637	647.7283	790.0129	829.7895	850.6591	864.4586	866.7724	892.9273	928.5164	953.0808	969.8193	991.4113	1024.9452	1049.5131	1093.3718	1120.7242	1155.1426	1165.2177	1177.551	1185.5263	1222.9376	1243.3025	1260.8915	1285.3975	1324.9142	1382.1615	1407.8942	1434.3078	1467.4384	1494.0329	1497.4655	1522.886	3025.5858	3068.6961	3072.7767	3088.4776	3092.1739	3103.4054	3140.1241	3164.2022	3183.5076	3193.9766
CC1(CC2OC12)C1CO1	C[C@]1(C[C@@H]2O[C@H]12)[C@@H]1CO1	
InChI=1S/C7H10O2/c1-7(5-3-8-5)2-4-6(7)9-4/h4-6H,2-3H2,1H3	InChI=1S/C7H10O2/c1-7(5-3-8-5)2-4-6(7)9-4/h4-6H,2-3H2,1H3/t4-,5-,6-,7-/m0/s1
