19
gdb 5175	3.532307	1.2415074	1.1400591	2.2153	75.22	-0.23283	0.07085	0.30368	1149.3739	0.155704	-422.50116	-422.492603	-422.491659	-422.534264	32.711	
C	-3.6359349133	 0.9306165124	 2.9260948422	-0.505496
C	-2.5029133415	 0.0017354532	 2.6252522123	 0.421267
C	-1.9470430342	-1.0581758632	 3.6197420609	-0.264884
C	-1.3279174043	-1.7078575134	 2.3852600501	-0.153553
C	-2.3619161626	-1.0638057063	 1.4617143453	-0.278884
C	-0.9724621954	-0.5298709088	 1.4610355472	 0.474346
C	 0.1328177864	-0.4817139573	 0.4618241283	-0.193639
O	 1.3965203435	-0.2708998534	 1.0725543843	-0.413229
O	-1.283708014	 0.6767701145	 2.169273881	-0.374137
H	-3.3572649283	 1.6108966056	 3.7383642105	 0.133799
H	-3.8903139034	 1.5311426313	 2.0481544161	 0.131724
H	-4.521702603	 0.3684447429	 3.2366700934	 0.124152
H	-1.2916674484	-0.6803231695	 4.4111048619	 0.097746
H	-2.7460428941	-1.6743001103	 4.0413019524	 0.101341
H	-0.8598698749	-2.6788643708	 2.2874361436	 0.095127
H	-3.0237125102	-1.4500072675	 0.6984078392	 0.098175
H	 0.1913295955	-1.4391625706	-0.0664651736	 0.114289
H	-0.0843828146	 0.299505675	-0.2832332116	 0.09812
H	 1.3104895767	 0.5141192161	 1.6247991366	 0.293736
70.4953	126.183	201.4212	231.5845	270.0658	327.0322	356.1531	410.3247	467.2428	544.5257	623.6944	684.6605	754.6405	794.7533	825.6659	836.7213	867.2243	892.6425	960.5532	964.7986	984.2488	1004.946	1041.61	1064.4555	1073.9328	1121.4597	1126.8273	1149.4344	1187.4185	1228.5479	1241.2449	1276.8933	1343.0863	1374.8944	1400.6821	1418.5201	1466.9276	1480.0888	1487.1714	1489.3832	1491.6785	2985.921	3037.3167	3045.1821	3077.2577	3106.0018	3108.6375	3119.0142	3198.6299	3209.0345	3807.9791
CC12CC3C1C3(CO)O2	C[C@@]12C[C@H]3[C@@H]1[C@@]3(CO)O2	
InChI=1S/C7H10O2/c1-6-2-4-5(6)7(4,3-8)9-6/h4-5,8H,2-3H2,1H3	InChI=1S/C7H10O2/c1-6-2-4-5(6)7(4,3-8)9-6/h4-5,8H,2-3H2,1H3/t4-,5-,6+,7-/m0/s1
