19
gdb 1866	2.7818617	1.2072465	1.0385403	1.9705	77.	-0.24153	-0.02516	0.21637	1208.3907	0.154681	-422.541436	-422.532216	-422.531271	-422.575451	34.202	
C	-1.3890619745	-0.9573716969	-0.0082173912	-0.504624
C	-0.5425742478	-0.7565774001	-1.2335158357	 0.240671
C	-1.0235524103	-1.1303810521	-2.6248961079	-0.358969
C	-0.586557833	 0.2729217106	-2.3818695488	 0.376399
O	-1.4598945987	 1.3051141829	-2.6577334404	-0.453745
C	 0.9356800663	 0.3684277248	-2.4057464997	-0.332129
C	 1.0056814692	-0.7260627395	-1.2739671516	-0.126182
C	 1.6445712939	-0.1889680921	-0.0223949673	 0.161451
O	 2.5089832845	-0.7393054701	 0.6092702426	-0.257321
H	-1.3635985298	-2.0005723784	 0.3284392638	 0.131126
H	-1.0584896047	-0.3333890492	 0.8294425718	 0.118942
H	-2.4326855026	-0.7031948324	-0.2194584901	 0.12891
H	-0.4531421981	-1.8038619659	-3.2622292628	 0.106429
H	-2.1009581569	-1.2423259329	-2.6986078748	 0.122296
H	-1.2249914756	 2.0600064283	-2.1060795932	 0.284798
H	 1.4404282341	 0.1323516861	-3.3475505863	 0.112688
H	 1.3023653973	 1.3364722202	-2.0451208895	 0.100568
H	 1.4909810882	-1.6677321096	-1.5457452892	 0.08694
H	 1.2545537585	 0.8100578763	 0.2932040603	 0.061751
71.7202	93.242	168.3777	189.4324	241.8771	340.0428	356.7808	386.8222	392.4944	408.6146	469.5845	520.1052	595.9598	706.4304	761.535	832.9129	865.6569	916.6334	952.1522	966.6099	1006.9182	1051.8944	1057.6074	1085.9689	1101.4547	1152.3896	1173.8173	1220.6499	1229.9112	1233.1475	1294.1798	1331.4997	1334.5102	1413.7416	1424.2258	1431.7442	1476.8485	1487.096	1497.648	1517.1018	1832.2056	2826.7106	3023.6826	3033.2858	3072.1488	3081.4873	3088.9963	3096.9981	3100.3278	3197.5979	3790.1088
CC12CC1(O)CC2C=O	C[C@@]12C[C@]1(O)C[C@H]2C=O	
InChI=1S/C7H10O2/c1-6-4-7(6,9)2-5(6)3-8/h3,5,9H,2,4H2,1H3	InChI=1S/C7H10O2/c1-6-4-7(6,9)2-5(6)3-8/h3,5,9H,2,4H2,1H3/t5-,6-,7+/m0/s1
