19
gdb 5875	5.2440923	0.5382151	0.5289795	2.6227	83.18	-0.24893	0.02866	0.27759	2130.6239	0.15517	-422.477624	-422.467572	-422.466627	-422.515168	33.589	
C	-2.5971071146	 2.2015496135	-5.6442083535	-0.218873
O	-1.9043741526	 1.8360418684	-4.4733200393	-0.227674
C	-2.3050486147	 2.6089011117	-3.3581997128	-0.202173
C	-1.5670186984	 2.2006679896	-2.1708801318	-0.002734
C	-0.9703626075	 1.8820183344	-1.1744310992	 0.160319
C	-0.2374589049	 1.4766207536	 0.004399844	-0.218391
C	 1.3116315489	 1.3562437118	-0.0724951657	-0.07396
O	 1.2744920377	 0.0346792695	 0.4962691809	-0.268249
C	-0.1567665945	-0.035165798	 0.3621382307	-0.073953
H	-2.2307285153	 1.5611213037	-6.4493888039	 0.13215
H	-3.6843991999	 2.0566339632	-5.5393981321	 0.104911
H	-2.4171086122	 3.2542893314	-5.9153832655	 0.104918
H	-2.1336323062	 3.6823992527	-3.553899414	 0.11446
H	-3.3894193939	 2.4945340174	-3.1817722453	 0.114467
H	-0.5458787801	 2.0718782089	 0.8686399738	 0.111891
H	 1.6993232313	 1.3563972259	-1.0986591241	 0.112284
H	 1.888977992	 2.0565877961	 0.5402174465	 0.109163
H	-0.4658117416	-0.6950397671	-0.4578141636	 0.112284
H	-0.6467095735	-0.3461603968	 1.2908148349	 0.109159
21.8735	56.7567	72.546	116.8622	125.174	226.7226	232.1856	299.3829	352.0849	388.3905	502.7625	566.7984	658.421	852.6714	890.6146	922.8465	978.0148	1001.0424	1025.464	1026.9484	1038.995	1109.0917	1143.4397	1157.9204	1172.3048	1182.1995	1198.8804	1219.8926	1237.2587	1252.2667	1303.8856	1344.9495	1381.3803	1410.4807	1477.4275	1484.3919	1495.2489	1510.2754	1516.2907	1536.6861	2368.7481	2940.8238	2957.3311	2968.0943	3010.528	3017.2833	3027.5154	3058.8693	3075.3755	3083.8628	3121.4916
COCC#CC1COC1	COCC#CC1COC1	
InChI=1S/C7H10O2/c1-8-4-2-3-7-5-9-6-7/h7H,4-6H2,1H3	InChI=1S/C7H10O2/c1-8-4-2-3-7-5-9-6-7/h7H,4-6H2,1H3
