19
gdb 3060	2.8989495	1.4433812	1.1773789	2.9589	75.42	-0.22939	-0.01794	0.21145	1116.3251	0.15663	-422.557416	-422.549014	-422.54807	-422.590065	31.931	
C	-2.7521562214	 1.5572008025	-1.7175636489	-0.428462
C	-1.6416881014	 0.6247072365	-1.2578914388	 0.003375
C	-2.0068815407	-0.3536085848	-0.1093565096	 0.058687
O	-1.8038425048	 0.7433594787	 0.8490852705	-0.302187
C	-0.762427223	 1.1663728195	-0.0928798677	-0.051447
C	 0.235278552	 0.016895085	 0.108687827	 0.446829
O	 1.4254035557	 0.0388878811	 0.2536506823	-0.335453
C	-0.733297114	-1.1964886594	 0.1107422385	-0.1051
C	-0.6937425674	-1.9974609023	 1.4112625369	-0.417404
H	-3.2669256289	 1.9972428877	-0.8600651981	 0.14045
H	-2.3509466846	 2.3673535397	-2.3347241118	 0.122442
H	-3.4876540688	 1.0132523789	-2.3198278415	 0.119947
H	-1.1035214426	 0.1877223861	-2.1064954539	 0.081237
H	-2.9819748556	-0.8355690833	-0.0268815158	 0.084913
H	-0.4261035471	 2.1965327673	 0.0102095761	 0.096212
H	-0.5067390519	-1.8432124327	-0.745279415	 0.096403
H	-1.3549828792	-2.8681872181	 1.3590912202	 0.114803
H	 0.3230491159	-2.3499742798	 1.6063135741	 0.136997
H	-1.0064848621	-1.3718886127	 2.2516053855	 0.137756
121.965	179.3587	202.0837	218.4805	236.8465	259.965	315.5445	447.8001	455.1695	568.4465	656.3493	702.416	784.7037	800.3362	850.901	865.3189	883.3061	917.8354	970.7767	1028.85	1038.2627	1053.0875	1079.5386	1094.6607	1111.115	1161.6749	1188.9268	1222.1969	1234.3416	1240.0192	1264.1331	1305.4871	1344.0333	1389.4395	1401.1901	1407.0567	1492.4982	1494.2528	1503.8451	1505.9794	1879.4436	3037.1345	3040.1753	3041.8966	3050.3738	3100.0713	3110.5917	3112.6118	3125.1357	3128.1614	3147.401
CC1C2OC1C(=O)C2C	C[C@@H]1[C@@H]2O[C@H]1C(=O)[C@H]2C	
InChI=1S/C7H10O2/c1-3-5(8)7-4(2)6(3)9-7/h3-4,6-7H,1-2H3	InChI=1S/C7H10O2/c1-3-5(8)7-4(2)6(3)9-7/h3-4,6-7H,1-2H3/t3-,4-,6-,7-/m1/s1
