19
gdb 1626	3.0987095	1.2998113	1.2434681	2.7987	74.72	-0.25125	0.08165	0.3329	1114.2294	0.155134	-422.499668	-422.491046	-422.490102	-422.53306	32.39	
C	 4.6892026568	-4.1439465384	-4.0278885966	-0.478604
C	 4.6819459245	-5.2834092433	-5.0216487184	 0.274292
C	 5.928371676	-5.9709366467	-5.3973568019	-0.220744
O	 5.3262314973	-5.0173731931	-6.2735737409	-0.265281
C	 3.3984197326	-6.0304408252	-5.1361227295	 0.404659
C	 2.7934977138	-7.088505155	-4.1902504842	-0.30378
C	 2.0664106573	-7.7082113506	-5.4372366793	-0.238314
C	 2.7062297393	-6.608802253	-6.2976709779	-0.04455
O	 2.2880991201	-5.3523530735	-5.7438330052	-0.298149
H	 4.4715816511	-4.5070212623	-3.0176713717	 0.123766
H	 5.6620634477	-3.6469082317	-4.0203254875	 0.126933
H	 3.9225555147	-3.4114017778	-4.2974240294	 0.146938
H	 6.8669612446	-5.6611986357	-4.9392432149	 0.113276
H	 5.8967028789	-7.0042787623	-5.7404600879	 0.108302
H	 3.5373968343	-7.7636441554	-3.7604419243	 0.106875
H	 2.1587532317	-6.6880893654	-3.3967513207	 0.110297
H	 2.429225233	-8.7107419527	-5.6757728648	 0.106319
H	 0.9743534602	-7.7071620011	-5.4243889841	 0.114105
H	 2.9830006361	-6.6153320869	-7.3450665708	 0.113661
58.5104	139.4271	164.4327	202.3052	264.0795	297.4766	354.7378	445.0197	494.6141	525.5917	552.827	738.4537	773.9675	804.6936	872.2168	886.375	913.9185	925.7297	939.0859	941.8345	1001.2887	1028.2811	1060.2662	1094.1699	1124.8412	1134.7041	1154.356	1172.4374	1208.3713	1214.0312	1224.3969	1271.4997	1294.5487	1379.1052	1410.3935	1462.1646	1464.1177	1479.1329	1491.3624	1506.1047	1527.6741	3040.2502	3064.3399	3072.0537	3079.5281	3108.67	3116.4749	3128.8802	3132.7641	3166.2976	3197.1638
CC1(CO1)C12CCC1O2	C[C@@]1(CO1)[C@]12CC[C@H]1O2	
InChI=1S/C7H10O2/c1-6(4-8-6)7-3-2-5(7)9-7/h5H,2-4H2,1H3	InChI=1S/C7H10O2/c1-6(4-8-6)7-3-2-5(7)9-7/h5H,2-4H2,1H3/t5-,6-,7+/m1/s1
