19
gdb 5754	4.6317546	1.2283867	1.1509275	0.7195	75.66	-0.24584	0.10084	0.34668	1124.6111	0.158254	-422.511737	-422.504248	-422.503304	-422.5438	29.02	
C	 1.3888580409	-0.0683164868	-0.0636662989	-0.242012
O	-0.0163280653	 0.0645253562	 0.0550508908	-0.244038
C	-0.4195704876	 0.7269385005	 1.2119155127	 0.216457
O	-0.0260832408	 2.1076418354	 1.2144642522	-0.296624
C	-1.2745993214	 2.776509013	 1.1477045408	 0.137062
C	-2.2648611832	 2.0185537796	 0.2187937368	-0.069462
C	-3.4295629476	 2.4589649737	 1.1358056806	-0.262483
C	-2.2887285703	 2.0991110052	 2.115231795	-0.090653
C	-1.9345126705	 0.8615869765	 1.2248401139	-0.086378
H	 1.8125766649	-0.614088945	 0.7932138545	 0.104238
H	 1.5805654561	-0.6368458498	-0.9761815283	 0.125453
H	 1.8772124131	 0.91056762	-0.1338795827	 0.129073
H	 0.020596081	 0.2457611204	 2.0998857408	 0.065884
H	-1.1412244678	 3.8566031259	 1.1023177975	 0.085286
H	-2.2374366326	 1.9568416443	-0.8682111472	 0.082833
H	-3.7276000746	 3.5106820284	 1.0899601794	 0.093185
H	-4.3056905097	 1.8064468497	 1.1517974678	 0.098927
H	-2.2895716666	 2.1424394773	 3.2051443835	 0.073769
H	-2.539932818	-0.0432721447	 1.252064351	 0.079484
98.5575	138.1601	178.8663	265.3505	365.106	419.6186	466.0897	573.2633	693.7512	748.5191	804.5835	823.1646	887.7803	896.3699	913.8159	948.9652	976.0445	983.7998	999.7857	1019.0237	1045.6672	1074.9074	1082.9277	1118.4505	1121.3008	1149.8369	1167.89	1179.8749	1185.5441	1225.8868	1234.4949	1245.4502	1260.0712	1273.12	1326.3674	1375.6981	1400.1828	1479.2327	1484.4428	1512.2361	1522.8145	2978.8082	2991.0114	3051.2994	3065.1066	3105.4215	3112.5016	3124.0227	3124.785	3133.3765	3141.4781
COC1OC2C3CC2C13	CO[C@H]1O[C@H]2[C@@H]3C[C@H]2[C@H]13	
InChI=1S/C7H10O2/c1-8-7-5-3-2-4(5)6(3)9-7/h3-7H,2H2,1H3	InChI=1S/C7H10O2/c1-8-7-5-3-2-4(5)6(3)9-7/h3-7H,2H2,1H3/t3-,4+,5-,6+,7-/m0/s1
