19
gdb 5502	4.0605433	0.9609609	0.8901357	2.4097	75.85	-0.24234	-0.01909	0.22325	1348.2549	0.156201	-422.55994	-422.551301	-422.550356	-422.593649	31.999	
C	 1.5000891205	-0.1209266272	-0.0840068989	-0.238007
O	 0.1028404078	-0.1740626537	 0.1305357496	-0.243124
C	-0.3057363893	 0.5638936571	 1.2345892707	 0.115619
C	-1.7153252614	 1.0633475413	 1.1920174283	-0.096964
C	-2.4119875175	 1.3019051466	 2.5144196561	-0.338373
C	-1.5236843161	 2.3012151808	 3.2781901614	 0.378985
O	-1.6162565225	 2.5637014906	 4.4477206341	-0.302531
C	-0.495848587	 2.9102804907	 2.3058844988	-0.335334
C	-0.5465691781	 2.0471342477	 1.0633077474	-0.1003
H	 2.056349451	-0.5290253384	 0.7732305264	 0.109161
H	 1.7127122114	-0.7297506066	-0.965565077	 0.129919
H	 1.8455512627	 0.9072621841	-0.2630307641	 0.109137
H	 0.1025316996	 0.2145841751	 2.1886706558	 0.084115
H	-2.2938316344	 0.7988419299	 0.3153571546	 0.102695
H	-3.3948162269	 1.7678645047	 2.3682964387	 0.132988
H	-2.5706412622	 0.4068665702	 3.1238978777	 0.133132
H	-0.8049666315	 3.9414488538	 2.0916604203	 0.132847
H	 0.4825236437	 2.9669877725	 2.793919722	 0.129407
H	-0.3130153499	 2.4757304209	 0.095966358	 0.096629
63.0354	106.858	166.7834	183.6015	276.9089	284.8001	391.7825	438.0744	470.7618	491.8521	641.4144	649.0651	767.1045	786.9666	835.1654	851.5446	928.5111	992.6755	1014.8515	1035.3165	1053.6542	1072.3051	1088.6202	1143.4214	1168.1685	1169.7545	1182.2093	1187.4827	1211.7617	1243.113	1272.978	1278.4457	1320.5459	1330.8621	1438.9882	1447.9762	1456.5659	1486.151	1490.195	1508.4091	1848.3769	2985.4547	3033.9508	3036.9889	3038.0998	3045.3848	3081.4781	3087.0291	3121.6645	3181.015	3191.8513
COC1C2CC(=O)CC12	CO[C@@H]1[C@H]2CC(=O)C[C@@H]12	
InChI=1S/C7H10O2/c1-9-7-5-2-4(8)3-6(5)7/h5-7H,2-3H2,1H3	InChI=1S/C7H10O2/c1-9-7-5-2-4(8)3-6(5)7/h5-7H,2-3H2,1H3/t5-,6+,7+
