19
gdb 4698	6.0111116	0.5521326	0.5120713	2.2009	82.87	-0.25486	0.01725	0.27210999999999996	2168.3014	0.153114	-422.563613	-422.552298	-422.551354	-422.604307	36.637	
C	 0.8391780172	-0.8398215481	 0.4146539071	-0.370795
C	 0.6599730008	 0.5012265038	-0.2925343653	-0.300611
C	 1.9327788143	 1.3227333948	-0.3227111655	 0.460056
O	 2.9946523779	 0.9952365286	 0.1460662142	-0.352684
O	 1.7280000695	 2.4976728529	-0.9553776628	-0.244738
C	 2.8901711259	 3.354496644	-1.0351175366	-0.233934
C	 2.5305703363	 4.574635209	-1.7343257937	 0.013171
C	 2.2661398695	 5.5975572598	-2.3096967988	 0.132324
C	 1.9398725944	 6.8324790224	-3.0064542154	-0.498839
H	 1.1567789895	-0.6968676693	 1.4505432087	 0.13254
H	-0.0997266138	-1.4002487682	 0.4143483139	 0.112142
H	 1.6034676009	-1.4443284	-0.0801145202	 0.13257
H	 0.325801462	 0.3695033356	-1.3284224372	 0.134036
H	-0.1160404825	 1.1095776255	 0.1868127851	 0.134028
H	 3.2483526951	 3.5616015006	-0.0206724344	 0.146611
H	 3.6930806444	 2.8159944199	-1.5505243703	 0.14659
H	 2.0889893418	 7.7056983617	-2.3621976486	 0.151383
H	 2.5621730135	 6.9637091497	-3.8982744093	 0.151436
H	 0.8930944431	 6.8332221974	-3.3293647609	 0.154714
14.03	17.0576	37.5835	69.2461	136.288	179.6738	198.3921	207.0413	290.9044	299.1172	378.7598	402.9638	537.8608	581.8967	653.0903	776.8933	809.8169	925.6349	974.3829	1009.5848	1023.8906	1051.5388	1056.4215	1098.6785	1107.4611	1182.9277	1209.2373	1246.7062	1277.9467	1369.798	1407.9291	1414.1278	1415.5937	1459.2982	1475.6814	1478.3913	1489.2777	1491.6535	1499.8318	1815.423	2382.2457	3029.7953	3040.7063	3044.0313	3052.1367	3073.2185	3073.4643	3091.8414	3092.7234	3123.6684	3129.0396
CCC(=O)OCC#CC	CCC(=O)OCC#CC	
InChI=1S/C7H10O2/c1-3-5-6-9-7(8)4-2/h4,6H2,1-2H3	InChI=1S/C7H10O2/c1-3-5-6-9-7(8)4-2/h4,6H2,1-2H3
