19
gdb 3068	2.9444749	1.49118	1.2458195	1.2618	75.54	-0.23806	-0.00062	0.23743999999999998	1067.4454	0.157864	-422.548789	-422.540884	-422.53994	-422.580704	31.393	
C	 1.2874398482	 1.1572955435	-0.0602111807	-0.400577
C	 1.0526255116	-0.3610197264	-0.0141300354	-0.029753
C	 1.5848677723	-1.0539508934	-1.2559027508	-0.082618
C	 2.5326663455	-1.9835773121	-1.1313435884	-0.057823
C	 2.9922573923	-2.2846190964	 0.273680178	-0.02351
O	 3.1833611789	-1.018623108	 0.9958144795	-0.317613
C	 1.733793904	-1.0022372815	 1.2077790148	 0.022252
C	 1.7542833787	-2.5507242615	 1.1762074852	 0.176486
O	 2.0393287374	-3.1381273931	 2.4176545213	-0.45696
H	 0.8233310878	 1.6524117825	 0.7994529179	 0.111998
H	 2.3603305108	 1.3678643098	-0.0443089582	 0.13816
H	 0.86453075	 1.5950640654	-0.9700097406	 0.11264
H	-0.0293000007	-0.5450225926	 0.0637784312	 0.084114
H	 1.1957000476	-0.7479206985	-2.2232180324	 0.095704
H	 2.9485247228	-2.5250832352	-1.9741152537	 0.096202
H	 3.8577274018	-2.9452468136	 0.3555325068	 0.078168
H	 1.4596596625	-0.5243881467	 2.1541302091	 0.073695
H	 0.9092264811	-3.0883499154	 0.7430148948	 0.091662
H	 2.7817770674	-2.6484752068	 2.7936575518	 0.287772
144.9455	182.5048	233.0692	257.2982	331.0127	371.7599	398.9188	467.4102	494.0414	542.318	604.3788	734.6343	758.8347	846.6454	867.9542	903.3982	929.2854	941.3148	942.812	977.9732	988.6781	1011.7775	1063.4769	1083.5945	1118.4537	1126.6914	1158.1216	1191.0601	1222.9627	1242.3649	1286.1431	1309.3872	1320.1546	1343.255	1357.7854	1388.5452	1405.7511	1435.0219	1491.6724	1505.3229	1692.5138	2996.4857	3033.7823	3060.4881	3096.685	3100.8476	3105.6724	3121.1468	3161.0865	3192.0926	3779.509
CC1C=CC2OC1C2O	C[C@H]1C=C[C@H]2O[C@@H]1[C@@H]2O	
InChI=1S/C7H10O2/c1-4-2-3-5-6(8)7(4)9-5/h2-8H,1H3	InChI=1S/C7H10O2/c1-4-2-3-5-6(8)7(4)9-5/h2-8H,1H3/t4-,5+,6+,7-/m0/s1
