19
gdb 740	2.6535354	1.4580509	1.09777	3.861	75.43	-0.23862	-0.0145	0.22411999999999999	1133.9691	0.157566	-422.577078	-422.568997	-422.568053	-422.609844	31.076	
O	 1.167908943	-0.0597360183	 0.1401903352	-0.300675
C	-0.0337424386	-0.0155961627	 0.0335017078	 0.392135
C	-0.8044793988	 1.2919977742	-0.0986994611	-0.292338
C	-1.8605909942	 1.236098602	-1.2190394463	-0.214387
C	-2.7920810762	 0.0262452911	-1.0517511862	-0.270859
C	-1.9787420684	-1.2525363415	-1.0156628412	 0.419724
C	-2.5041791628	-2.5079362514	-1.5632272071	-0.245917
O	-1.5585245595	-1.7297891846	-2.3040367103	-0.273243
C	-0.8958244594	-1.2788000183	 0.0527168263	-0.371881
H	-1.3102261806	 1.470614513	 0.862165097	 0.11545
H	-0.0858934893	 2.1010786869	-0.2477033493	 0.122892
H	-2.4391347085	 2.1649385575	-1.2282529932	 0.104059
H	-1.3584188156	 1.1626140814	-2.1906452493	 0.1273
H	-3.3647732946	 0.1196387957	-0.1188907615	 0.099362
H	-3.510612241	-0.0238482386	-1.8748088242	 0.109038
H	-2.1319215461	-3.4600769218	-1.1864628134	 0.114802
H	-3.5120932313	-2.5370329474	-1.9763148919	 0.113079
H	-1.3762978333	-1.3292223174	 1.0408675988	 0.121897
H	-0.2494536644	-2.1514481097	-0.05802334	 0.129561
84.1369	100.9876	218.3997	297.0217	341.5248	377.6458	433.239	438.6874	483.0055	526.6978	612.1673	727.4016	762.1007	810.1632	857.1854	884.6552	894.1965	936.0214	952.8728	1004.7078	1045.6634	1071.7079	1102.2385	1127.1119	1162.2278	1180.2353	1215.1952	1236.0101	1254.3388	1285.9823	1299.0926	1339.4398	1357.8002	1371.1707	1430.1392	1445.8111	1463.3385	1475.9623	1497.0819	1531.9022	1823.8824	3005.6729	3014.265	3020.8492	3042.5336	3077.4417	3085.6398	3091.4712	3108.7269	3119.2813	3162.9736
O=C1CCCC2(CO2)C1	O=C1CCC[C@]2(CO2)C1	
InChI=1S/C7H10O2/c8-6-2-1-3-7(4-6)5-9-7/h1-5H2	InChI=1S/C7H10O2/c8-6-2-1-3-7(4-6)5-9-7/h1-5H2/t7-/m1/s1
