19
gdb 3647	2.7392228	1.1599854	0.9141458	2.9789	77.88	-0.24968	-0.02455	0.22513000000000002	1283.3084	0.156938	-422.585017	-422.576113	-422.575168	-422.619208	32.683	
O	 0.5751430403	 4.1592872492	-1.671962714	-0.435489
C	 0.1267091472	 2.84786499	-2.0259171585	 0.087388
C	 1.0597919487	 1.7523501914	-1.4834565478	-0.237607
C	 0.7678936483	 1.441908177	-0.001630948	-0.076978
C	-0.6849567186	 0.9505321164	 0.1510992943	-0.268224
C	-1.6579894949	 1.796560049	-0.6264261861	-0.061749
C	-1.3019433452	 2.6371875916	-1.5978322173	-0.091237
C	 1.7364754173	 0.400823639	 0.5138076368	 0.146398
O	 2.5477625638	 0.5737852524	 1.3853481528	-0.245821
H	 0.2884083708	 4.3301422443	-0.7685860825	 0.280946
H	 0.1850704081	 2.8326834425	-3.1208051426	 0.091984
H	 0.9249609228	 0.839362714	-2.0787568736	 0.10028
H	 2.0938818508	 2.0842064604	-1.6145142261	 0.120498
H	 0.9195946983	 2.3463792066	 0.5979255093	 0.087642
H	-0.7620225813	-0.0960433335	-0.1844494375	 0.11602
H	-0.9671544608	 0.9389968481	 1.2106734843	 0.121461
H	-2.7074519976	 1.6928794612	-0.3600451062	 0.0979
H	-2.0495714338	 3.2420032521	-2.1039681229	 0.098306
H	 1.6484633858	-0.5877085015	-0.0001505944	 0.068284
56.1411	101.0857	110.0503	254.8949	280.1206	296.8187	342.9516	357.4176	426.4745	497.2865	554.5699	585.2597	751.685	777.3435	820.0631	887.5998	903.9966	929.6193	980.1021	1008.0199	1016.004	1079.4424	1088.2919	1102.9146	1116.8454	1173.0387	1210.8236	1242.3138	1267.6448	1288.4575	1318.8192	1353.8898	1366.3361	1385.2173	1405.2398	1427.8431	1429.5879	1468.9078	1482.0172	1718.2103	1836.0225	2834.1405	2987.4999	3020.7947	3040.5129	3045.8036	3057.724	3091.092	3147.5634	3173.2061	3810.6614
OC1CC(CC=C1)C=O	O[C@H]1C[C@@H](CC=C1)C=O	
InChI=1S/C7H10O2/c8-5-6-2-1-3-7(9)4-6/h1,3,5-7,9H,2,4H2	InChI=1S/C7H10O2/c8-5-6-2-1-3-7(9)4-6/h1,3,5-7,9H,2,4H2/t6-,7-/m1/s1
