19
gdb 1078	2.1545415	1.4770596	1.1451312	1.047	76.62	-0.24686	-0.02575	0.22111	1160.9701	0.15323	-422.583916	-422.573677	-422.572733	-422.620164	35.732	
C	-0.8444851325	 0.1268475373	-1.0246114486	-0.483851
C	 0.3121476917	-0.691428497	-0.4754251242	 0.284204
O	 1.2810313587	-0.9463202165	-1.1554191545	-0.303605
C	 0.1258733675	-1.2874637402	 0.9008954516	 0.165823
C	-0.2291679659	-2.7692375668	 0.8995302208	-0.295531
C	 1.1349929248	-2.3450642734	 1.3309655175	-0.295534
C	-0.4275424813	-0.4577462898	 2.0364214086	 0.284172
C	 0.1602423662	 0.9323872719	 2.212787395	-0.483867
O	-1.2132131249	-0.914526976	 2.8365380249	-0.303606
H	-1.2476301703	 0.8367424441	-0.298052867	 0.136869
H	-0.5315397716	 0.6477887852	-1.9302286854	 0.146309
H	-1.6610759694	-0.5612075208	-1.2755251967	 0.154904
H	-0.9442266088	-3.0676934163	 1.6571045509	 0.147781
H	-0.3314911705	-3.247237296	-0.0681817611	 0.130034
H	 1.3726859317	-2.3937398347	 2.3876378507	 0.130029
H	 1.964149246	-2.4889454662	 0.6482661232	 0.147786
H	-0.4319881557	 1.4951375529	 2.9353193423	 0.146319
H	 1.1815299516	 0.8252542059	 2.5983853174	 0.1549
H	 0.2382726129	 1.4849944063	 1.2731478646	 0.136863
34.6334	74.5237	89.6233	110.8573	199.9487	200.7339	255.8262	264.2367	394.151	404.3724	447.0285	597.5468	599.3918	615.3389	641.481	797.3208	848.1956	869.6016	917.1544	943.0903	981.0888	1016.5744	1049.1729	1056.6676	1063.0158	1099.6407	1130.876	1175.3716	1204.8834	1297.3891	1321.8034	1383.7072	1391.242	1453.3188	1459.9576	1468.6831	1476.0795	1478.5754	1482.2554	1781.9621	1804.9944	3041.2907	3042.757	3106.3413	3111.1227	3142.0655	3142.4131	3154.7628	3157.2257	3231.9863	3244.5166
CC(=O)C1(CC1)C(C)=O	CC(=O)C1(CC1)C(=O)C	
InChI=1S/C7H10O2/c1-5(8)7(3-4-7)6(2)9/h3-4H2,1-2H3	InChI=1S/C7H10O2/c1-5(8)7(3-4-7)6(2)9/h3-4H2,1-2H3
