19
gdb 5029	2.1814756	1.5082166	1.3652075	2.1952	76.13	-0.22727	0.00935	0.23662	1097.0729	0.155353	-422.519485	-422.510349	-422.509405	-422.553408	33.308	
C	 1.3392200518	-0.1842542704	-0.1028323747	-0.273253
O	-0.0734651461	-0.0778411382	 0.0438202976	-0.291373
C	-0.4632616778	 0.5910074939	 1.1664645328	 0.315965
C	-0.3725481849	 0.1561990491	 2.6879755626	-0.313197
C	-1.1406939661	 1.5159142629	 2.7268905363	-0.189484
C	-1.9409375422	 0.9990990898	 1.4728067506	-0.02801
C	-2.668360098	 1.9673339069	 0.5565321165	-0.44384
C	-0.0916455098	 1.9927472285	 1.7078747678	 0.376515
O	 0.6243954412	 2.9194246868	 1.4785339252	-0.3446
H	 1.7776948993	-0.792224881	 0.7001497663	 0.116134
H	 1.5190198117	-0.6766566771	-1.0600329946	 0.133459
H	 1.8127340858	 0.8041844746	-0.1037203842	 0.145321
H	-0.9823345701	-0.7154032883	 2.9342572833	 0.111662
H	 0.6106043746	 0.1216172047	 3.1596943306	 0.111867
H	-1.5331793853	 2.0253485081	 3.6005535719	 0.09994
H	-2.5544970748	 0.1273069364	 1.7210139068	 0.082386
H	-3.5992118038	 2.3136645343	 1.0171819947	 0.121435
H	-2.0593370651	 2.8468900639	 0.3244959845	 0.136542
H	-2.9247157404	 1.478578265	-0.3887475539	 0.132531
70.8089	145.5912	148.8475	164.3869	196.9646	241.1297	298.1771	333.8432	464.0501	495.3314	547.0198	678.358	719.9608	753.5852	757.3172	837.0756	868.5571	931.6079	977.1839	1004.9921	1021.5528	1063.1217	1074.6174	1095.2617	1138.6111	1156.9843	1169.7695	1182.0441	1195.6016	1231.7862	1238.3021	1347.9053	1401.8914	1420.8227	1488.0133	1491.2529	1492.9728	1498.0213	1507.3981	1518.2413	1904.2984	3007.3453	3036.4142	3060.9479	3070.4153	3076.3783	3104.2828	3110.2995	3135.1237	3145.0498	3183.1073
COC12CC(C1C)C2=O	CO[C@]12C[C@H]([C@H]1C)C2=O	
InChI=1S/C7H10O2/c1-4-5-3-7(4,9-2)6(5)8/h4-5H,3H2,1-2H3	InChI=1S/C7H10O2/c1-4-5-3-7(4,9-2)6(5)8/h4-5H,3H2,1-2H3/t4-,5-,7-/m1/s1
