19
gdb 2051	2.9856892	1.2311285	1.0173904	2.3825	75.42	-0.24693	0.07867	0.3256	1215.0117	0.155606	-422.49829	-422.489694	-422.48875	-422.531805	31.993	
C	 0.1680133518	-0.4958362054	-0.3203479205	-0.50429
C	 0.9300027801	 0.6809036016	 0.1951264352	 0.401721
O	 2.239080221	 0.4568363161	 0.7462882004	-0.289666
C	 2.1001865943	 1.4242082526	-0.3067103449	-0.03918
C	 1.6371836415	 2.7296840911	 0.3463523392	-0.272305
C	 0.3813141019	 1.9520352113	 0.8932998922	-0.084601
C	 0.190561896	 1.8688018081	 2.3804693837	 0.08546
C	-1.1369093561	 1.7332095554	 2.9960530102	-0.188819
O	-0.4536016314	 2.9858936947	 3.0066056998	-0.240319
H	-0.255783367	-1.0783936799	 0.5054497247	 0.132304
H	-0.6579391974	-0.1734721046	-0.9626180306	 0.125141
H	 0.8260702791	-1.1520532541	-0.8960529586	 0.136609
H	 2.7060380557	 1.2727404425	-1.193124949	 0.102543
H	 2.3200401457	 3.1409135379	 1.0936290697	 0.116442
H	 1.3635925246	 3.5094797413	-0.3675584443	 0.109735
H	-0.536542237	 2.3118252928	 0.4191951119	 0.079634
H	 1.0498726054	 1.4855718287	 2.9298028065	 0.106584
H	-2.0228351759	 1.6893159873	 2.3626017767	 0.107754
H	-1.2380009422	 1.2447374427	 3.9644595177	 0.115255
69.9792	128.2467	147.7457	199.6407	274.5257	281.8367	342.0506	438.5164	450.8456	543.7457	655.0698	733.44	806.3576	854.1363	865.5169	902.5951	909.4765	922.5448	959.2957	985.402	1042.372	1046.1732	1089.5467	1108.2807	1122.7062	1155.608	1178.7482	1188.0467	1205.7522	1212.0793	1262.1635	1272.7302	1289.0231	1306.5515	1405.0476	1443.2561	1461.7822	1478.5827	1486.0374	1496.3958	1529.5541	3034.3366	3066.5893	3071.8097	3077.3116	3096.3893	3121.509	3122.5134	3127.7254	3162.873	3182.5437
CC12OC1CC2C1CO1	C[C@@]12O[C@@H]1C[C@@H]2[C@@H]1CO1	
InChI=1S/C7H10O2/c1-7-4(5-3-8-5)2-6(7)9-7/h4-6H,2-3H2,1H3	InChI=1S/C7H10O2/c1-7-4(5-3-8-5)2-6(7)9-7/h4-6H,2-3H2,1H3/t4-,5+,6-,7+/m1/s1
