19
gdb 3247	3.5217494	1.38816	1.2540182	0.714	74.07	-0.22311	0.07831	0.30142	1049.5099	0.158825	-422.520322	-422.513063	-422.512118	-422.551486	29.905	
O	 0.4693914941	 0.35660269	 0.2067204543	-0.429986
C	-0.8015766916	 0.1511015897	 0.7530010775	 0.018818
C	-1.9759509053	 0.8590893877	 0.1022797159	 0.043803
O	-3.117397043	 1.2340814487	 0.8313589468	-0.27329
C	-4.0293191393	 0.1681723661	 1.0963827282	 0.133611
C	-3.3283827861	-1.0050588099	 1.8299212406	-0.252592
C	-2.8846367051	-1.4732969801	 0.4120280555	-0.053965
C	-4.1945840794	-0.7981451363	-0.1119282666	-0.236243
C	-1.7484950907	-0.6160924858	-0.1303372746	-0.071623
H	 0.7823383519	 1.2182723423	 0.5031640987	 0.287352
H	-0.8304150406	-0.0137583108	 1.8285448974	 0.090915
H	-1.7356644846	 1.5698500563	-0.6834041161	 0.097787
H	-4.9081514405	 0.6386763456	 1.538923746	 0.075492
H	-2.5815781673	-0.765578858	 2.588723456	 0.101645
H	-4.0605190235	-1.6977444137	 2.2530854405	 0.100985
H	-2.7223453098	-2.5401284082	 0.2478289157	 0.067566
H	-4.184530105	-0.3674474436	-1.1159056987	 0.099973
H	-5.0754109116	-1.4317255389	 0.0176895613	 0.099224
H	-1.3527859526	-0.9065740411	-1.0991192482	 0.100528
188.1079	243.5608	266.0229	331.9648	358.1777	407.7716	454.4955	472.8257	527.5179	650.6858	799.2595	809.474	820.5556	878.1577	894.392	911.3217	927.6833	938.1212	984.5239	994.5371	1040.2871	1062.1597	1072.6312	1101.2628	1110.4569	1126.7969	1144.3147	1177.046	1178.6809	1219.4564	1239.2261	1263.0869	1267.8458	1286.4196	1310.0724	1337.9002	1349.066	1380.7727	1460.025	1475.4343	1505.7865	3061.5395	3066.4003	3087.8631	3105.6964	3110.4412	3123.986	3126.6901	3143.728	3157.2148	3797.6308
OC1C2OC3CC(C3)C12	O[C@H]1[C@@H]2O[C@@H]3C[C@@H](C3)[C@H]12	
InChI=1S/C7H10O2/c8-6-5-3-1-4(2-3)9-7(5)6/h3-8H,1-2H2	InChI=1S/C7H10O2/c8-6-5-3-1-4(2-3)9-7(5)6/h3-8H,1-2H2/t3-,4+,5-,6-,7-/m1/s1
