19
gdb 5608	3.2961672	1.1047195	0.8700351	3.8893	78.55	-0.24575	-0.02924	0.21651	1339.1532	0.156093	-422.595463	-422.586391	-422.585446	-422.62942	33.497	
C	 1.3697772285	 0.8761152105	 0.285680019	-0.487027
C	-0.0300480018	 0.3519676352	 0.3008396482	 0.306661
C	-1.1450955347	 1.0164608404	-0.024220998	-0.187239
C	-2.3991786246	 0.1961885201	 0.1110557198	-0.174283
C	-3.2894022373	 0.0797234134	-1.1473584897	-0.0557
O	-4.4553882995	-0.6665088292	-0.8926044668	-0.424745
C	-1.8475050682	-1.181378994	 0.5004917524	 0.400252
O	-2.4971196911	-2.2004770172	 0.5507864805	-0.331033
C	-0.3390790978	-1.0646833851	 0.7282958977	-0.412273
H	 1.8238512278	 0.8231192664	 1.2834051563	 0.130011
H	 2.0086158992	 0.2795361303	-0.3778315983	 0.130677
H	 1.4052791029	 1.9159366854	-0.0502598644	 0.128385
H	-1.1629593326	 2.0513356915	-0.3504663326	 0.097174
H	-3.0519777567	 0.5571078237	 0.9199520337	 0.11538
H	-3.6066598941	 1.0795219776	-1.4637679227	 0.106602
H	-2.6936035979	-0.3491814783	-1.9706898965	 0.085604
H	-4.1651009186	-1.4960989116	-0.4866644625	 0.296103
H	-0.10425811	-1.253300695	 1.7857982963	 0.138397
H	 0.1972387865	-1.8348074539	 0.1594679778	 0.137055
69.1887	115.7174	158.8423	185.7542	223.5546	288.2911	347.7737	383.5691	441.2193	487.3337	544.5579	559.8513	605.319	709.863	754.7213	836.0679	885.6866	912.7459	983.7213	996.4944	1028.4341	1049.9502	1086.385	1091.4249	1137.9166	1159.1738	1186.5448	1206.5004	1250.3146	1278.5148	1315.4823	1348.9115	1379.1375	1414.7227	1439.6436	1458.0033	1477.3962	1487.1345	1513.0885	1711.7051	1820.9874	2961.35	3002.2452	3014.6249	3019.1579	3051.8674	3062.5024	3065.2805	3112.38	3183.7965	3727.1497
CC1=CC(CO)C(=O)C1	CC1=C[C@@H](CO)C(=O)C1	
InChI=1S/C7H10O2/c1-5-2-6(4-8)7(9)3-5/h2,6,8H,3-4H2,1H3	InChI=1S/C7H10O2/c1-5-2-6(4-8)7(9)3-5/h2,6,8H,3-4H2,1H3/t6-/m0/s1
