19
gdb 4796	1.8478423	1.4400299	1.1165443	2.432	78.2	-0.2565	-0.04274	0.21376	1210.4941	0.153352	-422.537468	-422.52698	-422.526036	-422.573015	37.428	
C	 2.4087947836	-2.5205544769	-0.6894518024	-0.403182
C	 3.0406254697	-1.5088760647	 0.2691571439	-0.201106
C	 2.6331021152	-0.0256456549	 0.0022806419	-0.061637
C	 3.2232999879	 0.5109247887	-1.3338248045	-0.091667
O	 4.6196634931	 0.3476429173	-1.4086792893	-0.425515
C	 3.1951016652	 0.7866888349	 1.1781795876	 0.150869
O	 4.1357616713	 1.5375098177	 1.1020433015	-0.267895
C	 1.1834182913	 0.1493838223	 0.0201687409	 0.310095
C	-0.0043680188	 0.3371398056	 0.0467203211	-0.460059
H	 2.7124453183	-3.5346405359	-0.4134796844	 0.12045
H	 1.3168367584	-2.4711683363	-0.6564087066	 0.131627
H	 2.7284908326	-2.3509484308	-1.721450187	 0.13139
H	 2.7675143873	-1.7632954439	 1.3003202861	 0.102838
H	 4.1310344644	-1.5522037626	 0.1951744095	 0.1289
H	 2.7856237149	-0.0441488407	-2.1672965284	 0.121075
H	 2.925005842	 1.5627066879	-1.4436956082	 0.10659
H	 4.9874823577	 0.9287435234	-0.7299277871	 0.297205
H	 2.6718511058	 0.6170547788	 2.1427375753	 0.105707
H	-1.0553063798	 0.4919861201	 0.0600164701	 0.204316
62.4375	82.3927	135.4493	152.7339	171.2757	217.8692	263.3904	274.2454	309.7854	366.249	449.0063	505.9018	512.7157	579.2078	602.2931	637.8024	654.5533	759.7789	786.4432	878.8494	956.0619	1003.3813	1027.6472	1044.1918	1085.2829	1106.9227	1175.9626	1194.5615	1250.6212	1326.0146	1363.969	1385.585	1408.244	1422.5364	1437.2926	1478.0689	1491.8754	1501.9093	1509.2884	1810.8556	2225.6489	2914.9038	3012.1686	3034.2448	3045.6787	3091.7763	3099.8502	3114.2098	3124.4788	3498.7531	3766.6202
CCC(CO)(C=O)C#C	CC[C@](CO)(C=O)C#C	
InChI=1S/C7H10O2/c1-3-7(4-2,5-8)6-9/h1,5,9H,4,6H2,2H3	InChI=1S/C7H10O2/c1-3-7(4-2,5-8)6-9/h1,5,9H,4,6H2,2H3/t7-/m0/s1
