19
gdb 4234	2.9904676	1.8225	1.5541946	2.052	73.7	-0.2263	0.06914	0.29544	934.2121	0.158872	-422.523663	-422.51672	-422.515776	-422.554554	28.624	
C	-0.7235288392	 1.2139359151	 3.162826937	-0.407158
C	 0.2033074172	 0.3797430014	 2.2922434001	 0.137577
O	-0.244521378	 0.509782034	 0.9326126855	-0.275994
C	 0.0282734314	-0.6476803003	 0.169491684	 0.067597
C	 1.4874253512	-1.1408112836	 0.383471828	-0.273504
C	 0.9409291397	-1.9687109378	 1.5608340296	-0.101176
C	-0.4734726873	-1.9467239828	 0.9484689038	 0.114299
O	-1.1127039896	-1.614775996	 2.1825906577	-0.289861
C	 0.1790711984	-1.1094280327	 2.6359081087	 0.055576
H	-0.3584186111	 1.247781731	 4.1943890344	 0.107774
H	-0.7740077039	 2.2367070382	 2.7801953108	 0.125412
H	-1.7282796313	 0.7849967631	 3.150509607	 0.14156
H	 1.2355794122	 0.7564130139	 2.3795776457	 0.067725
H	-0.3321035448	-0.4595873715	-0.842372258	 0.081635
H	 1.8152561125	-1.7986633492	-0.427017711	 0.105256
H	 2.250257228	-0.3774328371	 0.555269228	 0.107372
H	 1.4417504544	-2.8637564426	 1.9292749865	 0.075754
H	-0.9587640066	-2.7441275112	 0.3833325961	 0.079518
H	 0.3612586666	-1.3163634118	 3.6935408863	 0.080637
160.9203	233.4429	278.675	356.1115	403.4943	424.7726	514.8788	594.4858	680.9186	727.5226	758.8635	808.4814	826.836	842.4638	875.5488	933.2309	946.5457	984.0962	997.0203	1018.5262	1040.185	1050.9265	1078.3918	1115.8001	1126.2992	1149.3547	1174.1709	1196.7259	1218.0373	1239.672	1267.7967	1299.0231	1305.5775	1331.7808	1345.8392	1374.2193	1384.4072	1403.8517	1483.4625	1486.3226	1501.2034	2965.8396	3044.1246	3056.0107	3078.9175	3097.7951	3108.326	3110.6095	3116.5372	3117.2869	3134.854
CC1OC2CC3C2OC13	C[C@@H]1O[C@H]2C[C@@H]3[C@H]2O[C@H]13	
InChI=1S/C7H10O2/c1-3-6-4-2-5(8-3)7(4)9-6/h3-7H,2H2,1H3	InChI=1S/C7H10O2/c1-3-6-4-2-5(8-3)7(4)9-6/h3-7H,2H2,1H3/t3-,4-,5-,6+,7+/m0/s1
