19
gdb 4600	2.8138473	0.7046415	0.6013747	1.8844	84.41	-0.24011	-0.03648	0.20362999999999998	1907.1929	0.152598	-422.51639	-422.505191	-422.504247	-422.555205	36.828	
C	-0.0677557221	-0.0611976408	 0.077153507	-0.367076
C	 1.447394967	-0.0066382293	-0.1912106311	-0.320176
C	 1.9904525915	 1.3456106864	-0.1376514822	 0.172953
C	 2.410885368	 2.4725641571	-0.0660875705	-0.026794
C	 2.9455742245	 3.8269837111	-0.0770748737	-0.12176
O	 3.9237179155	 3.964987906	 0.9419972029	-0.242171
C	 4.2658807173	 5.3154469507	 1.2026691898	-0.239386
C	 3.6011846634	 4.0678521195	-1.4520544172	 0.146904
O	 3.182460054	 4.8260884921	-2.2833281047	-0.235455
H	-0.3009752491	 0.3352400894	 1.0688323502	 0.132045
H	-0.6145858676	 0.5310408043	-0.6612160223	 0.132194
H	-0.4246828931	-1.0937658437	 0.0246114389	 0.118533
H	 1.9758767992	-0.6312261298	 0.5400676526	 0.138069
H	 1.6650271182	-0.4439268783	-1.1739797256	 0.135533
H	 2.1393907216	 4.5673717934	 0.0427890232	 0.107882
H	 5.0130824994	 5.3006906258	 1.998499582	 0.136237
H	 4.693153878	 5.8184350603	 0.3233567396	 0.120588
H	 3.3920496534	 5.8925005464	 1.5393592314	 0.116474
H	 4.5265796608	 3.4671713894	-1.5922070805	 0.095406
22.2667	50.6287	73.8076	92.2841	117.2675	181.3029	191.609	214.7364	315.2112	317.398	354.6748	453.2531	492.0502	501.3604	533.173	784.3536	785.811	952.7384	974.0935	1024.4179	1040.2638	1080.1638	1104.1368	1119.3625	1172.7123	1182.9178	1217.5609	1266.7725	1285.9569	1345.9543	1355.8689	1396.5015	1410.8368	1471.3151	1477.7813	1489.2523	1495.3718	1505.2601	1508.5012	1837.4444	2361.276	2899.2667	2985.8375	2991.5953	3024.3618	3039.3915	3047.195	3052.863	3121.4466	3127.2224	3128.3806
CCC#CC(OC)C=O	CCC#C[C@@H](OC)C=O	
InChI=1S/C7H10O2/c1-3-4-5-7(6-8)9-2/h6-7H,3H2,1-2H3	InChI=1S/C7H10O2/c1-3-4-5-7(6-8)9-2/h6-7H,3H2,1-2H3/t7-/m1/s1
