19
gdb 1260	3.0127035	1.3765409	1.1886905	1.6607	74.35	-0.23086	0.06992	0.30078	1105.5473	0.156322	-422.492849	-422.484477	-422.483533	-422.525957	31.941	
C	 1.4014090764	 3.4829004542	 1.5781747453	-0.38153
C	 0.8812556957	 2.0908524709	 1.2338513274	-0.040772
O	 0.2802133385	 2.1883961873	-0.0582847918	-0.429439
C	-0.0861785164	 1.5682202775	 2.2470536733	 0.321413
C	-0.7621503519	 0.2013602698	 2.4344719512	-0.203324
C	-2.1486299655	 0.8418753682	 2.5011785008	-0.228893
C	-1.3943615677	 2.1179482184	 2.9517637444	 0.016823
O	-0.863588602	 1.7583404205	 4.2606007682	-0.294711
C	 0.0254110235	 0.8865768694	 3.5676096496	 0.024598
H	 1.9113547795	 3.4747093375	 2.5450384916	 0.12217
H	 2.1010205143	 3.8214456859	 0.8096590454	 0.12397
H	 0.5723975196	 4.1950779134	 1.6243442647	 0.125123
H	 1.7347316809	 1.3908566505	 1.200203953	 0.066053
H	-0.1057024566	 1.329683211	-0.2608928295	 0.28067
H	-0.4670667515	-0.7559803622	 2.0218754757	 0.09003
H	-2.5847644782	 0.9619746317	 1.5063491778	 0.104191
H	-2.8871204594	 0.4442635851	 3.2041023396	 0.102645
H	-1.8247266368	 3.1160226663	 2.9149211705	 0.091998
H	 0.8623878974	 0.4501765446	 4.0971991327	 0.108985
68.3924	118.1679	167.2526	228.2177	316.9108	334.8816	383.4014	459.0491	492.0116	563.297	630.6563	760.8079	787.1546	829.0757	866.1146	907.1051	923.5007	943.3843	944.3977	975.0822	1000.1927	1027.5837	1031.476	1056.8656	1081.8345	1125.9291	1127.1795	1148.2393	1164.5434	1219.3894	1229.0041	1267.9868	1283.5411	1315.9363	1356.8685	1389.7845	1418.6234	1452.4931	1483.8948	1487.7125	1499.3504	2943.5773	3047.5429	3051.1827	3114.9614	3122.6869	3129.2071	3151.0887	3188.5125	3207.1808	3810.7409
CC(O)C12C3CC1OC23	C[C@H](O)[C@]12[C@@H]3C[C@H]1O[C@H]23	
InChI=1S/C7H10O2/c1-3(8)7-4-2-5(7)9-6(4)7/h3-6,8H,2H2,1H3	InChI=1S/C7H10O2/c1-3(8)7-4-2-5(7)9-6(4)7/h3-6,8H,2H2,1H3/t3-,4+,5+,6-,7-/m0/s1
