19
gdb 2918	2.2432012	1.8329997	1.3987611	0.498	74.51	-0.22718	0.07683	0.30401	1014.398	0.157599	-422.533729	-422.525697	-422.524753	-422.565844	31.27	
C	-2.7980954778	 2.4892483332	 2.0388311328	-0.525754
C	-2.4136970037	 1.098530248	 1.6379992251	 0.351872
C	-3.3092685647	-0.0372592737	 1.2512955641	-0.142098
C	-3.0269220498	-1.229412974	 2.1558332424	-0.104049
O	-1.8181815343	-0.8938272603	 2.8519631205	-0.268539
C	-1.2505806151	 0.2137788891	 2.1702135012	-0.019416
C	-0.8738610592	-0.1318038204	 0.6886161234	 0.100563
O	 0.1356894235	 0.7094813994	 0.1623360914	-0.439404
C	-2.2286711734	 0.4242125856	 0.2787414257	-0.132066
H	-3.0998472943	 2.5300944488	 3.0920875244	 0.123704
H	-1.9664703252	 3.1884354895	 1.9000236178	 0.127969
H	-3.6395695063	 2.8513057911	 1.4386105358	 0.119895
H	-4.3323510987	 0.1731542403	 0.9603950647	 0.091588
H	-3.8267229998	-1.3765226233	 2.8918337653	 0.104291
H	-2.8960256898	-2.1687765487	 1.6017682971	 0.099605
H	-0.463320516	 0.6541340892	 2.7832969232	 0.077714
H	-0.6580097543	-1.192027185	 0.489220362	 0.06223
H	 0.9797289358	 0.4109970119	 0.5171254977	 0.282393
H	-2.4736174469	 0.7984676291	-0.7088283246	 0.089501
131.3098	194.5952	220.2684	243.3846	297.071	320.3198	328.2327	427.6137	510.0156	589.2219	696.3305	749.1799	768.4912	852.5894	872.4785	914.5979	933.3164	957.7265	980.645	1011.2524	1037.8099	1056.9994	1076.5725	1089.0217	1108.4493	1131.95	1184.3617	1195.8686	1213.6948	1224.4833	1241.2992	1285.3394	1310.5354	1321.2797	1373.5448	1413.0643	1430.1952	1465.0643	1485.9935	1499.4072	1526.3936	2987.02	3007.6726	3023.7415	3046.5838	3085.7812	3095.0693	3114.9895	3176.1312	3186.1234	3809.6749
CC12C3COC1C(O)C23	C[C@]12[C@@H]3CO[C@H]1[C@H](O)[C@H]23	
InChI=1S/C7H10O2/c1-7-3-2-9-6(7)5(8)4(3)7/h3-6,8H,2H2,1H3	InChI=1S/C7H10O2/c1-7-3-2-9-6(7)5(8)4(3)7/h3-6,8H,2H2,1H3/t3-,4-,5-,6+,7-/m1/s1
