19
gdb 1423	2.4878839	1.7166682	1.3016221	2.2059	74.69	-0.19265	0.06244	0.25509	1034.0095	0.154751	-422.475512	-422.466729	-422.465784	-422.508301	34.626	
C	-0.1817857362	-0.1935653594	-0.0033344284	-0.486981
C	 1.3199880579	 0.0864027941	 0.0148075843	 0.286484
O	 1.9467790975	-0.5347422046	 1.1371019384	-0.47565
C	 2.3003807774	 0.133451181	-1.156333996	-0.239565
C	 1.9063735025	 1.0479572677	-2.3498961076	-0.060266
C	 0.5850026202	 1.7680044857	-2.2468897663	-0.317429
C	 1.7483502489	 2.2391377621	-1.4177207733	-0.110275
C	 2.124574608	 1.3420858678	-0.2218153104	 0.406046
O	 2.9249262627	 1.8937937993	 0.749053673	-0.467211
H	-0.3986698917	-0.9574001634	 0.749003568	 0.115089
H	-0.7705856507	 0.6915392401	 0.2550080197	 0.136131
H	-0.5218757202	-0.5678997909	-0.9716316152	 0.131244
H	 2.1086119138	-1.4593436066	 0.9205040242	 0.287663
H	 3.1000237536	-0.5960870102	-1.226287688	 0.081244
H	 2.4563865522	 1.0120536258	-3.2814747543	 0.093602
H	 0.3802412609	 2.4112806916	-3.0993085068	 0.112342
H	-0.3067838288	 1.3306342129	-1.8223874171	 0.114518
H	 2.1768293974	 3.2282988171	-1.5097417964	 0.100053
H	 3.0365484345	 1.2007885901	 1.4157041821	 0.292961
76.0536	196.6047	229.2355	262.5523	271.1069	302.4021	359.2854	399.7304	447.4867	477.2106	516.0309	593.382	637.7437	690.6456	721.1312	761.9309	857.1378	880.3767	894.8654	917.816	939.1163	970.8391	1005.1182	1022.2865	1061.3562	1064.7187	1087.1811	1095.9327	1156.6072	1182.4986	1192.4134	1235.8981	1278.219	1292.6061	1337.2106	1401.9581	1420.9622	1445.3295	1490.8915	1497.3247	1511.6194	3040.9033	3107.3147	3121.4984	3133.3269	3165.3348	3190.4002	3204.7976	3242.8684	3745.3635	3799.4745
CC1(O)C2C3CC3C12O	C[C@@]1(O)[C@H]2[C@H]3C[C@H]3[C@@]12O	
InChI=1S/C7H10O2/c1-6(8)5-3-2-4(3)7(5,6)9/h3-5,8-9H,2H2,1H3	InChI=1S/C7H10O2/c1-6(8)5-3-2-4(3)7(5,6)9/h3-5,8-9H,2H2,1H3/t3-,4+,5+,6+,7-/m0/s1
