19
gdb 2737	2.4027212	1.6175432	1.3910896	1.823	76.2	-0.22614	0.01606	0.2422	1039.5583	0.155503	-422.556042	-422.546966	-422.546022	-422.589048	34.707	
C	 0.9538623874	 1.0666510569	 0.0965577105	-0.429527
C	 0.9441451032	-0.4436757094	 0.167972009	-0.123882
C	 1.8461624681	-1.2422681682	-0.759142442	 0.362776
O	 2.6707534051	-0.5564859555	-1.6467637956	-0.481477
C	 1.4431035601	-2.67325022	-1.1065513012	-0.333907
C	 1.4796687996	-3.3817462961	 0.2345893106	-0.076866
C	 1.8915550892	-2.5850470838	 1.2249276605	-0.139301
C	 2.1483344915	-1.2023193225	 0.7273743638	 0.253729
O	 3.294081473	-0.5107623772	 1.1354340211	-0.47644
H	 0.7129775465	 1.5155391774	 1.0675012868	 0.107079
H	 1.9226446057	 1.4462924461	-0.2332488645	 0.124478
H	 0.20628312	 1.4185657991	-0.6216309917	 0.127427
H	-0.0206277673	-0.8863309384	 0.4058472886	 0.082159
H	 3.4910147248	-0.3667911364	-1.1717827765	 0.291611
H	 0.4519554948	-2.7271157142	-1.5738076543	 0.11177
H	 2.1538040682	-3.107808327	-1.8210055524	 0.116217
H	 1.1725778003	-4.4149174526	 0.3508095776	 0.096954
H	 2.0081156202	-2.8656898452	 2.2655833423	 0.093989
H	 3.0399827296	 0.1863820268	 1.7486817075	 0.293212
114.4923	174.7919	200.2761	220.5269	237.3	259.1331	302.7422	346.6164	417.5368	460.9557	517.8542	554.3118	612.3508	719.5985	730.0897	756.0669	782.0963	845.3385	935.7867	949.1786	983.6558	1003.5424	1041.8125	1071.9263	1098.6215	1121.4088	1147.82	1168.2388	1196.0812	1228.7837	1272.3419	1313.4028	1327.1031	1380.5605	1393.619	1413.9152	1423.6878	1474.0056	1490.4885	1501.5886	1660.0915	3025.0993	3031.0364	3056.7385	3088.6614	3122.3708	3137.469	3185.9858	3210.1493	3751.5244	3810.6458
CC1C2(O)CC=CC12O	C[C@H]1[C@]2(O)CC=C[C@]12O	
InChI=1S/C7H10O2/c1-5-6(8)3-2-4-7(5,6)9/h2-3,5,8-9H,4H2,1H3	InChI=1S/C7H10O2/c1-5-6(8)3-2-4-7(5,6)9/h2-3,5,8-9H,4H2,1H3/t5-,6+,7-/m1/s1
