19
gdb 3108	3.7255542	1.2110623	1.1377444	1.633	76.71	-0.23059	0.00486	0.23545	1150.6373	0.157589	-422.552325	-422.544311	-422.543367	-422.584402	31.609	
C	 1.3457710975	 0.8328804967	 0.1496266183	-0.478765
C	-0.056121656	 0.3094903212	 0.2328265744	 0.310536
C	-1.152898846	 1.0271041568	-0.0295744757	-0.157159
C	-2.4795066702	 0.317596506	 0.0728084251	-0.01428
O	-2.3731119392	-0.9972842651	-0.579309216	-0.319144
C	-1.7482303534	-1.4760620448	 0.6539417611	 0.028253
C	-0.2518270181	-1.149032088	 0.618163467	-0.30964
C	-2.5821582138	-0.4269841318	 1.4321168265	 0.18389
O	-3.8703605359	-0.8693413599	 1.7698308824	-0.457257
H	 1.8681643235	 0.7249240223	 1.1089867941	 0.124462
H	 1.9327119542	 0.2693776123	-0.5874787039	 0.128015
H	 1.3663166456	 1.8885370001	-0.1338608968	 0.123937
H	-1.1120203574	 2.0776573012	-0.2990652667	 0.086858
H	-3.3416814449	 0.8873292438	-0.2801653642	 0.075337
H	-1.9628769724	-2.5314936573	 0.8466548554	 0.075907
H	 0.2008769942	-1.351856484	 1.5990295666	 0.108455
H	 0.2631072435	-1.804038984	-0.0982751247	 0.114591
H	-2.1547723962	 0.0507539618	 2.3154338629	 0.088776
H	-4.233505365	-1.2901752773	 0.9802270541	 0.287228
123.7044	188.2039	230.933	277.2674	323.8979	354.9153	416.721	427.396	470.4467	491.9657	592.364	708.6056	792.6143	814.4965	857.9762	888.4702	899.635	936.7386	960.0009	985.4668	995.5781	1054.5946	1058.2453	1067.6399	1114.0171	1165.1464	1183.6688	1213.4273	1224.3307	1263.1707	1290.018	1314.8176	1326.0037	1350.3397	1381.5681	1413.2602	1435.8463	1467.7102	1477.0581	1487.4346	1719.2468	3005.7142	3015.4501	3035.6446	3060.7139	3069.7313	3094.2643	3104.259	3111.6947	3176.939	3779.0748
CC1=CC2OC(C1)C2O	CC1=C[C@H]2O[C@@H](C1)[C@@H]2O	
InChI=1S/C7H10O2/c1-4-2-5-7(8)6(3-4)9-5/h2,5-8H,3H2,1H3	InChI=1S/C7H10O2/c1-4-2-5-7(8)6(3-4)9-5/h2,5-8H,3H2,1H3/t5-,6+,7-/m1/s1
