19
gdb 2773	2.0297213	1.4958966	0.9937874	4.5576	78.38	-0.24129	-0.01812	0.22317	1230.5403	0.155335	-422.54259	-422.533465	-422.532521	-422.576265	33.85	
C	 1.0199951409	 1.0963055612	 0.1583583289	-0.430966
C	 0.9146792044	-0.413265985	 0.0825308785	-0.06296
C	 1.833391642	-1.244729502	 0.9075671475	-0.158294
C	 1.4336019356	-2.7315935533	 0.8564349731	 0.132968
O	 2.3849802749	-3.6223267482	 1.3924192142	-0.43117
C	 1.5518597195	-2.7092484847	-0.6925975627	-0.314387
C	 1.9714649871	-1.2372801824	-0.6463571452	 0.26124
C	 3.0548245721	-0.6710129616	-1.4544411785	 0.046045
O	 3.6175504543	-1.2718996133	-2.3421012073	-0.272654
H	 0.381932589	 1.4752380259	 0.9633793117	 0.126882
H	 2.0411944264	 1.4272655864	 0.3672179159	 0.125399
H	 0.6973744355	 1.5681310086	-0.7750569074	 0.13081
H	-0.1060949353	-0.7740824967	-0.0491584583	 0.090093
H	 2.5171166307	-0.8056184358	 1.6265025218	 0.098674
H	 0.4288648072	-2.9355403379	 1.2555620389	 0.067998
H	 2.348990662	-3.5589761059	 2.3526319647	 0.283019
H	 2.370966803	-3.3535707241	-1.0137596176	 0.145132
H	 0.6509832964	-2.9433580428	-1.2664457473	 0.099191
H	 3.3516115844	 0.3692647116	-1.195418101	 0.06298
88.1513	147.6701	195.1879	200.2051	231.2526	251.331	309.369	322.2341	407.6339	453.245	467.773	520.235	697.5979	724.0437	792.024	889.487	923.3139	935.2321	971.2373	993.9007	1018.2382	1044.6645	1050.4202	1092.0714	1125.1363	1139.8081	1172.715	1214.0363	1227.5317	1261.3018	1267.4901	1309.2616	1370.6973	1410.5997	1417.9757	1428.3285	1448.682	1478.6284	1496.6279	1505.0325	1791.0153	2883.1278	2983.6895	3038.2393	3064.4563	3090.5516	3101.7397	3115.4264	3142.5731	3173.4941	3809.9261
CC1C2C(O)CC12C=O	C[C@@H]1[C@H]2[C@H](O)C[C@@]12C=O	
InChI=1S/C7H10O2/c1-4-6-5(9)2-7(4,6)3-8/h3-6,9H,2H2,1H3	InChI=1S/C7H10O2/c1-4-6-5(9)2-7(4,6)3-8/h3-6,9H,2H2,1H3/t4-,5-,6+,7-/m1/s1
