19
gdb 2198	1.9348556	1.76901	1.7396693	2.3772	75.39	-0.21257	0.05716	0.26973	992.2163	0.156035	-422.513594	-422.504924	-422.50398	-422.546094	33.708	
C	 0.1132108148	 0.5786679135	-0.4812457181	-0.535902
C	 1.4192097306	-0.0017212086	-0.0545688214	 0.184505
C	 1.9315021277	-1.4660244094	 0.2931744311	-0.122476
C	 2.4839923084	-0.9281490971	 1.6505086592	-0.285415
C	 2.4710860046	 0.4224865536	 0.962042584	 0.355951
O	 2.6647730451	 1.6559203044	 1.5409253956	-0.481215
C	 2.8615517523	 0.2008415562	-0.5063478551	 0.251391
O	 3.4403781234	 1.2964619479	-1.1265168115	-0.476206
C	 3.1098042899	-1.2832283295	-0.7134027305	-0.29159
H	-0.6758393133	 0.3806426386	 0.2533623331	 0.127692
H	 0.1994801621	 1.6669212974	-0.5773388493	 0.126136
H	-0.2261560345	 0.1830261319	-1.4464770899	 0.11448
H	 1.313628933	-2.3595506354	 0.2603571526	 0.077061
H	 1.7340868817	-0.9841520317	 2.4447090854	 0.102885
H	 3.4370266349	-1.3361402479	 2.0078848958	 0.087715
H	 3.1892846566	 2.1781846915	 0.9188730071	 0.29197
H	 3.0655537511	 1.3995912096	-2.0076557242	 0.292188
H	 2.8352001868	-1.6110218095	-1.7218330847	 0.088821
H	 4.0826698948	-1.7060139253	-0.4370455191	 0.092009
143.9935	178.4458	183.9994	249.1043	253.0173	309.2281	349.708	382.5665	445.9788	459.7428	555.6671	644.2634	672.0955	685.0573	690.2833	768.1258	821.4147	899.6086	907.341	974.8493	1052.9435	1059.0793	1089.5722	1094.3611	1113.582	1127.0233	1131.871	1181.7124	1205.7541	1241.731	1254.3719	1275.8391	1334.5365	1360.9262	1408.1179	1420.387	1466.0301	1484.2217	1497.5201	1499.1812	1521.4167	3014.9157	3025.6354	3032.0293	3071.0416	3081.3814	3086.7571	3095.3225	3149.8493	3753.421	3801.3803
CC12C3CC1(O)C2(O)C3	C[C@]12[C@@H]3C[C@@]1(O)[C@@]2(O)C3	
InChI=1S/C7H10O2/c1-5-4-2-6(5,8)7(5,9)3-4/h4,8-9H,2-3H2,1H3	InChI=1S/C7H10O2/c1-5-4-2-6(5,8)7(5,9)3-4/h4,8-9H,2-3H2,1H3/t4-,5+,6+,7-
