19
gdb 1364	2.2725303	0.9652563	0.9231246	1.9659	78.58	-0.24677	-0.03236	0.21441	1426.7972	0.151582	-422.524332	-422.513493	-422.512549	-422.561263	37.576	
C	-1.5438067466	 1.5282351643	-0.8795644824	-0.412297
C	-0.3755589051	 1.9752517772	 0.0002557293	 0.045568
O	-0.8960391059	 2.8388523956	 0.9975647977	-0.256497
C	 0.0806652779	 3.6153584415	 1.6916796035	-0.046797
C	-0.6364022662	 4.2767865159	 2.8684956877	-0.395124
C	 0.7153796194	 4.6049302228	 0.8106267788	 0.356665
C	 1.2309347338	 5.4195331993	 0.0926944935	-0.488908
C	 0.2664610198	 0.7482414443	 0.6443404921	 0.136845
O	 1.1233248441	 0.0783182346	 0.1317204385	-0.240483
H	-2.2972254921	 1.0049076817	-0.2826439771	 0.129936
H	-2.0130042369	 2.4034425421	-1.3351990262	 0.136513
H	-1.1866997489	 0.8587865257	-1.6659186223	 0.138501
H	 0.3795683206	 2.4859543707	-0.6115256948	 0.107521
H	 0.8701231132	 2.9516926017	 2.0820329003	 0.103824
H	-1.0747983655	 3.507268621	 3.5085494618	 0.126465
H	 0.0660371904	 4.8752656381	 3.453142932	 0.130881
H	-1.4331862168	 4.9270980106	 2.5000654095	 0.139793
H	 1.6909467487	 6.1371815559	-0.5413240839	 0.205494
H	-0.1662028437	 0.5000182269	 1.6430154021	 0.082099
37.4267	58.139	89.1762	143.4011	202.5342	214.5154	224.4433	252.4206	279.6436	358.0031	378.2563	420.2465	521.1982	575.6845	617.4573	635.8755	682.3783	813.2464	873.1841	895.3576	925.7353	998.6095	1066.4604	1105.0304	1110.6973	1127.3757	1156.3204	1182.9203	1312.156	1326.6809	1348.8679	1376.9309	1390.6374	1401.6434	1405.228	1481.6261	1483.7363	1494.0922	1498.129	1838.88	2231.8296	2853.9515	2962.6268	3031.9184	3046.8174	3054.6207	3122.6187	3136.1641	3137.4885	3139.4979	3500.6882
CC(OC(C)C#C)C=O	C[C@@H](O[C@H](C)C#C)C=O	
InChI=1S/C7H10O2/c1-4-6(2)9-7(3)5-8/h1,5-7H,2-3H3	InChI=1S/C7H10O2/c1-4-6(2)9-7(3)5-8/h1,5-7H,2-3H3/t6-,7-/m1/s1
