19
gdb 3512	2.1268901	1.4565123	1.1354463	1.5671	77.01	-0.24466	-0.02489	0.21977	1153.591	0.156957	-422.581697	-422.572815	-422.571871	-422.615925	32.641	
O	-0.6397148261	-1.9770433629	-2.4607853245	-0.436733
C	-0.366622004	-1.0250443578	-1.4305720756	 0.061989
C	-1.2863208435	 0.1473486974	-1.6522825684	-0.057636
C	-0.881630248	 1.3226332697	-2.1323797553	-0.032491
C	 0.5375204713	 1.6192002396	-2.5328361396	-0.261557
C	 1.3877648721	 0.3445760569	-2.6261499954	-0.229811
C	 1.1259872349	-0.6108266967	-1.4403911117	-0.112686
C	 1.5298659114	 0.017201987	-0.1206176288	 0.152633
O	 2.5074216942	-0.3009506763	 0.5094136443	-0.25794
H	-0.2162815471	-2.8070908686	-2.2153241597	 0.28304
H	-0.6044984933	-1.4727361711	-0.4517169021	 0.074694
H	-2.3326795807	-0.0188653251	-1.4129721656	 0.096155
H	-1.6026493166	 2.1284545086	-2.2503987662	 0.094042
H	 0.542990432	 2.1394767285	-3.4984025956	 0.114361
H	 0.9767937009	 2.3334261895	-1.8206840572	 0.116105
H	 1.1214842462	-0.2013131063	-3.5371432752	 0.124711
H	 2.451949641	 0.5908390877	-2.6875522678	 0.106881
H	 1.7431070772	-1.5088342101	-1.5535917836	 0.081778
H	 0.850245648	 0.8163980201	 0.2530157281	 0.082464
40.0902	94.8267	158.3685	230.4258	275.3996	303.609	311.6245	385.029	460.6319	495.4806	531.0404	611.7583	740.9163	764.3154	838.3234	869.2516	916.0815	952.2437	992.8335	1008.9742	1011.3226	1056.2463	1061.5721	1107.8854	1126.8224	1159.6527	1204.2081	1240.9552	1257.5588	1276.1094	1313.7005	1357.9323	1373.7148	1387.4189	1405.7527	1433.1404	1446.591	1473.9841	1489.6175	1722.8622	1824.5587	2876.2726	2959.6636	3001.8712	3041.0998	3049.4372	3057.8572	3094.2103	3148.2548	3175.9824	3799.6758
OC1C=CCCC1C=O	O[C@@H]1C=CCC[C@H]1C=O	
InChI=1S/C7H10O2/c8-5-6-3-1-2-4-7(6)9/h2,4-7,9H,1,3H2	InChI=1S/C7H10O2/c8-5-6-3-1-2-4-7(6)9/h2,4-7,9H,1,3H2/t6-,7+/m0/s1
