19
gdb 2895	3.0937339	1.5413399	1.2671005	1.8702	73.85	-0.22596	0.06306	0.28902	1032.7111	0.157463	-422.505671	-422.497856	-422.496912	-422.537791	30.698	
C	 0.0786698779	-1.8673608167	 0.5789507407	-0.39015
C	 1.5652781676	-1.7620110992	 0.9241681171	-0.03686
C	 2.05799113	-0.3399066026	 1.1808088104	-0.031513
C	 3.4219550867	-0.3838034395	 1.9254230793	 0.029882
O	 3.1019170856	 0.8422740811	 2.6686763144	-0.320531
C	 1.866324632	 0.0417105388	 2.6799186275	 0.06065
C	 2.6690188474	-1.2593094947	 2.9695373099	-0.073303
C	 1.9842213485	-2.4316863195	 2.2798572369	 0.082929
O	 0.8284405942	-2.8822219458	 2.9767743999	-0.4307
H	-0.5458215887	-1.4131870012	 1.3519842773	 0.126401
H	-0.1237984404	-1.3594578631	-0.3696488246	 0.106251
H	-0.2306812335	-2.911049485	 0.4800647928	 0.122657
H	 2.1459456999	-2.2103704594	 0.1088261505	 0.074268
H	 1.9068031463	 0.4353732338	 0.4298850625	 0.076149
H	 4.4314184138	-0.4918455421	 1.5262579557	 0.089119
H	 0.9989939314	 0.4510690705	 3.1964293403	 0.094853
H	 3.115060487	-1.388592899	 3.9567887988	 0.07087
H	 2.6740752079	-3.2716150767	 2.1122025438	 0.064978
H	 1.1108402365	-3.21242674	 3.835289157	 0.284049
90.5132	205.0683	218.0665	257.8052	275.6588	340.7341	477.4303	496.5242	559.8159	658.2058	714.2504	771.8005	798.1149	854.4214	888.4048	900.3486	903.7877	944.9275	976.781	988.3272	1004.9293	1035.5971	1070.2677	1111.647	1125.7663	1142.527	1161.2381	1172.2972	1190.6785	1230.7363	1234.6323	1264.4788	1274.1776	1302.2744	1344.0307	1359.4213	1376.413	1405.851	1426.1011	1493.7476	1497.9885	2986.4242	3029.6308	3043.8745	3104.5231	3111.0716	3114.1268	3123.0626	3126.8553	3134.6445	3822.5605
CC1C2C3OC2C3C1O	C[C@H]1[C@@H]2[C@H]3O[C@@H]2[C@H]3[C@H]1O	
InChI=1S/C7H10O2/c1-2-3-6-4(5(2)8)7(3)9-6/h2-8H,1H3	InChI=1S/C7H10O2/c1-2-3-6-4(5(2)8)7(3)9-6/h2-8H,1H3/t2-,3-,4+,5-,6-,7+/m0/s1
