19
gdb 5873	6.666871	0.4751302	0.4602094	2.613	83.79	-0.23097	0.04802	0.27899	2322.4331	0.154836	-422.506583	-422.496177	-422.495233	-422.543758	36.33	
O	 4.2678164723	 2.0053257526	-0.5150427674	-0.409399
C	 2.9287822578	 2.013330186	-0.0564289556	-0.052528
C	 2.5251949907	 0.6694339242	 0.5827294301	-0.358905
C	 1.1361824625	 0.6505757506	 1.022048142	 0.056891
C	-0.018625997	 0.6778746392	 1.3681002856	 0.085843
C	-1.3917294691	 0.6912989335	 1.7788522033	-0.202722
C	-2.0090482023	 1.9426550007	 2.4086412998	-0.315803
C	-1.7631612238	 0.7199533796	 3.2426412705	 0.111289
O	-2.8363398515	-0.0960989503	 3.6023827258	-0.421323
H	 4.8452349179	 1.9590522111	 0.2536280355	 0.283037
H	 2.7427972048	 2.8300906902	 0.6563167814	 0.096817
H	 2.3055358984	 2.1994526736	-0.9356847698	 0.124636
H	 2.7085300338	-0.1287819987	-0.1469055576	 0.137698
H	 3.1912307122	 0.465989421	 1.433824305	 0.114002
H	-2.0773238732	 0.1085657331	 1.1705481289	 0.121256
H	-1.3681318652	 2.8055830263	 2.5464065208	 0.121943
H	-3.0360383168	 2.1577141507	 2.1353969222	 0.119164
H	-0.9368731234	 0.7491725348	 3.9515592653	 0.098901
H	-3.3363263981	 0.3565220119	 4.2902170845	 0.289204
24.1911	62.8709	76.6977	132.5491	154.209	282.3261	301.5177	311.6659	330.963	376.0001	405.0355	446.647	504.9944	555.774	750.0174	780.3625	813.3721	896.4257	927.6862	967.2865	1009.2222	1050.8102	1053.9836	1081.9413	1088.2881	1105.0256	1163.7642	1169.8362	1202.9259	1219.827	1292.1511	1294.3307	1314.5878	1352.8083	1394.3358	1413.5608	1426.3626	1472.1573	1481.3756	1509.5903	2362.2038	2999.3509	3004.0939	3052.963	3095.7031	3114.462	3139.4495	3154.1765	3235.7785	3799.8768	3816.4119
OCCC#CC1CC1O	OCCC#C[C@@H]1C[C@H]1O	
InChI=1S/C7H10O2/c8-4-2-1-3-6-5-7(6)9/h6-9H,2,4-5H2	InChI=1S/C7H10O2/c8-4-2-1-3-6-5-7(6)9/h6-9H,2,4-5H2/t6-,7-/m1/s1
