19
gdb 1575	3.2642424	1.219269	1.1081361	3.5691	79.3	-0.23292	-0.05559	0.17733	1172.8154	0.155757	-422.587492	-422.578621	-422.577676	-422.620714	33.668	
C	-3.6188982469	-0.3740399032	-1.0718319178	-0.415075
C	-2.9302771789	-0.0055572559	 0.259329356	 0.306199
C	-3.9714739476	 0.1520936583	 1.3750377009	-0.411373
O	-2.0843117249	-1.068695752	 0.7040519746	-0.289253
C	-0.8404749407	-1.2024793711	 0.0454049457	-0.198527
C	-0.0209683401	 0.0846041794	 0.0209404532	 0.349161
O	 1.1880349137	 0.067308926	-0.0858113804	-0.322051
C	-0.8147922152	 1.3252887082	 0.048139043	-0.193079
C	-2.1502279701	 1.27738364	 0.1021993872	-0.052042
H	-4.2011035758	-1.2904744817	-0.9405739001	 0.129233
H	-4.2938773652	 0.4241441701	-1.3951486798	 0.120098
H	-2.8879165467	-0.5337756206	-1.8690907062	 0.123453
H	-4.4996247267	-0.7947413318	 1.5155007423	 0.130145
H	-3.481572275	 0.4172565944	 2.3151240827	 0.130662
H	-4.701459403	 0.9268586251	 1.1236713302	 0.114763
H	-0.2792669725	-1.9715049855	 0.5811862831	 0.137599
H	-0.9556948547	-1.5465444987	-0.9968735819	 0.114056
H	-0.2665212909	 2.2581583762	-0.0379869331	 0.113344
H	-2.7406068287	 2.1888997729	 0.0337440603	 0.112687
66.1673	200.2366	203.6003	218.3375	255.7732	313.2875	338.9618	382.3938	420.795	460.4036	488.4492	531.2319	620.3421	713.6893	744.4304	794.998	865.1237	898.9356	927.864	951.2372	1015.0596	1017.7464	1033.8786	1124.5466	1129.5055	1185.9059	1222.1155	1235.9882	1262.5978	1290.724	1368.4786	1390.8217	1399.7302	1417.8121	1467.3851	1477.6863	1482.154	1496.1684	1507.3832	1681.3413	1788.2303	2963.7895	3041.8218	3047.267	3107.3021	3114.9704	3122.0483	3125.4831	3129.5961	3150.1908	3188.6076
CC1(C)OCC(=O)C=C1	CC1(C)OCC(=O)C=C1	
InChI=1S/C7H10O2/c1-7(2)4-3-6(8)5-9-7/h3-4H,5H2,1-2H3	InChI=1S/C7H10O2/c1-7(2)4-3-6(8)5-9-7/h3-4H,5H2,1-2H3
