19
gdb 5971	3.2521726	1.0626134	0.8870762	2.6223	77.68	-0.23887	-0.00564	0.23323	1349.393	0.15554	-422.531512	-422.522339	-422.521395	-422.56623	32.771	
C	 1.4719017637	-0.3944532838	 0.7509735301	-0.223266
O	 0.0978527205	-0.2506207715	 1.0270359606	-0.241766
C	-0.4890572997	 0.8347743211	 0.3410862402	-0.18016
C	-1.9501605221	 0.8913550249	 0.683929711	 0.209375
C	-2.7949884654	-0.3585564393	 0.8976887942	-0.318455
C	-2.7164805427	 0.62382507	 2.0116182763	-0.090757
C	-3.6893594823	 1.7809771943	 1.7346647477	-0.355573
C	-2.847276188	 2.0701863641	 0.4625990049	 0.345438
O	-2.7823877332	 3.0123423972	-0.2781906344	-0.319844
H	 2.0429875543	 0.4978904836	 1.0507571994	 0.109104
H	 1.8310117502	-1.253256606	 1.3228354287	 0.129415
H	 1.6552158059	-0.5758113737	-0.3194819551	 0.109092
H	 0.0009786435	 1.7823784104	 0.6215822299	 0.101108
H	-0.3613792771	 0.7204288229	-0.7490267539	 0.103774
H	-3.7251283711	-0.4967593472	 0.3523714573	 0.115272
H	-2.1866804369	-1.2498686746	 1.0027694838	 0.142741
H	-2.2631558748	 0.3972671557	 2.9667778189	 0.113855
H	-4.7434617442	 1.5174522088	 1.6064687458	 0.11938
H	-3.6112296403	 2.6230035031	 2.4283058846	 0.131268
62.2031	81.5538	104.0254	158.3797	220.194	264.0264	319.9646	355.6488	417.2403	550.6508	558.6152	648.4596	707.1432	803.6773	842.2733	892.9426	937.6252	978.4644	981.2661	1012.1237	1026.1069	1078.6831	1080.6474	1099.1194	1147.1708	1165.5087	1185.7149	1209.0659	1224.1462	1252.1921	1261.879	1281.4433	1369.9271	1430.5653	1457.9728	1480.9894	1484.5158	1491.9288	1504.1615	1526.7755	1867.9879	2952.9757	2976.2449	2979.184	3021.3269	3055.3387	3110.6895	3115.3008	3117.5874	3212.7765	3221.4471
COCC12CC1CC2=O	COC[C@@]12C[C@@H]1CC2=O	
InChI=1S/C7H10O2/c1-9-4-7-3-5(7)2-6(7)8/h5H,2-4H2,1H3	InChI=1S/C7H10O2/c1-9-4-7-3-5(7)2-6(7)8/h5H,2-4H2,1H3/t5-,7-/m0/s1
