19
gdb 5142	3.122511	1.4330934	1.2287446	0.7768	74.3	-0.24663	0.08156	0.32819	1080.7588	0.15697	-422.516411	-422.508417	-422.507473	-422.548682	31.03	
C	 1.3690300269	-0.1320086291	-0.0170667272	-0.256552
O	-0.0195224166	 0.1520673101	 0.0162968996	-0.288933
C	-0.4353024737	 0.7618854809	 1.192133826	 0.419915
C	-0.5333630044	-0.0004148247	 2.490454392	-0.348027
C	-1.792399159	 0.4610020967	 1.7778265836	-0.122468
C	-2.4662728423	 1.7771508372	 2.1802574159	-0.266201
C	-1.4424817254	 2.8697257682	 1.8947711723	 0.049095
O	-0.2229258591	 2.7672369041	 2.6477600557	-0.25461
C	-0.2375726928	 2.266617613	 1.3048175373	-0.046645
H	 1.6602412687	-0.814380259	 0.7930165167	 0.113416
H	 1.5727784219	-0.6070522743	-0.979348747	 0.126847
H	 1.9770680587	 0.7801571347	 0.0647033514	 0.110535
H	-0.3315140569	-1.0651419926	 2.437774076	 0.111706
H	-0.2240206794	 0.4945351846	 3.402638263	 0.133692
H	-2.4031506589	-0.3125119951	 1.3266926123	 0.098036
H	-3.3521906057	 1.9495363784	 1.5583952167	 0.109536
H	-2.792932445	 1.7924381663	 3.2257404341	 0.116705
H	-1.7687906265	 3.8874847276	 1.6922105816	 0.096335
H	 0.4123545294	 2.7715683828	 0.595324	 0.097618
117.2107	158.3814	180.1697	266.4223	305.9863	370.6104	385.9699	437.6576	500.8589	634.9893	703.4755	734.8711	804.0143	838.6061	862.1836	891.0166	925.436	958.6893	972.4407	994.0998	1051.1139	1064.6709	1067.2597	1088.2886	1111.386	1113.5821	1182.8131	1206.53	1215.2766	1238.9021	1265.585	1270.6471	1298.3415	1335.5518	1392.4481	1419.2829	1465.8955	1477.7188	1487.3491	1490.1716	1507.8443	2994.4999	3041.2871	3048.1304	3080.3231	3121.3789	3136.1083	3138.1326	3155.3291	3178.3993	3235.3527
COC12CC1CC1OC21	CO[C@]12C[C@H]1C[C@H]1O[C@@H]21	
InChI=1S/C7H10O2/c1-8-7-3-4(7)2-5-6(7)9-5/h4-6H,2-3H2,1H3	InChI=1S/C7H10O2/c1-8-7-3-4(7)2-5-6(7)9-5/h4-6H,2-3H2,1H3/t4-,5-,6-,7-/m1/s1
