19
gdb 685	3.6102923	1.0436064	0.9265683	2.1193	75.51	-0.2424	-0.02342	0.21898	1300.7563	0.156767	-422.561544	-422.553077	-422.552132	-422.595527	31.393	
O	 1.2541100595	-0.1656178213	-0.4962626549	-0.298314
C	 0.107038027	-0.0497904676	-0.1577066753	 0.36672
C	-0.9073862766	-1.1844725138	 0.0110846497	-0.183453
O	-2.0909898218	-0.5946717712	 0.5048484168	-0.263234
C	-2.1153539842	 0.8044783538	 0.1494028892	 0.078245
C	-0.6424222021	 1.2386899493	 0.1799756926	-0.351898
C	-2.7808626747	 1.0363009023	-1.1881618861	 0.024764
C	-4.2817391137	 1.0115151206	-1.2866046934	-0.26836
C	-3.54281136	 2.3185178086	-1.4239567332	-0.272777
H	-1.054093693	-1.6826515564	-0.9608498875	 0.122437
H	-0.5453046259	-1.9359116819	 0.7208831357	 0.136448
H	-2.7066135416	 1.2943771617	 0.929641073	 0.08274
H	-0.3862125886	 2.042853462	-0.5117980762	 0.138386
H	-0.3412024992	 1.5470172187	 1.1878180126	 0.137787
H	-2.2325113713	 0.6423307155	-2.0411695289	 0.084309
H	-4.7307996836	 0.5767667176	-2.172268338	 0.116139
H	-4.8414392272	 0.8360084471	-0.3739244607	 0.120238
H	-3.4804868993	 2.780430597	-2.4026428188	 0.116406
H	-3.6082194836	 3.027213388	-0.6043085666	 0.113419
61.9181	65.5352	130.2618	201.7901	289.3795	339.4656	432.5813	464.1147	494.2795	621.865	726.9812	745.7473	776.1313	825.3851	830.6186	870.5448	911.3272	943.5932	957.7489	1015.3429	1028.1773	1059.731	1079.0508	1084.4754	1130.8592	1134.0895	1165.3146	1196.3551	1212.3223	1228.1654	1233.3813	1255.5669	1310.1412	1326.8407	1357.4817	1434.7398	1446.0329	1472.4542	1484.4073	1507.5744	1859.701	2981.7775	3048.0595	3060.2175	3071.2731	3125.4569	3129.1098	3131.4372	3137.8589	3210.2666	3225.2946
O=C1COC(C1)C1CC1	O=C1CO[C@@H](C1)C1CC1	
InChI=1S/C7H10O2/c8-6-3-7(9-4-6)5-1-2-5/h5,7H,1-4H2	InChI=1S/C7H10O2/c8-6-3-7(9-4-6)5-1-2-5/h5,7H,1-4H2/t7-/m0/s1
