19
gdb 1733	2.2260933	1.92312	1.5094599	0.6776	74.06	-0.23137	0.05749	0.28886	975.0819	0.155675	-422.513906	-422.505404	-422.50446	-422.546097	33.709	
C	-0.1392673376	-0.0286127136	 0.1567876815	-0.482958
C	 1.3698500382	-0.0107861541	-0.0276754842	 0.353784
O	 2.0189574337	-0.3730687473	 1.1941413093	-0.492569
C	 2.1105943217	 1.2518699075	-0.5692041301	-0.103073
C	 1.4631350366	 1.5563471916	-1.947048651	-0.25207
C	 2.0680400698	 0.2264449006	-2.3969675683	-0.11412
C	 3.1254784693	 0.2863189166	-1.3053542959	-0.163807
C	 2.0208809716	-0.7356127305	-1.2089680162	 0.355545
O	 2.067025528	-2.098418645	-1.4215490261	-0.471651
H	-0.4368111328	 0.6481126575	 0.9641369188	 0.122538
H	-0.6698816162	 0.2533168645	-0.7550284142	 0.126758
H	-0.4728805548	-1.0404716653	 0.4204728783	 0.110714
H	 1.5713037458	-1.1532754549	 1.5376400691	 0.273819
H	 2.3738047369	 2.0350234775	 0.1380079813	 0.076767
H	 0.3791356827	 1.7062765248	-1.9918386611	 0.088585
H	 1.9620519384	 2.3960040499	-2.4396215819	 0.101667
H	 2.1790089766	-0.1691502122	-3.3988776511	 0.091461
H	 4.2013173325	 0.2065309294	-1.3304434274	 0.092688
H	 2.6158760796	-2.4775846271	-0.7252424705	 0.285922
176.253	190.4534	213.6062	217.9761	249.7619	326.0843	387.0357	403.8641	436.0907	484.8758	563.7021	634.5527	659.4327	739.6726	811.5935	832.8963	850.2517	904.1464	927.5654	946.3853	949.6253	979.0463	996.6889	1036.2278	1082.769	1108.2911	1130.0328	1144.2333	1157.948	1189.0351	1194.6746	1245.3295	1271.5126	1301.4626	1326.4257	1384.8783	1406.5363	1443.0576	1486.9722	1491.6323	1514.1445	3026.1715	3039.5226	3089.5705	3092.0081	3129.4025	3145.6611	3195.6572	3237.1923	3786.0892	3807.7647
CC1(O)C2CC3C2C13O	C[C@]1(O)[C@@H]2C[C@H]3[C@@H]2[C@@]13O	
InChI=1S/C7H10O2/c1-6(8)3-2-4-5(3)7(4,6)9/h3-5,8-9H,2H2,1H3	InChI=1S/C7H10O2/c1-6(8)3-2-4-5(3)7(4,6)9/h3-5,8-9H,2H2,1H3/t3-,4+,5-,6+,7-/m1/s1
