19
gdb 3842	2.656887	1.5133824	1.1506582	2.37	76.34	-0.23257	-0.01856	0.21401	1124.1594	0.155482	-422.573986	-422.565166	-422.564221	-422.607243	33.266	
C	-0.7912658834	 2.1126343058	-1.1725262387	-0.39329
C	-0.9356152535	 1.1283186925	-0.021913542	-0.002048
O	-2.2672741547	 0.6201334765	 0.0456937654	-0.309769
C	-2.2572730489	-0.7780561453	 0.2590137441	 0.444112
C	-3.4714325525	-1.450888112	-0.3117627552	-0.463214
C	-1.5709714429	-1.2400856355	 1.498546066	-0.353532
C	-0.8358646926	-1.2967252313	 0.1452055398	-0.239532
C	-0.0152447577	-0.1003635603	-0.1758017344	 0.40103
O	 1.1300720277	-0.0598917805	-0.5514565273	-0.334024
H	-1.0778853227	 1.6400770039	-2.1161155644	 0.124808
H	-1.4251072516	 2.9883801118	-1.0134078114	 0.124838
H	 0.2522773103	 2.4301039477	-1.2439059	 0.139513
H	-0.6794442778	 1.6299862668	 0.9253216312	 0.102544
H	-4.3776242915	-1.0516679255	 0.1550584625	 0.135758
H	-3.5378746238	-1.2767114008	-1.3896486354	 0.13083
H	-3.4380256761	-2.5282062125	-0.1297122884	 0.122181
H	-1.2501535712	-0.511428361	 2.2350479204	 0.128789
H	-1.8490562	-2.2053653887	 1.9068530473	 0.127705
H	-0.5576995171	-2.2558747415	-0.2716372994	 0.1133
82.8853	131.4166	201.4099	206.084	242.7734	291.2853	357.4827	387.0528	427.8476	476.6482	594.8934	611.9515	689.301	698.5688	792.9646	827.481	878.8092	910.2241	949.5696	977.7641	1010.1161	1041.6083	1052.6758	1062.9633	1105.9832	1129.6535	1136.7	1187.5364	1231.2555	1276.3686	1312.4138	1358.2087	1387.6923	1398.887	1430.0892	1476.1659	1482.2534	1485.099	1496.3813	1502.1657	1836.147	2974.6015	3041.7661	3049.2765	3109.823	3124.1636	3126.724	3134.5246	3134.9528	3202.6375	3224.8082
CC1OC2(C)CC2C1=O	C[C@H]1O[C@]2(C)C[C@@H]2C1=O	
InChI=1S/C7H10O2/c1-4-6(8)5-3-7(5,2)9-4/h4-5H,3H2,1-2H3	InChI=1S/C7H10O2/c1-4-6(8)5-3-7(5,2)9-4/h4-5H,3H2,1-2H3/t4-,5-,7-/m1/s1
