19
gdb 1605	2.9645823	1.17798	1.0892789	1.3626	76.6	-0.25036	0.04963	0.29999000000000003	1199.2618	0.155043	-422.528412	-422.519044	-422.5181	-422.562862	34.222	
C	 2.567833324	 2.1704233394	-1.2728200057	-0.436335
C	 3.0514219574	 0.7418333798	-1.0591728038	 0.367357
C	 2.5520726062	 0.145351297	 0.283742852	-0.392663
C	 1.103022773	 0.0422923804	 0.382676184	 0.317775
C	-0.0930622263	-0.0318924934	 0.4733846237	-0.444142
C	 4.5808676774	 0.5758225924	-1.1685205247	-0.150651
O	 4.7252389656	-0.726394675	-1.7112284676	-0.241196
C	 3.6754421009	-0.8321311082	-2.6408410841	 0.019882
O	 2.5832724744	-0.0864679974	-2.1354845447	-0.295028
H	 2.9703299432	 2.8350205915	-0.5005701686	 0.114636
H	 2.889934176	 2.5367287274	-2.251088573	 0.120014
H	 1.4772801877	 2.2123181754	-1.2258800253	 0.145966
H	 3.0050176934	-0.846721926	 0.3955194579	 0.138893
H	 2.9328648162	 0.7641100706	 1.1071397852	 0.124209
H	-1.1493589091	-0.1074024239	 0.5483245549	 0.194008
H	 5.0063788263	 1.3366358635	-1.8412014162	 0.093034
H	 5.1029735194	 0.6105935846	-0.209982421	 0.118152
H	 3.9753406088	-0.4240262697	-3.6226079755	 0.087894
H	 3.4034759054	-1.8881220282	-2.7429557476	 0.118195
53.2515	89.0699	133.7107	213.5951	224.9075	310.018	316.7227	353.4057	373.9753	405.2378	515.546	615.3177	637.1093	671.5515	734.7167	790.7175	886.9416	895.8319	932.7944	981.2083	985.1206	1012.1421	1050.8987	1118.5356	1126.1522	1160.913	1194.1194	1209.9412	1225.3966	1280.3141	1283.6623	1340.3823	1369.4189	1410.3508	1433.5993	1464.2979	1485.7037	1496.5972	1509.5074	1549.0519	2239.6738	2942.2893	2985.8385	3019.9213	3041.7982	3064.2696	3066.3128	3108.4419	3113.2089	3133.3268	3507.5396
CC1(CC#C)COCO1	C[C@]1(CC#C)COCO1	
InChI=1S/C7H10O2/c1-3-4-7(2)5-8-6-9-7/h1H,4-6H2,2H3	InChI=1S/C7H10O2/c1-3-4-7(2)5-8-6-9-7/h1H,4-6H2,2H3/t7-/m0/s1
