19
gdb 2049	2.7813655	1.5524793	1.3210643	1.2245	74.84	-0.22371	0.05822	0.28193	1069.1644	0.156182	-422.502257	-422.494123	-422.493179	-422.534606	32.012	
O	 0.0028352996	-1.2535337584	-2.2127754016	-0.44475
C	-0.6633799218	-0.9554621471	-1.0435652509	 0.249842
C	-2.1603748927	-1.0676245064	-0.9585399627	-0.334854
C	-1.2968114135	-1.7761648953	 0.0562838095	-0.002476
O	-0.8680899642	-0.8536741192	 1.0640827165	-0.332205
C	-0.1520333543	-0.0567022977	 0.087435616	 0.401693
C	-0.3088443506	 1.4751533743	 0.0568367935	-0.291021
C	 1.208701776	 1.5706919907	-0.2712679514	-0.211866
C	 1.3737216229	 0.1178560357	 0.2546136905	-0.303159
H	 0.8476678761	-1.6590189285	-1.9868138674	 0.290585
H	-2.7812809612	-0.229158974	-0.6536572871	 0.115345
H	-2.581351056	-1.7122526303	-1.7245887341	 0.120285
H	-1.3331527115	-2.8303545018	 0.301975394	 0.1079
H	-1.0261168577	 1.8920417819	-0.6545712106	 0.102495
H	-0.5330102742	 1.8555766035	 1.0573744847	 0.11511
H	 1.3888633543	 1.6363814664	-1.3468022305	 0.113891
H	 1.7823889197	 2.3505762728	 0.2319489825	 0.103379
H	 2.0380021877	-0.5615675493	-0.2884313737	 0.081335
H	 1.6351727016	 0.0890952827	 1.3156890629	 0.11847
104.4874	143.7251	196.8593	266.636	327.4555	383.3616	434.7456	447.8602	472.7027	534.4156	647.1508	698.0114	782.2863	802.9094	856.0481	897.7844	906.0103	923.3477	928.6537	962.2692	981.4253	1011.1028	1029.7747	1054.0758	1085.826	1097.9673	1138.5737	1176.1265	1195.1748	1208.5188	1244.5597	1262.4774	1271.7576	1274.7719	1294.309	1356.6059	1409.864	1465.4472	1479.9932	1489.3625	1502.7074	3047.5773	3058.7552	3072.2006	3103.2271	3110.4709	3111.0742	3130.9175	3189.6298	3208.3345	3792.4518	104.4861	143.7242	196.8588	266.6357	327.4575	383.3616	434.7454	447.8602	472.7025	534.4156	647.1505	698.0113	782.2863	802.9092	856.048	897.7845	906.0103	923.3478	928.6536	962.2691	981.4253	1011.1027	1029.775	1054.0758	1085.8259	1097.9672	1138.5737	1176.1267	1195.1751	1208.5192	1244.5601	1262.4775	1271.7579	1274.7722	1294.309	1356.606	1409.8642	1465.4476	1479.9938	1489.3627	1502.7079	3047.5772	3058.7551	3072.2006	3103.227	3110.4708	3111.0741	3130.9174	3189.6298	3208.3345	3792.4526
OC12CC1OC21CCC1	O[C@@]12C[C@@H]1OC12CCC1	
InChI=1S/C7H10O2/c8-7-4-5(7)9-6(7)2-1-3-6/h5,8H,1-4H2	InChI=1S/C7H10O2/c8-7-4-5(7)9-6(7)2-1-3-6/h5,8H,1-4H2/t5-,7-/m0/s1
