19
gdb 4952	2.5455286	1.6514222	1.1944876	3.1341	74.48	-0.24331	0.06013	0.30344	1076.9299	0.155999	-422.467606	-422.459231	-422.458287	-422.500671	31.86	
C	 1.1390312104	-1.8475901017	 3.1068023173	-0.417299
C	 2.2908427949	-1.4143563175	 2.2111747328	-0.089603
C	 1.975474217	-0.8535129209	 0.7998543468	-0.10313
C	 1.8146402361	-2.2769315473	 0.1869310296	 0.035562
O	 2.758110221	-2.0473292551	-0.9150664661	-0.339397
C	 3.3368129957	-1.3442810358	 0.2357267948	 0.032973
C	 2.9412959833	-2.456082401	 1.2638797096	 0.278565
C	 3.7069977872	-3.7236108776	 1.5132775077	-0.174663
O	 3.9947650156	-4.4068219947	 0.3032296902	-0.438527
H	 1.4987016408	-2.4398779949	 3.9549060279	 0.123202
H	 0.6113148314	-0.9783066418	 3.5134503503	 0.121835
H	 0.408212104	-2.4553469513	 2.5625106987	 0.117255
H	 3.0171253865	-0.8138027881	 2.7717001904	 0.07452
H	 1.4352079162	 0.0470246029	 0.5082003988	 0.085883
H	 0.9250102319	-2.8699378163	-0.0177220928	 0.104071
H	 4.2777409171	-0.8108009247	 0.103402625	 0.100801
H	 4.6390919432	-3.4897228408	 2.0539631925	 0.09115
H	 3.1247967351	-4.3938075475	 2.1627103607	 0.099715
H	 3.7941121527	-3.8066352657	-0.4280588141	 0.297089
60.6439	165.0241	197.2378	204.6599	233.375	323.8477	419.5823	434.608	519.3268	543.4052	703.4454	731.715	750.2436	811.2843	828.3539	876.0093	897.4777	914.2524	971.4216	989.5223	1049.1815	1062.145	1082.0992	1097.0072	1109.6177	1122.3809	1152.8661	1168.1857	1174.0502	1219.5403	1252.7239	1261.7405	1293.1718	1345.4205	1360.8347	1406.7082	1417.8035	1476.7587	1492.2024	1499.4609	1519.0172	2967.1947	3006.2995	3030.795	3035.2173	3096.5932	3099.685	3117.3441	3127.676	3140.4425	3730.796
CC1C2C3OC2C13CO	C[C@@H]1[C@@H]2[C@H]3O[C@@H]2[C@@]13CO	
InChI=1S/C7H10O2/c1-3-4-5-7(3,2-8)6(4)9-5/h3-6,8H,2H2,1H3	InChI=1S/C7H10O2/c1-3-4-5-7(3,2-8)6(4)9-5/h3-6,8H,2H2,1H3/t3-,4-,5-,6+,7+/m1/s1
