19
gdb 4782	4.2962134	0.7465438	0.6637112	3.3729	80.29	-0.26011	-0.06936	0.19075	1686.2422	0.153345	-422.542939	-422.532523	-422.531578	-422.579019	36.926	
C	 3.9518933925	 4.8463467189	-1.1932274656	-0.38619
C	 3.5281858152	 3.7903421521	-0.1698791833	-0.173662
C	 2.9716247184	 2.5250285519	-0.8216900933	 0.133218
O	 4.0013807685	 1.9571923466	-1.6123431324	-0.443191
C	 2.4714973485	 1.5198940544	 0.2283503785	-0.324617
C	 1.8942726675	 0.2552550333	-0.379851176	 0.225487
O	 2.0275515305	-0.0448271652	-1.5521690372	-0.311215
C	 1.1610494525	-0.6044378043	 0.5311974039	 0.250192
C	 0.5579908944	-1.2991540135	 1.3074995948	-0.373587
H	 4.3765068002	 5.7250238632	-0.6986066719	 0.107615
H	 4.7002049523	 4.4373154003	-1.8758405322	 0.140633
H	 3.0971116208	 5.1802464042	-1.7921803305	 0.109913
H	 4.3877317772	 3.5052340794	 0.4500363381	 0.101565
H	 2.7690377633	 4.2011714174	 0.5072257343	 0.089008
H	 2.1141002477	 2.804272922	-1.4580098746	 0.069716
H	 3.6017604778	 1.2014081782	-2.0624864426	 0.295307
H	 3.3033094114	 1.2171226965	 0.8806185155	 0.144559
H	 1.7152773528	 1.966293574	 0.8859018149	 0.126324
H	 0.0216725086	-1.9253630595	 1.9789483497	 0.218924
43.9372	85.2235	110.9198	123.0606	190.8004	229.2329	241.0193	284.7341	337.0575	380.3914	454.8179	525.3223	562.0022	612.9852	622.6861	647.7623	713.4075	783.3789	821.1755	879.5838	921.5956	997.4945	1024.7316	1066.0615	1098.4393	1112.3054	1160.291	1212.7956	1274.3128	1312.2137	1341.8878	1366.8456	1391.5098	1409.2059	1424.4979	1451.3562	1476.7213	1496.3857	1510.2278	1745.9985	2212.5304	2953.6233	3019.0301	3025.1294	3037.6117	3059.6653	3067.389	3101.5578	3130.7553	3493.2823	3763.0943
CCC(O)CC(=O)C#C	CC[C@@H](O)CC(=O)C#C	
InChI=1S/C7H10O2/c1-3-6(8)5-7(9)4-2/h1,7,9H,4-5H2,2H3	InChI=1S/C7H10O2/c1-3-6(8)5-7(9)4-2/h1,7,9H,4-5H2,2H3/t7-/m1/s1
