19
gdb 1188	2.5009739	1.2454646	1.1282201	2.6427	76.28	-0.24686	0.02352	0.27038	1182.9588	0.15415	-422.501328	-422.491453	-422.490509	-422.535988	35.884	
C	 2.5216727452	 0.4403698959	-2.4088981839	-0.493318
C	 3.0815176831	 0.9158197122	-1.0763184568	 0.288196
C	 2.9213236765	 2.4124615848	-0.713221856	-0.116502
O	 4.3329898097	 2.5411635949	-0.4494960083	-0.278034
C	 4.5938896842	 1.2394160176	-1.0162306438	-0.123493
C	 2.6776329472	 0.0014869635	 0.1033386048	-0.094615
O	 3.2084306106	-1.3129672608	-0.0455561747	-0.429569
C	 1.227197524	-0.0164969154	 0.3144465707	 0.285637
C	 0.0333221879	-0.053193916	 0.4543474952	-0.441359
H	 2.8966831104	-0.5591236995	-2.6549205929	 0.117659
H	 1.4278519855	 0.4004571352	-2.3885183398	 0.131455
H	 2.822852557	 1.111727833	-3.2183058831	 0.122507
H	 2.5993653463	 3.0440063836	-1.5525562469	 0.094655
H	 2.3095100554	 2.6484052112	 0.165431871	 0.108585
H	 5.0751782977	 1.3115418931	-2.0010733351	 0.091033
H	 5.2065703768	 0.6104239594	-0.3617192976	 0.116817
H	 3.1581864112	 0.4001830787	 1.0055055624	 0.127212
H	 2.6152578802	-1.8068329614	-0.6212982652	 0.289787
H	-1.018862299	-0.0834966201	 0.5981357099	 0.203348
76.3476	87.8397	135.3763	204.657	215.23	239.4018	275.6406	309.4202	335.6513	367.8522	469.8954	507.6503	587.5952	633.1828	677.7313	730.8613	821.1752	884.6484	898.995	970.6783	985.4088	1001.1083	1014.082	1028.7143	1074.6532	1153.5039	1161.9977	1186.6849	1192.0611	1268.4182	1288.3473	1304.4058	1344.1144	1384.9116	1412.0227	1418.8265	1494.3007	1503.1587	1514.6836	1539.1786	2229.2482	2999.9336	3010.4616	3033.258	3035.7185	3058.0208	3069.7233	3099.8139	3109.9928	3500.1617	3819.908
CC1(COC1)C(O)C#C	CC1(COC1)[C@H](O)C#C	
InChI=1S/C7H10O2/c1-3-6(8)7(2)4-9-5-7/h1,6,8H,4-5H2,2H3	InChI=1S/C7H10O2/c1-3-6(8)7(2)4-9-5-7/h1,6,8H,4-5H2,2H3/t6-/m1/s1
