19
gdb 2067	2.4514581	1.8806214	1.2974254	0.5973	74.24	-0.24342	0.07791	0.32133	1007.8526	0.158016	-422.52943	-422.521694	-422.52075	-422.561123	31.195	
O	 0.4529750427	 0.3582084069	 0.9072639045	-0.472817
C	-0.9407247627	 0.384405331	 0.7501357148	 0.423972
C	-1.6906943405	 0.1527875907	 2.0219458017	-0.332799
C	-1.7121427878	-0.911755482	 0.9399885817	-0.117296
C	-2.9478783517	-1.092868153	 0.0740094522	-0.105793
O	-2.7383635792	-0.5971794547	-1.249660993	-0.250144
C	-2.4753816808	 0.7720031663	-1.2773482779	 0.110745
C	-1.1076600766	 1.1706482459	-1.7403312911	-0.330007
C	-1.4836427118	 1.3287321155	-0.2752646527	-0.147138
H	 0.8391003632	 0.1923572611	 0.0399730426	 0.27809
H	-1.089536971	-0.0373395191	 2.9035813459	 0.122896
H	-2.6028529739	 0.7149113158	 2.1991152171	 0.110293
H	-1.1058344184	-1.7931921399	 1.1187416545	 0.092873
H	-3.1920246537	-2.151058749	-0.0470503491	 0.11246
H	-3.8203333728	-0.5962344307	 0.5240147941	 0.091931
H	-3.3326006099	 1.385489669	-1.5518334928	 0.087404
H	-0.4586211018	 0.347500058	-2.02186881	 0.114965
H	-0.9864377131	 2.070382692	-2.3327941891	 0.11518
H	-1.6467705003	 2.3498616163	 0.0575189065	 0.095186
149.4327	172.0834	264.8335	283.5574	375.976	390.3484	419.7982	455.8635	508.5852	536.0942	653.572	754.8361	791.0433	828.0099	831.4591	899.4222	907.8119	940.8271	977.6034	987.1018	1021.5032	1040.9584	1057.2123	1075.3991	1082.0758	1110.7882	1125.8096	1159.852	1175.0477	1225.2553	1235.5548	1277.804	1297.0611	1316.3016	1367.9303	1388.4705	1411.3535	1427.0268	1474.4384	1483.6283	1502.1901	2992.3106	3096.4588	3106.9335	3126.0844	3131.4863	3143.4874	3168.7365	3221.1327	3221.326	3796.858
OC12CC1COC1CC21	O[C@]12C[C@H]1CO[C@@H]1C[C@H]21	
InChI=1S/C7H10O2/c8-7-2-4(7)3-9-6-1-5(6)7/h4-6,8H,1-3H2	InChI=1S/C7H10O2/c8-7-2-4(7)3-9-6-1-5(6)7/h4-6,8H,1-3H2/t4-,5-,6+,7+/m0/s1
