19
gdb 3406	2.8563704	1.4547045	1.1481718	1.7151	77.91	-0.22852	0.00423	0.23275	1121.7417	0.1564	-422.539878	-422.531198	-422.530254	-422.572676	33.153	
C	 0.817149192	-0.6020631297	-0.7529494473	-0.417342
C	 0.9149759458	 0.2699758451	 0.4778936229	-0.06995
C	 1.9697560033	 1.3516162911	 0.5936409993	-0.01196
O	 1.588756381	 2.5619461998	 1.1878836738	-0.258536
C	 2.0889056066	 2.7745225623	 2.4999592231	-0.120436
C	 1.9297803466	 1.5774203556	 3.4070089037	-0.076522
C	 1.8848646468	 0.3418312284	 2.9120823733	-0.156975
C	 2.0648220448	 0.1179598174	 1.4555399584	 0.325383
O	 2.9979591304	-0.8760888294	 1.1154718218	-0.461155
H	 0.3054067801	-1.5437214689	-0.5281508156	 0.120552
H	 0.2539716719	-0.0921494309	-1.5419672824	 0.116678
H	 1.8074820357	-0.8511344257	-1.1391117905	 0.131184
H	-0.0281336139	 0.543616816	 0.9425990382	 0.096207
H	 2.6846338791	 1.453452469	-0.2224187948	 0.088509
H	 3.1503724685	 3.080525379	 2.4703438068	 0.099077
H	 1.5266034814	 3.6278727252	 2.8928948881	 0.118407
H	 1.8523941013	 1.7683069958	 4.4736791957	 0.09887
H	 1.762486535	-0.5333856873	 3.5445216904	 0.097642
H	 3.8550216935	-0.6027095428	 1.4618204953	 0.280367
125.8383	164.7131	173.0774	222.4983	284.67	296.8864	324.3968	383.8316	441.4172	472.1237	533.6414	590.8001	691.9488	718.5711	841.486	856.747	898.9516	915.3355	981.235	993.8442	1016.2586	1023.6428	1056.7239	1097.3002	1122.0259	1132.2292	1169.8609	1190.2321	1232.9519	1260.0977	1278.7745	1315.1005	1327.3576	1394.8386	1407.6738	1416.4776	1457.2073	1491.0558	1493.7109	1502.5171	1709.907	2940.9978	3036.8062	3068.1527	3094.5951	3107.7665	3128.7909	3156.1969	3156.6592	3179.1854	3791.5289
CC1C2OCC=CC12O	C[C@@H]1[C@H]2OCC=C[C@@]12O	
InChI=1S/C7H10O2/c1-5-6-7(5,8)3-2-4-9-6/h2-3,5-6,8H,4H2,1H3	InChI=1S/C7H10O2/c1-5-6-7(5,8)3-2-4-9-6/h2-3,5-6,8H,4H2,1H3/t5-,6-,7-/m1/s1
