19
gdb 3151	2.7501892	1.2463438	1.0093263	2.1221	76.11	-0.26626	0.01135	0.27761	1231.1207	0.156386	-422.558056	-422.549334	-422.54839	-422.592097	31.961	
C	-1.4108715621	 3.9587371151	 1.8908443665	-0.419521
C	-1.8604065207	 2.5148691703	 1.7104489795	-0.017233
C	-3.1918550747	 2.312812758	 0.9624670297	-0.054911
C	-3.4593419168	 0.8500258689	 0.7882613725	-0.294009
C	-2.4815240559	 1.5161610155	-0.1430408114	-0.060784
C	-1.1516744156	 1.7579019787	 0.5510709703	 0.124128
O	-0.4057966172	 0.6023694601	 0.9938550604	-0.21824
C	 0.2501204925	-0.0659482881	 0.0379851699	 0.178506
O	 0.2704334204	 0.2086629475	-1.1312837245	-0.30889
H	-2.046741604	 4.4794988883	 2.6143591488	 0.119117
H	-0.3788630025	 4.0064578516	 2.2540737348	 0.121547
H	-1.4623567729	 4.5101205339	 0.9453446677	 0.119119
H	-1.8089940615	 1.9780017542	 2.6641726585	 0.080329
H	-3.9602641028	 3.0683405427	 0.8539420698	 0.090002
H	-3.1131441917	 0.1365458653	 1.5317321958	 0.116141
H	-4.4096590149	 0.5931320513	 0.3320314047	 0.115848
H	-2.6269465946	 1.53297644	-1.2148405236	 0.0994
H	-0.4842513248	 2.3977144315	-0.0297307837	 0.102591
H	 0.7783870098	-0.917336495	 0.4960563542	 0.106859
43.0033	122.7656	158.4201	223.7446	237.993	254.8221	334.1646	357.9956	466.9419	560.0922	669.4733	775.3991	784.2537	819.1245	873.1162	922.6093	941.6486	980.7085	994.2073	1012.2828	1039.8542	1048.6108	1063.5553	1086.0516	1095.9478	1125.3301	1153.7862	1194.8152	1209.6938	1241.1093	1257.1583	1294.4099	1339.458	1371.5207	1387.7026	1407.6314	1412.2711	1491.3321	1494.9702	1500.7641	1816.1332	3021.2475	3028.6038	3042.2665	3091.5058	3098.9876	3101.2715	3115.9211	3187.3286	3199.8608	3210.6302
CC1C2CC2C1OC=O	C[C@H]1[C@@H]2C[C@@H]2[C@@H]1OC=O	
InChI=1S/C7H10O2/c1-4-5-2-6(5)7(4)9-3-8/h3-7H,2H2,1H3	InChI=1S/C7H10O2/c1-4-5-2-6(5)7(4)9-3-8/h3-7H,2H2,1H3/t4-,5-,6-,7+/m0/s1
