19
gdb 3370	2.4442368	1.8970011	1.2558218	0.9877	74.94	-0.24346	0.05998	0.30344	1029.8632	0.157328	-422.490535	-422.482725	-422.481781	-422.522682	30.028	
C	-0.1518416542	 0.2192280507	-0.0363310798	-0.410974
C	 1.3549029147	 0.0314373729	 0.0664592003	-0.021843
C	 1.8733257444	-0.9916560461	 1.1201781221	 0.05891
O	 0.9867616141	-2.1180791349	 1.350789688	-0.29388
C	 1.8098855132	-3.0092578371	 0.5515033422	-0.186182
C	 2.6015309114	-1.8246376437	 0.0335428105	 0.255657
C	 3.9776677837	-1.502983466	-0.5185606062	-0.19178
O	 3.4208902529	-0.4180884464	-1.3073206181	-0.297571
C	 2.0589757721	-0.8289071894	-1.0219098895	 0.064677
H	-0.5388611595	 0.7684863498	 0.8282018459	 0.119602
H	-0.4112030498	 0.7836068431	-0.9380831755	 0.115477
H	-0.6639643163	-0.7459810843	-0.0691970837	 0.130725
H	 1.869115361	 0.9934152073	 0.1618710852	 0.08682
H	 2.3233166197	-0.6311380386	 2.0507790627	 0.07271
H	 2.3767501738	-3.702278724	 1.1890081407	 0.10467
H	 1.2230458331	-3.5848922366	-0.1738283287	 0.10884
H	 4.7413510257	-1.1590435067	 0.1889813147	 0.108418
H	 4.4087271186	-2.2826152152	-1.1623349936	 0.104324
H	 1.5085328114	-1.1074009547	-1.927155627	 0.071399
103.3101	202.6836	231.1205	236.2213	254.2608	332.244	366.3841	507.6388	534.5933	676.0278	762.8443	803.2843	863.1123	874.1686	916.801	958.5926	965.4807	975.3666	994.4889	1008.8667	1054.5626	1096.0641	1119.0184	1128.4429	1137.0823	1168.3079	1175.7203	1194.3458	1244.0118	1263.3734	1268.8889	1287.2409	1314.3166	1338.4212	1356.5661	1395.7914	1407.8625	1489.8532	1502.7997	1518.534	1521.6027	2998.357	3002.1253	3036.3715	3047.945	3050.9787	3054.9073	3056.697	3063.5936	3100.8238	3120.1882
CC1C2OCC22COC12	C[C@H]1[C@H]2OC[C@@]32CO[C@H]13	
InChI=1S/C7H10O2/c1-4-5-7(2-8-5)3-9-6(4)7/h4-6H,2-3H2,1H3	InChI=1S/C7H10O2/c1-4-5-7(2-8-5)3-9-6(4)7/h4-6H,2-3H2,1H3/t5-,6-,7+/m1/s1
