19
gdb 4850	2.0806273	1.5468835	1.4440007	2.8031	74.76	-0.23858	-0.02865	0.20992999999999998	1071.6955	0.154428	-422.535326	-422.526087	-422.525143	-422.569016	34.012	
C	 2.9292192695	-0.6943483002	-0.2870229487	-0.41033
C	 1.5750806843	 0.0265782216	-0.3007050523	-0.224193
C	 0.6068874934	-0.3529047299	-1.4367965284	 0.130151
C	-0.710690423	 0.4102790405	-1.3280213254	-0.455178
C	 0.483794201	-1.8730061916	-1.7154882534	 0.003348
O	-0.2701680119	-2.0131074111	-2.9119335477	-0.23633
C	 1.1530104754	-1.7919739025	-3.0391952373	-0.119256
C	 1.3333781867	-0.2916893419	-2.8295150247	 0.404991
O	 1.9354724619	 0.5693555333	-3.3993866167	-0.31482
H	 3.5294057043	-0.3508131249	 0.5604078105	 0.121116
H	 2.8176200112	-1.779051366	-0.1904478895	 0.115728
H	 3.5023714382	-0.4935713258	-1.1972804234	 0.135999
H	 1.057046854	-0.150389786	 0.6509248064	 0.101755
H	 1.7423801782	 1.1082214328	-0.3621186194	 0.120552
H	-1.1628177433	 0.2708606138	-0.339537813	 0.115147
H	-0.5384425787	 1.4820734197	-1.469621936	 0.131058
H	-1.4199246844	 0.0731559421	-2.0866015339	 0.139287
H	 0.4895527384	-2.7028478038	-1.0184919395	 0.117434
H	 1.7253541048	-2.5161158602	-3.6070135877	 0.123539
99.0718	123.8625	166.0573	201.3263	214.1668	241.2894	282.7955	287.0323	399.0709	473.1922	540.0741	639.2987	674.0823	753.7854	780.9362	833.6409	849.604	879.4321	918.7401	944.5194	1012.3501	1019.5429	1050.3273	1060.6802	1072.934	1170.8155	1186.3763	1195.9014	1220.3161	1284.6426	1313.0741	1340.253	1372.14	1406.2406	1416.9005	1475.4739	1492.554	1500.8032	1503.4311	1509.2933	1890.8256	3020.79	3034.0625	3040.371	3062.6137	3098.2152	3107.8691	3112.9629	3131.5531	3185.7662	3199.1277
CCC1(C)C2OC2C1=O	CC[C@]1(C)[C@H]2O[C@H]2C1=O	
InChI=1S/C7H10O2/c1-3-7(2)5(8)4-6(7)9-4/h4,6H,3H2,1-2H3	InChI=1S/C7H10O2/c1-3-7(2)5(8)4-6(7)9-4/h4,6H,3H2,1-2H3/t4-,6-,7-/m0/s1
