19
gdb 3173	2.831728	1.6030709	1.194543	2.1517	74.13	-0.25638	0.0694	0.32578	1061.0126	0.157798	-422.535358	-422.527597	-422.526653	-422.567498	30.985	
O	 0.2694380964	 0.8044017343	 0.4969397056	-0.443878
C	-1.090458127	 0.7152444733	 0.8421975382	 0.056575
C	-1.3553927976	 0.5359199413	 2.3445046577	-0.067328
C	-2.7259020308	 0.9050964912	 2.8463385004	-0.284845
C	-2.4139392503	-0.5351691505	 2.5358033421	-0.038546
C	-2.8266805812	-1.0578650609	 1.1562483803	-0.327886
C	-1.7575835705	-0.5272738017	 0.2105001866	 0.375274
C	-1.643774652	-0.830861449	-1.2145412239	-0.245527
O	-0.7954892098	-1.4936615767	-0.2588049278	-0.276354
H	 0.5395800076	-0.0993836958	 0.2740640009	 0.29084
H	-1.5767919316	 1.6295481028	 0.4756525269	 0.085018
H	-0.498659766	 0.6329033972	 3.000201093	 0.096205
H	-2.8230816204	 1.1912229656	 3.8881643509	 0.112344
H	-3.3921103552	 1.4441442576	 2.175882216	 0.103589
H	-2.356480001	-1.2414732805	 3.3555233005	 0.089619
H	-2.8373633392	-2.14962492	 1.1133039366	 0.122342
H	-3.823472165	-0.705353997	 0.8654867025	 0.107784
H	-2.376618665	-1.4749661864	-1.6977412193	 0.119309
H	-1.1318280811	-0.1281150247	-1.8700877472	 0.125464
69.0468	216.8505	265.5796	314.0749	325.9447	379.1237	430.7506	486.0339	533.0117	558.3537	686.3616	750.8026	804.4527	818.6087	828.0824	885.9672	898.7693	910.6446	954.079	1005.7653	1029.2001	1067.5074	1077.7086	1098.6543	1108.7704	1123.6657	1131.6995	1168.8891	1191.536	1204.7912	1242.8902	1262.1234	1281.9019	1315.405	1351.5329	1371.3327	1417.2904	1447.7915	1473.7737	1489.0797	1522.64	3009.1679	3036.265	3087.3264	3102.6901	3107.1584	3175.7605	3176.1251	3186.7154	3202.0232	3707.7053
OC1C2CC2CC11CO1	O[C@@H]1[C@H]2C[C@H]2C[C@]21CO2	
InChI=1S/C7H10O2/c8-6-5-1-4(5)2-7(6)3-9-7/h4-6,8H,1-3H2	InChI=1S/C7H10O2/c8-6-5-1-4(5)2-7(6)3-9-7/h4-6,8H,1-3H2/t4-,5-,6+,7+/m0/s1
