19
gdb 1829	2.4065432	1.923414	1.3016009	2.3452	74.78	-0.24329	-0.01531	0.22798000000000002	1010.3715	0.157073	-422.56876	-422.560572	-422.559628	-422.601468	31.405	
C	 0.0163995265	 2.577614352	 0.0012185906	-0.481017
C	-0.8554664849	 1.3404900849	 0.0019799645	 0.187114
C	-2.0226484846	 1.1799764391	 1.0400511604	-0.285822
C	-2.7415295647	 0.3327298543	-0.0375400693	 0.12791
C	-1.9493974674	 1.1269436746	-1.1041084331	-0.285827
O	-2.3432937486	-1.0261863591	 0.0096970149	-0.273654
C	-0.9367221693	-1.2292097947	 0.0626727381	-0.173888
C	-0.0737465966	 0.042497302	 0.060749451	 0.350159
O	 1.130400054	-0.0324184507	 0.1036857452	-0.330718
H	 0.634182556	 2.6223585369	 0.9029852671	 0.131311
H	 0.6953998459	 2.5781554545	-0.8565611931	 0.131339
H	-0.6004234727	 3.4807512793	-0.0428974842	 0.107037
H	-1.8131715083	 0.7070411439	 2.0030828157	 0.109559
H	-2.5197878341	 2.140006738	 1.2025303963	 0.110047
H	-3.8313189333	 0.3238113623	-0.0745548669	 0.084865
H	-1.6755271974	 0.6073996068	-2.0260877552	 0.109561
H	-2.4326817101	 2.0769404396	-1.3473088	 0.110049
H	-0.6836602763	-1.7973432232	 0.9672961174	 0.135989
H	-0.6235873342	-1.8407414607	-0.7935642795	 0.135986
64.7456	153.5969	190.8728	264.4133	303.2263	390.9112	409.1993	419.6756	500.487	562.0856	592.2485	663.2389	763.2786	828.3274	853.0902	854.8354	920.4016	952.4296	971.4813	1010.3222	1011.0796	1070.601	1076.8773	1110.9051	1116.8721	1196.909	1213.1949	1232.211	1233.7281	1258.9207	1262.5871	1343.14	1346.3201	1388.3574	1412.5142	1469.2018	1476.7844	1483.0289	1487.1897	1501.6526	1819.2309	3018.681	3038.9851	3049.4775	3055.1357	3059.3912	3109.0057	3110.4134	3114.0944	3115.5849	3117.8807
CC12CC(C1)OCC2=O	C[C@@]12C[C@@H](C1)OCC2=O	
InChI=1S/C7H10O2/c1-7-2-5(3-7)9-4-6(7)8/h5H,2-4H2,1H3	InChI=1S/C7H10O2/c1-7-2-5(3-7)9-4-6(7)8/h5H,2-4H2,1H3/t5-,7+
