19
gdb 5236	2.6357171	1.4617757	1.2143871	0.9438	75.17	-0.22292	0.06647	0.28939000000000004	1114.2499	0.156033	-422.493213	-422.484699	-422.483755	-422.526332	32.514	
C	 1.2023023494	 1.18932392	 0.1843846083	-0.374075
C	 0.9330665519	-0.318344011	 0.0821888625	-0.315603
C	 1.6203933109	-0.9533744743	-1.0808709674	 0.388278
O	 3.0498116045	-0.9819987803	-1.1279256777	-0.322596
C	 2.9495756994	-1.8782221332	-2.2648211211	-0.014539
C	 2.4074421767	-0.9757138784	-3.4014980369	-0.230725
C	 1.1291927367	-0.9064437321	-2.5702539788	-0.197295
C	 1.4352649623	-2.2112669837	-1.8668204702	 0.252306
O	 0.666370048	-3.3384323491	-1.7700964308	-0.446583
H	 0.7169107576	 1.6140306993	 1.0680313487	 0.109776
H	 2.2759641779	 1.3838271404	 0.2567491391	 0.136807
H	 0.8256466991	 1.7148551808	-0.6986173771	 0.118932
H	 1.2612048456	-0.8160085013	 1.0037550952	 0.105954
H	-0.1426836892	-0.5091397955	-0.0115737392	 0.110263
H	 3.8064949312	-2.5395287572	-2.3772676865	 0.084756
H	 2.972193681	-0.0578849138	-3.5907868031	 0.10031
H	 2.2542478466	-1.5347768313	-4.3282589319	 0.106862
H	 0.1582606135	-0.5027974227	-2.8286562315	 0.093061
H	 0.926605207	-3.8202862168	-0.9759449517	 0.29411
71.7199	119.3997	201.3602	229.3804	292.9998	324.4619	372.0365	380.9167	491.4902	585.1857	593.5979	691.856	732.3852	787.1636	797.5458	858.6055	906.9557	935.6064	943.895	950.2279	978.1357	1013.5616	1048.1221	1073.6103	1100.5985	1115.193	1135.6385	1172.3203	1213.1751	1258.4433	1264.9012	1293.0093	1318.5146	1339.261	1393.7576	1407.4458	1471.7586	1481.3659	1495.1775	1503.8304	1514.5597	3023.5559	3041.3009	3051.5293	3062.7574	3111.3322	3113.7234	3120.1863	3142.1066	3200.1451	3779.6612
CCC12OC3CC1C23O	CC[C@]12O[C@@H]3C[C@H]1[C@]23O	
InChI=1S/C7H10O2/c1-2-6-4-3-5(9-6)7(4,6)8/h4-5,8H,2-3H2,1H3	InChI=1S/C7H10O2/c1-2-6-4-3-5(9-6)7(4,6)8/h4-5,8H,2-3H2,1H3/t4-,5-,6+,7-/m1/s1
