19
gdb 6037	3.9251449	0.8521206	0.7464941	4.0484	79.61	-0.23623	-0.04493	0.1913	1526.2279	0.15634	-422.577126	-422.568003	-422.567059	-422.612125	32.398	
C	 1.4204079816	-0.0552727767	-0.0271132764	-0.230334
O	 0.016067696	-0.0450483899	 0.0809052717	-0.230748
C	-0.4480204103	 0.7173284428	 1.1706759043	-0.06424
C	-1.9774573319	 0.6868464564	 1.1561326687	-0.060564
C	-2.6021537052	 1.3909802535	-0.065906245	-0.338194
C	-3.4997940442	 2.4999109433	 0.5051792981	 0.377032
O	-4.1654093376	 3.2800334702	-0.1343161402	-0.328644
C	-3.3923730992	 2.4188711365	 1.9836853742	-0.186497
C	-2.5674674866	 1.4274711172	 2.3359169925	-0.064732
H	 1.8953057454	-0.49083094	 0.8661524539	 0.105445
H	 1.6763259824	-0.6656765321	-0.8962464742	 0.131358
H	 1.8263443712	 0.9582904087	-0.1713545383	 0.107467
H	-0.0653859312	 0.3077054777	 2.121933819	 0.085682
H	-0.0916417083	 1.7599137791	 1.0980539742	 0.090972
H	-2.2701372113	-0.3704513996	 1.1968570617	 0.101061
H	-1.8464853601	 1.8250650721	-0.7268446314	 0.137732
H	-3.2044616952	 0.7191875534	-0.6835455523	 0.135314
H	-3.9313272998	 3.0872844076	 2.6429453071	 0.117143
H	-2.3158884556	 1.1555459097	 3.3566558225	 0.114749
45.2613	89.8269	102.9075	143.9946	228.7867	266.783	329.0067	388.2144	448.4112	480.0523	590.1796	637.6954	757.0301	808.0978	830.1396	875.7126	915.5196	976.6165	998.4223	1021.4162	1075.7404	1079.2244	1129.6721	1160.8758	1172.3432	1180.5508	1201.8136	1221.6491	1248.6844	1265.4153	1289.6116	1343.2198	1369.6344	1414.9903	1452.2516	1480.984	1486.1051	1502.876	1527.394	1651.8596	1817.0563	2942.9655	2972.2691	2973.314	3017.3991	3026.2671	3070.731	3109.557	3117.8304	3179.2672	3226.3589
COCC1CC(=O)C=C1	COC[C@@H]1CC(=O)C=C1	
InChI=1S/C7H10O2/c1-9-5-6-2-3-7(8)4-6/h2-3,6H,4-5H2,1H3	InChI=1S/C7H10O2/c1-9-5-6-2-3-7(8)4-6/h2-3,6H,4-5H2,1H3/t6-/m0/s1
