19
gdb 3800	2.4648457	0.9684432	0.9252312	1.1564	76.97	-0.24574	-0.09436	0.15138	1403.1346	0.154048	-422.562655	-422.552721	-422.551777	-422.598936	34.566	
C	-2.4659660734	 0.87066849	-1.2986945223	-0.4088
C	-1.1558363856	 1.1854627261	-1.984974332	 0.026953
C	-0.8940794921	 0.7216659003	-3.3972060544	-0.300874
C	-0.1392044453	 0.1007600149	-2.2449248091	-0.018308
C	 1.3494452197	 0.3822345359	-2.0712882042	-0.331374
C	 1.7205592756	 0.3932288294	-0.6052580083	 0.307994
O	 1.9368525237	 1.3876411125	 0.0486336783	-0.278898
C	 1.8011284168	-0.9618105998	 0.1144673581	 0.079494
O	 1.6152433592	-2.0193413671	-0.428578859	-0.215406
H	-2.3603752904	 0.8857510801	-0.2082470543	 0.119658
H	-3.2404080101	 1.5969178085	-1.5689620499	 0.120091
H	-2.8299224054	-0.1223011266	-1.5837620863	 0.115542
H	-0.7354054102	 2.1559247527	-1.7311537361	 0.094654
H	-1.6523535766	 0.1178679903	-3.8854217182	 0.1139
H	-0.3517171733	 1.3804829245	-4.0673787203	 0.112088
H	-0.4312562587	-0.9085389094	-1.9708569205	 0.106085
H	 1.9317339036	-0.3888805424	-2.5878971596	 0.129133
H	 1.6058401671	 1.361266793	-2.4848012586	 0.120166
H	 2.0575727654	-0.8610046428	 1.1906166966	 0.107902
35.3529	57.5256	102.9396	124.9905	203.1896	211.0665	283.8976	292.1082	392.2817	411.6482	479.0491	553.2783	590.11	770.9729	802.2107	814.0823	876.0384	892.8947	946.1249	979.6207	1041.0771	1049.4199	1075.8054	1106.6323	1116.9153	1142.7006	1200.7073	1202.0012	1240.6071	1263.7655	1304.6503	1350.6579	1362.8864	1416.0121	1434.4726	1461.5607	1492.3601	1493.9117	1505.371	1801.7124	1821.0296	2920.9118	3026.5233	3045.4231	3090.2091	3093.6565	3106.6701	3127.0649	3136.6566	3158.6639	3211.8601
CC1CC1CC(=O)C=O	C[C@@H]1C[C@H]1CC(=O)C=O	
InChI=1S/C7H10O2/c1-5-2-6(5)3-7(9)4-8/h4-6H,2-3H2,1H3	InChI=1S/C7H10O2/c1-5-2-6(5)3-7(9)4-8/h4-6H,2-3H2,1H3/t5-,6+/m1/s1
