19
gdb 4542	2.0998832	1.5235949	0.9238222	3.7357	79.15	-0.23927	-0.05224	0.18703	1243.9672	0.157789	-422.586046	-422.577364	-422.57642	-422.619841	32.472	
O	-1.8701676033	 2.8850178833	-1.4390706279	-0.423344
C	-1.5439732704	 1.5126050073	-1.2346934447	 0.111087
C	-2.785310536	 0.6310800314	-1.4042600483	-0.229
C	-2.5055309939	-0.832372847	-1.7532975672	-0.265582
C	-1.632991026	-1.6444630288	-0.8404712191	-0.040416
C	-0.7019226698	-1.292935716	 0.057028598	-0.139834
C	-0.1786660984	 0.0299322976	 0.4743349478	 0.350196
O	 0.8261753297	 0.0554574071	 1.1622097098	-0.322997
C	-0.8627725118	 1.3478494021	 0.1282590694	-0.326068
H	-2.466973843	 3.1548677834	-0.7316670945	 0.277537
H	-0.827172726	 1.2857390057	-2.0340831219	 0.095101
H	-3.3926113995	 0.6838792589	-0.4896822555	 0.093144
H	-3.3858861496	 1.0663799112	-2.2094553008	 0.112238
H	-3.4632519176	-1.3583984592	-1.8534757216	 0.116783
H	-2.0573709648	-0.8840414565	-2.758456466	 0.1297
H	-1.7609556032	-2.7177396078	-0.9811636245	 0.107846
H	-0.1581412794	-2.0892729251	 0.5592214004	 0.107261
H	-1.6189105657	 1.5160243907	 0.9119567279	 0.112056
H	-0.1066445512	 2.1269059416	 0.2496041486	 0.134292
47.3548	110.8448	189.4127	263.3532	309.1231	330.8254	341.6552	371.089	436.2377	488.2014	542.5021	614.8861	687.9458	757.59	826.6342	852.4083	893.4619	923.8963	934.507	1037.2894	1048.3571	1062.1172	1080.2875	1130.145	1162.8159	1207.7745	1215.0185	1273.0534	1291.708	1303.5618	1322.3941	1369.9217	1392.1414	1399.4738	1427.9571	1428.9553	1458.8738	1464.1174	1494.7279	1700.9412	1746.8105	2989.8901	2991.5197	3011.2444	3037.3052	3043.5653	3079.0334	3107.7905	3125.1792	3166.621	3794.8487
OC1CCC=CC(=O)C1	O[C@@H]1CCC=CC(=O)C1	
InChI=1S/C7H10O2/c8-6-3-1-2-4-7(9)5-6/h1,3,7,9H,2,4-5H2	InChI=1S/C7H10O2/c8-6-3-1-2-4-7(9)5-6/h1,3,7,9H,2,4-5H2/t7-/m1/s1
