19
gdb 3529	2.2527716	1.6423755	1.1745739	4.2026	74.97	-0.26271	0.0124	0.27511	1115.383	0.156957	-422.579645	-422.571035	-422.57009	-422.613027	31.809	
C	-2.8193497452	-0.4021308669	-1.3356145724	-0.407142
C	-1.9760227236	-0.1834564439	-0.1002654046	 0.069401
O	-0.7211997472	-0.9620236758	-0.1489986455	-0.273336
C	 0.0407077392	 0.1721080129	-0.0366912417	 0.439394
O	 1.2284368291	 0.2546420212	-0.0049984625	-0.341546
C	-1.1563125814	 1.1145498339	 0.0259142179	 0.110471
C	-1.1829732257	 2.3189209975	-0.9530818926	-0.280788
C	-0.767796867	 3.2335048299	 0.231040595	-0.208683
C	-1.2215953786	 2.1163510857	 1.2083268301	-0.284019
H	-3.1172000065	-1.4515897978	-1.4142557547	 0.137617
H	-3.7283771131	 0.206460941	-1.2859934937	 0.125515
H	-2.2681555792	-0.130732028	-2.2405592698	 0.13127
H	-2.5178488047	-0.4497657819	 0.8129850062	 0.09502
H	-0.5198084307	 2.2714890265	-1.8190967628	 0.119327
H	-2.2019341368	 2.523776897	-1.2949437873	 0.10787
H	 0.3145644926	 3.3744856565	 0.2634844065	 0.129737
H	-1.2572541382	 4.2056245304	 0.3126406983	 0.102787
H	-0.591007371	 1.9039790507	 2.0741493837	 0.119989
H	-2.2538484719	 2.2556070311	 1.54391362	 0.107115
98.1489	105.697	167.0271	197.4584	219.0097	263.8248	307.4307	473.0072	507.0846	561.7831	697.0808	727.661	749.1729	799.776	831.6911	861.7076	892.1429	939.5596	960.7896	984.8353	1046.9989	1066.131	1081.8107	1133.3635	1157.9206	1187.8541	1208.6626	1220.4628	1256.0763	1267.8171	1280.7023	1299.0793	1332.225	1380.6653	1412.1662	1470.1639	1481.6067	1483.746	1493.1937	1501.6381	1922.9638	3040.5327	3054.4115	3058.349	3060.464	3075.1942	3110.4926	3112.6135	3116.6424	3122.668	3135.366
CC1OC(=O)C11CCC1	C[C@H]1OC(=O)C21CCC2	
InChI=1S/C7H10O2/c1-5-7(3-2-4-7)6(8)9-5/h5H,2-4H2,1H3	InChI=1S/C7H10O2/c1-5-7(3-2-4-7)6(8)9-5/h5H,2-4H2,1H3/t5-/m1/s1
