19
gdb 4638	3.8898683	0.6697608	0.6385706	2.3964	80.74	-0.2455	0.03466	0.28016	1798.6759	0.154325	-422.506052	-422.495691	-422.494747	-422.543185	36.602	
O	 1.1601033598	 2.4957548945	 3.8407892335	-0.404979
C	 1.1549742844	 2.6602664671	 2.4284705676	-0.186174
C	 1.0100720218	 1.4015875461	 1.6993384946	 0.057348
C	 0.9297030425	 0.33404943	 1.1473649123	 0.075057
C	 0.8363060438	-0.9580148074	 0.4750309614	-0.439293
C	 2.0723527987	-1.8323235249	 0.6658282784	 0.432257
O	 2.3724061299	-2.1308470065	 2.0013589022	-0.460606
C	 3.2711925742	-1.6336303463	-0.203510136	-0.282876
C	 2.4048047977	-2.8695830759	-0.3782615869	-0.333517
H	 1.7900421854	 1.7956118072	 4.0420107566	 0.289171
H	 0.3129610543	 3.3266816024	 2.2093040808	 0.135958
H	 2.0650958819	 3.1778339059	 2.0841907631	 0.115129
H	-0.0468035445	-1.5028061685	 0.8407181532	 0.119922
H	 0.6686524167	-0.8053841023	-0.5982890259	 0.130425
H	 1.6755183676	-2.7026804287	 2.3432120279	 0.28096
H	 3.2369692008	-0.8620439837	-0.9645609989	 0.117721
H	 4.2364761682	-1.7667651377	 0.2702008773	 0.125874
H	 1.7814623561	-2.9468925063	-1.2630288799	 0.110718
H	 2.8080795207	-3.8096560949	-0.0192061512	 0.116906
21.8032	50.7053	75.1307	144.2702	223.2992	287.0124	309.0334	320.2119	342.0525	353.0789	393.6303	437.8115	488.3729	584.0203	747.0013	771.1674	785.1574	896.7818	910.6346	935.9692	976.9409	990.9699	998.2939	1043.9193	1049.8115	1081.2024	1154.787	1186.5612	1196.228	1216.6006	1256.2072	1299.2862	1346.6526	1356.3491	1402.2768	1421.5756	1453.6958	1461.6583	1494.4254	1505.9912	2364.7555	2971.7664	2998.8242	3049.3765	3057.7946	3131.3366	3142.7917	3218.7458	3235.7813	3787.6292	3814.9482
OCC#CCC1(O)CC1	OCC#CCC1(O)CC1	
InChI=1S/C7H10O2/c8-6-2-1-3-7(9)4-5-7/h8-9H,3-6H2	InChI=1S/C7H10O2/c8-6-2-1-3-7(9)4-5-7/h8-9H,3-6H2
