19
gdb 1492	2.1238391	1.9354048	1.4018731	2.2461	75.53	-0.25095	0.01433	0.26528	1010.7436	0.155913	-422.557561	-422.549057	-422.548113	-422.590022	33.325	
C	-0.1172664038	 0.1913456988	 0.2941659213	-0.41092
C	 1.3901391689	 0.0057843282	 0.087680447	 0.291281
O	 1.5977388293	-1.3503459557	-0.2555129536	-0.479589
C	 2.175090865	 0.4698080065	 1.3061639028	-0.114879
C	 2.7810131216	 1.6389742979	 1.108978754	-0.082734
C	 2.5555767893	 2.1719663048	-0.2903970322	-0.343256
C	 1.968774062	 0.9545206123	-0.9936420475	 0.343263
C	 1.6069579814	 0.8595951354	-2.4056191305	-0.245138
O	 2.8417810653	 0.2961846214	-1.9298584301	-0.283669
H	-0.4566944722	-0.4384672898	 1.121866072	 0.125884
H	-0.3617751535	 1.2308247023	 0.5313662604	 0.114069
H	-0.6618528305	-0.1088690207	-0.6056203296	 0.118087
H	 2.3694369997	-1.3598177451	-0.8399027586	 0.288741
H	 2.1741671166	-0.10736284	 2.2236252581	 0.101176
H	 3.3581677428	 2.1828922953	 1.8482964285	 0.098931
H	 1.8588255972	 3.0213552641	-0.2933016169	 0.115171
H	 3.4717034295	 2.5038817058	-0.7899563706	 0.123137
H	 0.8618516407	 0.1299955137	-2.7187161074	 0.123202
H	 1.7186398707	 1.7232121449	-3.0594110371	 0.117242
97.3543	211.1976	230.3738	241.2584	265.4127	333.153	373.837	433.961	452.652	465.5552	553.0907	577.1745	646.6377	745.4095	760.3988	806.3877	885.2961	931.6362	954.7205	960.2074	968.8462	981.8178	1021.5482	1068.1516	1111.0293	1123.5087	1153.5785	1179.7137	1188.1592	1206.7675	1240.4568	1285.271	1360.2542	1392.6419	1409.3228	1427.0622	1473.1054	1481.0286	1493.2072	1525.8354	1679.5752	3016.7531	3040.0482	3072.6967	3086.4839	3115.0513	3118.9339	3174.0414	3187.1378	3212.8005	3731.5316
CC1(O)C=CCC11CO1	C[C@]1(O)C=CC[C@@]21CO2	
InChI=1S/C7H10O2/c1-6(8)3-2-4-7(6)5-9-7/h2-3,8H,4-5H2,1H3	InChI=1S/C7H10O2/c1-6(8)3-2-4-7(6)5-9-7/h2-3,8H,4-5H2,1H3/t6-,7-/m0/s1
