19
gdb 1668	2.6559654	1.5499785	1.2515683	1.6331	74.23	-0.2486	0.07186	0.32045999999999997	1061.5891	0.156293	-422.502776	-422.494487	-422.493543	-422.535429	32.172	
O	 4.1589785722	-2.1782497921	 0.1307948505	-0.486513
C	 3.2187239983	-1.1993062368	-0.2833564573	 0.381529
C	 3.8443118153	-0.0600566873	-1.1646433066	-0.305331
C	 3.5976151476	 0.9338661921	-0.0185679863	-0.055035
C	 2.1298646725	 1.0005529434	 0.2808578275	-0.287762
C	 2.9267297148	-0.1617989309	 0.8160999491	-0.137291
C	 2.0555443341	-1.9926963521	-0.8310388376	 0.069646
C	 1.9874977136	-2.4028042724	-2.2365467344	-0.181632
O	 1.1761649769	-1.331931615	-1.7415500631	-0.236269
H	 4.8275450105	-1.7330558094	 0.6631598833	 0.278814
H	 4.89808761	-0.2775850534	-1.3536065369	 0.100319
H	 3.3439179641	 0.1742727696	-2.1081775409	 0.109392
H	 4.286465458	 1.7047966324	 0.3039561558	 0.085383
H	 1.837161921	 1.7282730987	 1.0312711849	 0.110887
H	 1.4023968799	 0.8470011894	-0.5093686512	 0.139808
H	 2.9965492778	-0.3762538479	 1.8772546052	 0.083118
H	 1.5528980689	-2.6142482285	-0.0889254682	 0.095573
H	 2.7818950614	-2.108051082	-2.9197893418	 0.117657
H	 1.4470379332	-3.3071346179	-2.509346482	 0.117708
88.5457	146.5629	198.7999	248.0483	298.702	329.5691	401.9548	434.1434	462.2818	559.6394	603.9953	755.9025	790.976	830.272	874.8908	895.1304	917.6285	938.6493	953.75	978.0717	996.2596	1021.2102	1060.4173	1074.9531	1094.2684	1097.1115	1136.3691	1154.35	1162.6945	1171.7043	1182.8348	1212.6759	1242.8874	1287.9386	1294.6363	1351.2822	1372.2285	1453.5692	1473.0006	1496.1978	1527.5835	3057.5628	3092.327	3105.9788	3116.3862	3128.7921	3165.8056	3180.817	3186.2006	3215.8048	3799.902
OC1(CC2CC12)C1CO1	O[C@@]1(C[C@H]2C[C@@H]12)[C@@H]1CO1	
InChI=1S/C7H10O2/c8-7(6-3-9-6)2-4-1-5(4)7/h4-6,8H,1-3H2	InChI=1S/C7H10O2/c8-7(6-3-9-6)2-4-1-5(4)7/h4-6,8H,1-3H2/t4-,5-,6+,7-/m1/s1
