19
gdb 2956	3.0205997	1.2315152	1.0546042	2.5718	75.34	-0.24101	-0.01801	0.223	1184.91	0.155859	-422.580034	-422.571264	-422.57032	-422.613187	33.478	
C	-3.3069166041	-1.476266524	-0.7054031785	-0.49145
C	-2.2338732835	-0.7125420787	 0.0312422304	 0.278515
C	-0.8173886061	-1.2620309222	 0.053041675	-0.392076
C	 0.1176506869	-0.0491428877	 0.1936602607	 0.383227
O	 1.2847762144	-0.0969988352	 0.479067481	-0.30409
C	-0.6823051582	 1.2332614956	-0.0899936264	-0.340715
C	-2.1353068461	 0.8173138157	-0.0262121578	-0.1169
C	-2.6027608544	 0.1426370349	 1.2304740475	 0.055084
O	-3.949632391	 0.3403533865	 1.5466215268	-0.425387
H	-3.4293149759	-2.4868229161	-0.2962439845	 0.11326
H	-4.2690829563	-0.9640928605	-0.6296119484	 0.131977
H	-3.0581978244	-1.5823099462	-1.7674790278	 0.117983
H	-0.6140526017	-1.9846302374	 0.8505365581	 0.125235
H	-0.5774307845	-1.762284823	-0.8954437305	 0.128774
H	-0.3925386334	 2.0174200708	 0.6165267404	 0.132373
H	-0.4099537831	 1.5876849507	-1.0926465472	 0.131544
H	-2.8842474705	 1.3790866205	-0.5728881424	 0.098921
H	-1.9293165542	 0.138251676	 2.0921131059	 0.084908
H	-4.2699049438	-0.4464532296	 2.0010792677	 0.288817
72.2949	182.0594	200.5497	251.3471	274.3363	295.4986	332.9448	364.045	441.7024	480.7699	491.8757	598.4605	659.1586	704.4757	782.518	807.2611	835.3655	904.5362	968.4823	984.3926	1036.8491	1048.5538	1077.8641	1099.0823	1139.9329	1154.5696	1170.3129	1210.4789	1223.48	1272.8273	1283.3019	1297.6911	1303.0041	1375.629	1414.1093	1448.5544	1450.3389	1468.9172	1496.4205	1504.4676	1847.8112	3021.1876	3024.1559	3034.2784	3057.1505	3075.4823	3076.6693	3084.5183	3120.8919	3178.3896	3798.8763
CC12CC(=O)CC1C2O	C[C@@]12CC(=O)C[C@@H]1[C@H]2O	
InChI=1S/C7H10O2/c1-7-3-4(8)2-5(7)6(7)9/h5-6,9H,2-3H2,1H3	InChI=1S/C7H10O2/c1-7-3-4(8)2-5(7)6(7)9/h5-6,9H,2-3H2,1H3/t5-,6-,7-/m1/s1
