19
gdb 5727	3.0698248	1.072331	0.8969494	3.3032	77.5	-0.24025	-0.03985	0.2004	1350.2336	0.154876	-422.537971	-422.528705	-422.527761	-422.572842	33.276	
C	 1.3696260456	 1.1469612216	 0.521260204	-0.383363
C	 0.864792687	-0.2396821341	 0.1126759136	-0.184979
C	 1.6647142789	-0.8564769057	-1.0381764002	-0.110485
C	 1.4264939368	-0.2949725184	-2.482805343	-0.367384
C	 0.8318844029	-1.6506471787	-2.8998040956	 0.344054
C	-0.3186694604	-1.9755703623	-3.7604720911	-0.246585
O	 1.0141964723	-2.3049822495	-4.1399356747	-0.254035
C	 1.1580554792	-2.2333234764	-1.5295966294	 0.324902
O	 1.0537511947	-3.3146189916	-1.028409189	-0.304732
H	 0.7696725773	 1.5583243213	 1.3387885632	 0.118848
H	 2.4109250777	 1.1028264408	 0.8581830855	 0.119632
H	 1.3217013237	 1.8526745954	-0.3149484385	 0.119485
H	 0.9116844257	-0.9232822359	 0.9683183608	 0.119823
H	-0.193277503	-0.1792569896	-0.1744221025	 0.098621
H	 2.7266026658	-0.9044291302	-0.7698706995	 0.105646
H	 0.7361279957	 0.5497645213	-2.54316788	 0.113715
H	 2.3422544227	-0.0481302774	-3.0234678067	 0.125999
H	-0.9547797028	-2.8207377514	-3.5028913747	 0.136169
H	-0.7874585097	-1.1743604891	-4.3303614722	 0.124669
37.2612	95.1404	141.1127	201.8317	227.1791	235.9749	290.9439	319.2885	366.5073	496.9079	581.4478	706.0943	752.6987	777.9437	805.4114	833.5826	883.2656	919.7639	957.6307	969.5726	1024.1183	1069.7615	1093.2548	1122.6891	1134.1324	1149.2582	1159.6183	1177.0497	1217.236	1244.8533	1274.7555	1326.6087	1369.3436	1410.1462	1415.2029	1473.8309	1487.2912	1498.9286	1505.5101	1517.2573	1888.2559	3020.8181	3032.3879	3044.9933	3064.5246	3070.9948	3084.075	3101.6733	3105.774	3125.9811	3179.8603
CCC1CC2(CO2)C1=O	CC[C@@H]1C[C@]2(CO2)C1=O	
InChI=1S/C7H10O2/c1-2-5-3-7(4-9-7)6(5)8/h5H,2-4H2,1H3	InChI=1S/C7H10O2/c1-2-5-3-7(4-9-7)6(5)8/h5H,2-4H2,1H3/t5-,7+/m1/s1
