19
gdb 1786	3.4051344	1.4310429	1.2123217	2.6741	75.37	-0.24169	-0.01438	0.22730999999999998	1065.8394	0.15678	-422.571134	-422.562943	-422.561999	-422.603939	31.544	
C	-4.2592997849	-0.4807974069	 0.0229790875	-0.459133
C	-2.7492505148	-0.4323026319	 0.0114114961	 0.427177
C	-1.9424415407	-1.1741775858	-1.0925178075	-0.281412
C	-0.8039548411	-1.3136229992	-0.0313944188	-0.135883
C	-1.924107669	-1.237978033	 1.0554278487	-0.281364
C	-0.0614659546	-0.0032221498	 0.0012772205	 0.382845
O	 1.1383879022	 0.1220618922	-0.0048167544	-0.328057
C	-0.986926523	 1.2227230686	 0.0451444866	-0.183246
O	-2.382270295	 0.9458375919	 0.0492839251	-0.308991
H	-4.6487154828	-0.0029159048	 0.9270099997	 0.128387
H	-4.6640010889	 0.0513949794	-0.8431986502	 0.128398
H	-4.6107670209	-1.5158661694	-0.0057096744	 0.113047
H	-2.377150225	-2.1483915809	-1.3279285113	 0.110821
H	-1.7342545231	-0.630198637	-2.0174527485	 0.110222
H	-0.1211771129	-2.162156501	-0.0624130114	 0.085523
H	-2.3552074633	-2.2246713837	 1.2400236523	 0.110818
H	-1.6999052732	-0.7496847664	 2.0073005715	 0.110232
H	-0.7281406939	 1.8015031481	 0.9413798351	 0.13532
H	-0.7434745351	 1.8527649595	-0.8203160264	 0.135293
55.247	143.9685	211.091	274.3325	305.4904	416.5901	421.0294	436.2283	453.0922	569.289	579.0617	669.1834	731.5523	821.9958	871.6076	872.8983	886.183	932.5993	960.6838	995.1769	1009.1777	1040.1592	1069.2621	1108.8482	1137.8575	1187.9513	1194.0855	1233.1325	1235.6903	1254.756	1267.1204	1301.5866	1337.1442	1362.5273	1414.6636	1467.9409	1474.6531	1481.4121	1492.7793	1498.7822	1829.4149	3018.3948	3041.7552	3049.3958	3059.3457	3063.5291	3114.1513	3117.5008	3120.4285	3121.5268	3125.6334
CC12CC(C1)C(=O)CO2	C[C@]12C[C@H](C1)C(=O)CO2	
InChI=1S/C7H10O2/c1-7-2-5(3-7)6(8)4-9-7/h5H,2-4H2,1H3	InChI=1S/C7H10O2/c1-7-2-5(3-7)6(8)4-9-7/h5H,2-4H2,1H3/t5-,7+
