19
gdb 3968	2.3387195	1.5792832	1.4912338	1.3312	77.71	-0.23042	0.01162	0.24204	1023.4767	0.156579	-422.542766	-422.534189	-422.533245	-422.575469	33.194	
O	 0.0285971787	 1.3685775389	 0.0798532633	-0.429909
C	 0.0360234465	-0.034249375	-0.027936741	 0.075608
C	 0.0843583098	-0.5707999238	-1.5209512596	-0.37175
C	-1.4240848904	-0.6292687398	-1.4266672629	 0.237141
C	-2.5689000997	-0.2079844709	-1.9516029025	-0.21801
C	-3.5701923869	 0.0914748159	-0.8348680279	-0.25701
C	-2.6759526401	 0.2022045099	 0.445152197	-0.307368
C	-1.4197361192	-0.6053704077	 0.0793903924	 0.386437
O	-1.302158726	-1.8778333667	 0.7081594757	-0.497756
H	 0.898388362	 1.6946328803	-0.1704654309	 0.287394
H	 0.7464814811	-0.5034966815	 0.6637672095	 0.075844
H	 0.5179569542	 0.0960313084	-2.2709272333	 0.103024
H	 0.5705093209	-1.5490994895	-1.5714215583	 0.117393
H	-2.776314208	 0.0079078449	-2.9943642068	 0.092684
H	-4.1069406413	 1.0254953281	-1.0331983503	 0.107833
H	-4.3422589186	-0.6853279546	-0.7417657865	 0.099354
H	-2.405549469	 1.2482343308	 0.6109783265	 0.128619
H	-3.1558849572	-0.1753674413	 1.3519436121	 0.095203
H	-2.0293647468	-2.4258848565	 0.3930717235	 0.275268
90.5413	184.9743	222.1025	229.0713	260.5596	300.0511	335.5665	408.6107	458.5931	511.5145	551.182	653.9326	726.2832	754.8209	798.9025	841.0322	854.0194	894.0316	928.3307	960.2096	977.2635	1008.7021	1067.4299	1084.8746	1096.4334	1142.5392	1175.0566	1182.4237	1206.2579	1213.2687	1239.5336	1276.05	1294.9607	1312.1523	1327.8318	1360.3999	1409.7403	1453.2364	1472.3567	1494.7057	1734.5251	3006.9907	3026.5319	3055.7277	3059.4453	3067.8509	3111.4669	3116.0251	3185.84	3800.7716	3824.024
OC1CC2=CCCC12O	O[C@@H]1C[C]2[CH]CC[C@]12O	
InChI=1S/C7H10O2/c8-6-4-5-2-1-3-7(5,6)9/h2,6,8-9H,1,3-4H2	InChI=1S/C7H10O2/c8-6-4-5-2-1-3-7(5,6)9/h2,6,8-9H,1,3-4H2/t6-,7-/m1/s1
