19
gdb 4246	3.0846071	1.7610827	1.618868	2.2034	72.99	-0.24376	0.07927	0.32303	911.4495	0.160513	-422.556587	-422.54999	-422.549046	-422.587175	28.007	
O	 0.6345210105	 0.1505677109	 0.6889096336	-0.444893
C	-0.7424877818	 0.462863637	 0.824476844	 0.126258
C	-1.2097977792	 0.5521885812	 2.3096108698	-0.260583
C	-1.932454959	-0.7809755046	 2.4804018174	 0.096969
O	-0.9609127714	-1.8242263976	 2.1463879928	-0.314497
C	-1.3119044911	-2.071021963	 0.7667163087	 0.084745
C	-2.8225938746	-2.3710463757	 0.8475405777	-0.245418
C	-2.8600179239	-0.87697813	 1.2439968478	-0.075325
C	-1.6640554726	-0.6365274206	 0.256591285	-0.053496
H	 0.7844620897	-0.6212906447	 1.249027378	 0.286362
H	-0.8777539805	 1.411524671	 0.2984890615	 0.08203
H	-0.3598603197	 0.6757850437	 2.9854087579	 0.108579
H	-1.9013384133	 1.3881933885	 2.4685683537	 0.096279
H	-2.3704663059	-0.987452492	 3.4585239126	 0.074933
H	-0.5749802167	-2.7278426396	 0.3075733782	 0.084139
H	-3.2790077143	-2.5514381583	-0.1279670104	 0.10354
H	-3.1391588612	-3.1231428521	 1.5740201292	 0.101255
H	-3.7663514025	-0.2727144896	 1.2509397598	 0.073641
H	-1.9101341224	-0.5812118044	-0.8030207171	 0.075481
147.1579	267.2587	373.8223	444.86	458.314	494.1129	507.7327	621.7562	685.7932	782.2622	812.1559	840.5058	845.9772	867.9605	886.6412	914.9017	937.8966	958.6161	967.4474	990.169	1016.5918	1041.9502	1059.1082	1069.1589	1103.0089	1113.2513	1157.3908	1184.3522	1223.6147	1227.7535	1242.1054	1256.544	1276.6061	1296.1365	1315.8949	1323.3127	1346.2193	1354.0044	1445.2779	1471.8711	1487.8643	3038.1854	3066.1207	3074.8496	3097.9208	3106.5365	3122.465	3127.7492	3131.0894	3139.9465	3778.9479
OC1CC2OC3CC2C13	O[C@@H]1C[C@@H]2O[C@H]3C[C@@H]2[C@@H]13	
InChI=1S/C7H10O2/c8-4-2-5-3-1-6(9-5)7(3)4/h3-8H,1-2H2	InChI=1S/C7H10O2/c8-4-2-5-3-1-6(9-5)7(3)4/h3-8H,1-2H2/t3-,4+,5-,6-,7-/m0/s1
