19
gdb 3597	2.6569846	1.3120423	1.0910871	1.6236	78.07	-0.2324	-0.02033	0.21206999999999998	1186.5215	0.156282	-422.595653	-422.586581	-422.585637	-422.629521	33.676	
C	 1.2780290496	 0.6421035681	-0.5825350281	-0.478461
C	-0.1056145723	 0.1397186315	-0.2741886208	 0.327585
C	-1.132756718	 0.9632544859	-0.0568882072	-0.145799
C	-2.535155435	 0.5159783053	 0.2684523566	-0.346841
C	-2.6152888964	-0.9692764671	 0.578252403	 0.359699
O	-3.3463775926	-1.4366259111	 1.4196516695	-0.318282
C	-1.7075200807	-1.8410864574	-0.2931132313	 0.013151
O	-2.1130499978	-1.70481002	-1.6566104193	-0.432656
C	-0.2574995233	-1.3645363629	-0.2031665173	-0.311074
H	 2.0080844006	 0.2652723393	 0.1458559053	 0.122786
H	 1.6136093908	 0.2925240857	-1.5673015466	 0.127442
H	 1.3233587471	 1.7341081273	-0.5738597044	 0.121728
H	-0.9765325126	 2.0381310912	-0.1138412078	 0.083692
H	-2.9554613621	 1.0651621797	 1.1173446065	 0.127475
H	-3.1974349197	 0.7156260733	-0.5877671015	 0.136499
H	-1.7966029871	-2.8809074089	 0.0458788655	 0.082837
H	-2.9879112789	-2.0983232638	-1.7438711066	 0.292779
H	 0.1883821066	-1.7378402536	 0.7296293442	 0.11955
H	 0.3008186118	-1.8415732924	-1.0186731294	 0.117887
61.7493	101.2611	179.3378	223.5777	253.9837	316.3905	336.7924	362.8509	420.8491	456.3505	475.3691	565.88	606.8525	722.8842	747.6615	800.6743	889.9295	936.4047	956.9843	971.4151	1009.9288	1052.3177	1069.9554	1092.0426	1169.1453	1171.6005	1204.7987	1220.1793	1258.1039	1310.2227	1341.0075	1359.0659	1392.5315	1408.1933	1414.833	1442.8232	1460.1682	1478.7936	1491.0848	1746.149	1821.9644	3001.4849	3008.7874	3015.5572	3031.4664	3048.5458	3060.8856	3073.9454	3113.2353	3149.1553	3811.2187
CC1=CCC(=O)C(O)C1	CC1=CCC(=O)[C@@H](O)C1	
InChI=1S/C7H10O2/c1-5-2-3-6(8)7(9)4-5/h2,7,9H,3-4H2,1H3	InChI=1S/C7H10O2/c1-5-2-3-6(8)7(9)4-5/h2,7,9H,3-4H2,1H3/t7-/m0/s1
