19
gdb 3201	3.2485911	1.4129227	1.3525831	0.6352	74.11	-0.24363	0.06369	0.30732000000000004	1020.5313	0.158181	-422.533696	-422.52615	-422.525206	-422.565038	31.037	
O	 0.4438671546	 0.5128518153	 0.2569339962	-0.455765
C	-0.8425272437	 0.5923974085	 0.8316734329	 0.168708
C	-1.9879819951	-0.1618999704	 0.0913865023	-0.082251
C	-3.1657362032	 0.0768392898	 1.0560121955	-0.286065
C	-3.1881029047	 1.6113833026	 0.8540310069	 0.411253
O	-3.874277923	 2.4131119008	 1.7569175059	-0.487029
C	-3.5595124841	 1.7225150732	-0.6368164841	-0.272086
C	-2.1618248874	 1.1193714494	-0.8464866671	-0.065916
C	-1.6534559743	 1.8409802558	 0.4499160035	-0.152164
H	 0.3976485271	 0.8586741019	-0.6408952312	 0.280559
H	-0.7017606936	 0.3492569732	 1.8903507247	 0.071047
H	-1.8316907821	-1.16283253	-0.3100983229	 0.067517
H	-4.1093488563	-0.3912296928	 0.7621382163	 0.099713
H	-2.9300378664	-0.2273349396	 2.0827473597	 0.08634
H	-3.6321759086	 2.1478510341	 2.6506897798	 0.278772
H	-4.4508995019	 1.1906920275	-0.9842140242	 0.092378
H	-3.5870715881	 2.7635626854	-0.9710802108	 0.105218
H	-1.6490553619	 1.1408476415	-1.8061355362	 0.0687
H	-1.273524517	 2.8621725036	 0.4752163427	 0.071071
190.2353	235.4332	263.7972	292.4518	339.699	369.1077	430.1726	481.1958	530.0596	606.6027	647.9614	760.4423	811.9921	838.8473	856.0584	892.0708	909.4174	946.5798	962.1625	980.7935	998.986	1022.34	1048.8172	1074.8129	1088.6812	1119.4467	1134.4075	1166.8637	1190.9108	1217.8979	1225.0457	1250.4865	1256.2526	1267.8781	1285.8105	1292.3955	1334.1651	1387.6963	1437.1724	1491.0572	1516.1535	3032.8716	3045.3056	3052.0327	3089.6536	3106.3396	3117.1481	3121.0197	3131.815	3805.3016	3808.3241
OC1C2CC3(O)CC2C13	O[C@@H]1[C@H]2C[C@]3(O)C[C@H]2[C@H]13	
InChI=1S/C7H10O2/c8-6-4-2-7(9)1-3(4)5(6)7/h3-6,8-9H,1-2H2	InChI=1S/C7H10O2/c8-6-4-2-7(9)1-3(4)5(6)7/h3-6,8-9H,1-2H2/t3-,4+,5-,6-,7-/m1/s1
