19
gdb 3390	2.8619154	1.3686488	1.0788421	0.4685	75.	-0.21986	0.07301	0.29287	1152.9656	0.157027	-422.519069	-422.510908	-422.509964	-422.551575	31.768	
O	 0.4975106609	-0.1823396421	 0.5478712978	-0.423335
C	-0.6397529856	 0.5841954016	 0.8213586448	 0.015164
C	-1.9756082357	 0.0723818355	 0.334158666	 0.051628
O	-3.1507875123	 0.5361472724	 0.9460098867	-0.259731
C	-3.1455155137	 1.9662329993	 0.9191267494	-0.166356
C	-2.1784205776	 2.3869358184	-0.1934237947	 0.354117
C	-2.6373645573	 3.2144524007	-1.36616102	-0.317757
C	-1.7192747512	 3.8129404172	-0.3238654506	-0.316783
C	-1.2895642291	 1.1925855868	-0.4035824363	-0.189108
H	 0.5016835933	-0.9321900973	 1.1528309407	 0.288755
H	-0.604866828	 1.1713976435	 1.7400394289	 0.09045
H	-2.0623775309	-0.9385954491	-0.0474922618	 0.104506
H	-4.1728507951	 2.3074209944	 0.7544151019	 0.110537
H	-2.8107447282	 2.3550865789	 1.8922176354	 0.099647
H	-2.2244652081	 2.9910614391	-2.3446521645	 0.115124
H	-3.6718442896	 3.5425244244	-1.3846362765	 0.112625
H	-0.6842876645	 3.993766649	-0.5932594408	 0.11943
H	-2.1349201169	 4.5480659637	 0.3590351933	 0.110742
H	-0.8044181003	 1.0358957334	-1.35968355	 0.100345
99.9028	163.0148	227.5311	277.4783	290.7256	322.4437	359.4094	415.5461	467.926	523.8724	710.4814	779.2897	818.5242	849.1093	886.4522	909.9588	927.1173	947.868	962.2129	976.7481	994.9026	1042.1981	1058.4885	1071.1217	1076.6201	1096.06	1117.9116	1163.4783	1185.4847	1188.2643	1222.7599	1245.6377	1283.3093	1300.5105	1310.1766	1354.0227	1410.4817	1449.2021	1466.3087	1503.9315	1523.5625	2987.7441	3063.7814	3090.2544	3121.6944	3125.5223	3177.7039	3186.9636	3201.1505	3216.0049	3797.1044
OC1C2OCC3(CC3)C12	O[C@@H]1[C@H]2OCC3(CC3)[C@@H]12	
InChI=1S/C7H10O2/c8-5-4-6(5)9-3-7(4)1-2-7/h4-6,8H,1-3H2	InChI=1S/C7H10O2/c8-5-4-6(5)9-3-7(4)1-2-7/h4-6,8H,1-3H2/t4-,5-,6-/m0/s1
