19
gdb 2211	2.8344545	1.7646698	1.6078324	1.4662	73.22	-0.21959	0.08617	0.30576000000000003	945.8421	0.159151	-422.561697	-422.554352	-422.553408	-422.593165	29.263	
C	 0.0043396886	 0.1113099268	 0.1628684339	-0.483718
C	 1.3442054641	-0.4648331964	-0.1765060622	 0.400772
O	 2.0493583822	-0.9615356593	 0.9502476725	-0.299371
C	 3.3826735483	-1.1359733133	 0.4893621268	 0.164932
C	 3.494779614	-2.4647198195	-0.2538227933	-0.219899
C	 2.4772574771	-2.4737289002	-1.4295956666	-0.227712
C	 1.6919265357	-1.1702342277	-1.4796679661	-0.163106
C	 2.3989488512	 0.1134855836	-1.0738276556	 0.005781
O	 3.6345026195	-0.0648386576	-0.4157518622	-0.268371
H	 0.1026797668	 0.8832972134	 0.9325996049	 0.131333
H	-0.4522066804	 0.5601114758	-0.7237685106	 0.120183
H	-0.6731981956	-0.6629450081	 0.5381857392	 0.128196
H	 4.0653732088	-1.0490651914	 1.3378682834	 0.0908
H	 4.5214665849	-2.5795549735	-0.6134576638	 0.107196
H	 3.2974991295	-3.2775695865	 0.451267556	 0.106413
H	 2.9969399812	-2.6193149011	-2.3821603105	 0.108799
H	 1.7815092195	-3.3125615785	-1.3258986508	 0.108097
H	 0.9597363851	-1.0787685559	-2.2771816863	 0.084558
H	 2.3365317996	 1.0452303893	-1.6213161887	 0.105117
124.7569	195.7061	209.9225	292.3818	381.3244	401.3952	511.864	559.5713	643.9255	709.2848	725.344	779.5759	818.771	849.2585	878.4142	893.1733	906.4532	958.2637	981.5345	1012.0635	1028.8367	1082.126	1094.5017	1107.2783	1130.9805	1142.2761	1212.318	1228.3385	1236.1525	1277.8522	1299.945	1313.4479	1364.0013	1367.453	1384.2527	1413.7594	1460.3189	1475.761	1477.3429	1500.3586	1506.7501	3035.7027	3039.5108	3055.2519	3070.4055	3093.4653	3100.8874	3101.894	3116.8637	3146.0675	3196.977
CC12OC3CCC1C2O3	C[C@@]12O[C@H]3CC[C@@H]1[C@@H]2O3	
InChI=1S/C7H10O2/c1-7-4-2-3-5(9-7)8-6(4)7/h4-6H,2-3H2,1H3	InChI=1S/C7H10O2/c1-7-4-2-3-5(9-7)8-6(4)7/h4-6H,2-3H2,1H3/t4-,5+,6+,7-/m1/s1
