19
gdb 2936	3.858353	1.3969759	1.2033346	2.151	74.62	-0.23557	0.07806	0.31363	1055.5016	0.159509	-422.518022	-422.51084	-422.509896	-422.549184	29.233	
O	 0.8152740864	-0.1321907559	 0.6019754905	-0.443259
C	-0.4508476254	 0.3342623103	 0.9985125523	 0.13796
C	-0.5729946727	 1.4533914151	 2.0728772604	-0.150313
C	-1.9938221122	 0.8823250348	 2.3661866251	-0.002994
C	-2.5614875356	 1.1701108453	 3.7534024466	-0.260876
C	-1.672413973	 0.4937261108	 4.7989121034	-0.064972
O	-0.2970352186	 0.6097038772	 4.4645591106	-0.281728
C	-0.0379302626	 0.4074598044	 3.1009793388	 0.164731
C	-1.0693751205	-0.3793914729	 2.2159462999	-0.145087
H	 1.1868727107	 0.5014603739	-0.0193748346	 0.284842
H	-1.1286392635	 0.447103195	 0.141534835	 0.065108
H	-0.2960037184	 2.5061780404	 1.9864246591	 0.064131
H	-2.7271915498	 1.0242112715	 1.5652754485	 0.061124
H	-2.6052261092	 2.2542435067	 3.9148173578	 0.103826
H	-3.5850843794	 0.7899476896	 3.846130292	 0.099255
H	-1.7922496987	 0.9295417537	 5.7945225277	 0.104076
H	-1.9405165902	-0.5724328135	 4.8647672301	 0.092925
H	 1.0083508596	 0.1249075655	 3.0056028746	 0.09639
H	-1.3529699768	-1.4309690121	 2.2768147823	 0.074861
197.7485	233.7537	246.5705	272.7668	354.023	441.8974	461.7189	530.2717	586.2476	702.4484	761.5524	814.1974	830.1862	845.6401	911.2323	922.8551	927.3193	983.4315	1020.344	1046.0224	1067.9288	1087.5833	1090.3748	1101.6684	1149.023	1156.8024	1163.6409	1202.4235	1214.8329	1241.9668	1246.8377	1268.9051	1282.1556	1315.4199	1349.4723	1366.5752	1407.8471	1422.8985	1445.4429	1486.3691	1512.1733	2979.7608	3010.2121	3026.4296	3047.9102	3069.1591	3087.3279	3091.8479	3105.2786	3142.5634	3822.4681
OC1C2C3CCOC2C13	O[C@@H]1[C@H]2[C@@H]3CCO[C@H]2[C@H]13	
InChI=1S/C7H10O2/c8-6-4-3-1-2-9-7(4)5(3)6/h3-8H,1-2H2	InChI=1S/C7H10O2/c8-6-4-3-1-2-9-7(4)5(3)6/h3-8H,1-2H2/t3-,4+,5-,6+,7+
