19
gdb 2552	2.2719089	1.7426892	1.3377821	2.0239	76.06	-0.24135	-0.0037	0.23765	1043.1655	0.155363	-422.558954	-422.550079	-422.549135	-422.591731	34.141	
C	 1.2989749224	 0.8354777636	 0.1615446633	-0.496489
C	-0.0347808819	 0.1601842778	 0.1706486865	 0.26119
C	-0.2977705858	-1.1305689295	 0.414722616	-0.216339
C	-1.7506199351	-1.4219851956	 0.2494155192	-0.001178
O	-2.2433181373	-1.1535308925	-1.0909512728	-0.25856
C	-2.3984368448	-0.1488531272	-0.0923376271	-0.02493
C	-1.3229453364	 0.9476383105	-0.105883546	 0.264077
C	-1.3073729371	 1.7404741095	-1.4083468156	-0.421913
O	-1.5719509193	 1.8890679257	 0.9424102554	-0.462559
H	 1.2706323963	 1.7508797899	 0.7631007784	 0.136481
H	 2.0819871142	 0.1809555287	 0.5531613714	 0.12362
H	 1.5878101167	 1.1339067482	-0.8538954838	 0.137353
H	 0.4403953505	-1.8875866543	 0.6537582859	 0.100725
H	-2.2462914279	-2.2412745554	 0.7604376123	 0.098595
H	-3.4167063614	 0.1220550624	 0.1777644646	 0.097796
H	-1.2084711519	 1.0603015891	-2.2568432833	 0.138403
H	-2.2405061823	 2.3022103166	-1.5081914831	 0.125453
H	-0.4802069796	 2.4552146406	-1.4185733295	 0.120442
H	-1.5037695096	 1.413316122	 1.7782274879	 0.277833
126.4239	183.07	207.6886	222.2795	243.214	264.108	342.9442	364.3346	435.6628	466.9394	475.8946	588.213	642.3593	683.364	751.2632	812.4144	865.3788	874.1789	922.9692	943.0435	985.7029	1008.8573	1034.1698	1061.337	1087.0624	1113.3365	1156.9839	1169.9557	1227.4645	1250.674	1294.2651	1335.4438	1366.2533	1402.8521	1404.4327	1414.2818	1474.8617	1487.0106	1489.9287	1499.9553	1691.6615	3026.2524	3049.6861	3078.8461	3115.6131	3119.4438	3140.2559	3142.0467	3168.3446	3198.4022	3795.5601
CC1=CC2OC2C1(C)O	CC1=C[C@@H]2O[C@@H]2[C@@]1(C)O	
InChI=1S/C7H10O2/c1-4-3-5-6(9-5)7(4,2)8/h3,5-6,8H,1-2H3	InChI=1S/C7H10O2/c1-4-3-5-6(9-5)7(4,2)8/h3,5-6,8H,1-2H3/t5-,6-,7-/m0/s1
