19
gdb 2410	2.1735588	1.8849262	1.3711504	1.6389	74.26	-0.24057	-0.02287	0.2177	1017.9908	0.157072	-422.577934	-422.569603	-422.568659	-422.610787	31.36	
C	-0.4795051406	 2.2903774635	 1.0019548149	-0.48461
C	-0.8202145283	 1.2173192512	-0.0140947191	 0.153186
C	-0.9303143754	 1.6225635412	-1.5099202199	-0.110209
O	-2.2011832955	 0.9598848091	-1.6440147536	-0.29928
C	-2.2658044689	 0.6932784182	-0.2208543283	 0.089258
C	-2.2846643258	-0.806314951	 0.0838799291	-0.240731
C	-0.8444202285	-1.274133484	-0.1854051301	-0.324855
C	 0.0252156614	-0.0554973468	 0.1406065771	 0.368945
O	 1.180523061	-0.0746442803	 0.4808595269	-0.325682
H	-0.7029192958	 1.957074888	 2.0208490681	 0.123134
H	 0.5899628343	 2.5169988194	 0.9604853628	 0.143909
H	-1.043346415	 3.208744631	 0.8129786702	 0.117156
H	-1.0125253389	 2.7081348705	-1.6546780218	 0.105398
H	-0.1756516066	 1.2263412213	-2.1997857556	 0.11261
H	-3.0795980556	 1.2524779277	 0.2541808822	 0.074592
H	-2.5458561992	-0.9530798424	 1.1389146069	 0.107433
H	-3.0337741276	-1.3232675836	-0.5212434541	 0.119296
H	-0.5233060909	-2.1465930971	 0.3859672279	 0.128193
H	-0.7042657642	-1.506935436	-1.2484345336	 0.142255
82.1866	153.6321	175.9755	215.5131	258.4151	290.4057	376.1108	475.0907	493.3738	603.684	635.3072	680.0371	781.3718	804.1946	875.0048	896.2032	904.5006	970.2515	982.179	1012.7835	1036.2355	1050.4465	1090.7241	1140.0598	1153.2675	1173.0088	1181.3252	1230.2237	1249.1867	1281.7029	1296.952	1328.0821	1358.4808	1374.2933	1409.642	1450.6448	1476.9874	1487.968	1493.9317	1527.076	1839.2106	3005.1278	3034.2687	3036.8076	3043.8095	3050.3793	3056.1379	3102.7404	3103.7317	3116.418	3122.8659
CC12COC1CCC2=O	C[C@]12CO[C@H]1CCC2=O	
InChI=1S/C7H10O2/c1-7-4-9-6(7)3-2-5(7)8/h6H,2-4H2,1H3	InChI=1S/C7H10O2/c1-7-4-9-6(7)3-2-5(7)8/h6H,2-4H2,1H3/t6-,7+/m0/s1
