19
gdb 5700	4.0174097	1.0243689	0.9745583	2.2441	76.86	-0.24426	0.08521	0.32947	1286.3366	0.155284	-422.476905	-422.468291	-422.467347	-422.510354	32.07	
C	 1.3161261101	-0.1320197648	-0.0712961343	-0.230823
O	-0.0857483351	-0.0175147903	 0.0764395524	-0.243004
C	-0.4583480848	 0.6351960453	 1.2488458635	 0.051501
C	-0.5179025375	-0.1467818457	 2.5454828511	-0.386614
C	-1.7783187319	 0.2580609626	 1.8256694599	 0.315056
C	-2.9214486701	 1.2180170537	 2.2458171792	-0.352695
C	-3.8892046833	 0.2532867627	 1.5324846352	 0.040031
O	-3.7501812564	-1.030129268	 2.1485380175	-0.249325
C	-2.7893163992	-0.6483923233	 1.1503520236	-0.050416
H	 1.7657108863	-0.7016820016	 0.7542410159	 0.111599
H	 1.4986935781	-0.6562895143	-1.0121425746	 0.128175
H	 1.799294405	 0.8557454341	-0.1141874861	 0.106992
H	-0.1491148846	 1.6819515225	 1.3000003655	 0.083622
H	-0.2422037239	-1.1957391583	 2.5067710071	 0.122881
H	-0.261723982	 0.3611558562	 3.469825606	 0.114313
H	-3.0992159968	 1.3376569671	 3.3176210355	 0.112005
H	-2.8502702672	 2.1982757799	 1.7662620092	 0.109823
H	-4.8283307866	 0.4734147453	 1.0390294407	 0.104551
H	-2.6548169903	-1.3017927331	 0.2982367729	 0.112328
86.6869	112.3208	163.402	177.5076	223.1748	311.6514	364.1397	419.1389	459.4048	594.5915	609.3621	777.1683	833.591	841.0429	857.5696	873.1454	907.4897	931.3628	975.9127	1014.5748	1025.5167	1037.4249	1046.4833	1078.1832	1110.0908	1161.398	1168.8508	1181.6589	1187.1261	1214.1108	1225.5034	1244.1925	1265.6998	1345.8352	1374.602	1415.6777	1468.8063	1472.1523	1485.7177	1495.4276	1508.9609	2985.1002	3037.6681	3057.2743	3070.4177	3114.8787	3119.4989	3125.6486	3187.675	3211.9099	3215.0314
COC1CC11CC2OC12	CO[C@@H]1C[C@]21C[C@@H]1O[C@H]21	
InChI=1S/C7H10O2/c1-8-5-3-7(5)2-4-6(7)9-4/h4-6H,2-3H2,1H3	InChI=1S/C7H10O2/c1-8-5-3-7(5)2-4-6(7)9-4/h4-6H,2-3H2,1H3/t4-,5+,6-,7-/m0/s1
