19
gdb 5300	2.7153162	1.6438382	1.2245121	3.1618	74.1	-0.2303	0.06414	0.29444000000000004	1048.202	0.157929	-422.504426	-422.496677	-422.495733	-422.536599	30.366	
O	 1.4228635736	 0.6390815786	 0.1519912024	-0.419586
C	 0.1374204751	 0.0271229645	 0.1083822612	-0.187602
C	-0.5995321492	 0.1321366284	 1.4222982425	 0.343298
C	-0.0310798879	-0.5310970577	 2.6768723575	-0.316235
C	-1.1117422071	-0.1413494243	 3.7313952168	-0.254214
C	-2.0655202662	 0.6590607054	 2.8544475083	-0.034333
C	-2.1607728932	 0.0087894223	 1.4442341332	 0.000199
O	-2.3091753736	 1.3255925973	 0.8099213833	-0.320618
C	-1.2566346724	 1.4958367969	 1.8232953505	 0.019508
H	 1.988699984	 0.0996702359	 0.7124733473	 0.283735
H	-0.4313150342	 0.5629675853	-0.6560240033	 0.129453
H	 0.2102447154	-1.0276429735	-0.2023916763	 0.082539
H	 0.0676189086	-1.6156061131	 2.5571105196	 0.100939
H	 0.9582417574	-0.1380397698	 2.9333737491	 0.100009
H	-1.5953333173	-1.0150658629	 4.1785463661	 0.10565
H	-0.702487384	 0.4589443067	 4.5494315635	 0.106897
H	-2.9693212702	 1.0979200862	 3.2752247975	 0.079998
H	-2.7999687588	-0.8023758202	 1.0905679015	 0.086399
H	-0.7969765801	 2.4796930541	 1.9217198894	 0.093963
93.4887	157.9272	229.6991	267.8539	323.1314	340.082	416.5608	545.9709	656.0535	692.4976	713.9465	750.7123	803.3458	823.4036	886.3453	901.6332	915.768	935.3948	943.385	1011.7307	1031.5123	1060.2543	1063.5819	1082.7818	1137.7286	1145.0962	1170.6936	1185.5565	1222.3071	1226.1318	1253.4974	1271.3107	1280.8664	1293.3297	1345.9178	1363.7707	1383.4104	1415.7489	1487.6587	1499.0487	1509.8315	2974.4441	3036.9486	3054.466	3072.0171	3096.4524	3099.2399	3100.4036	3115.6735	3136.6161	3824.9074
OCC12CCC3C1OC23	OC[C@]12CC[C@@H]3[C@H]1O[C@H]23	
InChI=1S/C7H10O2/c8-3-7-2-1-4-5(7)9-6(4)7/h4-6,8H,1-3H2	InChI=1S/C7H10O2/c8-3-7-2-1-4-5(7)9-6(4)7/h4-6,8H,1-3H2/t4-,5-,6+,7-
