19
gdb 5425	1.4993147	1.2868177	0.7456466	3.3984	80.53	-0.26108	-0.04757	0.21350999999999998	1517.7543	0.154076	-422.567117	-422.557191	-422.556247	-422.602859	34.514	
C	 2.4696826808	 0.0219811028	 0.8997046042	-0.378573
C	 2.3072303011	-1.1196796531	-0.10999357	-0.214852
C	 2.5090028478	-0.6476141286	-1.5382349224	-0.019533
C	 1.3632416487	-0.0715535663	-2.3314848448	-0.131055
C	 1.5877979678	 1.1146868157	-3.1922359364	 0.1661
O	 0.768706514	 1.9720477078	-3.4032327342	-0.258508
C	 2.025926529	-1.3964936527	-2.758281847	-0.157006
C	 1.2152609185	-2.6367749565	-2.66359933	 0.166212
O	 1.3079376271	-3.5545947744	-3.4394634015	-0.259521
H	 2.3369510368	-0.34061093	 1.9229388408	 0.122804
H	 3.4660981997	 0.471653741	 0.8313578799	 0.121676
H	 1.7345192844	 0.8136184277	 0.7233564973	 0.128862
H	 3.0333332271	-1.9129281468	 0.1063177253	 0.116334
H	 1.3161010472	-1.5703824937	 0.0046717101	 0.108609
H	 3.4652351321	-0.1526419054	-1.7017285939	 0.106572
H	 0.3688837779	-0.1399338056	-1.9001743607	 0.115059
H	 2.6085714753	 1.1617907896	-3.6409014699	 0.072573
H	 2.6621355928	-1.3662133648	-3.637638359	 0.116591
H	 0.4902241718	-2.6681733667	-1.8205397977	 0.077656
68.551	72.9196	107.8295	169.1142	174.3509	228.6169	236.7659	284.6851	335.5527	409.6331	448.3778	492.8774	557.7254	757.8301	811.3747	881.6245	917.7235	957.0623	997.9814	1038.9003	1043.3686	1059.1456	1065.2887	1109.4216	1133.8209	1181.5806	1184.8006	1217.1949	1261.753	1302.8181	1339.1756	1360.8782	1413.8398	1422.2656	1436.2159	1462.4019	1486.8084	1500.0098	1507.0208	1817.3902	1825.2831	2850.7109	2884.4739	3033.6492	3037.7434	3070.4065	3106.7073	3114.4768	3121.7836	3165.7775	3167.6927
CCC1C(C=O)C1C=O	CC[C@@H]1[C@@H](C=O)[C@@H]1C=O	
InChI=1S/C7H10O2/c1-2-5-6(3-8)7(5)4-9/h3-7H,2H2,1H3	InChI=1S/C7H10O2/c1-2-5-6(3-8)7(5)4-9/h3-7H,2H2,1H3/t6-,7-/m1/s1
