19
gdb 4852	2.2810603	1.6225793	1.2749027	4.0351	76.09	-0.23411	-0.01145	0.22266000000000002	1083.9961	0.154803	-422.535519	-422.526286	-422.525342	-422.569349	33.843	
C	 1.3533096967	-0.1373563909	-0.2289907144	-0.251774
O	-0.0322304555	 0.0627487075	-0.0250490391	-0.282169
C	-0.3816365717	 0.6871450787	 1.1900922036	 0.273164
C	 0.0561618784	 2.1478974866	 1.267564098	-0.459302
C	-0.1332036969	-0.1302067056	 2.4821421304	-0.095695
C	-0.7725839692	-1.4644048674	 2.3569167825	-0.29378
C	-1.6653237273	-0.282769008	 2.7164522525	-0.180175
C	-1.9117158588	 0.5491458472	 1.5015773155	 0.389223
O	-2.8718775651	 1.1025945867	 1.0463850714	-0.326915
H	 1.8136099264	-0.6805453212	 0.6091184337	 0.110614
H	 1.4531760658	-0.7393312738	-1.135097559	 0.132391
H	 1.896166948	 0.8059215	-0.3758833805	 0.113263
H	-0.3150417759	 2.6136326422	 2.185184207	 0.126963
H	 1.1462543096	 2.2418500176	 1.2642836157	 0.118385
H	-0.3504856972	 2.6962425843	 0.4142112788	 0.144753
H	 0.5980336194	 0.1127341168	 3.2423765561	 0.102013
H	-0.858819543	-1.9276115134	 1.3801756295	 0.140994
H	-0.6155088693	-2.1567081291	 3.1772859115	 0.125235
H	-2.2317654044	-0.2656805482	 3.6390701169	 0.112813
82.9093	118.2962	172.4216	184.3495	204.3796	261.8929	274.1061	331.8284	356.4163	494.4482	568.8482	618.7955	677.5959	739.3588	815.1843	834.7219	894.9556	917.1948	945.1801	946.9915	995.0404	1049.6245	1074.56	1098.5722	1113.8471	1148.6532	1160.6492	1179.6588	1193.0681	1224.4345	1234.4917	1299.6962	1326.4768	1399.9293	1472.2571	1481.7377	1485.6179	1488.9294	1502.7618	1508.3357	1883.2777	2992.5146	3041.6101	3049.4394	3111.4911	3117.9901	3129.9271	3134.849	3194.1398	3201.4061	3222.6493
COC1(C)C2CC2C1=O	CO[C@]1(C)[C@@H]2C[C@@H]2C1=O	
InChI=1S/C7H10O2/c1-7(9-2)5-3-4(5)6(7)8/h4-5H,3H2,1-2H3	InChI=1S/C7H10O2/c1-7(9-2)5-3-4(5)6(7)8/h4-5H,3H2,1-2H3/t4-,5+,7+/m0/s1
