19
gdb 5089	3.6040691	1.1138719	1.0866786	1.8711	75.26	-0.22803	0.05754	0.28557	1211.5575	0.155134	-422.482497	-422.473676	-422.472732	-422.515933	33.483	
C	 4.5953215851	-2.34430714	 2.9372972668	-0.494103
C	 3.8927934506	-2.4404316773	 1.6156349895	 0.314497
C	 3.7084029161	-3.6989836875	 0.8124435875	-0.333257
C	 2.4897491266	-2.9406078453	 1.2791481788	-0.181696
C	 2.2569980014	-1.6467242309	 0.4374589124	 0.405927
C	 0.9615489964	-0.946896294	 0.1890487685	-0.184873
O	 0.1173964057	-1.6835201646	-0.6817839477	-0.412853
O	 3.2557698028	-1.5844068665	-0.6072540878	-0.292109
C	 3.609975574	-1.1801961552	 0.7239100448	-0.130143
H	 4.4598470488	-3.2615018499	 3.5191114228	 0.123091
H	 5.6735907104	-2.1894929053	 2.8071696698	 0.122723
H	 4.2114920686	-1.5111061559	 3.5382305798	 0.117368
H	 3.9616878967	-3.732177229	-0.2396808218	 0.131398
H	 3.9030858545	-4.6141058645	 1.363819901	 0.109129
H	 1.7446159015	-3.3589889163	 1.9432898239	 0.094839
H	 0.4076481317	-0.8410811352	 1.1280598358	 0.115038
H	 1.1718174688	 0.0616726161	-0.1974450518	 0.099066
H	 0.6058037473	-1.8165535889	-1.5017670542	 0.29339
H	 4.023227453	-0.1854751899	 0.8529258217	 0.102568
67.6836	115.2319	199.9494	209.6472	281.0189	293.0809	375.4767	399.7985	440.9309	469.9298	541.9013	643.5002	681.4891	758.6416	801.7317	835.7281	904.7443	913.7358	943.2591	963.061	969.1504	997.0033	1012.7353	1067.4667	1083.9562	1101.0758	1120.568	1146.5467	1190.1851	1222.5368	1250.7957	1295.1754	1361.7824	1379.4305	1417.4003	1421.1446	1465.2044	1483.7766	1485.9149	1488.9324	1499.9037	2995.8622	3017.2462	3072.1646	3074.9065	3097.7543	3136.5257	3174.1393	3199.8415	3228.6765	3806.369
CC12CC1C1(CO)OC21	C[C@@]12C[C@@H]1[C@]1(CO)O[C@H]21	
InChI=1S/C7H10O2/c1-6-2-4(6)7(3-8)5(6)9-7/h4-5,8H,2-3H2,1H3	InChI=1S/C7H10O2/c1-6-2-4(6)7(3-8)5(6)9-7/h4-5,8H,2-3H2,1H3/t4-,5+,6+,7-/m0/s1
