19
gdb 3057	2.4430812	1.8352148	1.5503783	1.748	74.82	-0.23556	0.057	0.29256	957.0528	0.157893	-422.477046	-422.469336	-422.468391	-422.50896	30.615	
O	 0.7656664458	-0.1169220488	 0.8328108354	-0.428243
C	-0.4884500722	 0.4966787089	 0.9642596795	 0.08345
C	-1.4920311217	 0.1288644303	 2.0881522991	-0.064001
O	-2.1104424442	 1.4695627855	 1.829847442	-0.367912
C	-0.6394732945	 1.7067663195	 1.9294261107	 0.406925
C	 0.2785487531	 2.8763328225	 2.1312913625	-0.371399
C	 1.4473855968	 2.1471955892	 2.9052214349	-0.195065
C	 0.9005226966	 0.7891255762	 3.5257521755	-0.274847
C	-0.5907753086	 0.8215762422	 3.1651948694	 0.005545
H	 0.6795350818	-0.8460394048	 0.2115098221	 0.291597
H	-0.977999575	 0.6690976499	-0.0001220524	 0.084145
H	-2.1929253889	-0.7033548414	 2.1736663769	 0.085466
H	 0.6281277575	 3.3619945766	 1.2170413289	 0.10746
H	-0.2034112801	 3.6298220106	 2.7623872303	 0.11682
H	 2.2575597078	 1.9242897278	 2.2077347656	 0.120223
H	 1.8574651752	 2.8037919703	 3.6764256979	 0.102393
H	 1.436631508	-0.0535982318	 3.0953444172	 0.125439
H	 1.0435510426	 0.7646340575	 4.6087664838	 0.09267
H	-1.21266126	 1.2210637298	 3.9707995808	 0.079334
93.3778	199.7735	215.4979	270.1301	328.3833	396.5321	435.0748	536.9639	607.574	687.292	688.267	709.1172	754.393	818.8455	855.3958	872.8744	894.0933	940.8669	950.9024	966.4432	1007.3447	1060.0877	1079.0023	1115.041	1137.6793	1163.981	1190.6227	1194.5156	1214.9179	1237.7032	1250.8191	1266.0399	1293.9997	1305.056	1314.1763	1352.8798	1372.0898	1451.1116	1478.5251	1488.8592	1503.0367	3053.6548	3055.606	3066.1159	3070.3984	3081.1032	3100.5516	3103.5418	3118.8614	3157.2674	3827.5739
OC1C2OC11CCCC21	O[C@H]1[C@@H]2O[C@@]31CCC[C@H]23	
InChI=1S/C7H10O2/c8-6-5-4-2-1-3-7(4,6)9-5/h4-6,8H,1-3H2	InChI=1S/C7H10O2/c8-6-5-4-2-1-3-7(4,6)9-5/h4-6,8H,1-3H2/t4-,5-,6+,7+/m1/s1
