19
gdb 6009	5.6925986	0.850116	0.8408494	2.2441	75.99	-0.23198	0.07636	0.30834	1422.7453	0.155906	-422.444873	-422.436649	-422.435705	-422.478392	30.431	
C	 1.5676626607	-0.0911773153	-0.0662345693	-0.224789
O	 0.1644391234	-0.0773922679	 0.0343220201	-0.232803
C	-0.3014248567	 0.6315498741	 1.1634433566	-0.081039
C	-1.8142125797	 0.5570462091	 1.1784789047	-0.046449
C	-2.5937279782	 1.5406891719	 2.0821031232	-0.114756
C	-2.4951407823	 2.7026600472	 1.0395916366	 0.086063
O	-3.9261105524	 2.9809617395	 1.0305298405	-0.328734
C	-3.8270794488	 1.5297579734	 1.1254134113	 0.084079
C	-2.6054845894	 1.4120262931	 0.1624562069	-0.085577
H	 2.0362981865	-0.5689204168	 0.8091413954	 0.103061
H	 1.8270712095	-0.6626278276	-0.960816435	 0.127573
H	 1.9822041863	 0.9252994543	-0.1620055354	 0.102843
H	 0.1137230774	 0.194350083	 2.0888902059	 0.084737
H	 0.0390849045	 1.6815208302	 1.1251194732	 0.081302
H	-2.1381873687	-0.4872965378	 1.2430172357	 0.078338
H	-2.6118330481	 1.6359667807	 3.1680753917	 0.082882
H	-1.8055081525	 3.5434451103	 0.980524118	 0.097293
H	-4.7414805507	 0.9391399581	 1.1728390932	 0.096804
H	-2.6318163508	 1.3594707906	-0.9249053833	 0.089173
66.5634	93.721	131.3093	213.9543	252.6825	342.788	371.3664	547.9001	580.7269	747.8016	764.2243	797.9442	828.2165	846.3328	882.2808	900.3288	934.0667	966.9188	1005.023	1029.9005	1049.3606	1108.0474	1110.1072	1133.2953	1152.3618	1162.2451	1170.0794	1172.3149	1183.9163	1187.7693	1218.9103	1240.3825	1267.2863	1279.914	1336.5122	1381.2024	1436.4534	1481.4327	1485.6662	1502.4652	1524.8477	2940.3087	2965.7367	2968.6226	3010.1909	3054.6487	3113.1065	3113.2704	3124.1802	3127.4421	3142.5531
COCC1C2C3OC2C13	COC[C@H]1[C@H]2[C@@H]3O[C@H]2[C@H]13	
InChI=1S/C7H10O2/c1-8-2-3-4-6-5(3)7(4)9-6/h3-7H,2H2,1H3	InChI=1S/C7H10O2/c1-8-2-3-4-6-5(3)7(4)9-6/h3-7H,2H2,1H3/t3-,4-,5+,6-,7+
