19
gdb 5009	2.8954268	1.6397774	1.3434396	0.7705	73.77	-0.24001	0.08044	0.32045	1009.853	0.157615	-422.502132	-422.49455	-422.493606	-422.534019	30.094	
C	 1.4983902438	-0.1036858047	-0.0809206778	-0.26576
O	 0.0875939461	-0.0347363686	 0.0139578223	-0.299976
C	-0.3668380386	 0.6362830321	 1.1367353927	 0.41733
C	-1.8950155171	 0.6132546289	 1.4553962621	-0.279442
C	-1.3740717476	 1.0685800154	 2.8633215854	-0.091162
C	-0.1516385877	 0.1436373733	 2.6021342838	-0.290733
C	-0.8243910628	 2.4654632943	 2.4914820003	 0.047809
O	 0.6063702628	 2.5845457469	 2.4390144434	-0.256099
C	-0.0997755329	 2.165600464	 1.2592862457	-0.043618
H	 1.9350632702	-0.6490026734	 0.7672875331	 0.11674
H	 1.7304992744	-0.6376295696	-1.0048014587	 0.128238
H	 1.9542179838	 0.8959876397	-0.1208571316	 0.117181
H	-2.5396142419	 1.3010266924	 0.9003130222	 0.095403
H	-2.3108859917	-0.3968390838	 1.4474896358	 0.10562
H	-1.9819175457	 0.9760517269	 3.7608327268	 0.072594
H	 0.7835472048	 0.3762376189	 3.1068676397	 0.118491
H	-0.4173776704	-0.9097846594	 2.7030924913	 0.100243
H	-1.3751078975	 3.3791741879	 2.6876865321	 0.102882
H	-0.0305535919	 2.8051726687	 0.3854291314	 0.104261
100.7248	177.1371	182.9972	354.8308	367.112	406.4001	453.5084	522.1042	579.1358	622.1149	683.9637	793.3978	815.5862	856.97	882.7958	901.7173	945.02	961.1338	972.1565	996.8059	1035.7743	1047.775	1070.1605	1088.7376	1101.0667	1161.4673	1182.8883	1194.3209	1210.6559	1232.2544	1232.695	1244.6742	1263.5479	1288.9781	1323.2251	1400.4843	1476.1979	1484.507	1488.0202	1507.1206	1518.0425	2993.0096	3045.1729	3055.6975	3091.6717	3122.6732	3123.1784	3137.7739	3166.5409	3166.9219	3179.2385
COC12CC(C1)C1OC21	CO[C@@]12C[C@@H](C1)[C@H]1O[C@@H]21	
InChI=1S/C7H10O2/c1-8-7-2-4(3-7)5-6(7)9-5/h4-6H,2-3H2,1H3	InChI=1S/C7H10O2/c1-8-7-2-4(3-7)5-6(7)9-5/h4-6H,2-3H2,1H3/t4-,5-,6-,7-/m1/s1
