19
gdb 4304	3.275401	1.0445993	0.8770638	3.6895	79.58	-0.23842	-0.04489	0.19352999999999998	1348.6201	0.155717	-422.592802	-422.583531	-422.582587	-422.627365	33.783	
C	 5.6776395674	 0.2803095087	 4.2213927295	-0.489312
C	 5.6790743256	-0.2080865869	 2.7829975981	 0.284382
O	 6.7064312794	-0.5605545332	 2.2371688371	-0.309397
C	 4.3716604602	-0.236969931	 2.0740479074	 0.246726
C	 4.2366530707	-0.6417025203	 0.8036436824	-0.124052
C	 2.8197088222	-0.5504313172	 0.3181302898	-0.262111
C	 2.0026324958	-0.3072947454	 1.6069369488	 0.116956
O	 1.4614580401	-1.5687971317	 1.9802033958	-0.435429
C	 3.0381679932	 0.2058370977	 2.6454921561	-0.362362
H	 5.0557307437	-0.3713419651	 4.8462671863	 0.137921
H	 6.6982185918	 0.2863350304	 4.6049653646	 0.139603
H	 5.2495421102	 1.2869463173	 4.290059313	 0.134114
H	 5.0668290642	-0.9759921428	 0.1928399998	 0.123388
H	 2.7049651335	 0.2739459637	-0.3987888895	 0.115094
H	 2.4698532307	-1.4583994623	-0.1839505905	 0.131151
H	 1.194964025	 0.4202322705	 1.4494963075	 0.065651
H	 0.9726109381	-1.4524238118	 2.8011805193	 0.281274
H	 2.9914313039	 1.2989506922	 2.7466145885	 0.107951
H	 2.8254144743	-0.2099836929	 3.637543096	 0.098451
54.9888	80.253	154.1188	187.7586	192.0989	308.461	349.6489	381.534	409.3675	425.3325	496.4124	602.7418	617.1644	767.1394	818.4878	845.3596	877.0228	908.8774	953.1602	965.5879	993.9311	1027.7762	1044.6806	1070.4828	1083.3806	1168.4284	1205.4973	1233.5207	1259.9174	1276.3316	1313.4381	1325.7845	1368.9739	1380.1478	1421.9445	1458.9534	1462.3826	1473.6875	1476.8085	1666.4818	1775.1571	2998.4534	3014.8906	3025.8589	3032.8906	3054.2877	3078.0168	3091.7743	3153.6334	3215.4285	3815.9197
CC(=O)C1=CCC(O)C1	CC(=O)C1=CC[C@@H](O)C1	
InChI=1S/C7H10O2/c1-5(8)6-2-3-7(9)4-6/h2,7,9H,3-4H2,1H3	InChI=1S/C7H10O2/c1-5(8)6-2-3-7(9)4-6/h2,7,9H,3-4H2,1H3/t7-/m1/s1
