19
gdb 5418	2.3206797	1.4645636	0.9804066	4.4764	78.	-0.24821	-0.05668	0.19152999999999998	1218.2133	0.157265	-422.597292	-422.588499	-422.587555	-422.630949	32.721	
C	-3.2175164587	-1.1208331155	 1.1760552643	-0.403988
C	-2.3233629326	-0.5980261046	 0.0428622614	-0.060727
C	-2.0738211151	 0.8917159337	 0.1202218918	-0.047331
C	-0.7794881174	 1.2259514308	 0.0450673905	-0.181709
C	 0.037178553	 0.0069898565	-0.1124893079	 0.38299
O	 1.2307102734	-0.0552328236	-0.3426932329	-0.362147
C	-0.9007865799	-1.2009886545	 0.0130774347	-0.141645
C	-0.6212919083	-2.2266876178	-1.0987243013	-0.066056
O	 0.6723211929	-2.7708109096	-0.9942503037	-0.42735
H	-3.3648148652	-2.2012149508	 1.0851520324	 0.129174
H	-2.7669990729	-0.9212231154	 2.1538157103	 0.126075
H	-4.2033937608	-0.6449419336	 1.1544215282	 0.11877
H	-2.831649224	-0.8083454053	-0.9107110346	 0.098084
H	-2.8955579879	 1.5951229555	 0.2175815871	 0.118418
H	-0.3549957845	 2.2215490326	 0.0520743622	 0.121161
H	-0.6763408165	-1.6878199085	 0.970914387	 0.11186
H	-1.3303327676	-3.0594390819	-1.0241705512	 0.103594
H	-0.788805564	-1.7467465826	-2.0794991317	 0.083959
H	 1.2751018258	-2.0171936255	-0.9025479468	 0.296867
58.2463	148.1031	188.1075	222.2778	245.6543	247.6833	311.0169	404.3147	475.2774	526.3979	579.2794	601.8086	696.6051	741.1979	786.9983	843.8813	877.9212	954.7644	1003.4673	1004.8539	1035.4862	1065.6925	1095.9046	1105.9017	1116.0216	1157.2097	1192.596	1206.2328	1256.0635	1292.5225	1327.9069	1336.8034	1369.4553	1384.5313	1412.2071	1468.2077	1496.7678	1498.5115	1514.4527	1643.414	1780.0265	2944.8338	2989.7124	3032.7712	3035.1596	3053.2379	3103.5865	3110.0372	3180.3136	3227.5432	3703.3592
CC1C=CC(=O)C1CO	C[C@H]1C=CC(=O)[C@@H]1CO	
InChI=1S/C7H10O2/c1-5-2-3-7(9)6(5)4-8/h2-3,5-6,8H,4H2,1H3	InChI=1S/C7H10O2/c1-5-2-3-7(9)6(5)4-8/h2-3,5-6,8H,4H2,1H3/t5-,6+/m0/s1
