19
gdb 5988	5.1385898	0.7431981	0.6870018	5.556	80.13	-0.26279	-0.03679	0.22600000000000003	1654.761	0.157015	-422.61085	-422.6018	-422.600856	-422.645684	32.327	
C	 2.2434001195	-1.0325897137	-1.0966411945	-0.380804
C	 1.7219384663	-0.2986993776	 0.1406406029	-0.168287
C	 2.0789304961	 1.2030118264	 0.1254143305	-0.303308
C	 1.6006438361	 1.9432354092	 1.3331011923	 0.322009
C	 2.3036856459	 2.5181933763	 2.313051437	-0.377349
C	 1.3827765923	 3.1299937149	 3.2942488561	 0.459505
O	 1.6108583294	 3.7330909444	 4.3038201416	-0.351469
O	 0.0969207952	 2.8945920092	 2.8524074881	-0.234307
C	 0.1381484011	 2.159251808	 1.6364491287	-0.166128
H	 1.9835045707	-2.0946483969	-1.0632438118	 0.120872
H	 1.8187735271	-0.6132173529	-2.0153127189	 0.119003
H	 3.3336623016	-0.9577562413	-1.171147033	 0.121153
H	 0.6337622417	-0.417425919	 0.2061892662	 0.104957
H	 2.1366636035	-0.752904251	 1.0481737292	 0.112645
H	 3.1649290526	 1.3169640415	 0.0388437005	 0.116647
H	 1.6422950228	 1.658423111	-0.7748402555	 0.114644
H	 3.3768848869	 2.5705175463	 2.4260958835	 0.125351
H	-0.4107401936	 1.2181070686	 1.7673021076	 0.133577
H	-0.3652247051	 2.7328501867	 0.8465930294	 0.131288
44.8544	82.6017	108.8243	203.7558	246.7203	259.3733	302.0871	308.7495	481.7518	529.5459	655.6362	709.7677	742.9429	748.3088	867.2778	875.2208	890.5093	908.9977	930.3481	1010.6184	1039.6626	1063.1226	1104.0234	1113.7369	1142.7451	1183.7658	1208.2084	1250.8431	1308.7527	1316.979	1344.7806	1376.7206	1380.4478	1415.3669	1480.5976	1490.6008	1494.2536	1499.9787	1510.2968	1696.4155	1873.0855	3009.4434	3019.3062	3031.5153	3034.4291	3051.8985	3058.6377	3078.054	3102.9941	3109.5225	3244.7018
CCCC1=CC(=O)OC1	CCCC1=CC(=O)OC1	
InChI=1S/C7H10O2/c1-2-3-6-4-7(8)9-5-6/h4H,2-3,5H2,1H3	InChI=1S/C7H10O2/c1-2-3-6-4-7(8)9-5-6/h4H,2-3,5H2,1H3
