19
gdb 5137	3.4187447	1.1557753	0.9763975	4.383	74.9	-0.26779	0.01058	0.27836999999999995	1246.5021	0.156938	-422.592556	-422.584108	-422.583164	-422.625782	31.893	
C	 1.8163582137	 1.6784659188	 0.3620230999	-0.37616
C	 1.2510184145	 1.035023629	-0.9103627296	-0.280983
C	 2.1040688653	-0.0979026028	-1.4387268487	 0.329598
C	 1.9456629783	-1.5015110057	-0.8697465929	-0.358669
C	 1.5472009221	-1.2103901566	-2.2876154817	 0.044083
O	 2.4778717566	-1.5750609861	-3.288084118	-0.21846
C	 3.6135178298	-0.8169639428	-3.193497684	 0.427634
O	 4.5512013177	-0.9821578859	-3.9143306851	-0.327065
C	 3.4569696698	 0.2014443001	-2.0580684669	-0.449735
H	 1.9148140791	 0.9410597908	 1.1653853027	 0.121664
H	 2.8068947977	 2.1101121334	 0.1841867623	 0.122314
H	 1.163814932	 2.480967323	 0.7183410853	 0.117679
H	 0.240620254	 0.6574049648	-0.7098564142	 0.099308
H	 1.1424864541	 1.798099575	-1.6926617928	 0.102905
H	 2.8251972946	-2.1183054396	-0.7123155398	 0.126076
H	 1.1495824763	-1.6515159082	-0.1479695208	 0.121733
H	 0.5227274238	-1.2658113256	-2.6341027791	 0.114937
H	 4.3091096967	 0.1096060612	-1.3789866702	 0.143851
H	 3.4954882339	 1.2077654073	-2.4900385464	 0.139292
86.573	104.7578	162.3195	220.7839	288.6907	342.684	376.2029	450.0197	484.0339	560.1257	617.8761	686.7646	738.5958	791.4589	823.6685	876.9839	908.449	923.8591	968.8749	1004.4854	1024.9741	1036.774	1062.5572	1091.1266	1122.9904	1135.1535	1159.4619	1183.2036	1241.6731	1263.9697	1309.2548	1350.7797	1368.3343	1405.7086	1412.8659	1459.2464	1477.3274	1488.4593	1499.0506	1506.9995	1888.4226	3015.3849	3036.2565	3050.3819	3053.7242	3098.387	3105.0194	3109.9522	3125.3789	3192.39	3216.1923
CCC12CC1OC(=O)C2	CC[C@@]12C[C@@H]1OC(=O)C2	
InChI=1S/C7H10O2/c1-2-7-3-5(7)9-6(8)4-7/h5H,2-4H2,1H3	InChI=1S/C7H10O2/c1-2-7-3-5(7)9-6(8)4-7/h5H,2-4H2,1H3/t5-,7-/m0/s1
