19
gdb 4042	2.3793513	1.7617866	1.493421	2.3543	73.48	-0.23037	0.06614	0.29651	978.0839	0.157771	-422.540555	-422.532509	-422.531565	-422.572714	31.761	
O	 0.5437289488	 0.7734214895	 0.5790545225	-0.445718
C	-0.8198775041	 1.131723092	 0.3988015171	 0.142523
C	-1.6949692758	-0.0772724146	-0.0519661818	-0.267016
C	-2.3345587725	-0.5563095863	 1.2511171128	-0.133317
C	-3.2746506789	 0.4056576325	 2.0174660931	-0.149647
C	-2.9941508779	 1.8417018122	 1.5785275329	-0.242712
C	-1.4627960429	 1.555857622	 1.7259378928	-0.111413
C	-1.8245604929	 0.2173150505	 2.4242194972	 0.380675
O	-1.1622148681	-0.2305145198	 3.5555827483	-0.474986
H	 0.5980563894	 0.2140901183	 1.3628835734	 0.284951
H	-0.8142991771	 1.9357185013	-0.3434676456	 0.080359
H	-2.4398402594	 0.212566701	-0.8011439311	 0.100158
H	-1.0528018139	-0.8377856483	-0.504575703	 0.105822
H	-2.5761556275	-1.6063295392	 1.3893168192	 0.076369
H	-4.1906373287	 0.030291236	 2.4593910279	 0.084203
H	-3.3412495441	 2.1526581498	 0.5866946736	 0.093049
H	-3.3395952253	 2.5683078522	 2.3175135658	 0.107432
H	-0.880895338	 2.2847380016	 2.288745796	 0.082442
H	-1.341774841	-1.1697270808	 3.6677474488	 0.286826
113.1311	147.7876	219.8478	293.5709	322.9292	351.6385	404.5891	422.1298	485.5009	600.4564	686.2839	723.1099	739.7285	825.0734	839.7708	884.5041	914.8878	940.8972	950.7358	980.7232	1015.2722	1021.2336	1045.8745	1073.2923	1093.4566	1100.6535	1117.5774	1163.3574	1194.0515	1222.0842	1256.7396	1271.6737	1281.7907	1288.4709	1308.0974	1325.4622	1370.379	1430.8647	1457.6834	1481.5583	1502.8807	3035.2804	3044.573	3070.2839	3095.4285	3101.2486	3126.9347	3153.8205	3176.0181	3790.3637	3816.0648
OC1CC2C3CC1C23O	O[C@H]1C[C@@H]2[C@@H]3C[C@H]1[C@]23O	
InChI=1S/C7H10O2/c8-6-2-4-3-1-5(6)7(3,4)9/h3-6,8-9H,1-2H2	InChI=1S/C7H10O2/c8-6-2-4-3-1-5(6)7(3,4)9/h3-6,8-9H,1-2H2/t3-,4+,5+,6-,7+/m0/s1
