19
gdb 578	3.5793833	1.5658297	1.4332102	1.6976	73.62	-0.22764	0.08245	0.31009	965.8235	0.160693	-422.537153	-422.530556	-422.529612	-422.567746	27.344	
C	 3.2500175526	-0.2649712385	 0.7721137429	-0.09804
O	 2.5889693224	-0.2169354791	-0.520008689	-0.284979
C	 1.287635711	 0.2597402704	-0.173802587	 0.05468
C	 0.8983186126	-0.5515760925	 1.0985550269	-0.024661
C	-0.4242689501	-0.1164766143	 1.7372218146	-0.260532
C	-0.6980249563	 1.3486795381	 1.378349035	-0.067453
O	 0.4969944614	 2.1201804752	 1.3664979347	-0.281603
C	 1.5926446819	 1.4383336485	 0.8067190135	 0.134802
C	 2.1256622147	 0.2397296553	 1.6683530108	-0.101486
H	 3.5665236197	-1.2920048643	 0.9909174177	 0.101662
H	 4.1328778375	 0.3854622521	 0.7628904062	 0.102949
H	 0.6763777486	 0.3405521248	-1.0717724012	 0.082949
H	 1.0012886214	-1.6379359864	 1.0269415622	 0.070185
H	-1.252648571	-0.7360284731	 1.3756997216	 0.103233
H	-0.3710920435	-0.2538446591	 2.8237725407	 0.106301
H	-1.1722502906	 1.3980899516	 0.3861293052	 0.09719
H	-1.3725103399	 1.8308493583	 2.0909557319	 0.108827
H	 2.3148579279	 2.1876479988	 0.4733576124	 0.083517
H	 2.3092612598	 0.3396536943	 2.7380035508	 0.072459
212.4889	255.3692	315.2123	359.8578	368.9051	461.547	529.2683	648.3286	671.6466	792.6961	847.7638	889.1804	902.013	925.6315	943.4427	957.9661	963.9744	992.4545	1012.32	1029.7123	1059.0346	1085.8806	1103.5646	1124.8115	1148.9093	1174.8996	1207.2306	1217.8682	1237.0651	1255.9213	1262.9806	1271.0923	1294.4939	1331.1514	1355.0077	1360.4859	1403.7473	1416.4249	1489.3325	1514.9649	1527.7092	2984.025	3018.5097	3029.7689	3057.2628	3066.7423	3073.7335	3084.3501	3089.9862	3122.8174	3131.5315
C1OC2C3CCOC2C13	C1O[C@H]2[C@@H]3CCO[C@H]2[C@H]13	
InChI=1S/C7H10O2/c1-2-8-7-5-3-9-6(7)4(1)5/h4-7H,1-3H2	InChI=1S/C7H10O2/c1-2-8-7-5-3-9-6(7)4(1)5/h4-7H,1-3H2/t4-,5-,6+,7+/m1/s1
