19
gdb 416	2.2634429	1.9597098	1.3026604	1.1051	74.95	-0.23218	0.08314	0.31532	1025.1156	0.156567	-422.517161	-422.50908	-422.508136	-422.550014	31.281	
C	 0.8730358388	 1.0892124055	-0.1968784619	-0.330623
C	 1.5890247794	-0.2537017569	-0.1898954595	-0.346679
C	 0.1177980122	-0.2003817975	 0.0002922617	 0.339106
O	-0.7037635022	-0.6627178006	-1.0488675247	-0.273446
C	-2.0090823357	-0.4212402069	-0.5811280442	 0.009645
O	-2.0023852723	-0.6542005428	 0.8162887152	-0.309102
C	-0.6550723282	-0.5571566415	 1.2450267119	 0.39443
C	-0.3785575804	-0.0506056578	 2.6221390735	-0.337674
C	-0.2013975189	-1.5274529521	 2.2929370608	-0.323233
H	 1.0079910617	 1.7515213798	 0.6510927381	 0.117973
H	 0.7545465734	 1.5825066103	-1.1549651455	 0.123157
H	 1.9458010844	-0.6399172256	-1.1379096718	 0.131879
H	 2.2101014807	-0.5052052153	 0.6637235865	 0.119274
H	-2.3116546293	 0.620796929	-0.7842885531	 0.087239
H	-2.6952566036	-1.1192515072	-1.0699103681	 0.117329
H	 0.5080041495	 0.5527806828	 2.7918989414	 0.113365
H	-1.2372285148	 0.2299273278	 3.2214048615	 0.127342
H	 0.8046397483	-1.9287885162	 2.2334350229	 0.115548
H	-0.948282633	-2.2151481248	 2.6734020155	 0.124469
47.6378	170.0681	213.382	221.6935	305.8826	359.3963	413.7169	509.9754	564.2347	573.4424	740.8266	761.5112	766.4233	842.5406	873.0742	880.845	905.7674	953.6026	969.4378	980.1369	1000.6625	1030.2923	1049.4976	1055.027	1072.6697	1079.057	1108.4094	1169.8727	1178.3737	1187.3351	1190.0839	1233.6421	1259.899	1325.6451	1417.1907	1431.8438	1447.0278	1452.6001	1495.2739	1509.0617	1544.9482	2949.0024	3081.8806	3126.4226	3131.8689	3133.3795	3136.7793	3213.5409	3217.8149	3228.2062	3232.4591
C1CC11OCOC11CC1	C1CC21OCOC12CC1	
InChI=1S/C7H10O2/c1-2-6(1)7(3-4-7)9-5-8-6/h1-5H2	InChI=1S/C7H10O2/c1-2-6(1)7(3-4-7)9-5-8-6/h1-5H2
