19
gdb 2856	4.2925709	1.1831916	1.101201	1.2286	74.43	-0.25561	0.07151	0.32712	1128.9563	0.15843	-422.529613	-422.521944	-422.521	-422.561402	30.729	
O	-6.0938642179	-0.269916245	 2.1381424558	-0.451627
C	-4.7491786	-0.6454800481	 2.0247259302	 0.181181
C	-3.6352521226	 0.4083195013	 1.7960535417	-0.132806
C	-4.0399371686	 0.5020022807	 0.2838935036	-0.028712
C	-2.7865536919	 0.7233202223	-0.5599652925	-0.288948
C	-1.7895218789	-0.2006803566	 0.198998119	 0.1315
O	-0.6423181891	 0.4515755694	 0.7190577687	-0.440864
C	-2.7212412142	-0.756098454	 1.2752817315	-0.039174
C	-4.1288329588	-1.0215957236	 0.6542196325	-0.12337
H	-6.3066783189	 0.3533810856	 1.4362660344	 0.282782
H	-4.5702993035	-1.3550545292	 2.836727754	 0.084137
H	-3.3480214744	 1.2332749404	 2.4532096368	 0.065902
H	-4.9420491573	 1.0469468521	-0.0042588114	 0.051828
H	-2.9296007944	 0.4304728774	-1.6049178152	 0.102367
H	-2.435530358	 1.7604984825	-0.55111919	 0.099408
H	-1.3905756597	-0.9921204836	-0.4423085346	 0.08798
H	-0.9409948347	 1.1049401848	 1.3612905461	 0.276404
H	-2.3052500289	-1.4687641963	 1.9894349346	 0.070515
H	-4.4023533481	-1.8424611002	-0.0119442251	 0.071495
120.2345	217.8911	248.6017	271.1537	302.2618	363.146	435.8382	485.3919	560.5891	687.5234	717.3268	758.745	794.8516	849.2963	861.679	911.0617	925.3269	946.9708	973.1113	999.9274	1017.415	1042.6393	1074.5709	1091.8213	1114.4703	1123.7699	1140.9658	1151.568	1202.2589	1210.2892	1230.645	1249.5743	1274.3458	1281.4167	1294.9217	1303.3252	1314.6505	1373.9283	1435.3062	1456.0226	1492.1053	3045.7314	3067.3673	3072.1289	3081.325	3082.9895	3091.3961	3094.5948	3111.0119	3799.3015	3820.2932
OC1C2C3CC(O)C2C13	O[C@@H]1[C@@H]2[C@H]3C[C@@H](O)[C@@H]2[C@@H]13	
InChI=1S/C7H10O2/c8-3-1-2-4-6(3)5(2)7(4)9/h2-9H,1H2	InChI=1S/C7H10O2/c8-3-1-2-4-6(3)5(2)7(4)9/h2-9H,1H2/t2-,3-,4-,5+,6+,7-/m1/s1
