19
gdb 870	2.9834878	1.3653214	1.1375042	1.9995	74.49	-0.24308	-0.0312	0.21187999999999999	1119.9708	0.157526	-422.558627	-422.550532	-422.549587	-422.592076	29.972	
O	 0.3612037793	-0.8632241129	 0.2395007264	-0.237994
C	-0.0572985427	 0.218030559	-0.0821164819	 0.125572
C	 0.3127739431	 1.5373625845	 0.5988576755	-0.001694
O	-0.7183409987	 2.4972361503	 0.3854962275	-0.261849
C	-1.650289071	 2.3410515385	 1.4611033941	-0.110278
C	-0.7998736274	 2.0509265324	 2.6940662419	-0.018063
C	 0.0449901736	 3.2393584313	 3.2384094464	-0.223527
C	 1.3490159397	 2.5208025273	 2.7922792716	-0.239098
C	 0.5073560798	 1.4053681366	 2.113953623	-0.032406
H	-0.7547587408	 0.3537806371	-0.9400663217	 0.090922
H	 1.2101656795	 1.9110457843	 0.0857757319	 0.111314
H	-2.234030794	 3.2637505366	 1.5230649785	 0.11401
H	-2.3384254149	 1.5046625537	 1.2563345317	 0.09361
H	-1.3350826669	 1.4764656684	 3.4513699293	 0.076181
H	-0.1456437488	 4.1778849235	 2.7110759206	 0.107445
H	-0.0468346494	 3.4220383198	 4.311091642	 0.101799
H	 2.0064358792	 3.0883781718	 2.1277797794	 0.100206
H	 1.9470169811	 2.148190541	 3.6271615022	 0.105183
H	 0.7487437291	 0.377560047	 2.3846678416	 0.098666
59.3574	85.2895	149.0164	200.582	280.4021	350.2457	441.011	577.3232	636.2179	701.5169	740.789	745.9512	809.8809	864.8313	872.7211	942.2516	964.5563	965.9308	990.294	1014.8512	1029.4278	1068.413	1091.955	1124.9902	1156.2818	1182.8959	1224.5867	1230.6995	1262.3422	1266.9576	1272.247	1281.8143	1311.2071	1330.2822	1351.1733	1377.2796	1393.4177	1474.5134	1492.5139	1505.6583	1832.4026	2879.7961	2971.5788	3016.9742	3055.3641	3063.1979	3089.8049	3095.0192	3103.9251	3116.0991	3124.792
O=CC1OCC2CCC12	O=C[C@H]1OC[C@@H]2CC[C@H]12	
InChI=1S/C7H10O2/c8-3-7-6-2-1-5(6)4-9-7/h3,5-7H,1-2,4H2	InChI=1S/C7H10O2/c8-3-7-6-2-1-5(6)4-9-7/h3,5-7H,1-2,4H2/t5-,6-,7+/m0/s1
