19
gdb 5776	3.2879337	1.4397903	1.3698116	0.7931	75.21	-0.24065	0.01033	0.25098	1034.9972	0.158634	-422.553018	-422.545423	-422.544479	-422.585024	29.723	
C	 1.4120305687	-0.1174622975	-0.0101524019	-0.242558
O	-0.0009363829	-0.1109544179	 0.0700091921	-0.244266
C	-0.4933167119	 0.5902711906	 1.1674252417	 0.256436
O	-0.1264104069	-0.0065284739	 2.4119293784	-0.305544
C	-1.3850792595	-0.3650499985	 3.0727028759	 0.062754
C	-2.2622995873	 0.8394450429	 2.6946562642	-0.221661
C	-2.0501257937	 0.5625100739	 1.183033326	-0.145996
C	-2.4287744602	-0.9091839188	 1.1160761936	-0.05512
C	-2.0367692742	-1.4730515299	 2.2631067716	-0.079063
H	 1.8583437411	-0.6336485347	 0.8476380209	 0.128363
H	 1.677597702	-0.6427760575	-0.9302135434	 0.1232
H	 1.8158650918	 0.9060617531	-0.0546601691	 0.101909
H	-0.0959334745	 1.6193274433	 1.1583896401	 0.063435
H	-1.1638654681	-0.5544742771	 4.1213567844	 0.074893
H	-3.3058170934	 0.7427431016	 2.9975058358	 0.105198
H	-1.8465289126	 1.7897119314	 3.04227564	 0.100932
H	-2.5116555739	 1.2335840677	 0.4607059563	 0.073088
H	-2.8327066023	-1.3979376706	 0.2399436285	 0.104791
H	-2.0474292422	-2.5214054079	 2.5300066648	 0.099208
101.7919	152.3252	190.302	255.84	366.0968	471.0476	483.0594	511.0765	556.7233	689.8441	755.1266	799.9245	845.4378	861.4975	879.2727	919.8169	940.6696	942.4037	963.4685	980.5295	1000.5535	1029.3136	1049.2079	1127.7773	1140.6077	1153.2081	1180.0946	1193.9671	1227.4465	1274.2403	1275.3625	1287.5925	1296.2996	1344.9692	1364.4824	1397.6227	1479.2427	1484.2441	1492.5943	1512.8824	1638.8517	2956.1468	2986.4881	3064.171	3064.4937	3122.873	3132.3112	3134.1845	3140.8046	3210.408	3235.4828
COC1OC2CC1C=C2	CO[C@@H]1O[C@H]2C[C@@H]1C=C2	
InChI=1S/C7H10O2/c1-8-7-5-2-3-6(4-5)9-7/h2-3,5-7H,4H2,1H3	InChI=1S/C7H10O2/c1-8-7-5-2-3-6(4-5)9-7/h2-3,5-7H,4H2,1H3/t5-,6+,7+/m0/s1
