19
gdb 477	3.4078105	1.5248495	1.3565827	1.3599	74.39	-0.22286	0.07733	0.30019	1003.9786	0.158654	-422.515551	-422.508264	-422.50732	-422.547349	28.747	
C	 0.3986874266	 0.8450055512	-1.2993597807	-0.086263
C	 0.0161235497	-0.2571698031	-0.2926848418	-0.382622
C	 0.9667820357	 0.4838661723	 0.6528819051	 0.52095
O	 1.2348824559	 1.5066305053	-0.3215985938	-0.342547
C	 0.6760024006	 0.9771827137	 2.1047416597	-0.153952
C	 2.2253608292	 1.1422865895	 2.2285625601	-0.256845
C	 2.1937976795	-0.1410935072	 1.3666020736	 0.033474
O	 1.5828484428	-1.1243177338	 2.2152139025	-0.284926
C	 0.4809667754	-0.3755397947	 2.7928161642	-0.081401
H	 0.9786494016	 0.513473687	-2.1684584117	 0.10664
H	-0.4157362833	 1.4945019765	-1.6387080454	 0.106405
H	-1.0320475823	-0.2604434798	 0.0150711283	 0.111719
H	 0.3173536182	-1.2742977255	-0.5475409987	 0.123367
H	-0.0326705122	 1.7766458903	 2.3163738123	 0.075505
H	 2.5945685618	 2.010559358	 1.6836590691	 0.128982
H	 2.6754726566	 1.0656182122	 3.2208519712	 0.097656
H	 3.0510809674	-0.5681340618	 0.8488654893	 0.080726
H	-0.4698804044	-0.8626649259	 2.5455616488	 0.100295
H	 0.5851369013	-0.3337459642	 3.8834553678	 0.102837
80.8027	181.5234	208.4613	320.5748	391.662	411.3516	516.0275	565.9329	658.7397	785.9625	823.3649	848.3246	864.6869	898.019	915.4197	940.6468	955.6376	969.114	996.1918	1018.5142	1032.4327	1067.4723	1079.0088	1102.5327	1132.4406	1154.9244	1172.6643	1186.7117	1198.965	1211.4836	1240.229	1247.3715	1259.332	1285.843	1320.0991	1353.5536	1372.0402	1483.046	1485.0729	1525.5829	1530.2726	3020.1619	3025.8906	3058.5828	3067.3166	3074.5886	3076.635	3129.9506	3131.3941	3140.8651	3155.5739
C1CC2(O1)C1CC2OC1	C1C[C@@]2(O1)[C@@H]1C[C@H]2OC1	
InChI=1S/C7H10O2/c1-2-9-7(1)5-3-6(7)8-4-5/h5-6H,1-4H2	InChI=1S/C7H10O2/c1-2-9-7(1)5-3-6(7)8-4-5/h5-6H,1-4H2/t5-,6-,7-/m1/s1
