19
gdb 455	4.3748268	1.0070107	0.9786786	2.232	75.91	-0.22737	0.0729	0.30027	1280.5859	0.15598	-422.491611	-422.48325	-422.482305	-422.525319	31.377	
C	-0.2358639454	-3.8989788655	-1.3168798369	-0.18343
O	-0.9843910758	-3.5860609513	-0.1403008627	-0.222708
C	-1.1001561655	-2.7148515872	-1.2654384043	 0.063104
C	-0.5411698046	-1.3230925522	-1.1401548273	 0.10944
C	 0.5263262745	-1.062846236	-0.0541689656	-0.394381
C	-0.5120763188	-0.1026434016	 0.512804826	 0.473236
C	-0.9075157399	 0.1820024865	 1.9197779608	-0.325584
C	-0.3532503079	 1.289274228	 1.0277172537	-0.33545
O	-1.4788934644	-0.4250755405	-0.4918082132	-0.323223
H	 0.8437010034	-3.782819733	-1.2251445103	 0.115306
H	-0.5621051917	-4.7832246	-1.8616510996	 0.120772
H	-2.0695969163	-2.7582332403	-1.7639703048	 0.104883
H	-0.2833769322	-0.9489950103	-2.1406498297	 0.08188
H	 0.7306047155	-1.931411195	 0.573647236	 0.130823
H	 1.4565369516	-0.612039475	-0.4027884326	 0.108415
H	-1.9700298324	 0.2032740532	 2.1369784904	 0.125905
H	-0.2865939725	-0.2037940607	 2.7219776479	 0.115438
H	-1.0550839076	 2.0326190033	 0.6648224398	 0.123559
H	 0.6474368499	 1.6631355578	 1.2208004724	 0.112015
42.5008	93.0376	168.5188	236.5532	292.6835	297.9784	419.4867	451.0932	538.7282	621.4927	739.2025	753.7822	826.4347	853.5463	884.1201	891.7833	916.1443	924.6577	958.1164	993.9484	1027.6448	1047.2397	1050.2446	1065.89	1096.2831	1107.1908	1164.1593	1165.4026	1175.6694	1185.6887	1220.4789	1250.1063	1282.7056	1313.0625	1361.514	1398.9194	1427.7475	1446.702	1479.3351	1505.0177	1529.912	3008.2185	3079.7751	3083.6403	3107.2203	3125.2733	3129.3446	3139.7211	3170.3622	3209.4083	3223.863
C1OC1C1CC2(CC2)O1	C1O[C@H]1[C@@H]1CC2(CC2)O1	
InChI=1S/C7H10O2/c1-2-7(1)3-5(9-7)6-4-8-6/h5-6H,1-4H2	InChI=1S/C7H10O2/c1-2-7(1)3-5(9-7)6-4-8-6/h5-6H,1-4H2/t5-,6+/m0/s1
