19
gdb 1699	2.8285665	1.175244	1.0397067	2.2808	76.06	-0.2444	0.02476	0.26916	1223.1673	0.154098	-422.486025	-422.476483	-422.475539	-422.520698	34.786	
C	-1.0193173979	 1.6704037716	-2.3271345238	-0.466227
C	-2.0586255372	 1.832303608	-1.2249842013	 0.368495
C	-3.1585227021	 2.8649290346	-1.5433457312	-0.114436
O	-2.530558271	 3.8482246312	-0.6972010488	-0.276732
C	-1.664312413	 2.8490615695	-0.1173687602	-0.114121
O	-2.6400506696	 0.6137155686	-0.7949007876	-0.288369
C	-1.7664643191	-0.4555060095	-0.4773894672	-0.229376
C	-0.7997526934	-0.1681703293	 0.5863486174	 0.310905
C	 0.0071421516	 0.059361057	 1.4480034135	-0.466672
H	-1.4296957068	 1.100052052	-3.1671813391	 0.123216
H	-0.7250205839	 2.6580572961	-2.6929577705	 0.135434
H	-0.1154755124	 1.1699647884	-1.9666913964	 0.129238
H	-3.2477839324	 3.2023514921	-2.5820321496	 0.099688
H	-4.1404697955	 2.5532897737	-1.1652948121	 0.105651
H	-0.620955649	 3.1790577414	-0.0771708151	 0.100386
H	-1.9973264395	 2.5394916227	 0.8796855156	 0.104573
H	-2.4234388832	-1.2734488684	-0.1636115489	 0.144212
H	-1.2240266354	-0.8049398405	-1.3677784477	 0.127194
H	 0.7143929999	 0.2571411108	 2.2156306832	 0.206942
54.9838	89.272	113.8103	197.1438	251.9471	274.9804	323.708	351.8585	371.9615	409.6639	431.9705	612.2922	625.1306	651.2218	683.2157	832.0851	897.786	906.2765	926.8949	941.2456	975.8571	1010.7414	1025.7928	1037.054	1094.2262	1151.6415	1167.2838	1189.5609	1235.6808	1263.948	1295.5605	1301.3097	1376.4105	1397.0746	1403.7569	1478.7127	1488.7438	1498.6387	1506.6304	1526.767	2231.6968	3003.0667	3014.6913	3030.5063	3037.05	3071.02	3071.3216	3084.023	3108.3994	3117.038	3501.8622
CC1(COC1)OCC#C	CC1(COC1)OCC#C	
InChI=1S/C7H10O2/c1-3-4-9-7(2)5-8-6-7/h1H,4-6H2,2H3	InChI=1S/C7H10O2/c1-3-4-9-7(2)5-8-6-7/h1H,4-6H2,2H3
