19
gdb 3681	2.6849802	1.2186143	1.0491299	3.9246	76.47	-0.23576	-0.0168	0.21896	1214.2369	0.154331	-422.546723	-422.53736	-422.536415	-422.581041	34.604	
C	-1.0983145594	-2.1296569239	 1.1867324089	-0.409822
C	-1.0236400791	-1.1303070892	 0.0378663074	-0.183781
C	 0.1236381615	-0.0958334421	 0.0796738851	 0.401005
O	 1.3001818357	-0.188667445	 0.2774779762	-0.297558
C	-0.8348339603	 1.0868276356	-0.1488270148	-0.424532
C	-1.9879607417	 0.0776743387	-0.0198944684	 0.321168
C	-3.347346953	 0.1726356597	-0.6591248632	-0.397212
C	-3.1878752148	 0.3028723291	 0.8399119419	 0.045215
O	-3.2817950757	 1.559171717	 1.4440504632	-0.418939
H	-0.2116447504	-2.7702631559	 1.1831822737	 0.136534
H	-1.1406759134	-1.6180868086	 2.1531490168	 0.126664
H	-1.9810358439	-2.7721697754	 1.1029460293	 0.116605
H	-0.9955888728	-1.6604113396	-0.9242288627	 0.101076
H	-0.7968813112	 1.874091037	 0.6088138802	 0.148742
H	-0.7209272855	 1.5449765767	-1.137357216	 0.127544
H	-3.5713913579	 1.0801724886	-1.2116543304	 0.1159
H	-3.8076307218	-0.7290957031	-1.0523680242	 0.112332
H	-3.5342621621	-0.5294746191	 1.4536642928	 0.088275
H	-4.2087309941	 1.8193575194	 1.4564711241	 0.290785
45.8419	137.7668	181.5531	189.9264	204.7332	245.3126	284.1452	395.4909	428.1706	466.7894	483.8921	553.6803	558.1594	727.6335	744.9007	811.2018	852.9599	894.7482	916.6021	981.4499	1020.8181	1034.2849	1045.2737	1077.2618	1104.8183	1135.4522	1143.2026	1171.3372	1189.2443	1222.3786	1241.8704	1290.4136	1327.0859	1341.0835	1404.0905	1425.6342	1438.4252	1488.3506	1494.897	1497.9542	1892.7565	3016.316	3035.8732	3050.1464	3094.1368	3103.7452	3109.1447	3115.3633	3116.8876	3206.1884	3807.7007
CC1C(=O)CC11CC1O	C[C@@H]1C(=O)C[C@]21C[C@@H]2O	
InChI=1S/C7H10O2/c1-4-5(8)2-7(4)3-6(7)9/h4,6,9H,2-3H2,1H3	InChI=1S/C7H10O2/c1-4-5(8)2-7(4)3-6(7)9/h4,6,9H,2-3H2,1H3/t4-,6+,7-/m1/s1
