19
gdb 5820	2.8587379	1.200391	1.1318182	5.1431	78.64	-0.22835	-0.04166	0.18669	1174.3455	0.157814	-422.592495	-422.583775	-422.58283	-422.626117	32.375	
O	 0.4740907517	 2.9259109189	 1.016388026	-0.4066
C	 0.7781341257	 1.6194795848	 0.5559176388	-0.083835
C	-0.221359993	 1.2171875527	-0.5415063048	-0.050488
C	-0.1590356655	 2.105424872	-1.8017273145	-0.236657
C	-0.9892339632	 3.3906983873	-1.6747251783	-0.308239
C	-2.4219663898	 3.1144909567	-1.2446964963	 0.37808
O	-3.3535619408	 3.8151211455	-1.5887353499	-0.337159
C	-2.6154068975	 1.9644037051	-0.3324845324	-0.147363
C	-1.6240714933	 1.1308060816	 0.0020708191	-0.033664
H	 1.1200421429	 3.171877691	 1.684663767	 0.29232
H	 1.7955691316	 1.57061409	 0.1366876538	 0.091666
H	 0.7242882943	 0.8880579114	 1.3785129151	 0.088899
H	 0.0831965512	 0.1997483704	-0.8267575014	 0.086753
H	 0.8832903658	 2.3500952599	-2.0337820072	 0.097783
H	-0.5386073873	 1.520928666	-2.6483779158	 0.106302
H	-0.5481161435	 4.0357069527	-0.9066864448	 0.147175
H	-1.0138726634	 3.9535583376	-2.6114497497	 0.112083
H	-3.6193427381	 1.8458973521	 0.0639278461	 0.102333
H	-1.8166011378	 0.3274255045	 0.7119359991	 0.100609
62.9743	107.1748	188.2893	210.8852	241.0083	302.8879	373.9827	413.353	446.6027	481.0201	580.582	680.2867	724.1912	750.4294	771.2733	863.8562	916.2129	937.5271	991.2646	1013.5683	1025.8649	1039.2904	1107.0724	1125.5976	1139.5291	1192.2862	1225.8247	1240.1145	1256.622	1269.1031	1334.6044	1362.3033	1365.3373	1384.2019	1408.2446	1447.2149	1462.9436	1493.2512	1517.6461	1688.1817	1778.4265	2963.1203	2995.3081	3001.1736	3031.9757	3053.0979	3071.243	3108.3248	3135.1734	3183.5313	3834.807
OCC1CCC(=O)C=C1	OC[C@@H]1CCC(=O)C=C1	
InChI=1S/C7H10O2/c8-5-6-1-3-7(9)4-2-6/h1,3,6,8H,2,4-5H2	InChI=1S/C7H10O2/c8-5-6-1-3-7(9)4-2-6/h1,3,6,8H,2,4-5H2/t6-/m0/s1
