19
gdb 1703	2.2755992	1.4372145	1.393602	3.417	75.6	-0.24864	-0.02487	0.22377	1079.2373	0.154516	-422.536617	-422.527496	-422.526552	-422.5706	33.498	
C	-0.2022374541	-0.1425301684	 0.1073976529	-0.47939
C	 1.3158345746	-0.0166799728	 0.0053642916	 0.11988
C	 1.9763664934	 0.0475559746	-1.4024649641	-0.270629
C	 2.8533581417	 1.2506394463	-0.942090183	-0.318028
C	 1.9452820284	 1.3781291342	 0.2777249233	 0.418926
C	 1.306828136	 2.5661565762	 0.8463965457	-0.265026
O	 2.3368403102	 1.8553879096	 1.5515735717	-0.271752
C	 1.9832630826	-1.0392728699	 0.9116598363	 0.140309
O	 2.87196286	-1.7825944072	 0.5836664527	-0.252494
H	-0.5411173663	-0.0656884237	 1.1470515614	 0.126933
H	-0.6943430199	 0.6470637598	-0.4676990612	 0.12469
H	-0.5433895111	-1.1075115225	-0.2830309342	 0.131269
H	 2.5161423711	-0.8548095617	-1.6888427562	 0.129027
H	 1.2581083339	 0.3161022675	-2.1798779288	 0.101946
H	 3.862520767	 0.9409571856	-0.6584428934	 0.132614
H	 2.9169364764	 2.1156878703	-1.6052998382	 0.10807
H	 1.5905985967	 3.5520753119	 0.4798785665	 0.119772
H	 0.3125623072	 2.5023438906	 1.2859556126	 0.11729
H	 1.5834460222	-1.0475325505	 1.9499469244	 0.086594
67.4466	78.9362	193.5675	211.6355	240.0517	278.0372	299.712	336.6685	415.4731	447.6943	531.6184	595.5408	698.7418	757.0872	849.3085	872.4517	882.5033	910.8867	929.8001	956.4271	998.7409	1008.2143	1119.1158	1130.2691	1138.386	1157.8999	1171.8592	1205.9375	1223.8947	1236.4783	1271.8124	1285.2471	1401.5537	1415.8599	1425.666	1468.0977	1487.9102	1493.9386	1495.6816	1531.519	1823.9496	2887.7803	3027.7368	3068.3633	3079.1823	3081.9111	3093.5002	3107.7142	3121.3457	3147.4978	3168.9564
CC1(CCC11CO1)C=O	C[C@]1(CC[C@]21CO2)C=O	
InChI=1S/C7H10O2/c1-6(4-8)2-3-7(6)5-9-7/h4H,2-3,5H2,1H3	InChI=1S/C7H10O2/c1-6(4-8)2-3-7(6)5-9-7/h4H,2-3,5H2,1H3/t6-,7+/m0/s1
