19
gdb 3405	2.8060907	1.4533823	1.1544504	0.6402	77.44	-0.23143	0.01319	0.24462	1112.3218	0.156428	-422.539754	-422.531053	-422.530108	-422.572551	33.153	
C	 1.9164703918	-0.6457114609	-2.5600475601	-0.460417
C	 0.7251716701	-1.1282476862	-1.753080949	 0.227049
C	 0.4614145742	-2.590850884	-1.8026023519	-0.135093
C	-0.7467008844	-3.0539507414	-2.1158877335	-0.081093
C	-1.8955291905	-2.1083197207	-2.359809595	-0.121244
O	-1.7764709671	-0.8887301626	-1.6354624234	-0.260151
C	-0.5227692736	-0.2742039022	-1.7015459659	-0.01237
C	 0.3622827937	-0.3756836674	-0.4803701018	 0.021532
O	 1.1836353252	 0.6904819736	-0.1130084113	-0.421142
H	 2.8307654491	-1.1573948026	-2.2381982577	 0.119044
H	 1.7736152695	-0.8520759481	-3.625856423	 0.115326
H	 2.0742970133	 0.4254542288	-2.4233233731	 0.132853
H	 1.2942942881	-3.2624560391	-1.6079834473	 0.090921
H	-0.9455235146	-4.1180188965	-2.2028626957	 0.095649
H	-1.9984663953	-1.9060464583	-3.4399782459	 0.102877
H	-2.8389180635	-2.5535655904	-2.0278009974	 0.115562
H	-0.5124781335	 0.6683886101	-2.2495224132	 0.08659
H	-0.0402347655	-0.9745146404	 0.3366634378	 0.093428
H	 0.621579433	 1.3912735784	 0.2347643173	 0.290679
129.1661	166.3222	179.126	242.1016	271.8963	293.5372	306.2086	345.3127	439.8087	472.6322	550.2051	579.5031	686.8709	718.8531	831.4116	870.77	919.6494	949.0626	986.3309	1001.0617	1004.1481	1040.159	1052.9639	1081.5112	1114.4476	1143.1748	1179.3795	1199.3253	1235.9016	1265.4495	1289.703	1311.1789	1334.7232	1390.2587	1407.4168	1416.4149	1455.1132	1491.2966	1495.3655	1500.7609	1713.2284	2956.2053	3032.941	3069.9333	3091.1397	3098.7752	3107.2019	3135.2208	3149.1018	3178.9137	3800.2032
CC12C=CCOC1C2O	C[C@]12C=CCO[C@H]1[C@@H]2O	
InChI=1S/C7H10O2/c1-7-3-2-4-9-6(7)5(7)8/h2-3,5-6,8H,4H2,1H3	InChI=1S/C7H10O2/c1-7-3-2-4-9-6(7)5(7)8/h2-3,5-6,8H,4H2,1H3/t5-,6-,7+/m0/s1
