19
gdb 3958	3.6109549	1.3761723	1.1702191	1.9318	75.39	-0.23998	0.06166	0.30164	1096.9702	0.157024	-422.498477	-422.490721	-422.489777	-422.530568	30.231	
C	-0.105735454	 0.1513424756	 0.0081433737	-0.404891
C	 1.3998789116	 0.0342234758	 0.0871800446	 0.125387
O	 1.8105062146	-0.9801665593	 1.068409744	-0.338236
C	 2.6286703247	-1.5934695907	 0.1037355354	 0.419434
C	 3.07257469	-3.0355403746	-0.0250319548	-0.174172
O	 4.2946773603	-2.5798525269	-0.6701316178	-0.295741
C	 4.0890246315	-1.1997568656	-0.2649055458	 0.045078
C	 3.5818068224	-0.2913838193	-1.4115631129	-0.272801
C	 2.1264478415	-0.718804442	-1.0656378893	-0.1464
H	-0.5163760599	 0.4618578469	 0.973815699	 0.130696
H	-0.3888763153	 0.8963474412	-0.7434920711	 0.119708
H	-0.5554078616	-0.8082871033	-0.2640595417	 0.123298
H	 1.8564362518	 1.000756432	 0.3381521749	 0.080566
H	 3.2822819953	-3.5296232868	 0.9340014912	 0.109491
H	 2.4850211797	-3.7045160952	-0.6637855215	 0.106822
H	 4.8595374002	-0.8470777585	 0.4261651664	 0.077659
H	 3.7931356689	 0.7748523993	-1.28238636	 0.101271
H	 3.9306342654	-0.6084227807	-2.396805819	 0.116871
H	 1.475442273	-1.0912315781	-1.8577104153	 0.075962
91.1077	195.0468	234.3037	269.2622	318.2747	360.7385	381.8068	441.5654	544.3152	700.1082	737.0984	785.1814	827.0643	859.3635	888.9357	918.3728	968.7466	974.1471	992.2107	998.47	1055.4235	1066.9095	1094.8897	1109.5874	1134.2727	1145.4255	1172.2481	1196.0981	1230.1799	1259.8265	1276.1466	1278.2274	1309.3591	1321.8925	1359.5859	1398.6223	1412.175	1459.0503	1482.1261	1495.1645	1514.5436	3004.9339	3016.5751	3035.1466	3051.0434	3065.6185	3073.9756	3098.9757	3108.5147	3115.7786	3118.1586
CC1OC23COC2CC13	C[C@H]1O[C@]23CO[C@H]2C[C@H]13	
InChI=1S/C7H10O2/c1-4-5-2-6-7(5,9-4)3-8-6/h4-6H,2-3H2,1H3	InChI=1S/C7H10O2/c1-4-5-2-6-7(5,9-4)3-8-6/h4-6H,2-3H2,1H3/t4-,5-,6+,7+/m1/s1
