19
gdb 2712	2.152416	2.0213962	1.2600206	2.1646	75.26	-0.23183	0.05275	0.28458	1035.8918	0.15518	-422.494674	-422.485969	-422.485024	-422.527154	33.897	
C	 1.2257365085	-1.0792575951	-1.0511612581	-0.427906
C	 1.5940187407	 0.0437365765	-0.0945517136	-0.090785
C	 1.7276944691	-0.2469887449	 1.4088969981	 0.426396
O	 2.6821709265	-1.090370438	 1.9334571656	-0.477796
C	 0.1693405721	-0.2404595633	 1.6712450684	-0.198273
C	 0.3079527599	 0.7734640949	 2.827848039	-0.308131
C	 1.385538666	 1.234848343	 1.82426143	-0.186116
C	 0.4849100421	 0.8629166877	 0.5848550847	 0.426353
O	-0.3981195725	 1.6606799458	-0.1089050949	-0.477782
H	 0.4111517485	-1.6955294716	-0.6573097001	 0.113883
H	 0.9036431173	-0.6763748807	-2.0166080711	 0.122604
H	 2.0845675777	-1.7341014437	-1.2293523894	 0.122659
H	 2.4094372168	 0.6597732414	-0.4945846906	 0.068315
H	 2.5711899313	-1.1332600221	 2.8900979387	 0.287059
H	-0.5162200965	-1.0821731046	 1.5714567583	 0.073866
H	-0.536042708	 1.4509756269	 2.9995999886	 0.083638
H	 0.6574752843	 0.385007625	 3.7910665933	 0.083641
H	 2.0899086013	 2.0660517306	 1.8815342451	 0.071316
H	-1.0112083848	 2.0661003022	 0.5148577881	 0.287058
185.4273	187.7939	208.3163	238.3088	242.7882	272.7447	280.3383	334.5833	444.5174	536.9578	546.1515	604.891	658.5313	710.7686	735.7679	865.2655	871.1619	901.3991	933.133	976.8173	993.0086	1020.2699	1074.0291	1079.9927	1100.7278	1105.8266	1112.584	1132.0813	1174.7467	1177.2158	1232.3692	1246.0642	1285.4817	1331.4005	1359.9848	1367.037	1413.5792	1470.8985	1494.6684	1506.354	1519.7676	3027.0249	3029.7079	3036.631	3073.7889	3103.5111	3104.8348	3106.9079	3114.8152	3796.4981	3797.7441
CC1C2(O)C3CC2C13O	C[C@@H]1[C@]2(O)[C@H]3C[C@@H]2[C@@]13O	
InChI=1S/C7H10O2/c1-3-6(8)4-2-5(6)7(3,4)9/h3-5,8-9H,2H2,1H3	InChI=1S/C7H10O2/c1-3-6(8)4-2-5(6)7(3,4)9/h3-5,8-9H,2H2,1H3/t3-,4-,5+,6+,7-
