19
gdb 4408	1.9099675	1.4768715	1.3360461	2.812	76.55	-0.24666	-0.04317	0.20349	1121.6607	0.154184	-422.56704	-422.557373	-422.556429	-422.602248	34.073	
C	 1.5242525035	 1.0965844264	-0.8384542211	-0.425209
C	 1.988685681	 0.3811057759	 0.418806739	 0.012837
C	 3.4891347222	 0.0601494084	 0.6306968414	-0.231743
C	 3.0973599043	-1.3118491252	 1.2314469529	-0.279203
C	 1.686100969	-1.186530273	 0.6046342234	 0.109029
C	 1.5406586142	-1.8776369434	-0.7341904016	 0.105691
O	 2.4716740493	-2.297780035	-1.3762947468	-0.262623
C	 0.4745465906	-1.4099990727	 1.4740820008	 0.086006
O	-0.6512513495	-1.531070581	 1.0584729009	-0.256586
H	 1.9211661502	 0.6228383381	-1.7414741943	 0.136427
H	 0.4317519299	 1.114009517	-0.9096925922	 0.133817
H	 1.8747833141	 2.1344000069	-0.8254154755	 0.125338
H	 1.5899763008	 0.8938420065	 1.301950879	 0.089508
H	 4.0079054439	-0.0595056255	-0.3236241839	 0.12637
H	 4.0552486025	 0.7503505037	 1.2598662194	 0.103103
H	 3.6740791588	-2.1765114155	 0.9024409198	 0.128696
H	 3.048575299	-1.2974401339	 2.3247566797	 0.10307
H	 0.497108737	-1.9611131906	-1.095420381	 0.113341
H	 0.6876489293	-1.410768517	 2.56855312	 0.08213
43.2927	88.6734	99.2936	186.6928	216.2745	231.1277	267.5646	290.9148	371.6353	435.6255	462.1178	572.9498	688.9305	729.3464	769.9232	837.9454	896.7999	921.1116	963.7157	994.5019	1002.7979	1062.9579	1086.182	1127.8838	1178.3606	1181.0822	1215.3309	1245.0804	1274.4073	1282.0411	1307.6535	1365.6452	1407.8007	1411.5414	1421.263	1468.6962	1491.3646	1496.333	1503.0927	1800.7498	1818.1495	2857.7986	2948.6011	3031.5588	3033.8756	3056.9444	3067.2607	3099.8354	3111.8447	3120.2936	3136.7384
CC1CCC1(C=O)C=O	C[C@@H]1CCC1(C=O)C=O	
InChI=1S/C7H10O2/c1-6-2-3-7(6,4-8)5-9/h4-6H,2-3H2,1H3	InChI=1S/C7H10O2/c1-6-2-3-7(6,4-8)5-9/h4-6H,2-3H2,1H3/t6-/m1/s1
