19
gdb 2852	2.8645209	1.6642633	1.2562289	1.754	74.35	-0.24821	0.06927	0.31748	1032.2923	0.156598	-422.519409	-422.511222	-422.510278	-422.551387	32.756	
C	 1.3308304679	-0.5284760404	-1.084910361	-0.407061
C	 1.072598821	 0.09379075	 0.2820911689	-0.047239
C	 1.8279638692	 1.4118043378	 0.5164672809	-0.057692
C	 2.1017450848	 1.5533628623	 2.0184012924	-0.130845
C	 3.0184912522	 0.7272169369	 1.1314186651	-0.213339
C	 1.9586118288	-0.4645834561	 1.4148025049	 0.389694
O	 2.1892618028	-1.8123666924	 1.5249255015	-0.485611
C	 1.5312808135	 0.3131562261	 2.6863505231	 0.07126
O	 2.2537922088	-0.1425151574	 3.8221531619	-0.458532
H	 0.9752475603	-1.5626403371	-1.1110116107	 0.127159
H	 0.8140799446	 0.0293059329	-1.8731394116	 0.10852
H	 2.4004799658	-0.5339922504	-1.3191857887	 0.117611
H	-0.003872336	 0.0944885773	 0.5028453139	 0.060535
H	 1.8356495678	 2.2832892779	-0.1259819396	 0.090171
H	 2.2939438295	 2.5181096416	 2.4715545786	 0.091532
H	 4.0749310873	 0.7908255528	 0.9151491705	 0.093597
H	 2.41789177	-1.967061978	 2.4538236383	 0.284892
H	 0.4730712552	 0.2781337212	 2.9679718503	 0.081122
H	 3.1660168065	 0.1560286447	 3.7175111514	 0.284227
159.197	212.2794	224.4505	240.7856	265.6872	361.6877	372.5395	457.0684	482.6123	529.0455	563.6974	681.2253	746.8203	769.0969	802.5171	824.3751	896.1138	923.2663	934.8731	948.7038	969.5451	1004.8935	1027.066	1031.2675	1081.1166	1094.8126	1111.6977	1132.6674	1160.6523	1228.5343	1261.5965	1267.6054	1279.7279	1334.5455	1345.747	1360.7559	1409.9823	1423.6683	1430.8324	1495.7945	1497.9286	3006.7436	3033.7877	3054.6417	3100.1122	3111.2531	3188.8007	3196.1718	3223.8669	3717.8908	3777.2501
CC1C2C3C2C1(O)C3O	C[C@@H]1[C@H]2[C@@H]3[C@H]2[C@@]1(O)[C@H]3O	
InChI=1S/C7H10O2/c1-2-3-4-5(3)7(2,9)6(4)8/h2-6,8-9H,1H3	InChI=1S/C7H10O2/c1-2-3-4-5(3)7(2,9)6(4)8/h2-6,8-9H,1H3/t2-,3+,4-,5+,6+,7-/m1/s1
