19
gdb 3932	3.567709	1.3669262	1.2860278	2.5146	75.13	-0.22528	0.06987	0.29515	1043.8423	0.158303	-422.491077	-422.483854	-422.48291	-422.522204	29.927	
O	 0.2744669312	-0.0774695466	 0.2997106096	-0.427485
C	-0.9127434849	 0.4518602593	 0.833963663	 0.076263
C	-2.1414986765	 0.1774803802	-0.1088819666	-0.345398
C	-2.5332744316	 1.6214949808	 0.1736526953	 0.458472
C	-2.9936552485	 2.0074870129	 1.6220970293	-0.284698
C	-1.8995726249	 3.0820623978	 1.3958263577	-0.128529
C	-2.5595106934	 3.7961627566	 0.1667799647	-0.083037
O	-3.0589835481	 2.6667072549	-0.6245190915	-0.34285
C	-1.1075416877	 2.0103131106	 0.5992957964	-0.068659
H	 1.0033505736	 0.1870925305	 0.8711560274	 0.283006
H	-1.0748887754	 0.1078447846	 1.8619945113	 0.074967
H	-1.7719383306	 0.0372355149	-1.128057115	 0.128793
H	-2.8368946163	-0.6225553778	 0.1543246082	 0.102698
H	-4.0297913388	 2.3403057865	 1.717641393	 0.097405
H	-2.7526926474	 1.2792563083	 2.3952056842	 0.104024
H	-1.509378206	 3.7394337115	 2.1758582258	 0.06587
H	-3.3981327243	 4.4354830622	 0.4606468105	 0.106714
H	-1.8515506543	 4.3752513976	-0.4363625293	 0.104565
H	-0.4154850561	 2.342663685	-0.178879984	 0.077879
169.8478	264.2798	276.4299	328.1081	374.9296	407.6013	485.6714	494.3174	548.3054	647.725	704.1024	815.0078	839.0443	860.2574	881.1029	884.6245	922.3213	932.2345	982.9375	1004.3977	1008.7757	1038.7421	1066.6881	1079.6271	1104.4002	1149.9776	1168.2885	1181.6344	1205.7858	1231.6308	1231.9805	1245.3368	1258.4378	1277.5441	1305.4551	1330.5135	1356.1272	1424.5745	1479.8746	1497.1537	1516.4596	3022.9542	3034.7233	3065.0874	3073.0009	3078.1259	3086.2768	3091.6205	3128.378	3146.8043	3807.409
OC1CC23CC(CO2)C13	O[C@@H]1C[C@]23C[C@H](CO2)[C@@H]13	
InChI=1S/C7H10O2/c8-5-2-7-1-4(3-9-7)6(5)7/h4-6,8H,1-3H2	InChI=1S/C7H10O2/c8-5-2-7-1-4(3-9-7)6(5)7/h4-6,8H,1-3H2/t4-,5-,6+,7+/m1/s1
