19
gdb 560	2.7917852	1.8204107	1.4786281	3.33	72.78	-0.23718	0.04832	0.2855	943.3033	0.159738	-422.520558	-422.513459	-422.512514	-422.552537	27.57	
C	 0.3517854494	 0.9368569581	 3.5487782363	-0.078347
O	-0.4296913659	-0.1773722167	 3.071598018	-0.274018
C	-0.1303071798	 0.1377392983	 1.6958601186	 0.092944
C	 0.5863813901	 1.4542695456	 2.1161021813	-0.07282
C	-0.2843112805	 2.6375709715	 1.6355377981	-0.266219
C	-1.5648731679	 2.0382472728	 1.03224139	-0.062398
C	-2.7557464155	 1.6139623007	 1.9278888122	-0.088235
O	-2.6294256672	 0.2348652881	 1.5181878401	-0.272269
C	-1.3811270034	 0.5101359434	 0.8617109276	 0.103734
H	-0.2211892848	 1.5896602991	 4.2194893769	 0.098605
H	 1.2575779146	 0.6006627332	 4.0698766871	 0.10003
H	 0.4770735865	-0.6468701772	 1.2303992096	 0.070913
H	 1.6342782187	 1.5671582512	 1.8355674444	 0.078217
H	-0.4976431897	 3.3397060534	 2.4495093347	 0.105302
H	 0.2515004876	 3.2057766008	 0.8684716766	 0.104542
H	-1.8925884484	 2.5679147878	 0.1366411244	 0.081051
H	-2.5946633032	 1.7351122322	 3.0065138668	 0.104257
H	-3.7351817767	 2.0263108542	 1.6611887484	 0.102009
H	-1.3459903239	 0.0830601632	-0.1463957711	 0.072704
67.9469	113.1898	266.4407	318.4934	359.2128	510.823	624.5906	653.0199	719.7734	812.4918	828.283	858.7901	872.6967	887.8437	918.1367	938.7043	996.7533	1014.4568	1029.8337	1035.8495	1051.5473	1101.942	1111.9468	1118.2109	1155.6972	1165.1429	1186.5116	1200.2927	1249.7945	1252.5831	1271.4726	1303.0396	1320.5045	1328.5203	1345.3845	1360.664	1366.1016	1378.9635	1487.3555	1517.6384	1527.2329	3005.122	3016.8764	3030.3554	3038.653	3047.3289	3051.0064	3063.4086	3073.5285	3097.4068	3104.06	67.947	113.19	266.4406	318.4934	359.2129	510.823	624.5906	653.0198	719.7733	812.4919	828.283	858.7901	872.6967	887.8437	918.1366	938.7042	996.7532	1014.4567	1029.8337	1035.8494	1051.5472	1101.942	1111.9466	1118.2109	1155.6971	1165.1429	1186.5116	1200.2927	1249.7944	1252.5831	1271.4725	1303.0395	1320.5045	1328.5202	1345.3845	1360.6641	1366.1017	1378.9634	1487.3553	1517.6383	1527.2328	3005.122	3016.8764	3030.3554	3038.653	3047.3289	3051.0064	3063.4086	3073.5285	3097.4068	3104.06
C1OC2C1CC1COC21	C1O[C@@H]2[C@H]1C[C@@H]1CO[C@H]21	
InChI=1S/C7H10O2/c1-4-2-8-6(4)7-5(1)3-9-7/h4-7H,1-3H2	InChI=1S/C7H10O2/c1-4-2-8-6(4)7-5(1)3-9-7/h4-7H,1-3H2/t4-,5+,6+,7-
