19
gdb 4553	3.0486894	1.2539149	0.9740466	3.8355	79.32	-0.23591	-0.05289	0.18302000000000002	1232.0542	0.15721	-422.571329	-422.56273	-422.561786	-422.604578	32.266	
C	-4.0753299942	 1.3745986292	 1.5777251329	-0.42121
C	-2.8555014673	 0.6743021821	 0.9652530183	-0.078267
C	-2.4792941014	-0.5602641412	 1.8222544952	-0.058661
O	-1.2129828839	-1.119999248	 1.5564065943	-0.234608
C	-0.8630485881	-1.2553075728	 0.1956877735	-0.207242
C	-0.1411537964	-0.0126778813	-0.3452149061	 0.356047
O	 0.745250857	-0.1290685956	-1.1668111862	-0.322909
C	-0.5227433109	 1.3142209563	 0.1952541992	-0.156084
C	-1.6959771448	 1.6199764995	 0.7636627667	-0.024023
H	-3.8317840214	 1.797871338	 2.558540235	 0.12534
H	-4.4239126875	 2.189190878	 0.93620175	 0.125558
H	-4.9061429706	 0.6747413536	 1.7109563938	 0.121661
H	-3.1519919873	 0.302125746	-0.0246434038	 0.104055
H	-2.4547013878	-0.2805337176	 2.8808842518	 0.113267
H	-3.2715551272	-1.3159910097	 1.6921958738	 0.093895
H	-0.1633539963	-2.0911246588	 0.1133306447	 0.13659
H	-1.7317676331	-1.4905682819	-0.4398496732	 0.111498
H	 0.2220221982	 2.0869656685	 0.0268735078	 0.110516
H	-1.8589384071	 2.6502877656	 1.0753560221	 0.104577
69.6677	130.1563	229.5446	255.4602	284.8473	289.1356	342.0708	372.9784	425.0209	476.4557	566.7404	625.9396	697.9443	763.434	801.33	856.1973	921.6053	947.3859	977.6486	1014.8697	1025.6959	1084.5942	1110.4285	1149.4321	1173.2765	1215.6131	1248.9174	1280.3823	1303.2886	1329.2018	1344.9301	1355.0096	1396.0079	1407.7361	1427.0156	1470.9667	1495.8608	1501.5053	1504.4308	1681.1074	1774.1134	2968.0446	2981.6005	3010.6053	3034.628	3071.2779	3100.2693	3103.8789	3111.2016	3141.1467	3178.8726
CC1COCC(=O)C=C1	C[C@@H]1COCC(=O)C=C1	
InChI=1S/C7H10O2/c1-6-2-3-7(8)5-9-4-6/h2-3,6H,4-5H2,1H3	InChI=1S/C7H10O2/c1-6-2-3-7(8)5-9-4-6/h2-3,6H,4-5H2,1H3/t6-/m0/s1
