19
gdb 4031	2.4597888	2.0074439	1.4272822	2.3548	73.36	-0.24815	0.06458	0.31273	954.6284	0.158264	-422.550361	-422.542718	-422.541774	-422.581819	31.278	
O	 0.5222174394	 0.5371057433	 0.5730236291	-0.453681
C	-0.8043383528	 1.0112263789	 0.4231120388	 0.132355
C	-1.6989356964	-0.1536668299	-0.0480486733	-0.260925
C	-2.3975169545	-0.6363012104	 1.223737018	-0.029356
C	-3.2588216442	 0.3406395235	 2.0083574614	-0.069324
C	-2.8939055594	 1.7874869324	 1.6612660131	-0.301276
C	-1.391090064	 1.387688818	 1.788234454	 0.367703
O	-0.50568826	 2.2544694603	 2.4464763014	-0.511747
C	-1.8327687314	 0.0375721951	 2.4406963061	-0.161514
H	 0.9527390878	 1.1413979464	 1.1905273138	 0.286458
H	-0.8359456973	 1.8705289454	-0.2646671019	 0.062826
H	-2.4061698846	 0.1574825154	-0.8235287766	 0.096719
H	-1.060594413	-0.933259587	-0.4711311773	 0.118615
H	-2.6952111833	-1.6762248759	 1.3016965083	 0.084986
H	-4.1871136311	 0.0203900934	 2.4663732588	 0.083111
H	-3.2326764858	 2.2094223723	 0.7074602894	 0.093443
H	-3.1722834071	 2.4715729453	 2.4692234464	 0.093256
H	-0.8010939836	 2.371782026	 3.3546138145	 0.284555
H	-1.4313760589	-0.4438752025	 3.322782496	 0.083795
135.8082	242.8523	255.0539	341.0962	354.2139	372.8611	429.5547	459.6148	475.4169	602.7402	698.913	729.6282	761.7197	793.2233	825.3205	884.564	917.917	944.128	960.8708	973.429	1006.5661	1017.9251	1052.356	1062.2987	1073.4038	1101.9924	1129.0716	1145.7326	1198.4947	1214.689	1227.1568	1235.8979	1298.7745	1313.5943	1323.5161	1347.6371	1377.406	1404.0974	1424.3434	1480.6573	1495.9135	2981.3774	3027.5168	3054.8972	3083.5006	3105.6735	3170.1357	3178.8316	3201.0168	3782.5198	3823.0896
OC1CC2C3CC1(O)C23	O[C@H]1C[C@@H]2[C@@H]3C[C@@]1(O)[C@H]23	
InChI=1S/C7H10O2/c8-5-1-3-4-2-7(5,9)6(3)4/h3-6,8-9H,1-2H2	InChI=1S/C7H10O2/c8-5-1-3-4-2-7(5,9)6(3)4/h3-6,8-9H,1-2H2/t3-,4+,5+,6-,7+/m1/s1
