19
gdb 3915	3.4663246	1.1213626	0.9904734	4.065	75.53	-0.26609	0.01107	0.27716	1253.7766	0.156956	-422.575473	-422.566906	-422.565962	-422.608957	31.712	
C	-1.8001360354	 4.4245249732	 0.2328548926	-0.414341
C	-1.0006285865	 3.1339534058	 0.1819341966	 0.064086
C	-1.3487905683	 1.9895834912	 1.17668149	-0.300935
C	-1.0948858651	 0.9748718466	 0.0334177044	 0.119704
C	-1.7099337184	-0.424748205	-0.0876939489	-0.161072
O	-0.371327142	-1.0251869127	-0.0692194979	-0.250908
C	 0.2251519258	 0.2076845108	 0.0402120993	 0.438352
O	 1.3875307164	 0.4533595211	 0.1080328237	-0.335949
C	-1.2531606303	 2.1339972298	-0.9828244196	-0.300865
H	-1.6144550787	 4.9697629744	 1.1647657263	 0.120567
H	-1.5362520387	 5.0877918859	-0.5982023111	 0.120567
H	-2.8760560816	 4.2238848582	 0.1716996646	 0.11024
H	 0.0712855705	 3.3458318818	 0.2435574886	 0.099667
H	-0.7451764587	 1.8877934323	 2.0812396911	 0.118355
H	-2.408937595	 2.0052150927	 1.4521595228	 0.10344
H	-2.2992641851	-0.7703792524	 0.7650716009	 0.123644
H	-2.2205496721	-0.6499364636	-1.0271238723	 0.123643
H	-0.5716796966	 2.149754307	-1.8362088087	 0.118369
H	-2.2850238703	 2.1923273428	-1.3460037725	 0.103437
69.4644	120.7619	164.2383	224.4581	233.5851	281.9661	363.7064	399.406	464.8379	543.0318	712.1527	732.9225	781.1583	828.568	842.3108	894.4215	907.0988	918.7047	952.8063	959.956	1064.0563	1087.8212	1107.7984	1124.0392	1149.6309	1177.2618	1195.7718	1218.9932	1236.2996	1260.7374	1294.03	1297.0543	1350.0082	1382.9378	1412.851	1467.8424	1489.8885	1495.0676	1496.306	1512.2412	1927.0739	3023.9391	3043.4185	3046.937	3060.9546	3062.5744	3092.8913	3095.4853	3110.7798	3113.887	3122.5208
CC1CC2(COC2=O)C1	C[C@H]1C[C@@]2(COC2=O)C1	
InChI=1S/C7H10O2/c1-5-2-7(3-5)4-9-6(7)8/h5H,2-4H2,1H3	InChI=1S/C7H10O2/c1-5-2-7(3-5)4-9-6(7)8/h5H,2-4H2,1H3/t5-,7-
