19
gdb 2866	2.0943374	1.7341738	1.5835364	0.3397	74.68	-0.22308	0.06378	0.28686	1002.0894	0.15605	-422.513692	-422.505193	-422.504249	-422.545957	33.566	
C	 0.8448749683	-2.9387263028	 0.0275192406	-0.439115
C	 0.897417463	-1.4182190586	 0.1204339516	-0.037371
C	 1.7981677002	-0.7662300247	-0.9325770582	-0.110409
C	 2.3628119695	 0.547733139	-0.3148293662	-0.168552
C	 1.7979902029	 0.642090743	 1.1032444061	-0.272707
C	 1.9343596096	-0.892417543	 1.1617225823	 0.314498
O	 2.0932463881	-1.4676139458	 2.4087259998	-0.480051
C	 3.0061340066	-0.7901912097	-0.0533468138	 0.285884
O	 4.2465520112	-1.3229190148	-0.2929385639	-0.456127
H	 0.3830304066	-3.3740800064	 0.9219448391	 0.111728
H	 0.2529553966	-3.2642360362	-0.83382058	 0.120424
H	 1.850003492	-3.3624677677	-0.0866964614	 0.12546
H	-0.1135319917	-1.0048336856	 0.2322393534	 0.061087
H	 1.7664566506	-0.8961785861	-2.0068437542	 0.088169
H	 2.7060350195	 1.3477078809	-0.9575391371	 0.088827
H	 2.4982962342	 1.1309051525	 1.786284226	 0.098812
H	 0.7914387947	 1.0505112122	 1.2457555116	 0.091521
H	 2.1351172691	-2.4243679444	 2.3004713421	 0.286248
H	 4.8926519788	-0.8412559217	 0.2364385122	 0.291675
151.245	181.4328	229.534	245.9529	288.7124	299.0711	362.5907	405.6099	449.805	489.7805	516.2639	614.4296	665.0841	723.4672	777.6141	834.041	844.7567	914.3206	931.4741	961.6405	981.8265	1005.0636	1034.624	1072.0524	1093.2405	1101.7705	1114.2201	1139.9739	1211.5724	1235.5462	1242.4342	1261.3773	1307.4422	1321.3284	1364.857	1387.8603	1410.5146	1482.6453	1500.1407	1502.7979	1508.0163	3016.957	3020.0614	3040.2889	3084.1023	3096.5923	3100.6153	3196.1611	3206.3495	3784.3343	3801.2905
CC1C2C3CC1(O)C23O	C[C@@H]1[C@H]2[C@H]3C[C@]1(O)[C@@]23O	
InChI=1S/C7H10O2/c1-3-5-4-2-6(3,8)7(4,5)9/h3-5,8-9H,2H2,1H3	InChI=1S/C7H10O2/c1-3-5-4-2-6(3,8)7(4,5)9/h3-5,8-9H,2H2,1H3/t3-,4-,5+,6-,7+/m1/s1
