19
gdb 1581	3.6071824	0.96969	0.9140241	3.6014	80.91	-0.24957	-0.05768	0.19188999999999998	1336.3262	0.155456	-422.592154	-422.582896	-422.581952	-422.626106	34.247	
C	-1.38003925	-3.4648089377	 1.3576201964	-0.444063
C	-1.1769408654	-2.7563092876	 0.0112768606	 0.37831
O	-1.5627146192	-3.6163506625	-1.0620397975	-0.465959
C	-1.9955066621	-1.4445875453	-0.1183268802	-0.262525
C	-1.0151866614	-0.2887737425	 0.1912082441	-0.32103
C	 0.3380983369	-0.9249512767	-0.0348725523	 0.240335
C	 1.5909948026	-0.167111953	-0.1084883552	 0.074969
O	 1.6665074001	 1.0351813501	 0.0184365639	-0.268953
C	 0.2488885763	-2.2571363427	-0.136902481	-0.215818
H	-0.7086545877	-4.3268218446	 1.4556164629	 0.108037
H	-1.176603783	-2.7912612209	 2.1956115728	 0.128198
H	-2.4124422198	-3.819676387	 1.4353175257	 0.130452
H	-1.1983006545	-4.4922130809	-0.8944630333	 0.276898
H	-2.3348637795	-1.3835141339	-1.1556346454	 0.125302
H	-2.8808063844	-1.4441893283	 0.5220230764	 0.101316
H	-1.1672313696	 0.5907544213	-0.4404331752	 0.126371
H	-1.1018738881	 0.0618698259	 1.2271349585	 0.118965
H	 2.4978588138	-0.7848912709	-0.2965129024	 0.066927
H	 1.087709365	-2.9324736328	-0.2815181488	 0.102269
73.7611	115.4838	178.6469	193.5501	258.7665	268.372	321.5604	340.4607	399.6769	414.0058	492.1889	530.1734	602.7635	719.8586	757.3327	846.3334	880.7211	898.1502	943.9747	953.4318	983.7396	1004.0381	1037.0502	1084.4551	1117.9061	1174.3203	1177.2426	1217.1821	1267.9449	1289.3697	1313.2914	1362.9183	1375.5633	1401.9307	1422.0044	1480.2392	1488.3048	1493.2707	1499.3118	1684.7846	1785.4419	2877.7096	3023.8232	3036.2481	3067.1596	3088.3071	3092.8523	3114.8865	3116.6823	3175.5769	3805.5644
CC1(O)CCC(C=O)=C1	C[C@@]1(O)CCC(=C1)C=O	
InChI=1S/C7H10O2/c1-7(9)3-2-6(4-7)5-8/h4-5,9H,2-3H2,1H3	InChI=1S/C7H10O2/c1-7(9)3-2-6(4-7)5-8/h4-5,9H,2-3H2,1H3/t7-/m1/s1
