19
gdb 5890	2.5425864	0.9155702	0.8455723	3.0394	78.82	-0.23859	-0.0305	0.20809	1491.076	0.152648	-422.535574	-422.524494	-422.523549	-422.573062	37.867	
C	 5.1017746985	 3.0929528178	 2.6344112795	-0.382725
C	 4.8774732296	 1.7928357264	 1.8598083726	-0.166622
C	 3.4570483477	 1.2239151005	 2.0612216724	-0.264954
C	 3.2924861803	-0.0956426378	 1.3303884969	 0.367035
O	 3.6994386764	-1.1438762851	 1.7651517972	-0.304368
C	 2.5952791967	-0.0533884646	-0.0605219139	-0.094244
O	 3.0399617643	 1.0633021759	-0.8254410781	-0.417634
C	 1.1500233125	-0.056355899	 0.1326860108	 0.269152
C	-0.0360444504	 0.0068571784	 0.3220766514	-0.456444
H	 4.9635764866	 2.9431611841	 3.7107530702	 0.117944
H	 6.116097106	 3.472595431	 2.4773051762	 0.117605
H	 4.4014114746	 3.8728156902	 2.3153166872	 0.113439
H	 5.0427341417	 1.9573733022	 0.7900024477	 0.120495
H	 5.6008254826	 1.0349192647	 2.1806609155	 0.118045
H	 3.2860726039	 1.0325014167	 3.1257330849	 0.123212
H	 2.7121178618	 1.9493037579	 1.7174223658	 0.092874
H	 2.90930905	-0.9630165075	-0.5840925147	 0.137672
H	 2.3530912337	 1.7369357198	-0.8020974752	 0.296846
H	-1.0869098166	 0.0363288982	 0.4762668336	 0.212671
35.2926	58.2762	92.8299	120.1579	139.4659	181.8459	215.1713	240.2191	255.3921	330.4578	373.1675	457.1803	539.3391	604.1635	632.7709	687.7298	741.9564	755.3042	803.2084	890.0384	904.7758	947.2451	1044.1897	1063.2089	1079.4954	1103.2321	1188.7419	1249.9208	1264.9047	1283.6062	1300.1564	1326.9519	1369.7774	1387.8861	1414.1046	1476.9617	1495.5492	1498.9225	1509.2322	1820.8855	2227.6148	3030.3805	3038.5814	3049.0014	3057.4003	3074.7458	3092.6917	3104.3542	3109.0748	3500.5377	3829.5121
CCCC(=O)C(O)C#C	CCCC(=O)[C@H](O)C#C	
InChI=1S/C7H10O2/c1-3-5-7(9)6(8)4-2/h2,6,8H,3,5H2,1H3	InChI=1S/C7H10O2/c1-3-5-7(9)6(8)4-2/h2,6,8H,3,5H2,1H3/t6-/m1/s1
