19
gdb 1487	2.3136262	1.6566115	1.3088178	2.0123	75.24	-0.23015	-0.02678	0.20337	1057.9439	0.15564	-422.550429	-422.541518	-422.540574	-422.58423	33.363	
C	-1.0855207986	 1.9572276266	-1.1985801578	-0.457952
C	-1.2083779517	 0.97977617	-0.0449143194	 0.293011
O	-1.3599894286	 1.6564475349	 1.2032294111	-0.470041
C	-2.2618126344	-0.1708910824	-0.0613683254	-0.056178
C	-2.5902663051	-0.81519611	-1.4301368207	-0.239142
C	-1.4025598361	-1.8082812452	-1.2650893199	-0.235703
C	-1.1205790459	-1.2422263705	 0.1680341872	-0.160977
C	-0.1061808615	-0.1048011354	 0.1539554	 0.358297
O	 1.0757499475	-0.0182130727	 0.338390758	-0.319344
H	-0.9875693764	 1.4479802408	-2.1615058322	 0.120425
H	-1.9600996926	 2.6144037366	-1.2338233685	 0.12885
H	-0.1925096365	 2.5775134333	-1.0639929167	 0.124695
H	-0.5103345087	 2.0639830977	 1.4119596381	 0.289255
H	-3.0744245187	-0.0092556241	 0.6446204864	 0.086802
H	-3.5586612609	-1.3206396571	-1.4231935962	 0.109652
H	-2.5651924551	-0.157053762	-2.30197822	 0.10333
H	-1.6965163688	-2.8592715466	-1.2567492905	 0.116796
H	-0.5777425016	-1.6953797096	-1.973254089	 0.114622
H	-1.0743786665	-1.9566735844	 0.9899815654	 0.093602
38.973	155.562	189.2285	204.126	259.3723	263.19	341.54	366.4813	413.6653	481.0744	616.2248	656.6	723.4225	762.4099	797.6476	824.5112	850.9861	919.8046	948.7807	959.8743	982.8112	1009.6925	1051.3299	1092.4793	1109.7875	1139.6616	1174.287	1180.2407	1214.8524	1241.7742	1252.313	1275.7279	1282.8063	1305.7696	1362.7469	1403.6324	1477.025	1483.9112	1490.0497	1505.1654	1875.4792	3034.4534	3063.9824	3069.0778	3101.8524	3103.7971	3113.1785	3117.1068	3124.2423	3133.4427	3784.0272
CC1(O)C2CCC2C1=O	C[C@@]1(O)[C@H]2CC[C@H]2C1=O	
InChI=1S/C7H10O2/c1-7(9)5-3-2-4(5)6(7)8/h4-5,9H,2-3H2,1H3	InChI=1S/C7H10O2/c1-7(9)5-3-2-4(5)6(7)8/h4-5,9H,2-3H2,1H3/t4-,5+,7-/m1/s1
