19
gdb 4511	2.5704869	1.6327267	1.1202777	1.7576	75.75	-0.23913	-0.01558	0.22355	1106.3908	0.157392	-422.565784	-422.557478	-422.556534	-422.598639	31.607	
C	 0.084076892	-2.4907694013	 0.4640237389	-0.399689
C	-0.7774099919	-1.3203054928	-0.0062219002	-0.121078
C	-2.0874186802	-1.1753912732	 0.7932559711	-0.085634
O	-2.931603515	-0.1878567827	 0.2242172605	-0.25642
C	-2.3820380297	 1.0948603887	 0.1609072368	 0.093225
C	-1.817555821	 1.5203252985	-1.1513735371	-0.312421
C	-0.8755502978	 1.2383161746	 0.0241499768	-0.149388
C	-0.0289355443	 0.0110313461	 0.079024182	 0.391597
O	 1.166915026	 0.0763759585	 0.267084725	-0.333564
H	 0.3360594823	-2.3912475884	 1.5246309094	 0.125135
H	-0.4404321447	-3.4403802772	 0.3216428709	 0.109741
H	 1.0244703644	-2.5206932993	-0.0889741103	 0.14007
H	-1.072697641	-1.4748738334	-1.0538431619	 0.104464
H	-2.6584121012	-2.1077559757	 0.7680671474	 0.116225
H	-1.8625592136	-0.9435238035	 1.8464006097	 0.099662
H	-2.9035000944	 1.8215736419	 0.7795657771	 0.105624
H	-1.8596387401	 0.7938033987	-1.9545207903	 0.132517
H	-1.9016413778	 2.5556639724	-1.4610305286	 0.127227
H	-0.397338862	 2.104537288	 0.4672296728	 0.112709
73.0359	173.7786	186.21	223.1466	277.0328	338.9333	397.5092	432.4168	473.0631	507.0357	647.6765	718.9563	756.8788	786.3509	828.7713	892.7002	926.1327	948.8207	976.6146	1016.0605	1045.7502	1061.7559	1088.1549	1122.4785	1125.8259	1150.6701	1173.8456	1224.4011	1238.9525	1264.0258	1308.0907	1335.0855	1363.3109	1376.38	1408.1591	1418.7158	1474.3899	1490.0486	1495.7292	1506.3007	1790.9393	2982.7678	3012.3022	3045.3221	3090.0938	3110.471	3130.9785	3136.9693	3142.8024	3179.5728	3235.2609
CC1COC2CC2C1=O	C[C@H]1CO[C@@H]2C[C@@H]2C1=O	
InChI=1S/C7H10O2/c1-4-3-9-6-2-5(6)7(4)8/h4-6H,2-3H2,1H3	InChI=1S/C7H10O2/c1-4-3-9-6-2-5(6)7(4)8/h4-6H,2-3H2,1H3/t4-,5-,6+/m0/s1
