19
gdb 2901	2.8774205	1.5013094	1.1609329	2.6368	74.66	-0.20646	0.05381	0.26027	1095.4206	0.15499	-422.482631	-422.473785	-422.472841	-422.515245	34.631	
C	-1.6780176107	 2.9214635812	 4.0153070269	-0.486978
C	-1.8367460196	 2.053993168	 2.8005891966	 0.275458
C	-2.9337807001	 2.2199988624	 1.7791275896	-0.356607
C	-2.8037672421	 0.9112186271	 2.5270008566	-0.10906
C	-1.6437214929	 0.0032539645	 2.0378418258	-0.19544
C	-0.8246310037	 0.5972130804	 0.898355905	 0.076986
O	 0.2517077524	-0.1913911245	 0.4884524621	-0.451837
C	-0.67237497	 1.1507234963	 2.2845443751	 0.261356
O	 0.610958673	 1.1784200213	 2.8162092733	-0.456416
H	-1.1859251315	 2.3869509155	 4.8367965536	 0.104061
H	-1.0756893691	 3.8113108738	 3.7979099867	 0.128329
H	-2.6542483021	 3.2584414445	 4.377973417	 0.120063
H	-3.7580812259	 2.8417831986	 2.1194408524	 0.108663
H	-2.748425594	 2.3113853247	 0.715549595	 0.118773
H	-3.5972605176	 0.5432023588	 3.166633479	 0.088977
H	-1.5549875513	-1.0531445584	 2.2567789038	 0.096478
H	-1.2723121734	 1.1389242628	 0.0703359807	 0.092618
H	 0.990181802	 0.0336021649	 1.0709969843	 0.289539
H	 0.6053830665	 0.7382190382	 3.6727161964	 0.295035
135.732	189.615	216.0137	258.7809	274.4227	290.464	313.0166	373.6221	416.0611	448.2085	466.9436	542.1217	622.1749	687.3199	774.2792	856.5347	878.16	887.3517	906.5548	915.4148	963.092	972.6376	1005.8555	1053.1652	1066.1278	1093.9907	1110.2017	1120.815	1168.2367	1222.014	1238.9159	1259.2721	1295.1352	1324.3633	1367.5834	1389.4358	1416.6662	1451.0495	1482.5018	1496.9741	1504.2277	3019.74	3074.4372	3098.8264	3120.9172	3141.5867	3175.6455	3199.6346	3207.0924	3743.7421	3803.9709
CC12CC1C1C(O)C21O	C[C@]12C[C@H]1[C@H]1[C@H](O)[C@@]21O	
InChI=1S/C7H10O2/c1-6-2-3(6)4-5(8)7(4,6)9/h3-5,8-9H,2H2,1H3	InChI=1S/C7H10O2/c1-6-2-3(6)4-5(8)7(4,6)9/h3-5,8-9H,2H2,1H3/t3-,4-,5-,6-,7+/m0/s1
