19
gdb 4930	1.9997984	1.4168694	1.1982527	2.2814	77.73	-0.24884	0.02317	0.27201000000000003	1178.2749	0.153859	-422.506704	-422.49673	-422.495786	-422.541671	36.199	
C	 1.4095993268	-1.1017856787	 1.2172593968	-0.392873
C	 1.1678158886	-0.2870851886	-0.0555697762	-0.213886
C	 2.1096547976	-0.6831440464	-1.1964041923	 0.173846
O	 1.9255173499	-2.0824215258	-1.5738157535	-0.311425
C	 1.3324172711	-1.7299406673	-2.83987488	-0.088083
C	 1.6379797664	-0.2430042228	-2.636852589	 0.005904
O	 0.5062589392	 0.5753017399	-2.7485927432	-0.412324
C	 3.5049450669	-0.385043532	-0.900426586	 0.313762
C	 4.6544749652	-0.1033965972	-0.6858352313	-0.457782
H	 1.3079865452	-2.1702062353	 1.0086688381	 0.136261
H	 2.4137245501	-0.9276957715	 1.615207879	 0.125786
H	 0.6849171923	-0.8319750484	 1.9908762843	 0.10982
H	 0.1418192876	-0.4223384278	-0.4100345861	 0.113219
H	 1.2953402641	 0.7842897458	 0.1423309567	 0.093373
H	 1.8284811214	-2.2262953191	-3.680243278	 0.110286
H	 0.2561951195	-1.9393671297	-2.8709330569	 0.111935
H	 2.4725408573	 0.1267521452	-3.2414342677	 0.091237
H	 0.783374723	 1.4955420582	-2.6982630811	 0.292788
H	 5.6713181479	 0.1302520716	-0.4866116033	 0.198155
55.4376	99.2265	144.2231	165.1971	181.4248	228.5284	292.5938	308.1834	376.2495	407.1171	490.0695	531.6772	584.9515	620.6943	631.2006	662.47	768.0454	791.8406	905.8647	942.2125	996.0528	1008.307	1018.4206	1037.0876	1111.0139	1139.1016	1145.1808	1168.7102	1206.8958	1243.6308	1292.9261	1320.3703	1337.3594	1360.5803	1406.046	1446.5758	1474.8733	1496.1543	1510.5578	1517.267	2226.4863	3026.1269	3036.7564	3044.4543	3048.3338	3080.9787	3088.3541	3114.5149	3124.7004	3499.6781	3822.4117
CCC1(OCC1O)C#C	CC[C@]1(OC[C@H]1O)C#C	
InChI=1S/C7H10O2/c1-3-7(4-2)6(8)5-9-7/h1,6,8H,4-5H2,2H3	InChI=1S/C7H10O2/c1-3-7(4-2)6(8)5-9-7/h1,6,8H,4-5H2,2H3/t6-,7-/m1/s1
