19
gdb 5160	2.3003014	1.5877083	1.2414934	2.0534	75.11	-0.23643	-0.0215	0.21493	1098.1815	0.156267	-422.563562	-422.554832	-422.553887	-422.597106	32.39	
C	 2.3234740055	-1.1023650036	 1.3084730496	-0.388658
C	 1.7530199499	-0.2536027719	 0.1656054906	-0.27749
C	 2.1174414234	-0.768095095	-1.2089534046	 0.18979
C	 1.1758679147	-0.5749163177	-2.4133329096	-0.374228
C	 1.5102994397	-1.9466714769	-1.9362110578	 0.074477
O	 2.4840528838	-2.661517762	-2.6626988797	-0.262423
C	 3.7041601144	-1.935627757	-2.6501255602	-0.194519
C	 3.557531442	-0.8121394358	-1.6123574194	 0.332111
O	 4.4589825729	-0.1431297169	-1.1717521852	-0.327599
H	 2.0271328236	-0.6934653838	 2.2789404495	 0.115989
H	 1.9630060533	-2.1351122959	 1.2543498258	 0.114281
H	 3.4161761988	-1.1208323984	 1.2722840175	 0.13984
H	 0.6612103949	-0.2009977857	 0.2485061329	 0.096071
H	 2.1228509614	 0.7750126537	 0.2527847558	 0.120421
H	 0.1998126134	-0.1714565564	-2.1652361073	 0.127586
H	 1.5804487997	-0.2350259653	-3.3608378111	 0.128194
H	 0.762911442	-2.5963059556	-1.4957276647	 0.114957
H	 4.5267014394	-2.6017984672	-2.3694364504	 0.14178
H	 3.9340949473	-1.5131951686	-3.6386904916	 0.129419
74.2794	114.3976	165.8115	178.0996	217.3003	286.5344	401.6984	449.5663	453.8422	546.0124	611.2439	638.4209	707.4197	767.533	828.9688	860.6114	893.167	963.6964	986.7018	1007.1542	1021.1127	1042.458	1056.005	1074.4971	1107.6157	1130.554	1157.9028	1205.0091	1254.4247	1293.3377	1330.7352	1340.7296	1363.0505	1401.9752	1410.3735	1474.1091	1482.1991	1487.445	1498.8458	1510.087	1833.3178	3009.8235	3031.3732	3039.1952	3066.5519	3074.0308	3106.5966	3121.1897	3129.8455	3183.0121	3219.8996
CCC12CC1OCC2=O	CC[C@]12C[C@H]1OCC2=O	
InChI=1S/C7H10O2/c1-2-7-3-6(7)9-4-5(7)8/h6H,2-4H2,1H3	InChI=1S/C7H10O2/c1-2-7-3-6(7)9-4-5(7)8/h6H,2-4H2,1H3/t6-,7-/m1/s1
