19
gdb 4053	2.636395	1.8668696	1.3373582	2.9503	74.39	-0.22874	0.06853	0.29727	987.9388	0.157066	-422.512154	-422.504304	-422.50336	-422.544037	31.205	
C	 1.1500833466	 0.8828061541	-3.2602676146	-0.514461
C	 0.3406831614	 0.0560051661	-2.29405477	 0.369219
C	-1.0775771997	-0.4763879293	-2.6892806474	-0.005737
O	-0.4902794008	-1.4609310281	-3.6075243971	-0.322965
C	 0.3431698907	-1.5081725923	-2.393653425	 0.019846
C	-0.9180250341	-1.4502290329	-1.4884384494	-0.036974
C	-0.6158756964	-0.6531449502	-0.2284115235	-0.29108
C	 0.3314883703	 0.4364835509	-0.8177829074	 0.040147
O	 1.6672114491	 0.3591035494	-0.3370373951	-0.440344
H	 2.1986613345	 0.9139478875	-2.9510053574	 0.133677
H	 1.0852959473	 0.4550809925	-4.2639375603	 0.13362
H	 0.7840306206	 1.9153992816	-3.2980553421	 0.109613
H	-1.9552544139	 0.0761919125	-3.0298700114	 0.084372
H	 1.185018731	-2.2004904334	-2.3797121885	 0.092142
H	-1.5629475924	-2.3271156212	-1.4539306475	 0.079255
H	-1.5183497287	-0.232165203	 0.2267932432	 0.098832
H	-0.0931825633	-1.2437047233	 0.530444724	 0.102882
H	-0.0688917154	 1.4507106227	-0.6692984195	 0.063486
H	 1.6700602033	 0.6228726865	 0.5881916789	 0.284471
108.3165	228.9782	244.6905	277.4615	299.644	314.0165	394.5907	491.0552	524.2204	661.7648	686.5603	712.6335	776.6623	791.1828	856.9705	884.4469	897.3697	920.35	947.1599	991.6979	1006.0326	1035.2199	1080.1377	1098.2542	1120.3775	1151.3221	1171.7108	1185.8056	1217.9559	1228.3612	1237.9243	1262.6722	1282.9282	1296.7344	1341.4348	1367.3627	1402.5125	1435.5193	1484.9426	1493.5667	1497.4085	2983.188	3034.7812	3045.2362	3091.2214	3098.9458	3099.9021	3118.1272	3126.8554	3137.7046	3821.6832
CC12C3OC1C3CC2O	C[C@@]12[C@H]3O[C@@H]1[C@H]3C[C@H]2O	
InChI=1S/C7H10O2/c1-7-4(8)2-3-5(7)9-6(3)7/h3-6,8H,2H2,1H3	InChI=1S/C7H10O2/c1-7-4(8)2-3-5(7)9-6(3)7/h3-6,8H,2H2,1H3/t3-,4-,5-,6+,7+/m1/s1
