19
gdb 2430	2.4409686	2.1615649	1.5809714	1.2685	72.82	-0.24339	0.07695	0.32034	914.993	0.159167	-422.547703	-422.540731	-422.539787	-422.578553	28.74	
C	 0.32967279	-0.7808938181	-0.3391102085	-0.502027
C	 1.5537583199	 0.0353225805	 0.0253177974	 0.267715
C	 1.4504742739	 0.8837528561	 1.2994456009	-0.112601
O	 2.6355279092	 1.7057199153	 1.2794214208	-0.278092
C	 3.1105534326	 1.6700387291	-0.0424066997	 0.103688
C	 3.7770143917	 0.3432049901	-0.5608466861	 0.032677
C	 2.9156852275	-0.7316977641	 0.1199647465	-0.256949
O	 3.0621176874	 0.5293260551	-1.8213277655	-0.300809
C	 2.0390385919	 1.1290923123	-0.9992404529	 0.015247
H	 0.1274981353	-1.5579206387	 0.4065453181	 0.118737
H	-0.563554209	-0.1499304652	-0.4124040326	 0.115057
H	 0.4736865589	-1.2759659528	-1.3046989998	 0.130913
H	 0.5546233623	 1.5239226971	 1.3026423755	 0.092012
H	 1.4497079378	 0.2852854374	 2.2164047307	 0.109012
H	 3.6300056107	 2.5895538412	-0.306845207	 0.094734
H	 4.8499696812	 0.1926815825	-0.6771317109	 0.078797
H	 2.9253828457	-1.6550578653	-0.4638574617	 0.106517
H	 3.2094499632	-0.9485823389	 1.1502158943	 0.104891
H	 1.2977738399	 1.7186358265	-1.5385003595	 0.080482
212.9898	229.8029	248.6199	321.0516	403.229	426.601	504.4188	596.6875	625.9386	697.2871	763.2611	803.0829	841.2442	874.8532	899.4809	941.5388	954.8369	963.4675	973.4155	987.7511	1032.8939	1047.535	1069.2708	1107.9059	1161.1274	1178.6016	1197.0277	1213.3281	1214.4888	1242.0564	1263.0816	1282.3439	1296.1143	1325.3759	1352.2352	1396.5455	1415.8992	1477.4903	1494.2528	1499.9983	1523.0925	2984.2422	3026.0131	3063.4397	3068.9446	3088.7363	3101.2221	3118.4206	3122.3544	3124.8722	3142.9724
CC12COC3C(C1)OC23	C[C@@]12CO[C@H]3[C@@H](C1)O[C@@H]23	
InChI=1S/C7H10O2/c1-7-2-4-5(8-3-7)6(7)9-4/h4-6H,2-3H2,1H3	InChI=1S/C7H10O2/c1-7-2-4-5(8-3-7)6(7)9-4/h4-6H,2-3H2,1H3/t4-,5+,6-,7+/m1/s1
