19
gdb 2870	2.4243691	2.0059434	1.5524316	2.1122	72.45	-0.24614	0.06441	0.31055	926.7569	0.159392	-422.581236	-422.573909	-422.572964	-422.612268	30.642	
O	 0.4503424806	 0.3244019094	 0.0408423202	-0.463503
C	-0.7907388205	 0.5244782711	 0.7021281088	 0.10481
C	-2.0502260813	 0.1864566838	-0.0716735033	-0.122298
C	-3.1409431126	 1.0756739606	 0.5062082328	-0.063298
C	-2.5032777804	 1.9257283436	 1.6048360948	-0.256878
C	-1.1086106149	 2.0250901562	 0.9600969834	 0.366844
O	-0.1467545586	 2.724745648	 1.6891417351	-0.508928
C	-1.4504413465	 2.5333963312	-0.4683903199	-0.289467
C	-2.4734404243	 1.456361276	-0.802604588	-0.069967
H	 0.3195265904	 0.4987143032	-0.8970160346	 0.286735
H	-0.7065130788	-0.0169079404	 1.6502475011	 0.086597
H	-2.2563260477	-0.8040978731	-0.4563301363	 0.087618
H	-4.1709389895	 0.7469025764	 0.545849772	 0.087442
H	-2.9801484648	 2.9027928334	 1.7298371547	 0.102302
H	-2.4684241911	 1.4257700173	 2.5777854089	 0.102049
H	 0.7103698534	 2.4228487192	 1.3613338663	 0.281277
H	-1.8706239818	 3.5432796094	-0.4451382154	 0.10393
H	-0.5777135837	 2.5419771509	-1.1310354544	 0.079318
H	-3.0059340879	 1.4146787436	-1.7438379661	 0.085416
186.5618	240.4971	300.7599	347.1872	374.2924	413.8955	446.9737	490.1657	560.0094	624.0805	649.6459	701.9407	793.767	813.3187	832.9887	884.2896	920.1164	942.3314	957.6419	976.3892	1017.9252	1025.7512	1064.0971	1068.0725	1091.6264	1113.4023	1121.9236	1149.516	1179.961	1220.6592	1245.267	1255.5513	1286.6757	1299.013	1318.8568	1340.1569	1389.9086	1403.9294	1431.4602	1493.0357	1513.0306	3041.1958	3049.3951	3062.3722	3089.2575	3095.826	3191.7958	3194.5155	3207.2475	3767.2979	3816.1236
OC1C2C3CC1(O)CC23	O[C@@H]1[C@H]2[C@H]3C[C@]1(O)C[C@@H]23	
InChI=1S/C7H10O2/c8-6-5-3-1-7(6,9)2-4(3)5/h3-6,8-9H,1-2H2	InChI=1S/C7H10O2/c8-6-5-3-1-7(6,9)2-4(3)5/h3-6,8-9H,1-2H2/t3-,4+,5-,6-,7-/m1/s1
