19
gdb 846	3.6676878	1.1878883	1.0264852	2.3363	74.93	-0.24244	-0.02985	0.21259	1189.0377	0.157581	-422.567085	-422.559013	-422.558069	-422.60062	29.964	
O	 0.8246376276	-0.9306835626	 0.3239363838	-0.24179
C	 0.2558381872	 0.020573367	-0.1457526104	 0.125118
C	 0.3137374834	 1.4199148745	 0.435841122	 0.042608
O	-0.9056989834	 2.1393459244	 0.1694284229	-0.319973
C	-1.2186267343	 2.2152651773	 1.5906059092	 0.132142
C	-1.1670632931	 3.6435366969	 2.1220210676	-0.218379
C	 0.3394441062	 3.9591067099	 2.2093955322	-0.211748
C	 0.9692684543	 2.6233439003	 2.6594990012	-0.23264
C	 0.1346389755	 1.5395888425	 1.9621831087	-0.072956
H	-0.3775094299	-0.0526926135	-1.0588633016	 0.090597
H	 1.1955763889	 1.9299167763	 0.0154646403	 0.10133
H	-2.1502030573	 1.6847945902	 1.8113330459	 0.07782
H	-1.7262522826	 4.3339791074	 1.4846377389	 0.111944
H	-1.6223806197	 3.6650705044	 3.1204262139	 0.100062
H	 0.7140488949	 4.2425605061	 1.2199055487	 0.11342
H	 0.56572663	 4.7839457009	 2.8895915725	 0.098657
H	 2.0357526868	 2.5486622928	 2.4256224798	 0.105012
H	 0.8684604171	 2.5090441153	 3.7451565471	 0.104014
H	 0.1200434483	 0.5830970399	 2.4838416874	 0.094761
40.169	108.779	163.6115	216.4921	273.7456	356.4314	428.1427	561.6034	605.5801	634.5475	775.9601	824.8707	845.0846	860.6506	881.814	902.5087	937.0092	965.2841	994.5725	1031.2198	1041.3204	1053.9352	1086.4726	1115.6087	1142.442	1184.4651	1197.135	1233.5964	1265.3364	1283.5593	1300.4755	1323.8704	1332.9607	1342.8862	1363.6452	1377.0503	1398.2105	1470.8771	1488.424	1501.3784	1830.4058	2883.8116	2978.121	3031.1854	3038.8137	3050.9333	3059.914	3085.9608	3097.4671	3105.8896	3120.6565
O=CC1OC2CCCC12	O=C[C@H]1O[C@@H]2CCC[C@H]12	
InChI=1S/C7H10O2/c8-4-7-5-2-1-3-6(5)9-7/h4-7H,1-3H2	InChI=1S/C7H10O2/c8-4-7-5-2-1-3-6(5)9-7/h4-7H,1-3H2/t5-,6+,7+/m0/s1
