19
gdb 1111	2.7004934	1.1339034	0.9715205	0.9006	78.48	-0.25262	-0.04605	0.20657	1286.4338	0.153407	-422.58228	-422.57219	-422.571245	-422.617653	35.501	
C	 3.9879325137	 1.5516979866	 0.1945093865	-0.482954
C	 2.5268535357	 1.4143872878	-0.1856277482	 0.3824
O	 1.8449963982	 2.3767941994	-0.4733777144	-0.321719
C	 1.9873481165	 0.0186406571	-0.1887659246	-0.142395
C	 0.7584090244	-0.2983857915	-0.9865867937	-0.310462
C	 0.6400240927	-0.2917382488	 0.518750745	 0.220616
C	-0.1601564422	 0.7781754222	 1.2307667486	-0.499715
C	 0.6197868054	-1.6464763817	 1.1533662957	 0.103747
O	 1.2267976302	-2.60835939	 0.7475080997	-0.267461
H	 4.165383461	 1.1166791254	 1.1847154495	 0.143078
H	 4.6141473792	 0.9937735388	-0.5113799589	 0.146092
H	 4.2770274231	 2.6029508951	 0.1915966708	 0.142886
H	 2.7133404467	-0.7801602523	-0.0831665524	 0.111842
H	 0.3030137246	 0.5371467958	-1.5068001897	 0.142841
H	 0.7268646161	-1.2625277404	-1.4806189754	 0.138444
H	 0.1701664629	 0.8977713784	 2.2687078221	 0.120473
H	-0.0592837842	 1.740083066	 0.7287017886	 0.167095
H	-1.221515123	 0.5068219189	 1.2481930852	 0.123781
H	-0.0221238613	-1.7172411568	 2.0596678556	 0.081409
66.0854	85.3508	130.3512	147.2554	167.6346	205.6061	241.2359	307.9929	340.6578	380.0628	396.0058	573.7021	599.4286	629.4248	715.5102	769.716	829.794	925.103	950.5198	959.7987	994.8063	1046.7439	1050.681	1072.1197	1092.4611	1119.3843	1142.4517	1190.8953	1268.6973	1306.5278	1377.7066	1407.0076	1420.9919	1429.691	1455.5155	1462.7839	1473.7599	1497.2467	1506.6722	1785.0213	1810.3313	2884.8969	3034.2923	3034.6128	3089.5801	3094.2837	3137.9781	3155.2162	3155.98	3176.4528	3239.6117
CC(=O)C1CC1(C)C=O	CC(=O)[C@@H]1C[C@@]1(C)C=O	
InChI=1S/C7H10O2/c1-5(9)6-3-7(6,2)4-8/h4,6H,3H2,1-2H3	InChI=1S/C7H10O2/c1-5(9)6-3-7(6,2)4-8/h4,6H,3H2,1-2H3/t6-,7-/m0/s1
