19
gdb 4808	2.1845602	1.2214012	0.8695241	2.1783	77.68	-0.26605	0.01126	0.27731	1365.199	0.153587	-422.556184	-422.545723	-422.544778	-422.59288	36.258	
C	 0.4360383431	 0.1957068583	 3.0332018964	-0.396741
C	-0.8123583342	 0.492047893	 2.1990441576	-0.17828
C	-0.506282778	 0.9080830806	 0.7612688995	 0.109583
C	-1.7824225831	 1.2217324216	-0.0386331402	-0.365746
C	-1.5149145614	 1.6802910915	-1.3953588583	 0.29498
C	-1.2742489851	 2.060279181	-2.5094299899	-0.429148
O	 0.1562968557	-0.1923881224	 0.0894206813	-0.220553
C	 1.4109919207	-0.0020720827	-0.3501660233	 0.195006
O	 2.0879220777	 0.9771871309	-0.2048227631	-0.303419
H	 0.1621504938	-0.060818965	 4.0605793232	 0.116747
H	 0.9968228975	-0.6462508528	 2.6178020627	 0.127309
H	 1.1064481839	 1.0603301777	 3.067190657	 0.129903
H	-1.4704853714	-0.3857248308	 2.1803193231	 0.106965
H	-1.3854807753	 1.3039866764	 2.6633343618	 0.104351
H	 0.1691675797	 1.7663211308	 0.7418826822	 0.129456
H	-2.4110933492	 0.322827078	-0.0636252602	 0.138424
H	-2.3490325491	 1.9862872761	 0.5071005255	 0.134742
H	-1.065026539	 2.3990472739	-3.4937546882	 0.198492
H	 1.7321550538	-0.9172089663	-0.8714579973	 0.107929
31.9173	65.7726	94.7603	113.1339	198.754	221.5737	249.8828	282.0816	342.4286	353.0392	417.715	443.8531	573.0967	623.6653	645.9646	751.1573	787.2038	831.5962	918.527	958.4858	966.4017	1039.1221	1044.4673	1075.9475	1124.3917	1148.7497	1199.2234	1240.325	1292.1451	1307.2284	1362.097	1380.6079	1402.6616	1412.8414	1416.0115	1458.2142	1478.1672	1497.3816	1509.3692	1822.7528	2243.0878	3023.3108	3028.6513	3029.5443	3043.2904	3059.2859	3063.6084	3103.9973	3113.1345	3118.5729	3506.7441
CCC(CC#C)OC=O	CC[C@H](CC#C)OC=O	
InChI=1S/C7H10O2/c1-3-5-7(4-2)9-6-8/h1,6-7H,4-5H2,2H3	InChI=1S/C7H10O2/c1-3-5-7(4-2)9-6-8/h1,6-7H,4-5H2,2H3/t7-/m1/s1
