19
gdb 2996	2.5447621	1.2390287	1.1099256	2.9195	76.12	-0.2439	-0.03547	0.20843	1205.1364	0.154012	-422.522412	-422.512953	-422.512009	-422.5569	33.979	
C	 1.3761131788	-0.6050952354	-1.1710719083	-0.429124
C	 1.0381160579	 0.1710388324	 0.0843895201	-0.090291
C	 1.8505042803	 1.3927749897	 0.3923128144	 0.046576
O	 1.2718458063	 2.1361298622	 1.472544343	-0.305794
C	 1.5068537209	 1.032618914	 2.3760178403	-0.005276
C	 0.2773126171	 0.5426283083	 3.1081037924	 0.134051
O	 0.3357840959	-0.1885075734	 4.0640321176	-0.247451
C	 2.0470659772	 0.1464816379	 1.2336522194	 0.234181
C	 3.1576201115	-0.8439044155	 1.4238184169	-0.500356
H	 1.1747368387	-1.6747007686	-1.0498311011	 0.127915
H	 0.7780750897	-0.2433098665	-2.0134490799	 0.127435
H	 2.4296591997	-0.4958573426	-1.4472668721	 0.120776
H	-0.0238542236	 0.2150253035	 0.3155578782	 0.089629
H	 2.4882495263	 1.9232427559	-0.3064733082	 0.107219
H	 2.289915627	 1.2772740242	 3.1044085199	 0.107542
H	-0.690532977	 0.8867303079	 2.681794095	 0.0908
H	 2.8229951846	-1.6796102224	 2.0494238116	 0.139012
H	 3.5001010886	-1.2604609375	 0.4733988862	 0.127286
H	 4.01899936	-0.3832344339	 1.9196442747	 0.125869
57.2938	117.8842	157.0615	175.8196	191.4081	251.7821	275.5194	322.7998	360.4018	470.7623	480.8509	507.5376	653.6664	736.732	801.3319	889.3644	928.9007	969.2803	995.8978	1013.5689	1035.996	1053.6187	1095.8184	1102.1661	1119.7244	1133.9498	1157.8374	1210.081	1217.623	1256.539	1310.7654	1354.4712	1405.4494	1415.0251	1424.6759	1439.346	1486.0067	1490.8012	1501.2776	1507.4059	1823.7501	2894.3885	3029.7809	3034.0845	3036.8175	3087.0331	3098.0127	3100.8532	3118.9034	3131.289	3173.6608
CC1C2OC(C=O)C12C	C[C@@H]1[C@H]2O[C@@H](C=O)[C@@]12C	
InChI=1S/C7H10O2/c1-4-6-7(4,2)5(3-8)9-6/h3-6H,1-2H3	InChI=1S/C7H10O2/c1-4-6-7(4,2)5(3-8)9-6/h3-6H,1-2H3/t4-,5+,6-,7-/m1/s1
