19
gdb 808	2.4137397	1.6155561	1.2655432	2.7011	75.15	-0.24728	-0.02994	0.21734	1057.6443	0.157761	-422.560714	-422.552588	-422.551643	-422.594084	30.231	
O	 0.7715805598	-1.0121523142	-0.6226336921	-0.258045
C	 0.288424877	-0.0348085558	-0.1072506658	 0.087408
C	 0.1295631912	 1.3106895979	-0.7594132658	 0.226743
C	-1.0612611935	 2.1741131385	-0.2476122449	-0.288447
C	-0.0989545662	 3.3353441296	 0.1121194705	-0.218922
C	 1.1209106141	 2.4409883613	-0.2392356685	-0.074868
C	 1.8922506494	 2.8256996186	-1.5004446757	-0.094435
O	 1.0020357981	 2.5639170546	-2.5752584673	-0.25415
C	 0.3779762784	 1.3180740725	-2.2748730854	-0.154215
H	-0.0704976943	-0.0699842551	 0.9485925114	 0.073423
H	-1.8236792364	 2.3904702337	-0.9995169461	 0.112079
H	-1.5540186717	 1.7326027086	 0.6243307228	 0.105119
H	-0.1905210786	 4.2029544841	-0.5456970328	 0.115302
H	-0.1430745654	 3.6772291179	 1.1482106482	 0.103909
H	 1.7672186182	 2.1763163116	 0.5996809254	 0.08112
H	 2.1648242711	 3.8847217179	-1.538321045	 0.112158
H	 2.8091255343	 2.2203327614	-1.5918275384	 0.096693
H	-0.5392938024	 1.2548761602	-2.8660434231	 0.111308
H	 1.030064957	 0.4735438368	-2.5368008376	 0.117821
59.9442	70.2907	215.4243	234.6067	263.9514	365.2973	388.2117	473.7249	574.6354	684.9737	716.0323	760.6573	805.5759	860.6482	867.8849	931.4152	948.5694	968.583	1001.668	1017.7176	1034.6777	1080.1067	1110.4229	1142.9404	1168.6993	1183.0721	1230.5394	1233.6788	1266.0539	1278.3281	1287.1989	1293.2051	1326.061	1361.1155	1392.9828	1430.5059	1470.1774	1487.8913	1500.553	1515.3849	1814.9811	2850.718	2971.7815	3017.5525	3048.7684	3066.4927	3084.6378	3092.4305	3096.6425	3103.5399	3124.2113
O=CC12CCC1COC2	O=C[C@@]12CC[C@@H]1COC2	
InChI=1S/C7H10O2/c8-4-7-2-1-6(7)3-9-5-7/h4,6H,1-3,5H2	InChI=1S/C7H10O2/c8-4-7-2-1-6(7)3-9-5-7/h4,6H,1-3,5H2/t6-,7-/m1/s1
