19
gdb 1740	2.1046595	1.9935532	1.6029063	0.4454	73.71	-0.23211	0.06405	0.29616	955.6245	0.157725	-422.546905	-422.538938	-422.537994	-422.578638	32.04	
O	-2.5176620282	 0.8040787383	 0.0456809753	-0.462274
C	-1.9034702583	 0.7828118302	 1.2777739307	 0.322385
C	-1.9087075652	 1.6973421497	 2.4892549976	-0.162938
C	-0.3805321716	 1.6505809547	 2.5755872353	-0.262706
C	-0.3876169564	 0.4833233675	 1.5478707797	 0.342936
O	 0.5151924246	 0.676171526	 0.492177702	-0.501663
C	-0.3664113151	-0.8849876068	 2.243746131	-0.27814
C	-1.6340428496	-0.8558443517	 3.1401719037	-0.240752
C	-2.4888354617	 0.2666472442	 2.5377227878	-0.091247
H	-2.0374303832	 1.4373035324	-0.5017479847	 0.287386
H	-2.5409116601	 2.5447419779	 2.7267971782	 0.085475
H	 0.0767691879	 2.5378729477	 2.1308723313	 0.108889
H	 0.0847534657	 1.4501519412	 3.5471807524	 0.088502
H	 0.4594570558	-0.0927823411	-0.0866178196	 0.278048
H	-0.4502736291	-1.6769128828	 1.4868226843	 0.08819
H	 0.5586255027	-1.0536939742	 2.8031681526	 0.101606
H	-2.1659479807	-1.8111730076	 3.1168703137	 0.102877
H	-1.3837486644	-0.6557945994	 4.1874338681	 0.10345
H	-3.5690040931	 0.2313398139	 2.6279653906	 0.089976
180.0379	196.1627	219.4269	238.891	328.8817	385.9001	404.4805	455.2006	483.4077	578.0391	606.0703	657.0929	715.7942	753.0327	828.8898	857.9589	919.7003	926.2829	937.2388	972.0632	985.5801	1024.6163	1040.4683	1078.6091	1098.7119	1140.2108	1154.5579	1177.1186	1205.4169	1238.3138	1256.7149	1276.1039	1289.5462	1303.7896	1326.6965	1350.826	1390.7505	1479.4412	1486.8315	1494.4833	1512.3434	3012.8262	3036.0856	3046.5293	3079.6347	3092.2714	3104.8065	3174.58	3184.2114	3777.7716	3794.8019
OC12C3CC1(O)CCC23	O[C@]12[C@@H]3C[C@@]1(O)CC[C@H]23	
InChI=1S/C7H10O2/c8-6-2-1-4-5(3-6)7(4,6)9/h4-5,8-9H,1-3H2	InChI=1S/C7H10O2/c8-6-2-1-4-5(3-6)7(4,6)9/h4-5,8-9H,1-3H2/t4-,5+,6-,7+/m0/s1
