19
gdb 5209	3.4682017	1.295334	1.1385002	2.3953	75.11	-0.23071	0.06751	0.29822	1135.3649	0.155954	-422.501153	-422.4927	-422.491756	-422.534014	32.53	
C	 3.9881848835	-4.2926187641	 2.0715962014	-0.505951
C	 3.4255688582	-3.2967573469	 1.1170021015	 0.488004
O	 2.004153474	-3.2295158519	 0.9375858276	-0.379224
C	 2.2339695307	-1.9570902139	 0.2407990353	 0.413624
C	 1.0468557222	-1.0456309634	 0.3384154288	-0.187694
O	-0.0952850892	-1.653888134	-0.2389489898	-0.417087
C	 2.8928396016	-2.4159870876	-1.0882971126	-0.262691
C	 4.0678889318	-2.8317854156	-0.2050287647	-0.161922
C	 3.6644745629	-1.8418773327	 0.8907357562	-0.27865
H	 3.7654734381	-5.3132918363	 1.7426888648	 0.13385
H	 5.0751799254	-4.18444162	 2.1326197609	 0.127337
H	 3.5700878869	-4.1551819592	 3.0736923226	 0.13102
H	 0.8771227708	-0.7795624647	 1.3935700223	 0.095735
H	 1.2334798457	-0.1207364639	-0.2174537338	 0.111506
H	-0.1815235953	-2.5204681295	 0.1760074817	 0.298791
H	 2.3539879533	-3.1768919029	-1.659544792	 0.103019
H	 3.1492460396	-1.5643184014	-1.7242286712	 0.102764
H	 5.0685805427	-3.1253851852	-0.4967687289	 0.089634
H	 4.1957549671	-1.0689297967	 1.42897849	 0.097934
79.6804	148.4976	203.9651	216.4831	277.2272	340.6004	369.4881	416.7768	478.0182	549.8222	614.5943	690.0784	763.7552	782.6942	825.7048	857.4958	886.3293	906.1119	937.7468	964.1057	966.2705	1035.7252	1059.8967	1070.2199	1083.5179	1100.4347	1115.3735	1149.7708	1196.7775	1224.6788	1233.1893	1271.2608	1339.6694	1374.2436	1401.6238	1436.3828	1462.0806	1474.5279	1488.8783	1495.4277	1502.1473	2984.352	3035.7155	3054.7585	3076.0666	3101.5619	3114.7632	3115.2769	3193.1993	3208.041	3794.9335
CC12OC3(CO)CC1C23	C[C@]12O[C@]3(CO)C[C@H]1[C@H]23	
InChI=1S/C7H10O2/c1-6-4-2-7(3-8,9-6)5(4)6/h4-5,8H,2-3H2,1H3	InChI=1S/C7H10O2/c1-6-4-2-7(3-8,9-6)5(4)6/h4-5,8H,2-3H2,1H3/t4-,5+,6-,7-/m0/s1
