19
gdb 2199	1.9207676	1.8098515	1.6845489	1.3065	75.52	-0.22491	0.05958	0.28449	996.5313	0.155676	-422.507778	-422.49896	-422.498015	-422.540435	34.014	
C	-0.0678923616	-0.3003820819	 0.2656123723	-0.515927
C	 1.418803974	-0.1782618628	 0.1213784178	 0.21608
C	 2.3675207147	-0.9854574855	-0.7635969613	-0.2778
C	 3.4426292026	 0.0853813536	-0.4302823741	-0.137093
C	 3.7229113334	-0.1141872491	 1.0895592813	-0.294019
C	 2.2965449376	 0.3796270106	 1.3023162661	 0.257909
O	 1.7216305066	 0.8383249714	 2.4705404139	-0.465767
C	 2.2497185819	 1.0739163236	-0.0322665063	 0.293598
O	 1.8627816679	 2.322384245	-0.438804969	-0.455906
H	-0.4577394825	 0.4715661016	 0.9357779624	 0.131329
H	-0.5716842978	-0.1892713907	-0.7008045483	 0.123721
H	-0.3525716687	-1.2779414	 0.6748337822	 0.109819
H	 2.5964011379	-2.021125394	-0.4829816014	 0.081138
H	 2.0593535522	-0.9515430523	-1.8133738306	 0.099022
H	 4.2581510626	 0.3019410238	-1.1162651702	 0.073455
H	 3.9915793015	-1.1269343536	 1.4134037827	 0.083535
H	 4.4531836734	 0.6040992143	 1.4744779127	 0.096413
H	 1.3628976375	 0.0870680671	 2.9566320895	 0.286713
H	 2.3419727467	 2.979482999	 0.0790830705	 0.29378
153.3474	161.6503	179.8756	245.0108	257.4167	291.3129	305.9806	372.6245	418.9708	457.0671	554.0509	605.9135	629.0176	695.1952	705.1257	802.9111	851.4766	909.9156	932.4124	961.8183	987.2192	1031.9358	1051.7324	1088.9231	1118.266	1142.5954	1163.5452	1204.8274	1216.6424	1243.473	1252.0678	1285.2868	1289.3552	1330.9504	1393.0768	1419.2205	1484.125	1490.8304	1494.0911	1499.8491	1533.8258	3018.9053	3020.976	3029.1911	3076.7987	3082.4621	3090.3104	3106.6184	3142.8574	3782.3925	3782.8867
CC12CC3CC1(O)C23O	C[C@]12C[C@@H]3C[C@@]1(O)[C@]23O	
InChI=1S/C7H10O2/c1-5-2-4-3-6(5,8)7(4,5)9/h4,8-9H,2-3H2,1H3	InChI=1S/C7H10O2/c1-5-2-4-3-6(5,8)7(4,5)9/h4,8-9H,2-3H2,1H3/t4-,5+,6+,7-/m1/s1
