19
gdb 586	2.3353928	2.0695021	1.5612803	0.6228	74.95	-0.23496	0.00366	0.23862	935.3554	0.159864	-422.554151	-422.546937	-422.545993	-422.585592	28.829	
C	-0.7222175503	 1.2512341975	-0.4104092652	-0.105239
O	-0.2653817701	 0.0290272058	 0.1645402895	-0.281181
C	 1.1684516076	-0.0888733745	 0.0092838256	 0.057559
C	 1.5382921453	 0.98476902	-1.0269987702	-0.250202
C	 0.5267831757	 2.0913248341	-0.6880614794	 0.107895
O	 0.9533921926	 2.9194569729	 0.386042027	-0.274616
C	 0.8930943451	 2.4342312924	 1.7210918517	-0.126372
C	 1.7387346965	 1.2276979292	 2.0685023407	-0.068734
C	 1.8662634623	 0.1231546796	 1.3358519349	-0.054786
H	-1.2556877323	 1.0532718023	-1.3519225761	 0.094539
H	-1.4198436884	 1.7403567743	 0.2782012492	 0.110865
H	 1.3682257886	-1.1009581705	-0.3554568602	 0.075876
H	 2.570231716	 1.3277875743	-0.9506202762	 0.115327
H	 1.3546557388	 0.6173579242	-2.0424916892	 0.10137
H	 0.3717534741	 2.7827605978	-1.5203199216	 0.085848
H	 1.2216217285	 3.286939691	 2.3224207916	 0.113948
H	-0.149375853	 2.228774652	 2.0144967068	 0.115007
H	 2.2407054206	 1.2832854165	 3.0319109863	 0.094124
H	 2.4925385325	-0.6876563991	 1.6985141748	 0.088772
99.8492	215.5743	262.2184	321.6488	382.4657	421.2913	455.4933	560.6618	673.1081	709.6241	766.8578	807.5806	831.8412	846.181	883.19	911.5598	937.1646	966.3983	988.124	1011.6527	1034.5169	1045.4019	1079.3779	1095.232	1144.4522	1186.9325	1218.4092	1240.9462	1259.1662	1298.4636	1318.1414	1322.3858	1370.2317	1385.8081	1392.098	1408.917	1415.0814	1474.5552	1482.5875	1520.7188	1721.8319	2972.0864	2992.5612	3046.7038	3060.3593	3062.9671	3078.3442	3083.4816	3135.301	3143.6984	3168.7777
C1OC2CC1OCC=C2	C1O[C@H]2C[C@@H]1OCC=C2	
InChI=1S/C7H10O2/c1-2-6-4-7(5-9-6)8-3-1/h1-2,6-7H,3-5H2	InChI=1S/C7H10O2/c1-2-6-4-7(5-9-6)8-3-1/h1-2,6-7H,3-5H2/t6-,7+/m1/s1
