19
gdb 697	3.974939	0.8268504	0.7487478	4.203	75.68	-0.26875	0.01216	0.28091	1527.9522	0.1572	-422.566312	-422.557607	-422.556663	-422.600912	31.398	
O	 1.2859479317	-0.0843339945	 0.0255299651	-0.327182
C	 0.0984468134	-0.0440570633	 0.0498239512	 0.449626
O	-0.7776430423	-1.0998742724	 0.123446817	-0.239055
C	-1.9371159543	-0.2073419532	 0.057921796	-0.090989
C	-1.0042064372	 1.0194894815	-0.0038996577	-0.188357
C	-1.0283212241	 1.9105449778	-1.2463185122	-0.238894
C	-2.2216281873	 2.8427172043	-1.28032855	 0.029533
C	-2.1832717704	 4.1535539403	-0.5331828674	-0.257922
C	-2.1540587054	 4.1402216055	-2.0424951823	-0.276494
H	-2.5225591725	-0.4063133364	-0.8432837565	 0.123341
H	-2.5572412294	-0.3132975287	 0.9499234811	 0.126188
H	-1.0259961432	 1.6288081227	 0.9043356453	 0.11629
H	-0.1010984045	 2.4956880555	-1.2671326159	 0.119507
H	-1.0149642572	 1.2807202485	-2.1457677193	 0.109258
H	-3.1850596227	 2.3379508605	-1.295898964	 0.083191
H	-3.0845158196	 4.4960902151	-0.0371789576	 0.114675
H	-1.265991118	 4.4140408554	-0.0144244834	 0.115069
H	-3.0364396525	 4.4709219621	-2.5787155491	 0.115545
H	-1.2182703144	 4.3904338395	-2.5316570004	 0.116668
55.7873	77.0993	113.3394	144.5834	224.4086	304.7514	388.2156	398.2978	549.3198	673.7296	739.1195	779.0068	809.6802	827.1583	865.9841	882.0421	923.689	948.5861	969.1596	982.1956	1052.7857	1065.6958	1082.5469	1112.7301	1124.0962	1138.1702	1158.5143	1186.1042	1198.9517	1214.3682	1228.2853	1259.7047	1311.8768	1347.2742	1376.2159	1416.7786	1468.3167	1483.0298	1507.0345	1517.3964	1936.1162	3019.5726	3061.0865	3068.0371	3079.8387	3128.4024	3129.2257	3130.397	3135.4142	3208.015	3223.236
O=C1OCC1CC1CC1	O=C1OC[C@@H]1CC1CC1	
InChI=1S/C7H10O2/c8-7-6(4-9-7)3-5-1-2-5/h5-6H,1-4H2	InChI=1S/C7H10O2/c8-7-6(4-9-7)3-5-1-2-5/h5-6H,1-4H2/t6-/m0/s1
