19
gdb 5369	4.2144418	0.9571507	0.8269583	4.6362	78.77	-0.25007	0.00574	0.25581000000000004	1406.5153	0.156855	-422.601406	-422.59231	-422.591366	-422.636497	32.5	
C	 1.3366441441	-0.9501456541	 0.5066022359	-0.378902
C	 0.6250422109	 0.3983096379	 0.2942354982	-0.27928
C	 1.5659573198	 1.5574737499	 0.0888918544	 0.285879
C	 1.61910536	 2.2851394468	-1.0233433027	-0.173122
C	 2.5993386762	 3.4078204921	-1.1866988265	-0.402017
C	 3.1411258808	 3.9707916891	 0.1183071792	 0.410707
O	 3.6567650289	 5.0522868954	 0.1954677506	-0.326176
O	 3.0208315899	 3.2171043613	 1.2346241249	-0.2242
C	 2.5025707614	 1.8808710611	 1.2217252795	-0.144956
H	 1.9634311184	-0.9427041212	 1.4042151997	 0.122707
H	 0.6060031236	-1.755764361	 0.6238114048	 0.121922
H	 1.9766804413	-1.1932386687	-0.3473480089	 0.124133
H	-0.040585864	 0.3270142577	-0.5723622845	 0.108703
H	-0.0148619308	 0.6003602396	 1.1648290327	 0.109631
H	 0.9533464417	 2.0722048246	-1.8557807086	 0.094559
H	 3.4670012998	 3.088014196	-1.7832639377	 0.147509
H	 2.1715227019	 4.2530318764	-1.7338917412	 0.14759
H	 3.3567274261	 1.1885239575	 1.2321069225	 0.126908
H	 1.9929775601	 1.7653362195	 2.1851593078	 0.128404
31.8534	70.4937	121.582	164.3964	222.9	291.4971	346.9709	420.8239	455.6836	527.0484	549.5944	599.1215	719.9572	772.2791	785.1647	843.8168	916.2518	960.4579	981.164	1003.6548	1016.1005	1077.0307	1106.6074	1115.6191	1186.2243	1201.0657	1222.2821	1269.9097	1284.8867	1338.5667	1351.1098	1381.8624	1411.1808	1430.2427	1453.9421	1479.8006	1499.2612	1505.0391	1507.3753	1756.2358	1845.8225	3001.7813	3006.5425	3009.639	3038.3301	3057.2215	3068.1274	3084.716	3108.6834	3112.7827	3158.7795
CCC1=CCC(=O)OC1	CCC1=CCC(=O)OC1	
InChI=1S/C7H10O2/c1-2-6-3-4-7(8)9-5-6/h3H,2,4-5H2,1H3	InChI=1S/C7H10O2/c1-2-6-3-4-7(8)9-5-6/h3H,2,4-5H2,1H3
