19
gdb 3658	2.1206508	1.5296546	1.1048008	4.5086	76.34	-0.2647	0.01266	0.27736	1179.4402	0.155723	-422.578629	-422.569491	-422.568547	-422.61245	33.416	
C	-2.390130562	 2.7491054626	 1.5406618223	-0.41025
C	-1.1290546971	 2.3568568452	 0.8045924531	-0.058096
C	-1.0552648955	 2.4251039007	-0.6941272287	-0.346804
C	-1.0871743001	 1.0850538271	-0.0059225825	 0.097257
C	-2.0586964215	-0.0893584938	-0.1141035918	 0.073939
C	-2.8707126615	-0.2588564688	-1.3783530954	-0.405404
O	-0.895379323	-1.0008334401	-0.0833292932	-0.278466
C	-0.0076413125	 0.0488627869	 0.008003839	 0.435942
O	 1.1801061139	 0.0014885791	 0.077520959	-0.350019
H	-2.4631628809	 2.2389653028	 2.5068891341	 0.128992
H	-2.4086837544	 3.8274667095	 1.729484859	 0.12998
H	-3.285150807	 2.4992229852	 0.9613203376	 0.117062
H	-0.2016680464	 2.5726075084	 1.329379112	 0.113564
H	-1.9503099767	 2.7199459841	-1.233872909	 0.121772
H	-0.1216320765	 2.7155571468	-1.1634039976	 0.138479
H	-2.6624091677	-0.2612945129	 0.7824816182	 0.098891
H	-3.2902564146	-1.267646566	-1.4307010403	 0.137193
H	-3.7014918718	 0.4548068247	-1.393462805	 0.123087
H	-2.2516215748	-0.0910801813	-2.2640239308	 0.13288
102.842	125.1162	153.7594	171.5916	220.4468	224.0175	277.4549	366.6465	395.5699	505.3013	551.3641	618.9235	711.2228	743.4111	825.2933	855.008	861.3348	909.399	931.9309	1009.356	1039.7143	1059.1004	1068.7276	1100.4094	1125.6796	1137.3909	1144.4162	1187.2287	1225.6205	1286.0156	1346.8175	1381.2609	1410.6699	1412.7312	1434.1367	1482.2132	1485.6322	1490.7235	1494.609	1506.8416	1929.6697	3031.9331	3039.6296	3061.999	3098.6487	3099.634	3110.4647	3125.1846	3127.1407	3145.4311	3217.6745
CC1CC11C(C)OC1=O	C[C@@H]1C[C@@]21[C@@H](C)OC2=O	
InChI=1S/C7H10O2/c1-4-3-7(4)5(2)9-6(7)8/h4-5H,3H2,1-2H3	InChI=1S/C7H10O2/c1-4-3-7(4)5(2)9-6(7)8/h4-5H,3H2,1-2H3/t4-,5-,7-/m1/s1
