19
gdb 1054	1.873485	1.2094981	0.8814951	2.0869	79.16	-0.23187	-0.00908	0.22279	1403.533	0.152394	-422.531077	-422.519873	-422.518929	-422.569973	36.952	
C	 0.4269326493	 0.6468545637	 1.361471506	-0.500529
C	-0.7848815342	 0.4353771743	 0.5837744271	 0.054091
C	-1.7909731107	 0.2561120005	-0.054518604	 0.067746
C	-3.0298664873	 0.0245855977	-0.7981693208	-0.224392
O	-4.1488706173	 0.7734127587	-0.3404568958	-0.227473
C	-4.5300739458	 0.500175338	 0.9940443497	-0.174718
C	-3.9334059516	 1.4464363661	 2.0458066774	 0.370453
C	-3.5688412658	 2.8406231037	 1.5831034855	-0.4731
O	-3.8384526547	 1.0824705123	 3.1945823975	-0.300608
H	 0.1824322589	 0.9308290966	 2.3906766417	 0.163428
H	 1.0316048759	-0.2654160122	 1.4043596492	 0.154081
H	 1.0473983613	 1.4405922727	 0.9319513077	 0.150827
H	-2.9045415669	 0.3104564266	-1.8477566259	 0.139103
H	-3.2688377905	-1.051079138	-0.7789451507	 0.123157
H	-5.6199267408	 0.6343200884	 1.0390622885	 0.130793
H	-4.3111903166	-0.5327781846	 1.2915206315	 0.122393
H	-3.3016613211	 3.4528073842	 2.4453654855	 0.132445
H	-2.7308469807	 2.7898146052	 0.8824575912	 0.15511
H	-4.4044362312	 3.2936599061	 1.0386013186	 0.137193
30.8463	34.5284	53.8356	84.3413	117.7211	138.6391	204.1265	249.3839	316.3164	380.1758	387.7911	429.0128	493.1976	531.6479	558.5468	763.0645	771.4843	859.5068	948.7732	1003.4469	1020.6954	1050.9874	1056.1222	1101.3387	1119.0422	1160.522	1237.2282	1265.1206	1312.2255	1360.6348	1378.7525	1394.4534	1413.7406	1456.3297	1458.7457	1471.2572	1475.7539	1477.3862	1479.0093	1816.3884	2364.2893	2975.5893	3011.5143	3031.0391	3046.1165	3064.8476	3070.1238	3093.704	3095.8058	3114.0259	3155.0841
CC#CCOCC(C)=O	CC#CCOCC(=O)C	
InChI=1S/C7H10O2/c1-3-4-5-9-6-7(2)8/h5-6H2,1-2H3	InChI=1S/C7H10O2/c1-3-4-5-9-6-7(2)8/h5-6H2,1-2H3
