19
gdb 741	2.767693	1.4527314	1.1222407	1.7838	75.68	-0.2381	-0.01571	0.22239	1120.6758	0.157394	-422.568618	-422.560565	-422.559621	-422.601237	31.294	
O	 1.2098223665	 0.0076329486	-0.1866924207	-0.304975
C	 0.0066325998	 0.0156231355	-0.0826715875	 0.378211
C	-0.8169736371	 1.2923046575	 0.0058419649	-0.300699
C	-1.8585600289	 1.1884055931	 1.1346026328	-0.10075
O	-2.6454538999	 0.0139034422	 1.0036660103	-0.284019
C	-1.8674785162	-1.1506473647	 1.0934076873	 0.427211
C	-1.5567639149	-1.6706924515	 2.4775824522	-0.320414
C	-2.5884599177	-2.3556540287	 1.597037146	-0.332286
C	-0.8331004317	-1.2552804172	-0.0200834115	-0.361485
H	-0.1509958246	 2.1472484898	 0.1464516682	 0.1213
H	-1.3489415132	 1.4179041149	-0.946445815	 0.127116
H	-1.352598308	 1.1986600706	 2.1118662257	 0.102966
H	-2.5539652941	 2.0308975671	 1.1008667205	 0.114928
H	-0.6085058494	-2.167581724	 2.6511712844	 0.121273
H	-1.931482427	-1.094982249	 3.3164081584	 0.121671
H	-2.346088134	-3.3196485865	 1.163223263	 0.116878
H	-3.6315142888	-2.219579912	 1.8584126462	 0.128585
H	-0.1751483926	-2.1174636586	 0.1076355781	 0.119918
H	-1.3604732084	-1.3607873671	-0.9786588331	 0.12457
82.1316	118.6589	239.2957	272.0866	335.7407	379.6263	418.053	478.7199	496.2567	535.5212	628.7581	750.3779	773.5798	778.6822	830.3713	873.271	922.4995	935.1692	952.5982	972.4012	1004.4955	1048.6878	1078.9252	1094.7193	1103.5783	1141.2393	1187.6755	1219.3031	1228.5019	1258.3905	1285.9322	1298.6338	1335.5471	1366.0262	1408.7841	1447.3596	1451.8332	1461.2621	1491.9513	1506.765	1824.9215	2994.6307	3017.4442	3032.0295	3096.1878	3111.543	3114.6654	3134.677	3138.8577	3219.7098	3233.4836
O=C1CCOC2(CC2)C1	O=C1CCOC2(CC2)C1	
InChI=1S/C7H10O2/c8-6-1-4-9-7(5-6)2-3-7/h1-5H2	InChI=1S/C7H10O2/c8-6-1-4-9-7(5-6)2-3-7/h1-5H2
