19
gdb 948	4.0877945	0.9099008	0.7829975	3.3664	77.98	-0.24172	-0.01908	0.22264	1435.1023	0.156334	-422.571509	-422.562693	-422.561749	-422.605978	31.842	
O	 1.4007698307	-0.3290575335	 0.0745475397	-0.243835
C	 0.2867072424	 0.1235554377	-0.0025232651	 0.151269
C	-0.4397521005	 0.8008182589	 1.1405316852	-0.297208
C	-1.1667691687	 2.075217174	 0.7087196785	 0.110214
C	-1.7436548497	 2.8669968286	 1.8881685054	-0.258575
C	-2.7122734159	 3.9077655511	 1.3904813053	-0.069285
C	-3.2055829202	 3.8671746775	 0.1556057681	-0.06414
C	-2.8676104309	 2.7561074404	-0.7982644742	-0.119456
O	-2.2088387081	 1.6692131029	-0.1723801471	-0.265288
H	-0.2968372674	 0.0677075787	-0.9464415722	 0.092917
H	-1.1970259214	 0.1004638641	 1.5201609887	 0.132539
H	 0.275034314	 1.0014360076	 1.943448254	 0.12015
H	-0.4677252548	 2.7321407233	 0.1615918609	 0.075911
H	-2.2391553345	 2.1825050421	 2.5913958116	 0.11407
H	-0.9263449428	 3.3417304694	 2.4456673389	 0.110102
H	-2.9914202351	 4.7068132642	 2.071675415	 0.09404
H	-3.8762979926	 4.6384121415	-0.2131588238	 0.094945
H	-3.7797377404	 2.3390594894	-1.2414078211	 0.120725
H	-2.259104354	 3.1465756722	-1.6347971377	 0.100905
53.1592	77.0144	117.4056	182.313	224.4448	337.9729	380.5881	410.9952	472.7794	531.4278	550.2216	668.714	770.8432	810.8946	873.2998	922.5436	937.0114	959.2698	996.3481	1029.2252	1036.5429	1062.7718	1113.7591	1115.2327	1125.9013	1198.9959	1207.8627	1243.1065	1276.6121	1282.2855	1336.6843	1372.9871	1395.2589	1405.6152	1411.2239	1422.8876	1442.3177	1469.6884	1489.4038	1727.6986	1830.7252	2908.1792	2937.0986	2948.0546	3008.2621	3024.2426	3049.1142	3051.7379	3104.9906	3155.4828	3178.1893
O=CCC1CC=CCO1	O=CC[C@@H]1CC=CCO1	
InChI=1S/C7H10O2/c8-5-4-7-3-1-2-6-9-7/h1-2,5,7H,3-4,6H2	InChI=1S/C7H10O2/c8-5-4-7-3-1-2-6-9-7/h1-2,5,7H,3-4,6H2/t7-/m0/s1
