19
gdb 3653	1.944646	1.5508933	1.0964995	2.1378	76.52	-0.25094	-0.02219	0.22875	1186.6165	0.154834	-422.53212	-422.522813	-422.521869	-422.566423	33.647	
C	 1.0818816573	-0.4465831558	 1.0296372658	-0.42477
C	 1.1064886095	 0.2516772075	-0.3133694945	-0.030661
C	 1.9054444293	-0.2550646053	-1.4639857319	-0.333764
C	 2.2924938137	 1.0804059397	-0.815768517	 0.184629
C	 3.563553908	 1.0970937224	-0.0565817696	 0.103417
O	 4.2984358289	 2.0550041025	 0.0074695968	-0.273043
C	 2.0156153361	 2.3473457672	-1.5762812731	 0.014161
C	 1.0833468998	 3.3716408604	-1.0954254823	-0.17562
O	 0.7154123092	 2.4767035711	-2.1532669876	-0.246688
H	 0.2755295485	-1.1874102215	 1.0463868476	 0.128687
H	 2.0137925417	-0.9764474911	 1.2434367411	 0.122736
H	 0.9017913812	 0.2595680258	 1.8468934502	 0.127537
H	 0.164974993	 0.7110513404	-0.6019378618	 0.12067
H	 2.5746355146	-1.094128084	-1.2977461433	 0.120851
H	 1.4852458353	-0.1941844694	-2.4614258259	 0.141497
H	 3.8270598657	 0.1428501029	 0.4508144932	 0.071681
H	 2.8290411834	 2.6700268714	-2.2248948342	 0.109916
H	 0.5583298245	 3.2163229948	-0.1544935808	 0.114132
H	 1.2203885205	 4.4096706311	-1.3914340626	 0.124632
70.1582	111.5327	147.5246	186.1841	201.1139	223.0838	282.943	337.8744	425.4468	472.7571	491.6096	582.4754	694.3582	770.6879	879.8698	882.5744	895.9952	918.0945	942.8322	995.6665	1036.3221	1053.919	1073.0428	1092.3256	1121.9028	1136.9231	1153.8202	1170.5604	1197.3602	1265.2587	1300.4746	1314.0208	1397.0415	1418.3251	1433.1633	1453.5583	1480.5369	1494.5511	1506.1442	1526.2697	1800.347	2883.7048	3037.5671	3091.6259	3097.9488	3112.397	3121.2405	3128.3486	3155.9169	3182.0507	3221.8923
CC1CC1(C=O)C1CO1	C[C@@H]1C[C@@]1(C=O)[C@@H]1CO1	
InChI=1S/C7H10O2/c1-5-2-7(5,4-8)6-3-9-6/h4-6H,2-3H2,1H3	InChI=1S/C7H10O2/c1-5-2-7(5,4-8)6-3-9-6/h4-6H,2-3H2,1H3/t5-,6+,7+/m1/s1
