19
gdb 4293	3.9325677	1.1492393	0.9685882	0.3169	77.44	-0.24474	0.00381	0.24855000000000002	1216.4943	0.158919	-422.566691	-422.558823	-422.557878	-422.599158	30.384	
O	 0.1400728272	 1.422061779	-0.1224491258	-0.431369
C	 0.0765507394	 0.0090426875	-0.0204608945	 0.131044
C	-1.3744576484	-0.5640082177	 0.0189883294	-0.285971
C	-1.2631154259	-1.8316745045	 0.8830972212	-0.071893
C	-2.2645705381	-2.1820204703	 1.9893650822	-0.094892
O	-1.4883789307	-2.8847559794	 2.9665952064	-0.268115
C	-0.1442090924	-2.3815201639	 2.9713850205	-0.175047
C	-0.0393803605	-1.5542311179	 1.7272989182	 0.33341
C	 0.6940296083	-0.5531868158	 1.2518921274	-0.320017
H	-0.2662105074	 1.7860864183	 0.6725095303	 0.272911
H	 0.6104527937	-0.3433180591	-0.9129646107	 0.096262
H	-2.0113963845	 0.1756555373	 0.5214268141	 0.093741
H	-1.7897274057	-0.7349177931	-0.9768019962	 0.104783
H	-1.10282196	-2.721314393	 0.2581520505	 0.08996
H	-2.7014287532	-1.2646803984	 2.4181443387	 0.085695
H	-3.0773877018	-2.8468684059	 1.6859774822	 0.109432
H	 0.0451521367	-1.7862783245	 3.8764083039	 0.11132
H	 0.5380406794	-3.2410621413	 2.9877979425	 0.11881
H	 1.6048421738	-0.1426243073	 1.6733060198	 0.099933
85.4025	157.8367	183.4183	295.7062	329.7865	354.8808	434.9564	465.9531	554.0557	619.9797	644.7335	723.3359	829.7362	845.0223	870.3493	920.4524	935.8919	993.3026	1014.5648	1030.704	1050.0942	1069.5895	1084.1385	1112.2301	1155.3023	1188.9114	1204.1228	1220.2418	1245.6528	1258.0719	1285.5332	1310.9271	1318.7697	1329.6506	1357.7506	1393.2899	1430.0871	1483.6855	1502.7401	1517.7622	1740.7297	2964.9921	2998.5524	3007.5393	3019.8185	3030.9664	3033.8632	3092.1319	3106.4486	3196.3978	3790.8624
OC1CC2COCC2=C1	O[C@@H]1C[C@@H]2COCC2=C1	
InChI=1S/C7H10O2/c8-7-1-5-3-9-4-6(5)2-7/h1,6-8H,2-4H2	InChI=1S/C7H10O2/c8-7-1-5-3-9-4-6(5)2-7/h1,6-8H,2-4H2/t6-,7+/m1/s1
