19
gdb 2451	2.5072833	2.1798286	1.5578416	1.2551	73.	-0.23278	0.0869	0.31967999999999996	913.6814	0.15935	-422.545511	-422.538604	-422.537659	-422.57626	28.643	
C	 0.0761115517	-0.0443845707	-0.3286083196	-0.499899
C	 1.5254024496	 0.0439201414	 0.0984690254	 0.312626
C	 1.8371267996	-0.1645292028	 1.5782997587	-0.1596
O	 3.0361446538	 0.5916735361	 1.8162254937	-0.272647
C	 3.5829228643	 0.8748063703	 0.5322636224	 0.075022
C	 3.9161255799	-0.4551965828	-0.1998956084	-0.243256
C	 2.5619399721	-0.5632099409	-0.9236585047	 0.020987
O	 2.5522059115	 0.7076800232	-1.6480415244	-0.30521
C	 2.3501656012	 1.28390859	-0.3377887715	 0.033482
H	-0.5483241818	 0.650597766	 0.2432096415	 0.118467
H	-0.01974004	 0.19831413	-1.3904190632	 0.138723
H	-0.3218509778	-1.053659749	-0.1726612594	 0.117872
H	 1.0433384446	 0.2305678464	 2.2230180869	 0.10552
H	 1.9872210062	-1.2227303243	 1.8376126231	 0.096345
H	 4.3919653527	 1.5928459046	 0.6528561629	 0.083103
H	 4.7241764101	-0.3688178015	-0.9290936038	 0.111058
H	 4.1431637781	-1.2541677942	 0.5098304594	 0.107823
H	 2.3399527862	-1.4312416405	-1.5453235604	 0.077394
H	 1.994698028	 2.3135159686	-0.3293649187	 0.082189
229.6605	249.5696	256.8476	311.631	389.9093	449.5921	507.46	595.0896	612.8995	705.6135	756.3972	838.4869	850.7848	877.3105	910.7688	922.3362	951.324	960.4373	974.1466	1002.0433	1016.6528	1034.6776	1060.6704	1118.5724	1143.6643	1170.3589	1196.8268	1222.734	1231.5423	1239.3273	1269.5306	1282.9719	1303.2532	1318.2084	1345.6762	1398.817	1410.9007	1475.9814	1494.7873	1501.5832	1522.7092	2995.56	3029.6491	3050.2784	3072.2675	3089.5186	3115.8603	3117.467	3126.9174	3131.0249	3142.7093
CC12COC3CC1OC23	C[C@@]12CO[C@H]3C[C@@H]1O[C@@H]23	
InChI=1S/C7H10O2/c1-7-3-8-4-2-5(7)9-6(4)7/h4-6H,2-3H2,1H3	InChI=1S/C7H10O2/c1-7-3-8-4-2-5(7)9-6(4)7/h4-6H,2-3H2,1H3/t4-,5-,6+,7+/m0/s1
