19
gdb 2631	1.9300613	1.5392679	1.320551	1.9157	78.76	-0.23025	0.03814	0.26839	1121.9535	0.152557	-422.516327	-422.505955	-422.505011	-422.550571	38.743	
C	 1.8759097048	 2.2735171515	 0.3769587515	-0.449861
C	 2.0416026876	 0.9304137522	 1.0414229399	 0.298884
O	 2.4897926519	 1.0433222226	 2.3707796939	-0.472017
C	 2.6026896608	-0.2811544879	 0.3528027038	 0.061346
O	 3.5223136959	-1.0569539874	 1.0279792155	-0.426961
C	 1.1040455605	-0.2663748253	 0.7468843984	-0.023595
C	 0.0626022563	-0.176344232	-0.3587632097	-0.466601
C	 0.70827331	-1.0097248386	 1.9068319994	 0.269298
C	 0.3724669242	-1.574986966	 2.9171930583	-0.439207
H	 1.0639000932	 2.8426439651	 0.8418192403	 0.124039
H	 2.7999022402	 2.8494593761	 0.4893894452	 0.135517
H	 1.6648088836	 2.177216864	-0.6901797713	 0.120041
H	 1.8259796537	 0.6453403302	 2.952497509	 0.291996
H	 2.7913469374	-0.2394800431	-0.7171291859	 0.103094
H	 3.6512987962	-0.6198088501	 1.8840386395	 0.289763
H	-0.2577278386	-1.179570734	-0.6549528068	 0.135999
H	-0.8220854628	 0.3796024297	-0.0323380228	 0.128689
H	 0.4663769185	 0.3191061206	-1.245229598	 0.120369
H	 0.0768620665	-2.1204679877	 3.7791746999	 0.199205
113.1092	142.1839	167.2958	185.594	215.9045	251.2531	261.5223	289.4347	305.5412	376.9904	386.3939	432.8919	535.2634	558.5722	581.7497	617.3274	645.3646	661.4422	675.9724	698.9227	838.5705	939.6618	990.8531	1010.5648	1089.7884	1099.6811	1156.7302	1162.3012	1194.7606	1260.0687	1307.3637	1361.5077	1368.6741	1410.6821	1420.7112	1459.0167	1477.1866	1490.1013	1494.7496	1506.8528	2215.9981	3037.3263	3041.4788	3102.9483	3106.4445	3116.8855	3130.2915	3142.4202	3499.5988	3702.7512	3718.1431
CC1(O)C(O)C1(C)C#C	C[C@]1(O)[C@@H](O)[C@@]1(C)C#C	
InChI=1S/C7H10O2/c1-4-6(2)5(8)7(6,3)9/h1,5,8-9H,2-3H3	InChI=1S/C7H10O2/c1-4-6(2)5(8)7(6,3)9/h1,5,8-9H,2-3H3/t5-,6+,7-/m0/s1
