19
gdb 692	3.3136783	1.0998128	0.8714672	1.0798	76.81	-0.252	-0.03081	0.22119	1330.6468	0.156361	-422.534765	-422.526176	-422.525232	-422.569047	31.143	
O	 1.2594922923	 0.2787824577	 0.1315218278	-0.273362
C	 0.0691154352	 0.2188168622	 0.0888471571	 0.333901
C	-1.0989298697	 1.2100050299	 0.1642968133	-0.191155
O	-2.0230186834	 0.1068547575	 0.0867626227	-0.294056
C	-0.9799323422	-0.9003159159	-0.0240296206	-0.013994
C	-1.006311791	-1.9437423824	 1.0711612457	 0.043108
C	 0.0581966946	-3.0773342318	 1.0184112227	-0.230854
C	-1.0414661949	-4.0740706639	 1.4760138532	-0.211896
C	-2.1124997837	-3.0376567875	 1.0387321211	-0.232756
H	-1.181615956	 1.778797928	 1.0991358401	 0.133813
H	-1.1769482247	 1.8991824305	-0.6867935732	 0.13159
H	-0.9965424173	-1.3789835751	-1.0151115554	 0.098809
H	-0.9923673971	-1.444319755	 2.0457184659	 0.07536
H	 0.3801243557	-3.2740754873	-0.0092625402	 0.105248
H	 0.9474608799	-2.961419688	 1.6406416673	 0.110173
H	-1.0631966031	-5.0563500628	 0.9990461082	 0.100488
H	-1.0332481921	-4.2164473398	 2.5602730132	 0.106159
H	-2.4601730954	-3.2194188754	 0.0166890321	 0.10314
H	-2.9834398073	-2.8910977811	 1.6802865791	 0.106285
56.1813	92.3251	107.2836	141.4458	249.8407	325.3868	378.5238	455.3874	549.1657	642.2172	710.3995	760.2685	782.817	854.0554	898.0416	929.4557	938.7696	961.1594	982.3082	1003.3931	1017.4274	1049.8914	1085.5384	1100.2051	1138.1471	1174.482	1203.0251	1228.7896	1248.0295	1256.681	1258.8092	1273.2516	1285.5057	1298.1188	1312.4297	1390.062	1478.5729	1482.224	1486.5526	1508.9728	1919.5213	2992.5129	3015.7259	3048.9841	3053.	3059.0155	3061.2128	3061.4967	3105.1142	3114.8224	3124.8111
O=C1COC1C1CCC1	O=C1CO[C@@H]1C1CCC1	
InChI=1S/C7H10O2/c8-6-4-9-7(6)5-2-1-3-5/h5,7H,1-4H2	InChI=1S/C7H10O2/c8-6-4-9-7(6)5-2-1-3-5/h5,7H,1-4H2/t7-/m1/s1
