19
gdb 3053	2.9778191	1.5185736	1.3987629	1.3874	75.27	-0.24439	0.06592	0.31031	1018.0257	0.157333	-422.460811	-422.453117	-422.452172	-422.492789	30.189	
C	 2.2603622959	 1.5080945683	-0.8908057871	-0.439837
C	 1.6228606772	 0.1740616785	-0.5522106562	-0.004092
C	 1.9303212007	-0.4941716569	 0.8006653644	-0.018131
O	 3.3426476923	-0.7450558776	 0.3330052855	-0.369768
C	 2.4384556504	-1.1415102912	-0.771490036	 0.385124
C	 2.4893994472	-2.0022934552	-2.0020907623	-0.189969
O	 1.1638113854	-2.574639279	-1.99237943	-0.29068
C	 0.4804144961	-2.4169226417	-0.7072325948	-0.118837
C	 1.5638280088	-1.9005011448	 0.223458883	-0.0432
H	 1.7285475864	 2.3272178544	-0.3947105412	 0.116299
H	 3.304763018	 1.5285973401	-0.5746309448	 0.140272
H	 2.2154302619	 1.6965763698	-1.9688582464	 0.117804
H	 0.5767022528	 0.1294269714	-0.8643622142	 0.080455
H	 1.8350057617	-0.1149684592	 1.8190830915	 0.094862
H	 2.6140557098	-1.4616193681	-2.9451993923	 0.113194
H	 3.2600332094	-2.7812508956	-1.9240100154	 0.112225
H	-0.3742171917	-1.7464961194	-0.8456610156	 0.109704
H	 0.1020461029	-3.3996486483	-0.411563213	 0.108956
H	 2.1124656247	-2.6953743455	 0.7313541349	 0.095619
98.9229	200.4098	214.9585	239.4579	331.0817	356.3842	445.0989	537.6048	619.8695	661.1911	699.5064	742.1707	790.7378	833.2528	852.2918	890.9351	926.5609	975.7503	996.473	1022.3874	1047.2353	1072.4499	1081.8354	1104.3878	1133.2066	1157.6543	1189.8127	1193.3108	1199.9925	1207.8224	1253.7697	1288.9061	1339.9891	1362.0487	1380.458	1399.0504	1424.952	1493.6736	1505.5925	1512.3534	1524.7873	3011.6592	3036.9379	3039.574	3077.4435	3078.668	3084.2858	3093.1072	3103.8271	3111.6135	3138.8095
CC1C2OC11COCC21	C[C@@H]1[C@@H]2O[C@@]31COC[C@H]23	
InChI=1S/C7H10O2/c1-4-6-5-2-8-3-7(4,5)9-6/h4-6H,2-3H2,1H3	InChI=1S/C7H10O2/c1-4-6-5-2-8-3-7(4,5)9-6/h4-6H,2-3H2,1H3/t4-,5-,6+,7-/m1/s1
