19
gdb 2928	2.9396423	1.5723027	1.3658398	0.7305	74.51	-0.22908	0.07214	0.30122	1019.6477	0.157413	-422.525514	-422.517575	-422.516631	-422.557448	31.161	
C	-0.042231757	-0.145560857	-0.213717602	-0.435878
C	 1.4338394277	 0.0896518307	 0.074056754	-0.025158
C	 1.9380993061	 1.4593732418	 0.6170607304	-0.109808
C	 3.2241397063	 0.7563926526	 1.1609973486	-0.122162
C	 3.5779215279	 1.4308449315	 2.4768905756	-0.125852
O	 2.2673351841	 1.6261247888	 3.0428095229	-0.289902
C	 1.4152402766	 1.0994220227	 2.0377166858	 0.049788
C	 2.0190346025	-0.2177743191	 1.4650093435	 0.374916
O	 2.0597845403	-1.4696424568	 2.0454325777	-0.481314
H	-0.6947788508	 0.2405199039	 0.5743031963	 0.116475
H	-0.3352895143	 0.3359522741	-1.1528656079	 0.116043
H	-0.2443694249	-1.2169188228	-0.3149146872	 0.127796
H	 2.0504745659	-0.2957220571	-0.745456867	 0.070291
H	 1.8926838328	 2.4311914449	 0.1304932265	 0.079214
H	 4.0136760676	 0.4492238374	 0.4757002078	 0.074943
H	 4.1848187386	 0.7990654446	 3.1392432007	 0.097774
H	 4.0830098101	 2.3975182095	 2.359698616	 0.104562
H	 0.3742006382	 1.2019931935	 2.3345013063	 0.087297
H	 2.1976072723	-1.3583048333	 2.9931616319	 0.290976
171.5903	199.8806	211.0349	229.2508	251.1596	285.2671	416.6749	498.3954	511.0102	659.1266	679.3238	752.6407	778.94	793.3798	893.544	920.3623	933.1236	957.4826	963.7919	999.2668	1004.8896	1061.5697	1074.2873	1085.775	1097.463	1134.4899	1140.088	1178.5043	1185.42	1215.5378	1227.6183	1278.8941	1280.6187	1334.0534	1368.9764	1387.793	1416.4553	1444.2716	1493.3757	1502.9528	1526.0911	3010.4774	3036.57	3044.0414	3047.8149	3097.4723	3113.08	3126.6276	3142.5576	3158.8556	3798.2205
CC1C2C3COC2C13O	C[C@H]1[C@@H]2[C@H]3CO[C@@H]2[C@@]13O	
InChI=1S/C7H10O2/c1-3-5-4-2-9-6(5)7(3,4)8/h3-6,8H,2H2,1H3	InChI=1S/C7H10O2/c1-3-5-4-2-9-6(5)7(3,4)8/h3-6,8H,2H2,1H3/t3-,4+,5+,6-,7+/m0/s1
