19
gdb 1620	2.0803709	1.6701599	1.2570075	1.5429	75.8	-0.2539	-0.02214	0.23176000000000002	1089.385	0.154436	-422.540503	-422.531315	-422.530371	-422.574355	34.008	
C	 2.4749970008	-1.4487289852	 1.2282063964	-0.477976
C	 2.3473496079	 0.0417842438	 1.4439528244	 0.33732
C	 1.8937255634	 0.9119815667	 0.3512677852	-0.215212
O	 1.0034942629	 0.5484698681	 1.414572009	-0.286379
C	 3.2104210213	 0.6287047691	 2.5373363254	 0.177665
C	 2.7076344714	 1.8383116599	 3.3196101475	-0.309285
C	 2.7393316658	 0.5082103995	 3.9862066861	-0.306311
C	 4.6779484357	 0.576930989	 2.3341194791	 0.114103
O	 5.235346411	 0.1277235123	 1.3617718562	-0.275562
H	 2.2465289661	-1.9912609105	 2.1518082334	 0.120253
H	 1.778448888	-1.7806025555	 0.4546705396	 0.124461
H	 3.4949368314	-1.6962970916	 0.9244136838	 0.153035
H	 2.1948653856	 1.958110101	 0.3344161137	 0.113008
H	 1.6585319001	 0.4787093354	-0.6192180289	 0.119197
H	 3.4371487374	 2.5862819111	 3.6110600986	 0.121956
H	 1.7455238128	 2.2177410144	 2.9991899726	 0.15159
H	 3.4876583456	 0.3187727173	 4.7486380485	 0.124711
H	 1.7981948825	-0.0102360372	 4.1299964394	 0.142623
H	 5.2618249703	 1.0097343823	 3.1808889201	 0.070803
59.7962	138.5953	176.1502	204.4906	221.2277	258.7706	326.9033	351.8099	387.5766	440.5522	508.599	566.3714	644.3303	791.3159	827.4416	841.2808	870.6658	920.3312	924.5941	951.6972	999.154	1039.09	1050.0654	1069.3276	1097.1257	1108.566	1135.0486	1167.6102	1202.5962	1203.7699	1290.1212	1348.7059	1399.5017	1409.9249	1442.9089	1452.9872	1484.7956	1487.6142	1500.9614	1530.1582	1809.5081	2850.5581	3043.1024	3088.6132	3113.4278	3134.9861	3137.8798	3141.8231	3176.6537	3222.6142	3242.2758
CC1(CO1)C1(CC1)C=O	C[C@]1(CO1)C1(CC1)C=O	
InChI=1S/C7H10O2/c1-6(5-9-6)7(4-8)2-3-7/h4H,2-3,5H2,1H3	InChI=1S/C7H10O2/c1-6(5-9-6)7(4-8)2-3-7/h4H,2-3,5H2,1H3/t6-/m0/s1
