19
gdb 5107	3.2195793	1.4154571	1.216393	1.7601	73.83	-0.23999	0.07172	0.31171000000000004	1076.2517	0.157538	-422.521607	-422.513706	-422.512762	-422.55386	31.294	
O	 1.4067098848	 0.5712168699	-0.29890687	-0.420271
C	 0.0412548527	 0.3318553633	-0.0165985642	-0.136032
C	-0.816177143	 0.4362966003	-1.2483877382	 0.404971
C	-2.2847103	 0.7603840805	-1.2001600859	-0.366858
C	-1.3168428049	 1.6989459696	-1.9044812891	-0.115687
C	-1.0444314708	 1.5386450836	-3.3841593585	-0.068672
C	-1.7349184633	 0.4382373951	-4.1692515987	-0.328327
C	-0.3997945068	 0.1827047876	-3.5239972618	 0.090112
O	-0.3612482017	-0.4483138321	-2.2633137158	-0.309773
H	 1.6202762283	 0.0000296226	-1.0460515552	 0.286701
H	-0.1033583098	-0.6602256387	 0.4421626565	 0.094475
H	-0.2756752522	 1.0814899091	 0.7153675591	 0.106903
H	-2.9768679166	 0.1611717407	-1.7782709746	 0.119659
H	-2.6808161364	 1.0975302248	-0.2470746674	 0.113742
H	-1.126561382	 2.6718297384	-1.46762491	 0.098464
H	-0.6728319829	 2.4061449799	-3.9152750865	 0.095782
H	-2.6182471895	-0.0429432901	-3.7680952744	 0.121769
H	-1.738398743	 0.5432241033	-5.2494416646	 0.114676
H	 0.4774906872	-0.0280892779	-4.1261139707	 0.098367
98.6154	128.7562	235.1739	274.7164	315.2452	410.1094	460.2869	493.769	537.0172	620.0327	700.971	726.1473	778.0633	794.3876	831.7773	865.9376	928.7574	952.5673	962.7953	985.3509	1002.9253	1036.2734	1050.8979	1058.8019	1075.541	1093.3933	1094.8393	1109.5585	1149.4103	1181.913	1199.7869	1255.2756	1288.3932	1341.1241	1369.6621	1370.3634	1386.7654	1441.0327	1472.2849	1493.3793	1497.0016	2970.4818	3079.2704	3133.8298	3139.1247	3164.7207	3178.9576	3191.7269	3222.7946	3229.6363	3796.1045
OCC12CC1C1CC1O2	OC[C@@]12C[C@@H]1[C@@H]1C[C@@H]1O2	
InChI=1S/C7H10O2/c8-3-7-2-5(7)4-1-6(4)9-7/h4-6,8H,1-3H2	InChI=1S/C7H10O2/c8-3-7-2-5(7)4-1-6(4)9-7/h4-6,8H,1-3H2/t4-,5+,6-,7-/m0/s1
