19
gdb 3624	2.1938913	1.5023998	1.1253281	2.6274	75.77	-0.24242	-0.03229	0.21012999999999998	1157.1889	0.154337	-422.531893	-422.522647	-422.521703	-422.5666	33.341	
C	 2.0343854776	 1.2642498151	-0.287204565	-0.401045
C	 1.499609983	-0.110321801	 0.0577799244	 0.089444
O	 2.2434663397	-0.7379427711	 1.1420034992	-0.317527
C	 2.5421314103	-1.9032315029	 0.3558376331	-0.01619
C	 4.0308393519	-2.1249195659	 0.1859294775	 0.129664
O	 4.4958650378	-3.0683298142	-0.4014233553	-0.248881
C	 1.828546865	-1.2929162385	-0.8588747157	 0.265083
C	 0.9750918679	-1.979288124	-1.8757568804	-0.324576
C	 2.2601195748	-1.3024270285	-2.2945564954	-0.328309
H	 1.9449416093	 1.928712057	 0.5777690955	 0.131826
H	 3.0871447761	 1.2141975826	-0.5798192153	 0.121619
H	 1.4617899785	 1.7033623877	-1.1115155764	 0.118352
H	 0.4340811014	-0.0520317514	 0.3203526499	 0.081861
H	 2.0786156952	-2.8166185953	 0.7531907282	 0.105534
H	 4.6604902577	-1.3164170438	 0.62170411	 0.090454
H	 0.9471195699	-3.0640591267	-1.8683930004	 0.126421
H	 0.0349450872	-1.5077384493	-2.1456208664	 0.11718
H	 3.1024720194	-1.9320730749	-2.5607947904	 0.140173
H	 2.1946318074	-0.3748136248	-2.8537827274	 0.118917
46.7809	69.0679	163.7383	196.3402	209.6109	228.743	318.6143	374.1302	416.5202	462.7497	529.7864	589.4868	770.19	787.262	843.5648	886.9709	904.2029	918.465	977.2039	1014.2992	1045.0198	1056.3017	1080.0596	1083.1973	1097.66	1103.6457	1141.9546	1190.6509	1217.7997	1247.5171	1290.1272	1306.6076	1368.9661	1392.4903	1401.6527	1408.9526	1459.7601	1485.4576	1490.0781	1503.8293	1823.3949	2884.7506	3003.5498	3015.6087	3035.9359	3107.1157	3118.8235	3124.0153	3130.7585	3205.4458	3221.1573
CC1OC(C=O)C11CC1	C[C@@H]1O[C@H](C=O)C21CC2	
InChI=1S/C7H10O2/c1-5-7(2-3-7)6(4-8)9-5/h4-6H,2-3H2,1H3	InChI=1S/C7H10O2/c1-5-7(2-3-7)6(4-8)9-5/h4-6H,2-3H2,1H3/t5-,6+/m0/s1
