19
gdb 3172	2.5747219	1.7791189	1.2963975	3.2454	73.94	-0.26186	0.08141	0.34326999999999996	1021.0634	0.156856	-422.534297	-422.526305	-422.525361	-422.566624	31.014	
C	 3.3797709703	 0.536072923	-0.3525958715	-0.394531
C	 1.9046632808	 0.151171767	-0.2327171106	-0.109165
C	 1.2585119088	-0.237250022	-1.5531334733	 0.04271
O	 1.688981161	-1.5165263759	-2.0374463989	-0.255714
C	 0.4189842005	-1.4288975728	-1.3782044976	 0.038461
C	 0.4638950236	-1.8712747418	 0.0699016645	-0.323271
C	 1.643304988	-1.0859777714	 0.6504833663	 0.41676
C	 2.0239020127	-1.1559500833	 2.0634973393	-0.255286
O	 2.7783537866	-1.8492057866	 1.0667544189	-0.252531
H	 3.8203097496	 0.7442917175	 0.6265857067	 0.117588
H	 3.9462656277	-0.2772875897	-0.8102732162	 0.147529
H	 3.4916857616	 1.4338069588	-0.9688150335	 0.107876
H	 1.334279615	 0.9978857735	 0.1768088248	 0.07953
H	 1.0709912405	 0.5135364629	-2.3175600308	 0.091994
H	-0.4475444319	-1.6381336486	-2.000243444	 0.09458
H	-0.4775827521	-1.6041163069	 0.5662711702	 0.106371
H	 0.6212849682	-2.9466003329	 0.1897980071	 0.128542
H	 2.5304592673	-0.3123681706	 2.5326380919	 0.108663
H	 1.4560243618	-1.7875167504	 2.7465543168	 0.109894
80.6412	196.2096	219.1652	249.7318	294.2356	360.6794	395.6057	433.7088	518.1785	600.3282	665.252	756.8701	806.7587	843.4245	852.907	888.361	903.3949	955.1861	976.7249	1004.3206	1025.7874	1040.9064	1101.0683	1123.7652	1125.5062	1135.0452	1163.6468	1194.1725	1221.9591	1259.5091	1289.3544	1301.0485	1326.2067	1360.852	1406.4117	1421.9463	1441.3908	1467.8278	1493.1934	1496.1246	1533.8909	3001.6674	3034.1503	3044.9094	3071.7706	3099.2043	3107.8936	3136.6262	3137.9807	3151.892	3154.6234
CC1C2OC2CC11CO1	C[C@H]1[C@H]2O[C@H]2C[C@@]21CO2	
InChI=1S/C7H10O2/c1-4-6-5(9-6)2-7(4)3-8-7/h4-6H,2-3H2,1H3	InChI=1S/C7H10O2/c1-4-6-5(9-6)2-7(4)3-8-7/h4-6H,2-3H2,1H3/t4-,5-,6+,7-/m0/s1
