19
gdb 1664	4.0677123	0.9880851	0.9225606	2.133	76.79	-0.25377	-0.02575	0.22802	1297.2135	0.154389	-422.537285	-422.528225	-422.527281	-422.57127	33.461	
C	-0.0160683773	 0.1485757804	 0.0276210908	-0.454217
C	 1.4259993986	 0.3639924499	 0.469857505	 0.224109
C	 1.7019938123	 1.7822344098	 1.0954892786	-0.369915
C	 2.2931145811	 2.2033181964	-0.2482852657	 0.484225
C	 2.0098856532	 3.3966913293	-1.0463070122	-0.268149
O	 3.2881044671	 3.187052897	-0.4237675466	-0.2708
C	 2.4069659062	 0.7488652954	-0.7001325344	-0.369906
C	 1.9371580844	-0.7701431351	 1.3231464318	 0.121952
O	 1.3052940758	-1.7458953349	 1.6364559865	-0.25422
H	-0.6777788155	 0.0586670371	 0.8936241024	 0.131807
H	-0.3630340956	 0.9836787036	-0.5884627801	 0.112389
H	-0.109729282	-0.7729833136	-0.5536405805	 0.131786
H	 0.8314705006	 2.3217926402	 1.4752258601	 0.117088
H	 2.4724148452	 1.7513294888	 1.8734562844	 0.118792
H	 2.0064309877	 3.3345139705	-2.1338898254	 0.119343
H	 1.4132513099	 4.2039663267	-0.6231653543	 0.119342
H	 2.0818941809	 0.4887331723	-1.7099714756	 0.117094
H	 3.4193259934	 0.3632471164	-0.5384565928	 0.118797
H	 2.993064864	-0.6375955901	 1.6614457879	 0.070484
63.4669	80.3847	198.6802	244.5904	253.954	308.9658	311.1866	348.288	394.0641	420.6781	438.9134	626.1867	750.411	813.6378	840.7549	865.7298	872.4825	903.0926	941.3785	947.6064	981.9577	1025.3729	1074.3479	1125.6207	1141.3795	1153.2565	1160.5137	1199.8481	1203.2733	1236.8232	1263.9415	1322.3265	1409.0676	1428.1935	1438.4033	1461.6086	1485.1509	1486.467	1493.2689	1538.1137	1827.0058	2845.7276	3042.0276	3046.857	3051.7575	3079.9169	3112.2064	3112.3778	3114.7028	3119.1632	3167.7111
CC1(CC2(CO2)C1)C=O	C[C@@]1(C[C@]2(CO2)C1)C=O	
InChI=1S/C7H10O2/c1-6(4-8)2-7(3-6)5-9-7/h4H,2-3,5H2,1H3	InChI=1S/C7H10O2/c1-6(4-8)2-7(3-6)5-9-7/h4H,2-3,5H2,1H3/t6-,7+
