19
gdb 1648	2.6279688	1.4314897	1.082144	3.2736	75.65	-0.23999	-0.02257	0.21742	1158.2725	0.154975	-422.546161	-422.537216	-422.536272	-422.580076	33.13	
C	 0.316436079	-2.9456421669	-1.0834805056	-0.468626
C	-0.9357495752	-2.0963109888	-1.0988456487	 0.398036
C	-2.1641108814	-2.596888148	-1.7325516044	-0.229746
O	-1.3452832941	-1.6252146675	-2.39259684	-0.26935
C	-1.0271479077	-1.0620361337	 0.0064476651	-0.180615
C	-2.120574142	 0.0491868705	-0.0501504567	-0.25842
C	-1.0462476906	 1.1471193824	 0.2131005797	-0.340387
C	 0.0282375937	 0.0725322295	 0.0024642239	 0.405157
O	 1.2114343008	 0.0979061226	-0.1759086099	-0.297204
H	 0.357938537	-3.5528483457	-0.1723783332	 0.11742
H	 0.3343066617	-3.6128765474	-1.9486076041	 0.124089
H	 1.2048492932	-2.3089811887	-1.1044099938	 0.159512
H	-2.1675431294	-3.5873791691	-2.1860937424	 0.115376
H	-3.1369965462	-2.2374003042	-1.3998187696	 0.110376
H	-1.0026107978	-1.5705235351	 0.9790464768	 0.105551
H	-2.546490573	 0.1284838512	-1.0513556521	 0.13518
H	-2.9200823276	-0.0270172132	 0.6869910458	 0.105492
H	-1.0057298005	 1.9974660669	-0.4720090144	 0.135909
H	-1.0397576499	 1.5281552353	 1.2396950136	 0.13225
63.8272	92.1287	154.4152	207.7516	222.5088	333.8439	341.8854	395.2246	424.5331	495.3048	568.3618	634.9988	691.6027	761.5888	792.8129	862.7004	910.5041	919.8478	937.7676	1004.4361	1011.0015	1021.4441	1076.7448	1087.3723	1113.2676	1136.5285	1170.1486	1197.1906	1223.978	1231.0476	1237.8073	1272.3014	1335.6756	1391.0894	1415.4341	1438.0443	1481.8397	1487.5833	1501.6989	1531.379	1884.0875	3032.3721	3040.6149	3057.6356	3081.2628	3088.3136	3110.3297	3113.5091	3133.3373	3148.467	3166.6605
CC1(CO1)C1CCC1=O	C[C@@]1(CO1)[C@@H]1CCC1=O	
InChI=1S/C7H10O2/c1-7(4-9-7)5-2-3-6(5)8/h5H,2-4H2,1H3	InChI=1S/C7H10O2/c1-7(4-9-7)5-2-3-6(5)8/h5H,2-4H2,1H3/t5-,7-/m1/s1
