19
gdb 1504	2.5581857	1.5172671	1.236863	3.4749	75.11	-0.23494	-0.008	0.22694	1079.841	0.156202	-422.588356	-422.579833	-422.578889	-422.620965	33.394	
C	-3.1807079353	-1.4033697105	 1.2945389099	-0.437521
C	-2.2747079106	-0.7692264596	 0.2394220558	 0.363398
O	-2.8072177063	-0.9876003506	-1.0702431956	-0.472993
C	-0.8035738344	-1.2470600605	 0.2911118185	-0.391891
C	 0.018744148	-0.0642854883	-0.248621523	 0.430146
O	 1.0795163518	-0.1441215433	-0.814553859	-0.334966
C	-0.7646251719	 1.1839540762	-0.0011268863	-0.147453
C	-1.3138087162	 1.3304636575	 1.4149360224	-0.311698
C	-2.1795575748	 0.754471744	 0.3470890484	-0.028138
H	-3.2064805426	-2.4938183122	 1.1804560931	 0.108639
H	-2.8315385296	-1.1836151141	 2.3078868208	 0.118097
H	-4.2019038183	-1.0256760888	 1.1884951132	 0.125852
H	-2.8919037921	-1.9381486388	-1.2011849782	 0.278034
H	-0.4786344265	-1.4803380755	 1.3118978916	 0.121537
H	-0.6329211515	-2.138003317	-0.3167769727	 0.119007
H	-0.5253826683	 2.0704518241	-0.5735309091	 0.107852
H	-0.917762583	 0.6959331238	 2.2008572769	 0.120545
H	-1.52281709	 2.3456393808	 1.7322705336	 0.127586
H	-3.0341707583	 1.3143811828	-0.0139435902	 0.103968
93.6221	175.5306	244.48	252.8302	288.4639	344.8211	351.7928	406.0576	460.5498	480.2004	538.7893	579.541	658.4808	747.1726	789.0716	841.4702	867.805	897.8091	934.0593	946.2631	959.7541	1004.3664	1048.7887	1072.6183	1102.023	1105.951	1112.9888	1177.754	1195.9254	1199.7916	1227.3186	1273.9919	1321.6508	1352.0246	1395.3351	1409.8408	1447.9755	1488.7076	1494.2778	1497.2759	1839.527	3027.6851	3047.1632	3095.0256	3113.6647	3117.8192	3135.3536	3184.3021	3205.4187	3221.1982	3806.1352
CC1(O)CC(=O)C2CC12	C[C@]1(O)CC(=O)[C@@H]2C[C@H]12	
InChI=1S/C7H10O2/c1-7(9)3-6(8)4-2-5(4)7/h4-5,9H,2-3H2,1H3	InChI=1S/C7H10O2/c1-7(9)3-6(8)4-2-5(4)7/h4-5,9H,2-3H2,1H3/t4-,5+,7+/m1/s1
