19
gdb 1324	2.0195473	1.4053198	1.0008699	1.233	76.7	-0.24621	-0.09356	0.15265	1250.9219	0.154262	-422.562956	-422.553117	-422.552173	-422.598343	34.59	
C	-1.7195490648	 2.3961581944	-1.4595360662	-0.399141
C	-1.0439144443	 2.0210910722	-0.1365701566	-0.115628
C	-2.0659076138	 1.7396120384	 0.9653228086	 0.026925
C	-1.709207759	 1.8829011504	 2.4255075664	-0.280553
C	-2.6336100625	 2.8791235346	 1.7747065218	-0.278147
C	-0.1844102401	 0.7795325756	-0.2872953221	 0.295816
O	-0.4129825428	-0.1335886798	-1.0478149006	-0.290076
C	 1.0623035724	 0.6520070309	 0.604488812	 0.095627
O	 1.4636686064	 1.517560539	 1.3375833905	-0.222095
H	-2.3196063205	 1.5623424066	-1.8331003312	 0.136136
H	-2.3726823165	 3.2610592822	-1.3164821609	 0.119824
H	-0.9805821825	 2.6444115427	-2.2272864228	 0.118338
H	-0.3922435018	 2.8303839506	 0.2115139487	 0.100866
H	-2.7551397928	 0.9371893403	 0.7139157626	 0.096304
H	-2.1302118238	 1.1705762192	 3.1262938623	 0.115386
H	-0.7031593899	 2.207610369	 2.6653983418	 0.137701
H	-3.6880433916	 2.8516632271	 2.0259754516	 0.11644
H	-2.2484393368	 3.8751696926	 1.5819095499	 0.116675
H	 1.5753304447	-0.3243615459	 0.4741272642	 0.109601
52.098	87.7659	126.6538	146.8981	187.8564	206.3399	248.7606	275.5903	339.1754	431.2567	521.5535	584.8711	645.1106	749.9502	791.9972	820.8872	835.9694	929.9785	944.7511	986.2593	1016.5105	1060.1696	1080.6284	1086.9756	1099.9023	1140.798	1156.4621	1200.0185	1201.7341	1225.3878	1297.0742	1359.4327	1367.0438	1397.648	1408.5757	1472.1727	1491.8087	1497.8107	1504.3165	1797.0599	1820.3574	2922.8659	3045.6404	3053.5649	3115.7144	3127.3889	3131.7124	3138.0424	3142.3652	3212.7367	3230.9662
CC(C1CC1)C(=O)C=O	C[C@@H](C1CC1)C(=O)C=O	
InChI=1S/C7H10O2/c1-5(6-2-3-6)7(9)4-8/h4-6H,2-3H2,1H3	InChI=1S/C7H10O2/c1-5(6-2-3-6)7(9)4-8/h4-6H,2-3H2,1H3/t5-/m0/s1
