19
gdb 4941	2.1596077	1.4784632	1.1793522	2.8983	77.	-0.25225	0.03789	0.29013999999999995	1147.4953	0.156104	-422.529585	-422.520378	-422.519434	-422.564018	34.193	
O	 1.4386013516	 0.7457782117	 0.1395126486	-0.41966
C	 0.5224979503	-0.1696442937	 0.6832270446	-0.079433
C	-0.8052708272	 0.5081671939	 1.076940685	 0.13848
C	-1.9281461386	-0.5320292441	 1.3715462187	-0.292298
C	-2.8087525438	-0.4839412791	 0.1104911845	-0.21786
C	-2.6043296662	 0.9572151558	-0.3545798455	-0.076142
O	-1.2292066262	 1.2279192055	-0.1045427856	-0.293819
C	-0.6190307975	 1.4473183297	 2.1861607218	 0.364264
C	-0.4796716189	 2.1975845337	 3.1146218783	-0.480012
H	 0.9480976745	 1.2471393505	-0.5238965994	 0.293597
H	 0.2804900727	-0.9785070242	-0.0268573823	 0.078754
H	 0.9880045935	-0.6165793664	 1.567073132	 0.114101
H	-1.5088448088	-1.5228632719	 1.5647233931	 0.116236
H	-2.4932589193	-0.2296348923	 2.255206894	 0.122634
H	-2.4392428831	-1.1780021486	-0.6507669929	 0.112186
H	-3.8545513598	-0.7261191092	 0.314547285	 0.10758
H	-2.7852970337	 1.1149839792	-1.4211050657	 0.112388
H	-3.242287189	 1.6510511021	 0.2138842291	 0.101947
H	-0.3440192105	 2.8700096473	 3.9254120367	 0.197058
36.8881	110.4832	162.6883	176.5548	222.9225	275.3556	373.2476	421.5866	463.6492	495.2586	549.5856	596.7836	622.6764	657.5642	668.4396	745.4699	857.0576	884.5715	903.1226	932.6381	988.9418	1008.7765	1057.0994	1080.5283	1094.5213	1137.4155	1181.865	1207.2457	1229.0705	1255.388	1273.1428	1323.2759	1338.1998	1382.8797	1383.7675	1435.8709	1485.2148	1494.218	1497.874	1520.8208	2233.3514	2960.1721	2991.1817	3055.9969	3071.0088	3084.1626	3093.8273	3106.4067	3124.291	3501.168	3782.9626
OCC1(CCCO1)C#C	OC[C@@]1(CCCO1)C#C	
InChI=1S/C7H10O2/c1-2-7(6-8)4-3-5-9-7/h1,8H,3-6H2	InChI=1S/C7H10O2/c1-2-7(6-8)4-3-5-9-7/h1,8H,3-6H2/t7-/m0/s1
