19
gdb 1598	3.1488045	1.292357	1.1542081	1.496	75.29	-0.24029	0.07843	0.31872	1132.759	0.156809	-422.497337	-422.489199	-422.488255	-422.529874	31.73	
O	 4.6243932341	-0.9479597799	-1.09724163	-0.483876
C	 3.2865947352	-0.5714562875	-0.9113743716	 0.411064
C	 2.3304556969	-1.6395114586	-1.3507516644	-0.007359
C	 2.6877460004	-3.0600955417	-1.2632976923	-0.187105
O	 2.7663637557	-2.3627431527	-2.5168604806	-0.257747
C	 3.042472566	 0.9117571691	-1.1040267217	-0.120051
C	 1.5814787474	 1.3023159606	-0.8602733125	-0.248942
C	 1.6608181932	 0.6581638969	 0.565891986	-0.246935
C	 3.1248974699	 0.286154049	 0.3046167397	-0.099181
H	 4.6699420473	-1.2977900745	-1.9977417588	 0.29126
H	 1.2753507299	-1.3772006906	-1.3659943198	 0.100018
H	 3.6457875339	-3.3364787886	-0.8306695119	 0.128156
H	 1.9016674032	-3.8106098916	-1.2036402489	 0.116568
H	 3.7883836622	 1.4989687047	-1.6253290022	 0.091302
H	 1.4419481394	 2.3841885244	-0.8082437874	 0.108929
H	 0.838703099	 0.8995058063	-1.5565785844	 0.099902
H	 1.5580032683	 1.405243324	 1.3552915701	 0.110015
H	 0.9746442797	-0.1658675982	 0.7861681742	 0.097939
H	 3.9348443182	 0.330950419	 1.0226547765	 0.096042
89.6586	171.7995	183.0963	279.4908	289.3872	317.6376	433.0837	468.0338	491.3222	541.9917	704.5414	735.5499	778.9463	833.8276	850.1768	884.8096	896.7802	930.4601	971.3353	978.7448	1003.8033	1024.1153	1030.8854	1095.788	1101.5303	1116.3123	1150.635	1163.368	1169.9867	1218.0123	1240.1465	1250.1461	1274.8543	1284.6618	1297.6235	1335.119	1396.3808	1482.2095	1487.665	1506.1306	1518.0976	3044.1629	3051.861	3096.0547	3097.7996	3114.2727	3142.6425	3183.2139	3193.5401	3193.9495	3755.4464
OC1(C2CO2)C2CCC12	O[C@]1([C@@H]2CO2)[C@H]2CC[C@@H]12	
InChI=1S/C7H10O2/c8-7(6-3-9-6)4-1-2-5(4)7/h4-6,8H,1-3H2	InChI=1S/C7H10O2/c8-7(6-3-9-6)4-1-2-5(4)7/h4-6,8H,1-3H2/t4-,5+,6-,7+/m0/s1
