19
gdb 5491	3.2183445	1.1127705	0.9201892	0.7648	77.54	-0.24096	0.00587	0.24683	1298.9097	0.156664	-422.538307	-422.529645	-422.528701	-422.571636	32.577	
C	 1.4582127661	-0.0280247304	 0.0057198712	-0.237519
O	 0.0457863903	-0.0088764469	 0.0911307983	-0.244461
C	-0.4189894794	 0.6059160874	 1.2466659046	 0.113501
C	-1.7995596531	 1.209311757	 1.1629306836	-0.135679
C	-2.4731261237	 1.3832834741	 2.4787012156	-0.080728
C	-1.8051588869	 2.2251303536	 3.2759012217	-0.146141
C	-0.6119967855	 2.8485600079	 2.5786476963	 0.094512
O	-0.7336248324	 4.2614822152	 2.4350076108	-0.43055
C	-0.5666171729	 2.1073761556	 1.2397136161	-0.141742
H	 1.9057712764	-0.5796110914	 0.8460791239	 0.10818
H	 1.716523858	-0.5338055231	-0.9272555878	 0.129054
H	 1.8779974964	 0.9878031192	-0.0049639764	 0.112077
H	-0.1366100629	 0.1086037065	 2.1779118444	 0.086102
H	-2.359715822	 1.0540857501	 0.2481868062	 0.099949
H	-3.3700165599	 0.8387270819	 2.7526098457	 0.104382
H	-2.0643443676	 2.4767289616	 4.2976225281	 0.100649
H	 0.3159892138	 2.7132523946	 3.1469609773	 0.093346
H	-1.6037286522	 4.4288759154	 2.0550278737	 0.275633
H	-0.2051939028	 2.6400088716	 0.3679799167	 0.099435
87.625	152.9408	173.2378	179.6541	237.791	343.2322	372.8368	385.2524	413.5773	466.3556	584.7184	729.7286	769.6707	799.0161	846.1338	911.2961	917.7138	959.9735	972.9718	996.221	1029.1874	1050.5971	1058.8104	1069.2067	1100.2867	1128.5391	1164.4735	1178.4657	1183.6584	1236.2479	1247.5705	1268.8205	1292.6882	1309.0469	1370.7504	1410.4249	1423.835	1485.1749	1487.0032	1508.6495	1651.8419	2985.5442	3037.9918	3042.6191	3071.0638	3121.725	3180.1795	3189.0187	3192.6736	3214.5329	3795.9678
COC1C2C=CC(O)C12	CO[C@@H]1[C@H]2C=C[C@H](O)[C@@H]12	
InChI=1S/C7H10O2/c1-9-7-4-2-3-5(8)6(4)7/h2-8H,1H3	InChI=1S/C7H10O2/c1-9-7-4-2-3-5(8)6(4)7/h2-8H,1H3/t4-,5-,6-,7+/m0/s1
