19
gdb 1457	2.0919974	1.8754001	1.4220239	2.9273	75.16	-0.24957	0.06871	0.31828	1018.3557	0.154849	-422.503149	-422.494477	-422.493533	-422.535744	33.705	
C	-0.1819043796	-0.3502405983	-0.1044095254	-0.456975
C	 1.3076576802	-0.0366092712	-0.1090188223	 0.303342
O	 1.9612179577	-0.6593615884	 0.9827523295	-0.46378
C	 2.1049230059	-0.224925969	-1.4256616874	-0.102566
C	 1.7022189312	 0.767235086	-2.479383335	-0.308293
C	 2.6101109156	 1.217978596	-1.3646663485	-0.147152
C	 1.7730333769	 1.4485464431	-0.123831141	 0.450876
C	 1.1234446177	 2.6645947621	 0.371552865	-0.272868
O	 2.2589483354	 2.0809376553	 1.0331213009	-0.271823
H	-0.6271327194	-0.0448394031	 0.8474533817	 0.129811
H	-0.710513009	 0.1574052029	-0.9157968479	 0.11829
H	-0.3465788982	-1.4284634265	-0.2246994789	 0.107089
H	 1.800260913	-1.6068825845	 0.9125429534	 0.275925
H	 2.6633670304	-1.1244522502	-1.6568716596	 0.086355
H	 2.1805541862	 0.6353134831	-3.4448877193	 0.117677
H	 0.6831521767	 1.1407230271	-2.5426840086	 0.108862
H	 3.604731728	 1.6124951516	-1.5275947862	 0.10061
H	 1.3089007436	 3.615871976	-0.126007876	 0.112432
H	 0.1861447778	 2.6001356279	 0.9226307856	 0.11219
113.4166	201.1639	220.9556	240.4253	259.1829	281.2321	312.121	373.2003	429.3943	497.0855	563.0922	591.335	655.6318	779.8628	791.4166	863.3868	899.5917	932.4671	940.5829	960.5029	970.2486	1010.1858	1030.9538	1060.6362	1086.1969	1098.9507	1123.5239	1149.0988	1160.291	1172.3388	1195.7991	1217.7015	1286.7024	1310.8842	1374.2907	1403.9081	1443.5806	1484.5302	1489.1191	1498.3473	1535.4509	3024.9619	3078.3038	3092.8838	3111.1562	3118.9998	3165.8003	3179.2513	3194.0009	3204.0391	3799.7813
CC1(O)C2CC2C11CO1	C[C@@]1(O)[C@H]2C[C@H]2[C@]21CO2	
InChI=1S/C7H10O2/c1-6(8)4-2-5(4)7(6)3-9-7/h4-5,8H,2-3H2,1H3	InChI=1S/C7H10O2/c1-6(8)4-2-5(4)7(6)3-9-7/h4-5,8H,2-3H2,1H3/t4-,5+,6+,7-/m0/s1
