19
gdb 2984	2.4409715	1.8244069	1.3896435	2.0657	74.19	-0.23804	0.06711	0.30515000000000003	993.1819	0.15804	-422.521521	-422.513859	-422.512915	-422.553239	30.749	
O	 0.3011542174	 0.0053504486	 0.2364285907	-0.434596
C	-0.4825159447	 0.7940578021	 1.1061360294	 0.050369
C	-1.5526588978	 0.0327451058	 1.934848027	 0.037363
C	-0.7543165363	-0.6296121661	 3.0788305791	-0.250659
C	-0.6197941996	 0.8684145584	 3.4336927614	-0.005753
O	-1.9656813346	 1.0706735822	 2.8785930003	-0.294244
C	 0.2509656029	 1.4274325902	 2.3155399763	 0.364014
C	 0.851859641	 2.7971908966	 2.3226436461	-0.33686
C	 1.7440775393	 1.5769751389	 2.3851723498	-0.340232
H	 0.829572073	-0.5966618447	 0.7712364621	 0.281819
H	-0.960818759	 1.545823669	 0.4738051537	 0.101253
H	-2.3697414912	-0.4530595111	 1.4027388183	 0.083886
H	-1.4072798807	-1.1627152556	 3.7701005012	 0.116343
H	 0.1471570988	-1.2100989161	 2.8597143312	 0.08515
H	-0.4855873672	 1.2427399009	 4.4489686301	 0.078833
H	 0.8327397977	 3.3649542892	 1.3978599345	 0.11882
H	 0.7467133604	 3.4010434583	 3.2187834916	 0.112966
H	 2.311449	 1.318822556	 1.4965223553	 0.120372
H	 2.2467589307	 1.3548083374	 3.3214841417	 0.111158
125.3471	229.6296	245.8017	260.3923	275.5397	380.5304	463.9051	531.6464	549.9899	586.7836	758.0184	782.7713	819.0549	840.1324	865.902	915.7384	921.0742	946.9661	969.5162	973.9363	1004.0563	1022.8931	1055.8649	1068.1234	1075.8394	1083.5003	1123.8341	1177.6339	1189.941	1221.2668	1234.0224	1247.2839	1267.7901	1273.5918	1302.2713	1321.942	1397.2186	1423.566	1465.8936	1489.2145	1506.768	3055.6912	3087.6778	3118.5842	3121.1606	3123.9416	3131.3057	3142.1545	3199.5246	3213.6157	3810.633
OC1C2CC(O2)C11CC1	O[C@H]1[C@H]2C[C@H](O2)C21CC2	
InChI=1S/C7H10O2/c8-6-4-3-5(9-4)7(6)1-2-7/h4-6,8H,1-3H2	InChI=1S/C7H10O2/c8-6-4-3-5(9-4)7(6)1-2-7/h4-6,8H,1-3H2/t4-,5+,6+/m1/s1
