19
gdb 1393	3.5874833	0.6618492	0.5813165	1.6973	79.28	-0.24811	-0.03359	0.21452	1868.7466	0.15217	-422.52239	-422.511592	-422.510647	-422.55976	36.856	
C	 6.3747919478	-0.7276202401	-2.716717657	-0.411561
C	 4.8472198904	-0.683153108	-2.775915413	 0.053173
O	 4.3801182291	-0.1849150369	-1.5378168302	-0.253493
C	 2.9934101337	-0.3775326075	-1.3245526547	-0.065387
C	 2.657690007	 0.2080739213	 0.050566211	-0.349588
C	 1.2493540208	 0.0494244316	 0.385385497	 0.284515
C	 0.0829531547	-0.0955880002	 0.6349326106	-0.443015
C	 4.4187030742	 0.2346223093	-3.9201696389	 0.135468
O	 4.2608062836	-0.1208270918	-5.0576477871	-0.237384
H	 6.6902436229	-1.3628726774	-1.8854686837	 0.134499
H	 6.7772067307	-1.1280804551	-3.6503399116	 0.13947
H	 6.7816300809	 0.2755522569	-2.556210467	 0.132024
H	 4.4489368879	-1.6894884343	-2.9752319148	 0.093313
H	 2.3933714299	 0.1207051045	-2.1011518155	 0.110167
H	 2.7432915479	-1.448767193	-1.3531473836	 0.109871
H	 3.2874054738	-0.2833582911	 0.8016230228	 0.14246
H	 2.9349073296	 1.2688289908	 0.0575800115	 0.1415
H	-0.9458527535	-0.2168729091	 0.8679839032	 0.199363
H	 4.2988523985	 1.2983215599	-3.6047167189	 0.084605
43.0202	65.647	67.7471	102.7772	152.6392	208.6291	222.413	271.8122	351.4341	353.8244	370.1198	415.2603	537.6491	580.6537	627.4022	653.8843	798.1806	878.3312	905.8344	947.0025	984.3271	1059.3409	1078.6102	1090.3523	1131.5743	1160.403	1164.6842	1228.6126	1302.431	1306.2289	1309.9224	1341.5187	1390.0395	1401.3351	1431.899	1477.2843	1483.3035	1498.1058	1524.4643	1840.1482	2243.5221	2858.8203	2982.1907	2999.9864	3017.1822	3036.065	3047.265	3074.0644	3122.7873	3137.3067	3506.4217
CC(OCCC#C)C=O	C[C@@H](OCCC#C)C=O	
InChI=1S/C7H10O2/c1-3-4-5-9-7(2)6-8/h1,6-7H,4-5H2,2H3	InChI=1S/C7H10O2/c1-3-4-5-9-7(2)6-8/h1,6-7H,4-5H2,2H3/t7-/m1/s1
