19
gdb 4650	2.6940016	0.7816301	0.6528594	3.8603	83.77	-0.2505	-0.05634	0.19416	1712.3071	0.153149	-422.541389	-422.530213	-422.529269	-422.580914	37.591	
C	-2.3187381939	-3.2364829542	 1.9496596244	-0.379248
C	-1.0321163729	-3.2744113837	 1.0971063814	-0.13705
C	 0.1449777212	-3.8994414369	 1.871504551	-0.382453
C	-0.704017039	-1.9360973591	 0.6122629222	 0.124642
C	-0.457191142	-0.8198099134	 0.2174683875	-0.023651
C	-0.1583466433	 0.5084817442	-0.2834008147	 0.199323
O	-0.8590394775	 1.0786538717	-1.0903736094	-0.276842
C	 1.1386463709	 1.1355582379	 0.2386901096	-0.158463
O	 1.6581813875	 0.5514354884	 1.4082619161	-0.411029
H	-2.1704733707	-2.6246892398	 2.844245124	 0.133523
H	-3.1545952781	-2.818202479	 1.3839946629	 0.136705
H	-2.5830248888	-4.250183254	 2.2649634524	 0.12203
H	-1.2321624263	-3.8985469889	 0.2150538286	 0.121874
H	 0.372967772	-3.312811825	 2.7666635401	 0.13161
H	-0.1104256675	-4.9162833171	 2.1842290415	 0.123228
H	 1.0454679432	-3.946456595	 1.2533462077	 0.125995
H	 1.8560844572	 1.1129449496	-0.6001454195	 0.120553
H	 0.9328574839	 2.1879256594	 0.4540841845	 0.145446
H	 1.6513267442	-0.4054643553	 1.2904343797	 0.283807
5.8351	61.5099	62.7681	94.4083	168.4136	225.7044	234.3637	249.2982	267.9696	286.0116	351.4083	444.5718	519.3061	531.4241	591.4034	626.4129	662.3039	836.1193	933.571	961.3327	966.9835	990.0282	1092.5527	1116.9799	1118.7119	1177.0729	1206.5814	1240.0839	1315.2351	1342.7055	1345.9007	1397.1133	1411.3779	1419.4526	1472.9364	1486.1259	1489.111	1499.2671	1510.3664	1767.1103	2315.3779	2960.7282	3011.5015	3040.0729	3044.3553	3094.6433	3113.9271	3119.1888	3119.6668	3128.4413	3792.9852	5.8146	61.5119	62.7685	94.4077	168.4122	225.7023	234.3642	249.2979	267.969	286.0117	351.4085	444.5718	519.3064	531.4245	591.4037	626.4127	662.3031	836.1192	933.5717	961.3324	966.9841	990.0276	1092.5529	1116.9804	1118.7129	1177.0736	1206.5813	1240.0835	1315.2367	1342.7048	1345.9018	1397.1145	1411.3775	1419.4538	1472.9354	1486.1276	1489.1128	1499.2689	1510.3682	1767.1116	2315.3791	2960.7282	3011.5013	3040.0728	3044.3552	3094.6433	3113.9271	3119.1887	3119.6667	3128.4412	3792.9854
CC(C)C#CC(=O)CO	CC(C)C#CC(=O)CO	
InChI=1S/C7H10O2/c1-6(2)3-4-7(9)5-8/h6,8H,5H2,1-2H3	InChI=1S/C7H10O2/c1-6(2)3-4-7(9)5-8/h6,8H,5H2,1-2H3
