19
gdb 5467	3.7573995	1.0933633	0.9942113	0.5647	75.25	-0.23226	0.0646	0.29686	1241.4848	0.155471	-422.471816	-422.463301	-422.462357	-422.50491	32.369	
C	 5.0268345826	-2.816814138	-1.4792429206	-0.527204
C	 4.0284151597	-2.7965339118	-0.3683791124	 0.473904
O	 4.2375617041	-3.6608145898	 0.796241423	-0.361884
C	 2.9953495119	-2.959757139	 1.0827677998	 0.079045
C	 3.4637406781	-1.6008845565	 0.4759855012	-0.158981
C	 2.2121403202	-1.4767414224	-0.4254548417	-0.053892
C	 0.9240816273	-0.941837047	 0.1787206584	-0.089538
O	-0.1979515115	-1.1401441069	-0.6700566964	-0.419125
C	 2.4737515931	-3.0043824961	-0.3873574479	-0.157159
H	 5.1003428987	-3.8198295834	-1.9104519881	 0.136886
H	 4.7316131212	-2.1196311989	-2.2695413668	 0.132248
H	 6.0151640218	-2.5256834816	-1.1106355008	 0.137523
H	 2.4866207553	-3.1759370058	 2.0204933062	 0.097064
H	 4.046627384	-0.8276962916	 0.9776962854	 0.081062
H	 2.3873960647	-1.0098769146	-1.4013046969	 0.07605
H	 0.7550866923	-1.3842300343	 1.1743119894	 0.083762
H	 0.9970202786	 0.142556138	 0.3181798204	 0.110742
H	-0.2958905546	-2.0879668141	-0.8071438879	 0.282687
H	 1.9421313123	-3.8284910863	-0.8664282543	 0.076809
89.4162	133.0519	189.4718	198.0492	281.2517	301.0596	323.7685	412.2757	516.4828	567.5399	649.3811	739.8513	753.0413	785.5336	819.6131	852.0296	887.6645	925.4255	957.135	990.0893	1016.5537	1061.3552	1068.851	1086.9448	1111.3842	1132.5392	1136.8297	1164.5066	1172.0644	1196.0524	1242.3684	1252.3978	1284.7212	1352.1638	1371.0575	1401.3383	1418.9004	1428.1884	1473.4179	1491.6098	1503.3567	2969.9923	3039.4365	3046.3499	3066.6793	3100.6764	3113.0426	3113.2196	3115.3561	3137.4626	3813.9375
CC12OC3C1C(CO)C23	C[C@@]12O[C@H]3[C@@H]1[C@H](CO)[C@@H]23	
InChI=1S/C7H10O2/c1-7-4-3(2-8)5(7)6(4)9-7/h3-6,8H,2H2,1H3	InChI=1S/C7H10O2/c1-7-4-3(2-8)5(7)6(4)9-7/h3-6,8H,2H2,1H3/t3-,4-,5+,6-,7+
