19
gdb 1536	3.9263893	0.9614434	0.9102977	3.4876	78.45	-0.24263	-0.0227	0.21993000000000001	1341.393	0.15405	-422.533244	-422.524139	-422.523195	-422.566794	33.921	
C	-0.0678778857	-0.3082593632	-0.2303754951	-0.435509
C	 1.4229425488	-0.060109459	-0.085235624	 0.394679
C	 2.0326649763	-0.8433927987	 1.0696442525	-0.423708
O	 1.729622427	 1.3750854471	 0.0949745425	-0.326633
C	 2.6513466519	 1.3196168258	-0.9788404918	 0.095299
C	 1.9340454255	 1.0359951791	-2.293573532	-0.163426
C	 2.7593119493	 1.1443222158	-3.5144782556	 0.155737
O	 2.3550210426	 1.5247669261	-4.5862747564	-0.270426
C	 2.3248198037	-0.0907493456	-1.3336389607	-0.188397
H	-0.5871014375	 0.0013621154	 0.6821913255	 0.131228
H	-0.4934938112	 0.2474976415	-1.0679509088	 0.129648
H	-0.2617079347	-1.3742199843	-0.3871733756	 0.123703
H	 1.5368478815	-0.57525065	 2.0071505496	 0.130304
H	 1.9110989846	-1.9202733624	 0.9104629246	 0.1189
H	 3.0990790387	-0.6240750205	 1.1669017656	 0.124803
H	 3.5776179652	 1.876684347	-0.9008043516	 0.11841
H	 0.8998478925	 1.3440385898	-2.4039321177	 0.11247
H	 3.8268698492	 0.8466860587	-3.3774091857	 0.064012
H	 2.9553201523	-0.9171074224	-1.635302125	 0.108909
101.7657	126.6977	186.5297	228.4638	236.4426	263.4801	292.9161	327.3122	390.0572	435.6953	501.3868	541.1743	651.3582	811.7944	829.7256	868.169	889.4608	936.7271	961.7837	990.6585	1001.4159	1027.2263	1044.3874	1049.4413	1079.7607	1121.6408	1164.6307	1177.7888	1204.2576	1253.2741	1261.8654	1307.683	1367.965	1402.6436	1417.3207	1447.1272	1473.9845	1479.1704	1496.2054	1502.2938	1816.4372	2838.5628	3037.1987	3045.1485	3106.8563	3113.7259	3123.6248	3133.1343	3175.6039	3180.9804	3198.8728
CC1(C)OC2C(C=O)C12	CC1(C)O[C@@H]2[C@@H](C=O)[C@H]12	
InChI=1S/C7H10O2/c1-7(2)5-4(3-8)6(5)9-7/h3-6H,1-2H3	InChI=1S/C7H10O2/c1-7(2)5-4(3-8)6(5)9-7/h3-6H,1-2H3/t4-,5-,6+/m0/s1
