19
gdb 1621	2.5940888	1.4257713	1.0805351	2.5079	76.12	-0.25195	-0.026	0.22595	1149.8493	0.154764	-422.536799	-422.527703	-422.526759	-422.570522	34.47	
O	 2.2657376911	-2.368416189	 0.199702224	-0.456047
C	 1.6811462266	-1.2067125185	 0.7351607268	 0.301859
C	 0.3454769762	-1.3830814784	 1.4149910547	-0.335638
C	 0.4292768847	-0.7868142609	 0.0221922264	-0.298594
C	 2.6858068413	-0.1815427892	 1.2145724653	 0.196121
C	 4.0187062886	-0.6537970153	 1.7940492919	-0.297104
C	 3.9980855685	-0.0411284833	 0.4384819816	-0.277256
C	 2.1881796319	 1.0957749237	 1.7984443763	 0.082924
O	 2.9042623561	 1.958607974	 2.2520230321	-0.281483
H	 2.4883591551	-2.9537455411	 0.9315605277	 0.286801
H	-0.0291350622	-2.3976377466	 1.4968806394	 0.117273
H	 0.083387014	-0.7376844866	 2.2466929181	 0.118667
H	 0.1198078922	-1.4119901586	-0.8068128222	 0.128894
H	 0.2275837767	 0.2711906597	-0.1049617698	 0.119347
H	 4.4040032575	-0.0610221804	 2.6152018821	 0.139973
H	 4.1757995448	-1.7233614069	 1.8683376032	 0.10476
H	 4.3780215032	 0.9678889223	 0.3313819709	 0.135548
H	 4.1067305115	-0.6965819922	-0.4166376988	 0.137738
H	 1.0862033523	 1.2367147373	 1.7949180804	 0.076218
62.2572	105.2116	200.4749	241.3695	279.3241	308.6766	334.3743	344.5309	396.0473	415.1246	519.1346	541.5444	715.7379	767.7234	796.6219	817.2544	835.6999	906.3471	919.0064	926.15	980.9507	985.8643	1022.3107	1052.4051	1054.3847	1068.3917	1078.2432	1102.1567	1181.7965	1185.7234	1208.1687	1250.5589	1301.4016	1348.6474	1374.0424	1439.2791	1449.6662	1453.9218	1474.5482	1499.1778	1800.0577	2897.472	3130.0292	3139.4636	3143.5625	3148.6148	3214.8679	3232.4634	3234.3161	3251.4974	3803.2986
OC1(CC1)C1(CC1)C=O	OC1(CC1)C1(CC1)C=O	
InChI=1S/C7H10O2/c8-5-6(1-2-6)7(9)3-4-7/h5,9H,1-4H2	InChI=1S/C7H10O2/c8-5-6(1-2-6)7(9)3-4-7/h5,9H,1-4H2
