19
gdb 4465	2.4994888	1.8824386	1.5037347	2.2653	73.74	-0.21313	0.0648	0.27793	957.5853	0.158057	-422.51244	-422.504752	-422.503807	-422.544148	30.781	
O	 0.6624682478	 0.5349706688	 0.9806977052	-0.427815
C	-0.7535480776	 0.5543484712	 0.8493120078	 0.010609
C	-1.3597152654	 0.5433201643	 2.2867174533	-0.10785
O	-1.6189243845	 1.9011136931	 2.6811666437	-0.293669
C	-1.7321970712	 2.6469999449	 1.5120434293	 0.39037
C	-2.7179410754	 2.2476871552	 0.4565419848	-0.404992
C	-1.252858478	 1.8818461595	 0.30127299	 0.171783
C	-0.417628072	 3.1072786172	-0.1357066892	-0.284096
C	-0.88099214	 3.8691006013	 1.1577247018	-0.287535
H	 1.0398638122	 0.5047495553	 0.0957827198	 0.286455
H	-1.0956105825	-0.3301878326	 0.2928816235	 0.068727
H	-2.292628618	-0.0353371283	 2.2989590534	 0.099682
H	-0.661002648	 0.0992385544	 3.0000480423	 0.126558
H	-3.3951318122	 1.4430729725	 0.7205978751	 0.11959
H	-3.1471498697	 2.988107127	-0.2132128212	 0.110896
H	 0.655078769	 2.9100138054	-0.1334712316	 0.105364
H	-0.6981064246	 3.5504164645	-1.0962399533	 0.097238
H	-0.0621860486	 4.00214434	 1.8664139826	 0.12125
H	-1.4087246212	 4.8190849064	 1.0325765026	 0.097436
118.399	180.8432	252.9081	302.6085	340.1991	388.1442	428.8488	465.7801	550.7105	648.748	678.8658	764.3171	769.6324	813.9414	843.2172	867.5875	914.4422	927.1092	952.8837	964.7117	977.2115	1018.9123	1059.3467	1099.2501	1115.532	1165.8441	1215.3734	1225.3912	1238.2028	1239.247	1245.6423	1283.6677	1299.6453	1316.3078	1360.5774	1389.1336	1416.2234	1466.5399	1473.904	1495.9743	1509.9269	2989.4818	3021.2632	3048.9893	3058.3161	3103.7219	3115.7861	3117.4812	3133.1578	3212.8873	3820.2935
OC1COC23CC12CC3	O[C@H]1CO[C@]23C[C@]12CC3	
InChI=1S/C7H10O2/c8-5-3-9-7-2-1-6(5,7)4-7/h5,8H,1-4H2	InChI=1S/C7H10O2/c8-5-3-9-7-2-1-6(5,7)4-7/h5,8H,1-4H2/t5-,6+,7+/m0/s1
