19
gdb 3838	2.8920844	1.5415027	1.3870764	0.7754	74.25	-0.23779	0.0069	0.24469	1000.5479	0.158448	-422.578242	-422.570541	-422.569597	-422.609713	31.756	
O	 0.6034891637	 0.1694692917	 0.6570800897	-0.44347
C	-0.7607882206	 0.4788177452	 0.8434524316	 0.159745
C	-1.2485783503	 0.4389980263	 2.3259234114	-0.30902
C	-1.8515731748	 1.8673780789	 2.5353959657	 0.397399
O	-2.6209907484	 2.0564284874	 3.6924335942	-0.508384
C	-2.5036847485	 2.0944384744	 1.1438876617	-0.276713
C	-1.1663183948	 1.9293682026	 0.3880538115	-0.095915
C	-0.284369254	 2.8862374941	 1.17867153	-0.117037
C	-0.688400569	 2.8401708585	 2.4521817176	-0.098614
H	 1.112124393	 0.8139173367	 1.1634087035	 0.274317
H	-1.3011490166	-0.2540324361	 0.2379723507	 0.088654
H	-2.0214028203	-0.3247288539	 2.4730903537	 0.087757
H	-0.4290525521	 0.2215396736	 3.0146857081	 0.104381
H	-3.2671770206	 1.3444176428	 3.7428762552	 0.27555
H	-3.2518381909	 1.3344452618	 0.8884115472	 0.082568
H	-2.9366269265	 3.0922626514	 1.0455865478	 0.105258
H	-1.1695879458	 2.0586433019	-0.6939605056	 0.06623
H	 0.5670105487	 3.4217796036	 0.7777611478	 0.101492
H	-0.2550433019	 3.316386629	 3.3225319883	 0.105802
143.363	244.0811	281.2795	334.0871	370.6935	383.8778	425.3732	473.2659	492.91	516.6197	628.7616	673.9375	752.4454	761.4975	804.2274	832.2224	896.4137	932.8213	943.2655	950.5242	976.5223	997.8671	1033.3326	1073.413	1089.6504	1122.9239	1143.6005	1165.9345	1173.997	1224.4492	1233.1864	1266.1053	1288.7534	1306.0837	1316.2452	1349.9644	1410.2703	1439.766	1481.5262	1500.707	1643.7337	3032.335	3038.611	3072.1656	3105.0957	3114.3583	3118.2693	3200.4799	3226.7782	3781.0162	3812.1896
OC1CC2(O)CC1C=C2	O[C@H]1C[C@]2(O)C[C@H]1C=C2	
InChI=1S/C7H10O2/c8-6-4-7(9)2-1-5(6)3-7/h1-2,5-6,8-9H,3-4H2	InChI=1S/C7H10O2/c8-6-4-7(9)2-1-5(6)3-7/h1-2,5-6,8-9H,3-4H2/t5-,6+,7-/m1/s1
