19
gdb 2801	2.7968151	1.3138208	1.0107978	0.6785	75.79	-0.23986	0.06965	0.30951	1202.0387	0.154944	-422.497638	-422.488708	-422.487764	-422.530951	33.555	
C	 1.1995161088	 1.0481495065	-0.0813076764	-0.392745
C	 0.981109845	-0.4446532686	 0.1393249607	-0.107389
C	 1.9184475377	-1.0926624944	 1.1796349103	-0.118674
C	 1.7637626023	-2.5813225797	 1.1894356624	 0.136188
O	 2.4279161985	-3.3352146946	 2.1611760948	-0.440503
C	 2.5752070823	-1.9618276394	 0.0757249286	-0.221374
C	 1.6494621425	-1.3352776775	-0.9386002766	 0.452603
C	 1.1498421628	-1.843916884	-2.2171199435	-0.270234
O	 2.1234199815	-0.7852451446	-2.1547877128	-0.276549
H	 0.8519279625	 1.6196257657	 0.7854026335	 0.112312
H	 2.2586494156	 1.271614227	-0.2401135322	 0.125795
H	 0.6525957974	 1.3948544288	-0.9624945805	 0.124467
H	-0.0834257154	-0.6509316335	 0.3075082323	 0.074116
H	 2.3868138327	-0.5664476131	 2.0046567425	 0.086802
H	 0.7993205898	-3.0396402667	 0.9810468946	 0.104355
H	 3.2767236979	-2.9205858727	 2.3498077442	 0.285554
H	 3.6121601196	-2.2312521501	-0.0908579338	 0.095798
H	 1.5186616551	-2.7917825493	-2.6068978052	 0.116015
H	 0.1656110735	-1.5450000898	-2.5762739428	 0.113464
107.5831	159.9351	177.9214	210.0122	224.1619	257.6889	279.4418	394.5733	412.6383	439.2209	541.4969	595.0477	787.3311	801.6173	867.3734	875.0624	884.1586	919.079	938.9602	976.1607	1000.9162	1049.8491	1083.0063	1095.7306	1110.9396	1121.369	1122.7616	1145.4435	1162.6589	1179.7541	1244.2917	1258.5789	1275.4908	1331.979	1357.6487	1408.9925	1437.3402	1445.3702	1491.4687	1494.7033	1533.2454	3022.6453	3039.231	3079.1477	3108.9109	3117.0645	3130.751	3165.3149	3166.1146	3180.4665	3809.79
CC1C2C(O)C2C11CO1	C[C@@H]1[C@H]2[C@H](O)[C@H]2[C@]21CO2	
InChI=1S/C7H10O2/c1-3-4-5(6(4)8)7(3)2-9-7/h3-6,8H,2H2,1H3	InChI=1S/C7H10O2/c1-3-4-5(6(4)8)7(3)2-9-7/h3-6,8H,2H2,1H3/t3-,4-,5+,6+,7-/m1/s1
