19
gdb 4394	3.1720847	1.0810361	1.0185896	3.0557	79.23	-0.23887	-0.02987	0.209	1258.7014	0.15642	-422.573591	-422.56479	-422.563846	-422.607478	32.338	
C	 2.2794568393	-0.6543666701	-1.2126880016	-0.397949
C	 1.5899216703	 0.200143963	-0.152082665	 0.094155
O	 1.801758595	-0.4445914294	 1.0979678963	-0.262408
C	 1.4613829815	 0.3560495678	 2.2137496266	-0.116694
C	 2.3865706729	 1.5797838995	 2.3192496492	-0.124282
C	 3.7927067207	 1.1676774024	 2.7408151469	 0.157278
O	 4.4620307017	 1.7510773866	 3.5533272198	-0.252528
C	 2.4595379843	 2.2519429185	 0.9668345373	-0.11236
C	 2.0865862093	 1.6230629423	-0.1460011744	-0.055369
H	 1.9028767134	-1.67943029	-1.1671165511	 0.129259
H	 2.0866501879	-0.2547793931	-2.2126264344	 0.117073
H	 3.3597797651	-0.670721792	-1.0435782478	 0.128575
H	 0.5041873744	 0.2142124402	-0.3659173505	 0.080658
H	 0.417170685	 0.7002609597	 2.1483474886	 0.10137
H	 1.5490679774	-0.2918370995	 3.0913624353	 0.115832
H	 2.0141382935	 2.2823585441	 3.0728065289	 0.097302
H	 4.1697176177	 0.2683243134	 2.2060644267	 0.09109
H	 2.8385081854	 3.2690837033	 0.9367747018	 0.108784
H	 2.1108638852	 2.1292663732	-1.1076041024	 0.100214
65.7943	80.6321	188.799	211.1975	250.0862	310.1529	333.712	378.3779	437.8765	503.0451	559.7742	621.2933	732.7366	809.9926	823.4915	888.0851	914.171	964.2564	969.8111	1001.6739	1049.5771	1075.9464	1108.3023	1114.6858	1127.185	1164.2476	1214.0749	1251.9167	1302.4666	1313.9268	1333.3048	1358.6693	1392.0527	1404.602	1411.4754	1422.419	1484.5827	1495.1523	1500.4024	1709.7011	1827.8451	2896.3127	2920.4683	2982.6046	3045.6065	3056.9327	3079.9779	3121.9242	3127.7087	3157.6645	3181.2626
CC1OCC(C=O)C=C1	C[C@H]1OC[C@@H](C=O)C=C1	
InChI=1S/C7H10O2/c1-6-2-3-7(4-8)5-9-6/h2-4,6-7H,5H2,1H3	InChI=1S/C7H10O2/c1-6-2-3-7(4-8)5-9-6/h2-4,6-7H,5H2,1H3/t6-,7-/m1/s1
