19
gdb 4757	3.2198865	0.6253091	0.5415255	1.2189	82.43	-0.25394	-0.03329	0.22065	1990.7495	0.153352	-422.538378	-422.5274	-422.526456	-422.577428	36.891	
C	 3.1503090434	-2.4789893663	-0.8741134573	-0.393825
C	 1.72088522	-1.9095739731	-0.9190589002	-0.151992
C	 1.3323970466	-1.2676113697	 0.4334252687	-0.046306
O	 0.0456956231	-0.6918167027	 0.4181743904	-0.419909
C	 0.7344441741	-2.9295735592	-1.2774239839	 0.101323
C	-0.111422763	-3.7556452011	-1.5162764083	-0.002969
C	-1.0676328108	-4.7946614655	-1.8733281881	-0.415391
C	-0.4993620688	-5.7728801873	-2.9059422344	 0.174445
O	-0.7190651068	-6.9525841232	-2.8943412063	-0.228719
H	 3.2324325696	-3.2663626929	-0.1187443623	 0.128995
H	 3.4319686424	-2.9067791073	-1.8393171642	 0.128562
H	 3.8652294091	-1.6879653059	-0.6269081451	 0.120014
H	 1.6783751919	-1.1124270105	-1.6732188804	 0.113669
H	 1.4335430502	-2.0244823926	 1.2278936986	 0.091431
H	 2.0325019329	-0.4554495991	 0.6542741667	 0.110205
H	-0.571845849	-1.3897083727	 0.168670818	 0.283952
H	-1.4046025874	-5.3728313265	-1.0068227717	 0.155234
H	-1.9651849836	-4.34651806	-2.3272228847	 0.156209
H	 0.130308906	-5.2955888344	-3.6877059056	 0.095071
10.5748	46.5332	73.9182	120.1176	144.1618	163.463	223.5926	261.4758	308.8659	381.3443	412.1951	443.2501	473.5261	536.7013	580.3882	687.4241	765.2548	892.6254	935.2068	1017.2055	1032.6526	1044.2927	1081.8429	1102.213	1125.7488	1179.2323	1212.2081	1215.0869	1289.4352	1296.4133	1359.4716	1383.6254	1405.2616	1415.6553	1430.5414	1443.1602	1492.0651	1499.7979	1506.2747	1842.1962	2353.9074	2902.9428	2975.6901	3000.6411	3022.1308	3041.5776	3078.3072	3079.7755	3113.4776	3123.435	3784.4068
CC(CO)C#CCC=O	C[C@H](CO)C#CCC=O	
InChI=1S/C7H10O2/c1-7(6-9)4-2-3-5-8/h5,7,9H,3,6H2,1H3	InChI=1S/C7H10O2/c1-7(6-9)4-2-3-5-8/h5,7,9H,3,6H2,1H3/t7-/m0/s1
