19
gdb 1638	4.138556	0.93586	0.9329512	4.3188	76.29	-0.2332	-0.01002	0.22318	1322.6059	0.154355	-422.547402	-422.538108	-422.537164	-422.582222	34.186	
O	-2.0850823732	-0.068677087	-2.4112926683	-0.474495
C	-2.9065436388	-0.0449862998	-1.2689961126	 0.423361
C	-4.2100283755	 0.707186016	-1.3029655575	-0.333079
C	-4.1998248649	-0.8153129588	-1.2640620186	-0.333053
C	-2.0479609471	-0.0076441262	-0.032781866	-0.023751
C	-0.9382398205	-1.1029354846	 0.0966320581	-0.359768
C	 0.0460271575	 0.0189606563	 0.457270687	 0.398091
O	 1.1336959104	 0.0390152252	 0.9560039488	-0.293957
C	-0.9531182528	 1.1076498325	 0.0401902036	-0.359763
H	-2.6375377981	-0.0920446193	-3.1977984288	 0.284956
H	-4.5302966297	 1.247657747	-0.4183985594	 0.119287
H	-4.492024276	 1.1840358982	-2.236859702	 0.110075
H	-4.513134657	-1.3141401933	-0.3529372217	 0.119283
H	-4.4750681248	-1.3429640325	-2.1722944783	 0.110083
H	-2.6909365002	 0.0105671875	 0.8501138976	 0.077514
H	-1.0688907648	-1.8967579185	 0.8357531366	 0.121258
H	-0.6925031901	-1.547920583	-0.8724793994	 0.146356
H	-1.0946854525	 1.9363317078	 0.7378782563	 0.121257
H	-0.713059562	 1.5058531826	-0.9504569355	 0.146345
56.8297	61.0256	96.3395	179.7243	245.5249	294.2835	342.1546	417.4525	463.7913	464.7845	541.2074	634.195	668.9087	718.9665	762.8912	832.8865	874.8171	917.862	928.5831	952.7028	978.4674	1011.9122	1014.1774	1050.8988	1055.1622	1065.9719	1111.5122	1169.6623	1183.6264	1193.3714	1194.5611	1238.3718	1252.7196	1284.4206	1356.0569	1423.6711	1442.545	1452.9094	1462.6717	1503.8634	1894.061	3061.8717	3066.769	3081.2737	3122.1332	3123.5769	3124.5594	3126.6162	3201.4572	3216.184	3837.6985
OC1(CC1)C1CC(=O)C1	OC1(CC1)C1CC(=O)C1	
InChI=1S/C7H10O2/c8-6-3-5(4-6)7(9)1-2-7/h5,9H,1-4H2	InChI=1S/C7H10O2/c8-6-3-5(4-6)7(9)1-2-7/h5,9H,1-4H2
