19
gdb 4878	2.3918705	1.5147454	1.2286978	4.0692	77.63	-0.2356	-0.04799	0.18761	1111.0233	0.155446	-422.577225	-422.568029	-422.567085	-422.611308	33.7	
C	 1.4372863195	-0.1728894932	-0.0575771858	-0.244167
O	 0.0485399525	 0.0434976807	 0.0682429686	-0.279253
C	-0.3861607853	 0.7413393762	 1.2269392346	 0.283072
C	 0.0490076572	 0.0705763843	 2.5329831106	-0.451216
C	-0.0525844227	 2.2572575576	 1.1710637211	-0.319864
C	-1.3951733282	 2.9419013011	 1.14623825	-0.052038
C	-2.4293437794	 2.0932387199	 1.1250365079	-0.180782
C	-1.9453558389	 0.6997896186	 1.14968891	 0.371561
O	-2.598354586	-0.3147163294	 1.1416680702	-0.336374
H	 1.8229311062	-0.8816482689	 0.6874295142	 0.113969
H	 1.5940403207	-0.5980906078	-1.0519436664	 0.132129
H	 2.0180768605	 0.75902469	 0.0168112643	 0.10033
H	-0.2953851352	-0.9668080869	 2.5389312795	 0.146139
H	 1.1345348433	 0.0953106339	 2.663195461	 0.115303
H	-0.3995035985	 0.586753709	 3.3879474291	 0.122215
H	 0.5509206307	 2.5992250303	 2.0205806283	 0.1142
H	 0.5166126963	 2.4959429748	 0.265209016	 0.128688
H	-1.4797522593	 4.0239868743	 1.1452947374	 0.116709
H	-3.4817665631	 2.3441938755	 1.0970218494	 0.119379
48.6895	115.5458	176.3159	202.268	251.4976	285.0766	304.3631	344.2623	365.1188	412.8617	562.2073	591.4556	683.245	694.384	757.6575	835.1797	877.4042	922.6878	934.3402	967.8419	1002.7028	1078.698	1092.5252	1119.1857	1144.4949	1178.0296	1185.6805	1203.4179	1231.3872	1245.1835	1332.4819	1366.839	1396.6026	1459.9305	1473.7312	1485.8785	1490.9578	1503.2572	1512.0937	1652.4279	1824.0419	2986.1513	3031.7768	3038.9249	3044.5696	3066.3748	3108.3832	3113.8884	3129.7328	3184.5357	3227.7199
COC1(C)CC=CC1=O	CO[C@@]1(C)CC=CC1=O	
InChI=1S/C7H10O2/c1-7(9-2)5-3-4-6(7)8/h3-4H,5H2,1-2H3	InChI=1S/C7H10O2/c1-7(9-2)5-3-4-6(7)8/h3-4H,5H2,1-2H3/t7-/m0/s1
