19
gdb 4792	3.1272782	0.7823007	0.6628961	1.3437	81.48	-0.24123	-0.03042	0.21081	1726.3945	0.152167	-422.523874	-422.512402	-422.511458	-422.56415	37.025	
C	-5.2633515542	-0.266860684	-2.5601662956	-0.245942
O	-4.5723472082	-0.1731688094	-1.3266469131	-0.24381
C	-3.1691920004	-0.3273707233	-1.4391398347	 0.049761
C	-2.5681413975	 0.1846291745	-0.119042493	-0.382573
C	-1.1145271816	 0.0902798203	-0.0858179036	 0.030479
C	 0.0853818259	-0.0056582736	-0.0873978872	 0.093773
C	 1.5364762064	-0.1203490604	-0.0843578439	-0.498148
C	-2.8534247708	-1.8097110193	-1.6433836961	 0.154259
O	-2.2648826997	-2.2681762971	-2.5856152822	-0.237858
H	-5.1303745001	-1.2460858589	-3.0403706665	 0.123898
H	-6.3229795833	-0.1211576908	-2.3398564958	 0.134151
H	-4.9313163633	 0.5104250634	-3.2635384778	 0.116556
H	-2.7661067328	 0.2353120749	-2.2925767299	 0.093419
H	-2.902636644	 1.21978585	 0.0150049091	 0.141071
H	-3.0140864179	-0.3906064053	 0.7030813177	 0.137614
H	 1.895828614	-0.60353766	 0.8308013497	 0.149048
H	 1.8859791789	-0.7170800532	-0.933862212	 0.15481
H	 2.0141265395	 0.8633371152	-0.1504195443	 0.148548
H	-3.269876511	-2.4557638832	-0.8351719508	 0.080945
18.1314	21.9522	46.3653	71.8968	105.0219	183.067	209.7962	224.4827	275.7734	324.5572	359.6655	393.5584	412.487	494.1978	547.878	776.9212	848.4672	942.4639	1027.1883	1051.3275	1053.4392	1075.6492	1087.905	1136.9133	1171.4526	1185.1144	1202.1606	1230.3286	1309.4025	1322.8856	1366.9243	1413.5236	1414.8381	1474.6485	1477.9328	1478.2345	1481.3828	1489.99	1510.1864	1840.1982	2377.2718	2864.1647	2992.105	3018.8852	3026.8107	3028.7291	3046.4745	3064.3272	3089.4736	3091.6566	3124.9754
COC(CC#CC)C=O	CO[C@@H](CC#CC)C=O	
InChI=1S/C7H10O2/c1-3-4-5-7(6-8)9-2/h6-7H,5H2,1-2H3	InChI=1S/C7H10O2/c1-3-4-5-7(6-8)9-2/h6-7H,5H2,1-2H3/t7-/m0/s1
