19
gdb 5357	3.5169041	1.1232199	0.9806176	2.0808	78.48	-0.23484	0.00521	0.24004999999999999	1246.8507	0.157743	-422.537772	-422.529405	-422.528461	-422.570934	31.768	
O	 1.9269294005	 0.5856626163	-0.0896919955	-0.410282
C	 0.5259853886	 0.8168149201	 0.0443340988	-0.16086
C	-0.2442249132	 0.4384904478	-1.1896164212	 0.256403
C	-1.2148735793	-0.4780327313	-1.1990047045	-0.188297
C	-1.970857565	-0.7658181672	-2.4416647153	-0.093703
C	-1.4400528627	-1.735044071	-3.4923814922	-0.301536
C	-1.3602020876	-0.249600526	-3.7140931553	 0.099085
O	-0.0869108223	 0.323260096	-3.6328733479	-0.257758
C	 0.1335651494	 1.1299242741	-2.4822887109	-0.166493
H	 2.0419950779	-0.348618656	-0.2944145348	 0.283051
H	 0.1103448094	 0.2908789732	 0.9169649047	 0.093048
H	 0.4381294887	 1.8929359122	 0.2404425849	 0.114308
H	-1.4889742982	-1.0078513081	-0.2887962625	 0.086779
H	-3.0528822114	-0.7148597444	-2.3530079852	 0.097392
H	-0.5009477352	-2.2334008446	-3.2813661849	 0.120458
H	-2.1590422508	-2.3129072912	-4.0630333631	 0.111642
H	-2.0020202947	 0.2075634167	-4.4652978001	 0.088021
H	 1.2029792068	 1.3570844773	-2.4783467765	 0.129632
H	-0.408037041	 2.0880924363	-2.5670481285	 0.09911
74.6971	112.1188	178.4242	230.0886	306.6993	363.2717	390.8257	434.2119	502.0205	520.1821	575.3382	714.713	776.4979	822.6399	867.9106	874.724	902.7422	955.1451	986.1548	1024.1736	1040.6709	1045.6199	1062.9892	1066.5975	1110.1197	1123.5911	1175.9886	1188.2215	1208.2702	1229.4949	1271.9113	1329.1709	1354.9265	1383.6776	1390.5038	1411.3591	1416.9437	1471.3979	1494.3362	1496.9285	1728.2584	2954.489	2990.1332	3047.8375	3093.9743	3112.0787	3134.1572	3137.3137	3145.774	3231.2492	3806.4686
OCC1=CC2CC2OC1	OCC1=C[C@@H]2C[C@@H]2OC1	
InChI=1S/C7H10O2/c8-3-5-1-6-2-7(6)9-4-5/h1,6-8H,2-4H2	InChI=1S/C7H10O2/c8-3-5-1-6-2-7(6)9-4-5/h1,6-8H,2-4H2/t6-,7+/m1/s1
