19
gdb 1244	1.8020082	1.6704428	1.0836868	2.1432	78.23	-0.26548	-0.04585	0.21963	1192.1049	0.15209	-422.5407	-422.530129	-422.529185	-422.575778	38.358	
C	 4.6892187059	-1.2392702569	-0.876103471	-0.416249
C	 3.1631337961	-1.2918987114	-0.7236558674	 0.013502
C	 2.704191813	-2.6550574195	-0.1929453391	-0.403035
C	 2.6631484212	-0.1456474816	 0.2101632271	 0.088648
O	 3.2183111897	-0.2840195236	 1.4955102809	-0.452101
C	 3.0821850617	 1.2158062714	-0.370198976	 0.121945
O	 3.7386359158	 1.9968201446	 0.2693045287	-0.266882
C	 1.1915571003	-0.0984836663	 0.2516558164	 0.319154
C	-0.007510423	-0.0070284856	 0.2488249656	-0.449063
H	 5.1708920572	-1.3337051931	 0.1006102769	 0.139008
H	 5.0332774588	-2.0611902008	-1.5104047887	 0.115929
H	 5.0318362199	-0.3042497423	-1.332378371	 0.116381
H	 2.6960667224	-1.1209709006	-1.7028351105	 0.081627
H	 3.1281449165	-2.8403212871	 0.7979956639	 0.139044
H	 1.6152369799	-2.7070231225	-0.1140475574	 0.127632
H	 3.0375062879	-3.452631818	-0.8639047303	 0.111155
H	 3.6197473874	 0.576774355	 1.6993864953	 0.296052
H	 2.7271816226	 1.4329924397	-1.3957630619	 0.112874
H	-1.0680539135	 0.0551131185	 0.2680791384	 0.204379
79.1758	97.7087	139.7424	175.0302	209.5162	228.6928	257.061	287.9664	316.9297	351.8599	404.32	440.3369	484.5357	507.6769	548.4691	634.0274	639.9313	673.2548	818.5831	868.8652	930.444	948.0503	961.5554	1003.959	1050.8323	1085.5182	1157.0945	1199.8309	1207.1479	1340.2803	1344.6421	1383.8975	1396.9616	1414.997	1421.9416	1484.9477	1493.4453	1502.7727	1514.37	1818.2048	2222.7338	2956.4446	3019.6251	3038.1092	3044.6623	3102.4187	3113.8577	3125.0981	3127.7377	3497.8984	3675.6536
CC(C)C(O)(C=O)C#C	CC(C)[C@@](O)(C=O)C#C	
InChI=1S/C7H10O2/c1-4-7(9,5-8)6(2)3/h1,5-6,9H,2-3H3	InChI=1S/C7H10O2/c1-4-7(9,5-8)6(2)3/h1,5-6,9H,2-3H3/t7-/m0/s1
