19
gdb 4687	4.1694114	0.9757782	0.873926	1.5985	77.34	-0.24054	0.01696	0.2575	1366.7665	0.157107	-422.60115	-422.592022	-422.591077	-422.636761	32.082	
C	 1.4963362106	-0.2731084784	 0.0539075804	-0.239655
O	 0.1490058009	-0.4130111482	 0.5206579892	-0.236503
C	-0.3890792237	 0.6948432814	 1.0750026099	 0.433273
O	 0.2017749023	 1.7427375829	 1.1650964776	-0.362465
C	-1.7846278372	 0.4107706844	 1.5871263597	-0.09877
C	-2.6554920178	 1.6798473637	 1.7595077917	-0.274159
C	-3.391876309	 1.4265319179	 3.0517734543	-0.061183
C	-2.9049293986	 0.3819295811	 3.7171355074	-0.06172
C	-1.7493231828	-0.2695078312	 2.9975417472	-0.266781
H	 2.1639370951	 0.0028266546	 0.8742612946	 0.13908
H	 1.7729308723	-1.2461891409	-0.3523697375	 0.131529
H	 1.5588512837	 0.4960799275	-0.7200931301	 0.140181
H	-2.2618707555	-0.2834317313	 0.8913528302	 0.099623
H	-2.0193820321	 2.5707725574	 1.8292640913	 0.135647
H	-3.3255179269	 1.8350511195	 0.906512886	 0.103975
H	-4.1984201217	 2.0656634053	 3.3935776437	 0.09407
H	-3.245866393	 0.0390823281	 4.6877777488	 0.093062
H	-0.8040839942	-0.0693167637	 3.5214132391	 0.117188
H	-1.8372767724	-1.3581751102	 2.9233221866	 0.113607
21.702	69.6673	119.4522	135.2195	206.449	276.2505	332.3259	383.4749	389.2657	571.5235	706.3023	732.8545	766.99	789.5301	845.2403	922.3949	943.9854	960.4484	975.438	981.4277	1039.8195	1043.3695	1087.6481	1131.015	1158.0426	1179.7154	1186.5044	1209.0655	1223.2759	1298.0724	1304.9334	1325.5733	1361.5731	1382.483	1473.8312	1482.1628	1485.4193	1491.7542	1498.3437	1692.2587	1814.7061	3012.1299	3033.9763	3050.9864	3060.2999	3066.4208	3086.6498	3124.6545	3157.0337	3183.228	3208.7196
COC(=O)C1CC=CC1	COC(=O)[C@@H]1CC=CC1	
InChI=1S/C7H10O2/c1-9-7(8)6-4-2-3-5-6/h2-3,6H,4-5H2,1H3	InChI=1S/C7H10O2/c1-9-7(8)6-4-2-3-5-6/h2-3,6H,4-5H2,1H3
