19
gdb 4098	3.4845587	1.3322534	1.0829358	1.1723	77.04	-0.24118	0.01849	0.25967	1131.3885	0.158194	-422.547101	-422.53917	-422.538226	-422.579486	30.798	
O	 0.1137988073	-0.0759406656	-0.1493438108	-0.438501
C	-0.8928991154	 0.2880610187	 0.7745601984	 0.101961
C	-2.2340861215	-0.3486243257	 0.3379387002	-0.250986
C	-2.6374617314	 1.0210631797	-0.3056945299	-0.043068
C	-3.9907004029	 1.6067920084	-0.0760313237	-0.085727
C	-4.1604067743	 2.6183319408	 0.7728851905	-0.077238
C	-3.0195932321	 3.1569189588	 1.5951828724	-0.119457
O	-1.9474744439	 2.2383836615	 1.7277606258	-0.270091
C	-1.4957493066	 1.6943614543	 0.5052153045	 0.069262
H	 0.8891027032	 0.4672940304	 0.0284647039	 0.282638
H	-0.5816460845	 0.1270561232	 1.8143340626	 0.073834
H	-2.1369768238	-1.2064657001	-0.3291267802	 0.109525
H	-2.8657184907	-0.6085034691	 1.1891476204	 0.109666
H	-2.3947011791	 1.0137709773	-1.3729422317	 0.089495
H	-4.8310928763	 1.2002675976	-0.6337770616	 0.090142
H	-5.1304566044	 3.0870867912	 0.9134256992	 0.092445
H	-2.6610017056	 4.1147503204	 1.1756982315	 0.097478
H	-3.3543295807	 3.3680900262	 2.6171333926	 0.115856
H	-0.8526945174	 2.4065674122	-0.0351995742	 0.052765
85.0495	154.9346	220.6823	282.319	315.7649	359.4424	427.0193	471.7943	493.4238	569.1964	693.428	711.4755	817.1225	854.0373	878.7352	916.6146	938.2811	977.3375	985.112	996.9672	1044.9107	1051.6458	1081.4583	1095.6172	1119.5585	1164.4243	1195.599	1207.9377	1248.9296	1264.556	1265.3806	1286.4964	1305.9281	1338.7682	1344.399	1398.3989	1412.3123	1414.3341	1469.5329	1490.0093	1718.1609	2938.4711	2976.1178	3023.836	3056.5875	3057.7009	3079.8143	3141.7834	3146.8183	3174.2505	3805.3796
OC1CC2C=CCOC12	O[C@@H]1C[C@H]2C=CCO[C@@H]12	
InChI=1S/C7H10O2/c8-6-4-5-2-1-3-9-7(5)6/h1-2,5-8H,3-4H2	InChI=1S/C7H10O2/c8-6-4-5-2-1-3-9-7(5)6/h1-2,5-8H,3-4H2/t5-,6-,7-/m1/s1
