19
gdb 2867	2.052872	1.7709332	1.5803585	0.9151	74.54	-0.22325	0.06563	0.28888	1008.5534	0.155	-422.499462	-422.490779	-422.489835	-422.532063	33.611	
C	 1.2087350543	 1.1540695655	-0.0822209418	-0.414758
C	 0.9684296086	-0.3400903886	 0.0946670473	-0.021552
C	 1.6543264064	-1.2087258321	-0.9609323626	-0.158349
C	 1.9711958382	-2.5396604159	-0.2162049846	-0.026208
O	 1.4506621928	-2.4240978115	 1.10234727	-0.323303
C	 1.9240399416	-1.0416257164	 1.1129361711	 0.331631
C	 2.2404316364	-0.5162741928	 2.4772942927	-0.513085
C	 2.8992886475	-1.3779836803	-0.1227444909	 0.266826
O	 4.2064726338	-1.1224467355	-0.4372948556	-0.450619
H	 0.8695297821	 1.7171223486	 0.7941551142	 0.113049
H	 2.2721495606	 1.3684888347	-0.2365980489	 0.12611
H	 0.6648223181	 1.5375080727	-0.9516849025	 0.116969
H	-0.0896934553	-0.5527529099	 0.2878937902	 0.070175
H	 1.5765055999	-1.166035107	-2.0403128383	 0.091015
H	 2.0235840299	-3.5104324444	-0.690895372	 0.109588
H	 2.9996012717	-1.1335118155	 2.9668435339	 0.124348
H	 2.610590836	 0.511333084	 2.4214401693	 0.130296
H	 1.341283267	-0.5250434624	 3.1036771403	 0.134067
H	 4.7675445304	-1.7089652531	 0.0838834284	 0.293801
148.3722	165.034	178.0415	222.9817	245.8976	308.1508	367.219	375.528	427.2475	499.548	578.1119	611.9676	641.9273	749.5245	788.2142	812.6689	851.7332	875.9136	916.6897	938.9535	1013.1059	1018.1285	1037.8852	1055.4539	1095.7499	1126.2954	1137.1315	1145.4338	1217.0288	1255.5331	1267.992	1302.846	1337.7842	1360.4973	1410.0602	1413.5901	1472.3056	1482.6147	1490.4196	1497.2064	1501.8045	3027.0435	3035.6921	3038.3693	3093.9689	3098.3746	3102.6781	3118.8046	3195.5526	3211.8512	3780.4112
CC1C2C3OC1(C)C23O	C[C@H]1[C@@H]2[C@@H]3O[C@@]1(C)[C@]23O	
InChI=1S/C7H10O2/c1-3-4-5-7(4,8)6(3,2)9-5/h3-5,8H,1-2H3	InChI=1S/C7H10O2/c1-3-4-5-7(4,8)6(3,2)9-5/h3-5,8H,1-2H3/t3-,4+,5-,6+,7-/m0/s1
