19
gdb 810	2.4380559	1.6026598	1.2960607	2.6488	74.85	-0.24382	-0.03189	0.21193	1053.9562	0.1576	-422.569037	-422.560968	-422.560024	-422.601863	30.393	
O	-0.0074970681	-0.6067452241	 0.6877206969	-0.260288
C	 0.3745136029	-0.1393846505	-0.3553300496	 0.093394
C	-0.4510267974	 0.776094217	-1.2299343823	 0.347933
C	-1.348900564	 1.7620814315	-0.4839576417	-0.254697
C	-2.4889149934	 2.0661533158	-1.4737172037	-0.225091
C	-2.7392825233	 0.7157259286	-2.1756281766	-0.223966
C	-1.3496590401	 0.0811757312	-2.3170779135	-0.10665
C	-0.3786933715	 0.7432955115	-3.3150520067	-0.089159
O	 0.3603304689	 1.3920029128	-2.2567221112	-0.337069
H	 1.3791819461	-0.3674671211	-0.7771257143	 0.088448
H	-1.7236375781	 1.2586028305	 0.4138646054	 0.12579
H	-0.7916406984	 2.6492509223	-0.1712889245	 0.112713
H	-3.3830442787	 2.4606964343	-0.9844097157	 0.102411
H	-2.1574736728	 2.8162771734	-2.1997146314	 0.113339
H	-3.3662645998	 0.0751206975	-1.5453357198	 0.111369
H	-3.2468740218	 0.8196177446	-3.1402522628	 0.102837
H	-1.3646262576	-1.0090442906	-2.3358435203	 0.08861
H	 0.2533485418	 0.0495522969	-3.8825560098	 0.106116
H	-0.8243426248	 1.4676750284	-4.0082322586	 0.10396
80.0574	114.2401	210.7437	226.1417	254.1783	362.8607	378.1346	491.1204	579.2435	600.81	709.6671	803.0108	824.9316	855.7562	891.1994	906.3535	943.62	974.7028	985.2985	1019.0725	1028.3221	1077.4831	1087.6265	1141.3676	1165.9831	1170.1067	1183.9502	1221.1581	1237.1952	1273.9055	1313.6396	1329.4345	1339.7344	1347.7258	1369.051	1393.6822	1471.3888	1485.9301	1500.6851	1527.3209	1821.0617	2886.8859	3014.2023	3040.6257	3050.5598	3054.7622	3057.1694	3083.396	3099.6928	3106.5458	3111.7766
O=CC12CCCC1CO2	O=C[C@]12CCC[C@H]1CO2	
InChI=1S/C7H10O2/c8-5-7-3-1-2-6(7)4-9-7/h5-6H,1-4H2	InChI=1S/C7H10O2/c8-5-7-3-1-2-6(7)4-9-7/h5-6H,1-4H2/t6-,7+/m0/s1
