19
gdb 5562	2.2000795	1.514195	1.0404975	1.858	74.94	-0.24049	-0.02202	0.21847	1178.9565	0.15729	-422.575687	-422.567147	-422.566203	-422.609235	32.095	
O	-0.7382573052	-0.5636681207	-0.8607271201	-0.415585
C	-0.1981558182	 0.5718893287	-0.2083595948	-0.077767
C	-0.5089057641	 0.5925323346	 1.3026162696	-0.137556
C	-1.9950392261	 0.6327545596	 1.5963072171	-0.026536
C	-2.4158092664	 0.7355092288	 3.040122262	-0.310856
C	-2.3499921672	 1.9857081364	 2.1995964874	-0.035821
C	-1.0911675843	 2.8215729027	 2.3077916559	-0.332647
C	 0.0621739135	 1.8810201845	 1.9256482803	 0.369788
O	 1.2350646603	 2.1177491705	 2.0591120011	-0.317194
H	-0.2868288527	-1.3433850268	-0.5208541671	 0.284692
H	 0.8884470699	 0.6507492119	-0.3495943827	 0.111771
H	-0.6613611378	 1.4366883474	-0.6962204346	 0.113886
H	 0.0000635107	-0.2642689482	 1.7639731294	 0.090468
H	-2.6565182259	 0.1438908891	 0.8916796061	 0.102059
H	-3.3976504764	 0.3587913099	 3.3046482805	 0.116529
H	-1.6658563651	 0.5901699307	 3.8142031364	 0.111931
H	-3.2789292921	 2.4768176034	 1.9353911299	 0.089976
H	-1.0958291706	 3.6555735119	 1.5938017614	 0.131694
H	-0.9060624223	 3.2547182057	 3.2961103124	 0.131165
63.5864	113.8613	158.368	199.0069	298.592	323.1978	361.7149	444.6716	508.0024	560.4571	614.5717	666.4401	776.1128	804.6352	826.1745	865.2809	870.6957	937.9131	1013.0688	1018.3959	1036.4711	1066.8395	1076.9747	1085.9492	1105.6901	1127.9098	1157.7145	1173.213	1197.4986	1204.8874	1253.2005	1283.6141	1322.5332	1359.7619	1385.1609	1386.809	1418.3815	1450.2269	1489.3532	1504.7156	1836.8712	3012.2773	3018.8342	3033.1167	3075.0737	3080.3728	3114.1424	3176.504	3187.9041	3207.3002	3811.1108
OCC1C2CC2CC1=O	OC[C@@H]1[C@H]2C[C@H]2CC1=O	
InChI=1S/C7H10O2/c8-3-6-5-1-4(5)2-7(6)9/h4-6,8H,1-3H2	InChI=1S/C7H10O2/c8-3-6-5-1-4(5)2-7(6)9/h4-6,8H,1-3H2/t4-,5-,6+/m0/s1
