19
gdb 4491	2.7329098	1.6510291	1.2101984	1.6361	73.19	-0.24713	0.06589	0.31301999999999996	1041.8929	0.158497	-422.535326	-422.527781	-422.526837	-422.567087	30.035	
O	-0.9605202188	 0.1276557176	 0.9617610278	-0.437549
C	-2.0575398305	 0.7131165827	 0.2740214701	 0.129783
C	-2.6248997878	-0.286431874	-0.7420276341	-0.228776
C	-4.0458730416	 0.2346489908	-1.0152559191	-0.233379
C	-4.5486653331	 0.7769014102	 0.3351610358	-0.057764
C	-4.887081527	-0.3064047547	 1.3699531122	 0.030701
O	-4.9645815709	 0.3228615673	 2.6519581947	-0.256923
C	-3.6699920162	-0.0261571298	 2.1487579872	 0.040116
C	-3.2438255004	 1.0880174673	 1.1815646272	-0.110104
H	-0.5764271378	 0.7957122423	 1.5383055804	 0.283043
H	-1.7291481155	 1.6180602898	-0.2620994138	 0.067324
H	-2.0096749495	-0.3589661806	-1.6420611023	 0.102036
H	-2.6473677079	-1.2787750075	-0.279515549	 0.114686
H	-4.0117928861	 1.0541332575	-1.7422012668	 0.102833
H	-4.7074668083	-0.5314041396	-1.4329344975	 0.099919
H	-5.3024234216	 1.5614171869	 0.2402440304	 0.076736
H	-5.4457612899	-1.2262856495	 1.2322897351	 0.098483
H	-3.0501142182	-0.6734543715	 2.7561365487	 0.108541
H	-3.1480778689	 2.0754572948	 1.640803563	 0.070294
129.3993	194.5704	216.4195	287.7293	313.4125	397.4111	458.2245	517.6762	594.3286	611.9266	810.3511	825.7973	846.5406	868.4913	876.6403	896.9982	905.4408	945.4985	958.9999	987.5705	1039.1253	1060.4602	1068.0777	1096.839	1119.8012	1146.8026	1168.581	1208.9798	1217.1873	1228.544	1260.5879	1282.7349	1289.2556	1309.2738	1333.0013	1350.7307	1375.8255	1378.9861	1431.1398	1489.8296	1501.6854	2967.2149	3038.0262	3055.9835	3071.7471	3078.7587	3089.9084	3107.9044	3170.8648	3203.1234	3818.3722
OC1CCC2C3OC3C12	O[C@H]1CC[C@H]2[C@@H]3O[C@@H]3[C@@H]12	
InChI=1S/C7H10O2/c8-4-2-1-3-5(4)7-6(3)9-7/h3-8H,1-2H2	InChI=1S/C7H10O2/c8-4-2-1-3-5(4)7-6(3)9-7/h3-8H,1-2H2/t3-,4+,5-,6+,7-/m1/s1
