19
gdb 644	3.0563393	1.1145037	0.9568838	1.9032	76.63	-0.24576	-0.02815	0.21761	1289.0617	0.156362	-422.532529	-422.523702	-422.522758	-422.567421	31.637	
O	-1.3102386334	-0.1501919373	-2.1811768927	-0.321051
C	-0.5471202134	-0.745046638	-1.4504279266	 0.341095
C	-0.298015861	-2.2113199493	-1.6920302123	-0.008735
C	-0.4617281749	-3.1985119425	-0.6050511363	-0.177811
O	 0.8295004752	-2.8171797574	-1.0538176869	-0.217577
C	 0.2198609376	-0.0752284542	-0.3377858293	-0.069661
C	-0.2547671609	 1.3235479239	 0.1287198953	-0.239023
C	 1.2202840522	 1.8044884273	 0.1130602127	-0.20862
C	 1.5795798456	 0.5828060383	-0.7736518397	-0.220901
H	-0.4955426955	-2.5332409361	-2.7131028192	 0.118531
H	-0.7338647269	-2.8634960085	 0.3946059403	 0.125522
H	-0.7755961971	-4.2082219424	-0.8637778789	 0.132404
H	 0.3984698244	-0.765905764	 0.4891294038	 0.085176
H	-0.8548250559	 1.792535498	-0.6543476299	 0.127475
H	-0.7981299933	 1.3743041545	 1.0748230123	 0.097242
H	 1.4228203683	 2.7961884102	-0.2972536844	 0.102504
H	 1.6846359855	 1.7362871622	 1.1008723166	 0.103596
H	 1.5717975376	 0.8345947487	-1.8376282508	 0.115984
H	 2.4879945758	 0.0230486868	-0.5462698339	 0.11385
32.7631	87.0317	114.1165	156.9637	209.9035	290.616	302.6541	469.8398	540.5118	620.2092	714.992	753.2127	793.9367	858.8806	872.0693	896.5576	924.8924	937.8328	954.6017	959.2372	1018.0692	1039.1785	1090.844	1125.3836	1149.6614	1164.3264	1198.1897	1210.2236	1230.1183	1243.9119	1261.0554	1261.494	1278.1484	1283.6895	1374.5738	1392.1419	1479.7048	1487.0819	1507.9066	1522.1945	1791.5048	3059.4342	3065.5234	3070.6661	3084.6305	3088.9408	3106.6043	3126.0347	3134.1667	3136.3392	3179.4016
O=C(C1CO1)C1CCC1	O=C([C@@H]1CO1)C1CCC1	
InChI=1S/C7H10O2/c8-7(6-4-9-6)5-2-1-3-5/h5-6H,1-4H2	InChI=1S/C7H10O2/c8-7(6-4-9-6)5-2-1-3-5/h5-6H,1-4H2/t6-/m0/s1
