19
gdb 561	3.5905403	1.4805068	1.2317141	0.6213	73.69	-0.24821	0.06427	0.31248	1034.9109	0.159653	-422.530948	-422.523827	-422.522883	-422.562806	27.647	
C	-0.2246127001	 4.4175460351	-0.1203198495	-0.083447
O	 0.8268158764	 3.9532099533	 0.7558220203	-0.301808
C	 1.1148044522	 2.8440141442	-0.1274073746	 0.136015
C	-0.2022274611	 3.0967636341	-0.9136641489	-0.07602
C	-1.2034545017	 2.0236594011	-0.4235195273	-0.252847
C	-0.3713217149	 0.9320795236	 0.2520303775	 0.136483
O	 0.1786164038	-0.0159446736	-0.6980933278	-0.295939
C	 1.5301163276	 0.3113050239	-0.3148582044	-0.087291
C	 1.0476995399	 1.4861300763	 0.555282959	-0.112043
H	-1.1436349101	 4.6570479189	 0.4276040851	 0.10276
H	 0.0918968442	 5.2984118437	-0.6948723122	 0.097494
H	 2.0566588123	 3.0060486544	-0.668614249	 0.072759
H	-0.1442444864	 3.1770250687	-1.9989120485	 0.081281
H	-1.9079589938	 2.4511676308	 0.2987788003	 0.102543
H	-1.7912211203	 1.5919498613	-1.2381078983	 0.116962
H	-0.9022400128	 0.4138489081	 1.0586131069	 0.073691
H	 2.0067358306	-0.5059637731	 0.2415624182	 0.099937
H	 2.1562789218	 0.5633475553	-1.1806865356	 0.098823
H	 1.3966986725	 1.5283246038	 1.587425509	 0.090647
99.0226	110.9881	240.5999	312.2542	367.139	413.5878	629.4135	679.5052	794.2927	804.6779	837.5144	859.9125	879.1284	894.0551	899.7398	970.4695	990.171	1002.2481	1023.8725	1024.8674	1066.3247	1085.0232	1100.5854	1105.3406	1158.4732	1162.1761	1201.9438	1207.3525	1215.0743	1253.8517	1282.8933	1297.8625	1317.3153	1323.6773	1333.6813	1365.7385	1367.4553	1375.0629	1473.5083	1524.6519	1526.4172	3004.098	3005.5516	3014.7077	3035.5788	3046.8212	3051.0381	3057.8024	3095.8824	3113.0519	3115.5201
C1OC2C1CC1OCC21	C1O[C@@H]2[C@H]1C[C@H]1OC[C@@H]21	
InChI=1S/C7H10O2/c1-4-2-9-7(4)5-3-8-6(1)5/h4-7H,1-3H2	InChI=1S/C7H10O2/c1-4-2-9-7(4)5-3-8-6(1)5/h4-7H,1-3H2/t4-,5+,6+,7+/m0/s1
