19
gdb 5785	2.8381095	1.3230947	1.1900004	2.2726	75.84	-0.24219	-0.00791	0.23428	1116.8708	0.158307	-422.550498	-422.542307	-422.541363	-422.583202	31.425	
O	 1.5376170376	 0.6260276787	 0.1944921261	-0.425969
C	 0.5020819829	-0.2360062979	 0.6363006982	-0.074902
C	-0.4062044225	 0.4179137383	 1.7068838608	-0.056718
C	-1.5695594844	-0.5265364692	 2.0965117514	-0.280247
C	-1.2247571272	-1.5209523245	 3.1827921267	 0.06024
O	 0.04728988	-2.1616735862	 3.1248496493	-0.252249
C	-0.1805817235	-1.172371402	 4.1624409263	 0.000807
C	 0.5100170828	 0.1312756558	 4.0195099095	-0.047195
C	 0.3944277982	 0.8604038822	 2.906284179	-0.110991
H	 2.2016608338	 0.6591886229	 0.8899607591	 0.283868
H	-0.1040531412	-0.4571387704	-0.2499019936	 0.101735
H	 0.8946369805	-1.181505926	 1.0283896751	 0.11908
H	-0.8307488133	 1.3123063314	 1.2344968652	 0.085554
H	-2.4180199012	 0.0656685753	 2.4620071341	 0.110371
H	-1.9257025756	-1.0590566846	 1.2057982556	 0.109111
H	-2.0405494578	-2.1714100411	 3.5019140256	 0.091307
H	-0.2248737702	-1.6032940196	 5.1602691116	 0.093042
H	 1.1009795371	 0.4831838571	 4.8598277275	 0.092253
H	 0.9101356342	 1.8139656797	 2.8309047925	 0.100903
91.1187	140.1759	180.0689	269.15	325.2539	333.7902	345.656	444.9086	512.8696	575.6074	660.4043	723.9997	777.8569	798.2673	825.1579	876.5833	926.201	948.2237	962.0174	997.8899	1021.0394	1061.2263	1071.9312	1080.1495	1109.1574	1147.5254	1190.2325	1200.8935	1252.6422	1279.2858	1297.9097	1344.2885	1358.9053	1381.8391	1396.3689	1411.7961	1429.2244	1459.3038	1480.935	1510.7867	1702.2076	3018.9322	3029.5564	3031.1496	3059.5808	3083.3209	3098.134	3135.0199	3156.9103	3181.1252	3821.8106
OCC1CC2OC2C=C1	OC[C@H]1C[C@H]2O[C@H]2C=C1	
InChI=1S/C7H10O2/c8-4-5-1-2-6-7(3-5)9-6/h1-2,5-8H,3-4H2	InChI=1S/C7H10O2/c8-4-5-1-2-6-7(3-5)9-6/h1-2,5-8H,3-4H2/t5-,6+,7-/m1/s1
