19
gdb 5745	4.3381413	1.0051487	0.8930494	2.9239	76.48	-0.24025	-0.02196	0.21828999999999998	1314.4768	0.155612	-422.53315	-422.524416	-422.523472	-422.56734	31.971	
C	 1.4003524701	-0.1817644405	-0.1237577227	-0.243032
O	 0.0128567802	 0.033512475	 0.0157096739	-0.240176
C	-0.3288470468	 0.7327027992	 1.184792664	 0.149522
C	-1.8625816066	 0.9155222145	 1.2776749647	-0.270285
C	-1.6950390374	 2.4656736189	 1.2708663722	-0.155246
C	-0.1338783411	 2.2816615253	 1.1342126444	-0.074348
C	 0.0845408088	 2.9396382079	 2.5228943424	-0.364975
C	-1.4488313718	 3.0561545705	 2.6653506335	 0.405811
O	-2.1693400568	 3.4773404855	 3.5227470936	-0.294832
H	 1.8045996817	-0.7663810743	 0.7172342966	 0.107814
H	 1.5492867102	-0.7422426798	-1.0494886604	 0.13081
H	 1.9629002606	 0.7615448646	-0.1881638575	 0.107408
H	 0.1458091057	 0.2613753905	 2.0603386348	 0.061663
H	-2.3342567807	 0.5520419811	 0.3628948398	 0.129643
H	-2.3707324415	 0.4796033557	 2.1404012468	 0.115723
H	-2.331602528	 3.0390481842	 0.5963631949	 0.094313
H	 0.4361826158	 2.6716600062	 0.292576486	 0.082094
H	 0.6075014953	 2.3587459466	 3.2894256703	 0.123806
H	 0.5447386422	 3.9324935189	 2.4721503527	 0.134287
38.6973	116.9073	133.6079	174.7953	259.8183	283.1214	401.3941	417.0268	470.2041	513.9949	617.4277	704.3125	795.7921	833.6462	853.368	883.4657	946.199	948.2617	992.992	1013.6695	1041.9134	1076.7763	1095.5692	1125.8528	1150.4933	1167.8524	1183.4233	1205.4099	1217.1188	1236.8464	1251.7891	1260.8677	1281.173	1287.861	1391.9927	1433.3798	1467.8647	1481.0922	1486.712	1508.8799	1887.9636	2966.3317	2979.0088	3025.1801	3045.6663	3073.2131	3096.5323	3109.9083	3118.5894	3129.9647	3133.8592
COC1CC2C1CC2=O	CO[C@@H]1C[C@@H]2[C@H]1CC2=O	
InChI=1S/C7H10O2/c1-9-7-3-4-5(7)2-6(4)8/h4-5,7H,2-3H2,1H3	InChI=1S/C7H10O2/c1-9-7-3-4-5(7)2-6(4)8/h4-5,7H,2-3H2,1H3/t4-,5-,7-/m1/s1
