19
gdb 2157	3.3277627	1.4763646	1.4726044	0.4775	74.58	-0.23581	0.07524	0.31105	1007.1227	0.156204	-422.528252	-422.520409	-422.519464	-422.559928	31.356	
C	-0.0680674217	-0.6574468653	 0.0594563605	-0.508853
C	 1.3054670204	-0.0759397614	-0.0898314264	 0.374518
C	 2.5148697937	-0.9190958612	-0.5426500181	-0.273501
C	 3.3980450902	 0.3208760442	-0.789791028	 0.374517
C	 4.8780728635	 0.2223608514	-1.006231945	-0.508853
O	 2.654524218	 0.9624758971	-1.8848330864	-0.330121
C	 1.6711218715	 1.2647006556	-0.8998100171	 0.017752
C	 2.667972976	 1.3072762562	 0.2499659332	 0.01775
O	 1.8521716517	 0.5392091674	 1.1293035462	-0.330121
H	-0.06716583	-1.4783320314	 0.7843076046	 0.131921
H	-0.7771318331	 0.1009561657	 0.4038923337	 0.128406
H	-0.4163923905	-1.0499693192	-0.9010590976	 0.127956
H	 2.8511712316	-1.5739550448	 0.2640589434	 0.105482
H	 2.3687066974	-1.478372738	-1.4692370059	 0.105481
H	 5.3574714906	-0.2220623795	-0.1283600198	 0.127956
H	 5.1041242025	-0.4059885372	-1.8741838323	 0.131921
H	 5.3135428902	 1.2109903945	-1.1781651921	 0.128406
H	 0.9070744326	 1.9896408433	-1.1758888861	 0.089691
H	 3.1845147453	 2.1628259025	 0.6821065834	 0.089691
193.771	196.2722	209.5858	219.0983	311.0548	332.6298	460.7646	528.0444	534.1225	575.213	663.1906	696.8976	759.0389	790.533	840.9205	857.1582	865.9557	909.8143	911.2227	975.4578	1006.3318	1025.368	1044.7289	1110.8453	1122.292	1137.4499	1171.0285	1189.6556	1196.3732	1243.1733	1265.9829	1294.3778	1355.3281	1355.4716	1412.889	1417.1935	1460.448	1478.021	1480.3178	1492.9617	1494.5998	3036.7819	3036.9607	3072.0612	3106.032	3106.1378	3114.6606	3114.9326	3130.4049	3135.0571	3143.1121
CC12CC3(C)OC1C3O2	C[C@@]12C[C@@]3(C)O[C@@H]1[C@H]3O2	
InChI=1S/C7H10O2/c1-6-3-7(2)5(8-6)4(6)9-7/h4-5H,3H2,1-2H3	InChI=1S/C7H10O2/c1-6-3-7(2)5(8-6)4(6)9-7/h4-5H,3H2,1-2H3/t4-,5-,6-,7-/m1/s1
