19
gdb 891	2.3042727	1.3213688	0.9697027	1.624	75.32	-0.25024	-0.02605	0.22419000000000003	1240.1178	0.154821	-422.527263	-422.51808	-422.517135	-422.562149	33.026	
O	 0.4624627754	-1.182825423	 0.0429511583	-0.240289
C	 0.519351411	 0.0100008808	 0.1930587281	 0.169415
C	-0.2468769884	 0.7899378787	 1.2442951005	-0.363249
C	-1.0192668865	 1.9606913948	 0.6512239895	 0.309311
C	-1.2452735324	 3.1868073666	 1.5055457977	-0.313489
C	-0.2908692497	 3.2466186293	 0.3394498862	-0.30884
C	-2.1430993561	 1.5380185444	-0.2546557997	 0.012292
C	-2.0207201871	 1.4934977518	-1.7193771144	-0.178225
O	-2.741392183	 2.5446737122	-1.0661296347	-0.236906
H	 1.1683268336	 0.6405631204	-0.4581443659	 0.075425
H	-0.9050282024	 0.0951439278	 1.7772921568	 0.121654
H	 0.4871111236	 1.1747424197	 1.9656870723	 0.120715
H	-2.1933583948	 3.700684585	 1.3945434463	 0.132892
H	-0.84054923	 3.189422815	 2.5118755901	 0.113211
H	-0.6142420704	 3.8022040425	-0.5329447562	 0.135517
H	 0.7729800496	 3.2941138959	 0.5451875335	 0.110452
H	-2.862374633	 0.8581337641	 0.2079000434	 0.098796
H	-1.0857588697	 1.7972525772	-2.1868683823	 0.116871
H	-2.6298880197	 0.7985635668	-2.2941657394	 0.124448
48.5146	77.579	102.7958	186.4818	236.62	248.7989	300.3463	372.4228	440.2933	519.3876	547.2971	679.2139	785.8465	812.3832	849.9023	882.007	915.3381	932.4108	958.8586	979.0137	1038.4658	1056.8602	1067.5559	1086.3009	1099.8491	1103.618	1156.8363	1174.4077	1193.0965	1198.8924	1270.0085	1288.3293	1312.5838	1364.3877	1425.0556	1435.5668	1453.8328	1460.7716	1496.5294	1525.1721	1834.9629	2863.6671	3019.2179	3080.6903	3083.9479	3091.8507	3134.876	3138.7949	3181.2401	3219.6867	3232.8365
O=CCC1(CC1)C1CO1	O=CCC1(CC1)[C@@H]1CO1	
InChI=1S/C7H10O2/c8-4-3-7(1-2-7)6-5-9-6/h4,6H,1-3,5H2	InChI=1S/C7H10O2/c8-4-3-7(1-2-7)6-5-9-6/h4,6H,1-3,5H2/t6-/m0/s1
