19
gdb 2892	2.6234369	1.842013	1.467098	2.1302	74.26	-0.22804	0.06498	0.29302	964.2728	0.157319	-422.524402	-422.51668	-422.515736	-422.555981	31.033	
C	-0.2688141194	 2.0870126249	-1.4226707544	-0.51171
C	-0.0324214403	 0.6495383021	-1.7731401292	 0.388483
O	 0.1394460573	 0.4266004311	-3.1856410635	-0.302749
C	-0.1238880464	-0.9892338379	-3.189299951	 0.080649
C	-1.6062408206	-1.0440291927	-2.7573651693	-0.248232
C	-1.0184971608	-0.561369743	-1.4234797272	-0.140797
C	 0.3069067388	-1.3696645579	-1.7186863631	-0.126039
C	 1.1520278932	-0.1923738244	-1.2078900397	 0.126543
O	 1.3344151286	-0.1488997589	 0.1912953399	-0.45085
H	-0.2266491296	 2.2156256574	-0.337258891	 0.125809
H	 0.5059074144	 2.7167651485	-1.8719689738	 0.132366
H	-1.2428398611	 2.4307820744	-1.7839718192	 0.122968
H	 0.2739112	-1.4596874625	-4.0869429667	 0.081706
H	-2.3049846189	-0.4107546021	-3.3097863824	 0.102683
H	-1.9861056944	-2.0660774149	-2.6734308802	 0.100707
H	-1.5619533004	-0.5538512531	-0.4794685687	 0.07114
H	 0.4716530503	-2.413736919	-1.4568740536	 0.075506
H	 2.1255234557	 0.0059216992	-1.6633342415	 0.088163
H	 0.5665361637	-0.5468354614	 0.6151939545	 0.283655
187.2999	207.7742	214.838	256.8714	273.4308	354.6061	462.9059	517.9501	529.5153	638.3427	654.87	738.5113	826.2707	832.9873	865.3835	884.6559	891.1309	933.2095	955.2399	973.7481	997.2095	1034.627	1067.7698	1086.1123	1107.5556	1135.9988	1154.3666	1178.2992	1183.9742	1215.1626	1240.9249	1253.4394	1268.3809	1289.3142	1313.3761	1341.7157	1414.5133	1418.3776	1480.6394	1480.8236	1489.4335	3038.8939	3056.6504	3085.6006	3108.8112	3117.7793	3119.0418	3120.5439	3129.7869	3139.0646	3810.3136
CC12OC3CC1C3C2O	C[C@]12O[C@@H]3C[C@H]1[C@@H]3[C@@H]2O	
InChI=1S/C7H10O2/c1-7-3-2-4(9-7)5(3)6(7)8/h3-6,8H,2H2,1H3	InChI=1S/C7H10O2/c1-7-3-2-4(9-7)5(3)6(7)8/h3-6,8H,2H2,1H3/t3-,4+,5-,6-,7-/m0/s1
