19
gdb 4877	2.3381192	1.5282759	1.2958188	2.925	76.91	-0.24271	-0.05488	0.18783	1088.6066	0.156355	-422.59937	-422.590413	-422.589469	-422.632807	33.689	
C	 1.1796588983	-0.2313288901	 1.1202840633	-0.403633
C	 0.8259651456	 0.1254669673	-0.3250939791	-0.209986
C	 1.7720552816	-0.4875704899	-1.3866728581	 0.308471
O	 3.1168329862	-0.1217189831	-1.1381066006	-0.484198
C	 1.3239295698	-0.0954182795	-2.8114957853	-0.319618
C	 0.6516914373	-1.3380099599	-3.3405755093	-0.049856
C	 0.8177928414	-2.4089091494	-2.5511112032	-0.169723
C	 1.6530242532	-2.0290106295	-1.398707559	 0.33377
O	 2.2328627418	-2.7454612569	-0.6097479775	-0.362553
H	 1.1358422838	-1.3088878651	 1.2976275978	 0.136116
H	 2.1899970137	 0.1103549925	 1.3622508337	 0.123376
H	 0.4872058629	 0.2568595328	 1.812421645	 0.110832
H	-0.2040427091	-0.1770830113	-0.5537195162	 0.096392
H	 0.8720103473	 1.2135919654	-0.454726135	 0.105604
H	 3.4805394468	-0.823868097	-0.5800202014	 0.290091
H	 0.6572757878	 0.773479838	-2.833672862	 0.114205
H	 2.2031039735	 0.1586449946	-3.4148399496	 0.139845
H	 0.1124247028	-1.3396691027	-4.2823646514	 0.119935
H	 0.4734875954	-3.4187198163	-2.7323505722	 0.120931
75.3089	120.922	182.5039	234.5751	254.7324	301.233	319.2983	377.9362	420.3594	459.8905	526.5653	624.7338	677.4857	712.4871	753.5424	788.782	840.9109	893.9352	949.2939	973.7566	992.8506	1007.001	1046.6766	1093.4661	1104.866	1125.689	1144.9741	1208.1386	1230.2782	1294.4153	1342.5104	1346.8432	1366.7845	1402.2031	1415.5476	1467.8454	1476.9083	1496.669	1512.1289	1639.6418	1799.2207	3021.4117	3041.8203	3047.2845	3060.6546	3078.0347	3113.1073	3127.5387	3187.9487	3228.461	3739.435
CCC1(O)CC=CC1=O	CC[C@]1(O)CC=CC1=O	
InChI=1S/C7H10O2/c1-2-7(9)5-3-4-6(7)8/h3-4,9H,2,5H2,1H3	InChI=1S/C7H10O2/c1-2-7(9)5-3-4-6(7)8/h3-4,9H,2,5H2,1H3/t7-/m0/s1
