19
gdb 468	2.8179619	1.3059536	0.9976645	1.6333	76.01	-0.25097	0.06978	0.32075000000000004	1221.1547	0.156214	-422.492124	-422.483655	-422.482711	-422.525942	31.325	
C	-1.6254794091	-1.0131029137	-2.9842385889	-0.274136
C	-1.8993984949	-0.8761043292	-1.5111893274	-0.268081
C	-0.4755102784	-0.8695596088	-2.0178864595	 0.03017
C	 0.3081385377	 0.4046024957	-1.9896988886	 0.027379
O	 1.3688086302	 0.4683314076	-2.987011702	-0.300203
C	 2.3991584932	 0.6618828058	-1.9943622453	-0.152456
C	 1.3605168078	 0.5690556716	-0.8859713383	 0.354858
C	 1.2877081776	 1.1246559792	 0.4605667776	-0.258641
O	 1.471191335	-0.2835206093	 0.233364241	-0.251307
H	-1.7748391619	-1.9797598648	-3.4512903122	 0.116826
H	-1.8538429283	-0.1693212964	-3.6268183818	 0.11755
H	-2.319350459	 0.059970092	-1.1572347259	 0.109853
H	-2.2337307647	-1.7467535723	-0.959243359	 0.118219
H	 0.1131447759	-1.7594214093	-1.8194726339	 0.093881
H	-0.3653986804	 1.2681113777	-2.0954249724	 0.073707
H	 3.142950402	-0.1442692684	-1.9958316467	 0.116935
H	 2.9063374676	 1.6289800277	-2.1026872568	 0.105569
H	 2.1474633751	 1.6440542432	 0.8819722805	 0.119681
H	 0.3217434045	 1.4065127315	 0.8777805997	 0.120195
63.728	77.9767	134.4385	227.4272	270.4347	308.4037	371.5688	436.4592	509.437	594.8332	766.8074	828.2285	841.5748	856.1199	881.8635	901.1331	920.8662	951.9705	966.7012	1007.3107	1040.1658	1062.3318	1071.0606	1079.6998	1123.6479	1129.4969	1148.0952	1167.9318	1190.4126	1196.289	1208.3876	1226.9596	1266.4194	1312.5126	1327.624	1432.6824	1460.7859	1471.1077	1505.0913	1513.8782	1544.1696	2992.0472	3014.6129	3060.6172	3081.2903	3133.0106	3137.7556	3162.983	3168.387	3212.1013	3227.0796
C1CC1C1OCC11CO1	C1CC1[C@@H]1OC[C@]21CO2	
InChI=1S/C7H10O2/c1-2-5(1)6-7(3-8-6)4-9-7/h5-6H,1-4H2	InChI=1S/C7H10O2/c1-2-5(1)6-7(3-8-6)4-9-7/h5-6H,1-4H2/t6-,7+/m0/s1
