19
gdb 3456	2.0294379	1.896649	1.5085254	2.6813	75.37	-0.24682	-0.00054	0.24628	991.7989	0.15875	-422.55859	-422.550582	-422.549637	-422.590702	31.93	
O	-3.9339092806	-1.9559172283	 1.0978465553	-0.43071
C	-2.5285558513	-1.6570483526	 1.2759542168	 0.043442
C	-2.037761784	-1.1906015184	-0.072612905	-0.063431
C	-2.1910846931	 0.078287096	-0.4489832719	-0.084818
C	-2.8666627293	 1.0874924589	 0.4557962487	 0.079085
O	-4.2824232154	 1.051321195	 0.2586975353	-0.441833
C	-2.5402576272	 0.840139026	 1.9197759994	-0.039695
C	-1.1850028594	 0.3456438588	 2.3606819282	-0.325455
C	-2.3663612842	-0.5949302811	 2.3476411085	-0.04836
H	-4.2770562087	-2.2600555029	 1.9463418316	 0.280776
H	-2.0052942804	-2.5782041468	 1.5693225223	 0.072205
H	-1.6147858248	-1.9332905358	-0.7414917974	 0.09793
H	-1.8927642009	 0.4060042569	-1.4404388736	 0.099074
H	-2.569621565	 2.1034909612	 0.1743106385	 0.08178
H	-4.5462702766	 0.1364225951	 0.4378286716	 0.281544
H	-3.0728152827	 1.5049360102	 2.5924376098	 0.092265
H	-0.4156810732	 0.211456839	 1.6092937508	 0.11924
H	-0.8194697921	 0.67402699	 3.3275085921	 0.110576
H	-2.7648389711	-0.8853212111	 3.3174470388	 0.076383
93.1887	197.576	240.1239	294.7735	320.7677	364.9951	375.7198	506.1961	548.6157	570.0058	599.8612	607.0335	754.4852	775.2791	790.6443	844.8836	921.6108	928.9871	948.2002	998.4263	1014.4111	1022.5584	1035.8509	1065.6337	1071.9086	1110.5637	1129.6989	1135.0474	1191.8821	1210.5538	1237.8586	1292.8679	1340.249	1351.4917	1361.8342	1387.9785	1408.0447	1441.062	1461.4324	1492.2963	1709.9791	2997.5106	3051.29	3123.1933	3139.2417	3160.5413	3164.0698	3187.0756	3226.1525	3721.7067	3790.1401
OC1C=CC(O)C2CC12	O[C@H]1C=C[C@@H](O)[C@@H]2C[C@H]12	
InChI=1S/C7H10O2/c8-6-1-2-7(9)5-3-4(5)6/h1-2,4-9H,3H2	InChI=1S/C7H10O2/c8-6-1-2-7(9)5-3-4(5)6/h1-2,4-9H,3H2/t4-,5+,6-,7+
