19
gdb 2796	2.990446	1.4259869	1.1933994	2.2989	74.37	-0.23466	0.07287	0.30753	1078.4054	0.157656	-422.521014	-422.513216	-422.512272	-422.552649	31.881	
O	 0.3678890673	 0.6918520886	 0.3599247313	-0.445992
C	-0.69738434	 0.2431852548	 1.146480757	 0.118784
C	-1.3255230693	 1.2008999814	 2.1314377388	-0.098482
C	-0.4715334435	 0.0282862043	 2.6211567492	-0.134412
C	-1.5134676871	-0.7076681519	 3.4778077429	 0.404962
O	-1.013484417	-1.8571839045	 4.0796634279	-0.486355
C	-2.1455035096	 0.5044012296	 4.2664613852	-0.27295
C	-2.6566778532	 0.8615026661	 2.831137709	-0.053306
C	-2.8155524279	-0.6732512032	 2.6246165567	-0.307118
H	 0.9339584905	 1.2554109603	 0.8978998555	 0.28326
H	-1.2936912255	-0.4409482407	 0.5558007102	 0.107654
H	-0.9660445232	 2.2252477755	 2.1518026698	 0.082406
H	 0.5266952858	 0.1451006255	 3.0313608576	 0.086551
H	-1.7141876515	-2.2526910908	 4.6080950578	 0.279341
H	-2.9476064002	 0.1993800936	 4.9461823132	 0.084009
H	-1.4645078149	 1.2045366307	 4.7572552797	 0.090903
H	-3.496910081	 1.5356860852	 2.6755496747	 0.06953
H	-3.6677375108	-1.0577735393	 3.1914726505	 0.08806
H	-2.8279526389	-1.0979946254	 1.6209196332	 0.103156
190.7463	217.8084	235.6518	286.3428	322.3385	385.6785	410.9157	441.3854	501.4382	584.9028	600.4757	675.7435	783.1083	824.4747	860.5698	880.2246	915.2603	934.4194	946.6104	976.8537	991.7721	1025.4479	1028.2693	1077.002	1094.2421	1100.538	1126.6213	1130.8964	1131.8663	1159.5999	1210.5828	1220.8356	1247.7523	1268.3643	1284.4608	1306.8808	1361.3897	1392.4442	1450.9004	1489.843	1536.4836	3046.3291	3069.9349	3112.9328	3128.4775	3130.1962	3151.0085	3162.267	3188.1463	3811.1889	3816.4847
OC1C2C1C1(O)CC2C1	O[C@@H]1[C@@H]2[C@H]1[C@@]1(O)C[C@@H]2C1	
InChI=1S/C7H10O2/c8-6-4-3-1-7(9,2-3)5(4)6/h3-6,8-9H,1-2H2	InChI=1S/C7H10O2/c8-6-4-3-1-7(9,2-3)5(4)6/h3-6,8-9H,1-2H2/t3-,4-,5+,6+,7-/m0/s1
