19
gdb 5917	1.8982077	1.1831513	1.0135048	3.865	78.87	-0.25543	-0.05346	0.20196999999999998	1340.0627	0.152778	-422.521746	-422.510928	-422.509984	-422.558574	36.986	
C	 1.3534068292	 0.0835335106	-0.0892596263	-0.228789
O	-0.0493064709	 0.0698917809	 0.0316642103	-0.23439
C	-0.5070169083	 0.6196452975	 1.2459740639	-0.064968
C	-2.0338443965	 0.6094945254	 1.222585558	-0.110028
C	-2.6167487862	 1.2086218591	 2.5147877758	-0.423062
C	-2.5779427396	 1.3549609305	 0.0055474019	 0.27487
O	-3.4196204975	 0.8866082995	-0.7271753145	-0.28988
C	-2.0691194899	 2.7051357609	-0.2083034694	 0.299164
C	-1.6647861644	 3.8254892688	-0.3845232935	-0.472492
H	 1.8365235437	-0.5097121001	 0.7031942919	 0.104675
H	 1.6015037137	-0.3540017789	-1.0589288661	 0.132447
H	 1.7560514591	 1.1076078233	-0.0457747406	 0.106625
H	-0.14432691	 0.0324227516	 2.1065349781	 0.089542
H	-0.1336904141	 1.6497697097	 1.3706401965	 0.096503
H	-2.3785258833	-0.4221952108	 1.1034807541	 0.110624
H	-2.2462599177	 0.6631875939	 3.3881464965	 0.125271
H	-2.3356138953	 2.2606734718	 2.6260590424	 0.131996
H	-3.7081113034	 1.1457797575	 2.5136442702	 0.136873
H	-1.3180935787	 4.8156036188	-0.5566823395	 0.215018
37.1867	71.6262	102.1951	143.9539	158.0367	202.0655	221.2403	234.0704	282.61	317.8002	361.8422	436.9118	534.3108	626.1939	650.5783	692.8996	705.9429	760.5944	919.0257	965.3653	974.1568	1004.028	1087.0507	1147.703	1170.3682	1184.3996	1211.3593	1238.2175	1265.7311	1313.9486	1346.6021	1399.8329	1422.678	1479.6141	1485.8603	1496.0697	1500.2437	1502.0049	1526.3607	1773.0223	2207.2279	2955.8136	2973.8633	2988.7643	3017.4679	3039.9203	3074.0506	3111.0632	3119.0069	3120.7401	3493.9714
COCC(C)C(=O)C#C	COC[C@@H](C)C(=O)C#C	
InChI=1S/C7H10O2/c1-4-7(8)6(2)5-9-3/h1,6H,5H2,2-3H3	InChI=1S/C7H10O2/c1-4-7(8)6(2)5-9-3/h1,6H,5H2,2-3H3/t6-/m1/s1
