19
gdb 3764	2.3292129	1.2180135	0.976392	1.4288	77.49	-0.23981	0.032	0.27181	1278.1083	0.152268	-422.50696	-422.496326	-422.495382	-422.542382	38.719	
C	 2.2239180099	-0.8952065202	-2.0397026151	-0.393531
C	 1.661911851	 0.4858948913	-1.6736250135	 0.136628
O	 0.2648379106	 0.4350179388	-1.9935222351	-0.448949
C	 2.318708494	 1.5391938532	-2.4621527058	 0.313668
C	 2.833451419	 2.4196805696	-3.0988495756	-0.482551
C	 1.8638538093	 0.7684746939	-0.1793265181	-0.065857
C	 0.9537188737	 0.1330311341	 0.8595289726	-0.341563
C	 0.9152710643	 1.6183153392	 0.6125754944	 0.142508
O	 1.3479085682	 2.5624848891	 1.547204296	-0.430964
H	 1.6882290681	-1.6606871063	-1.472412293	 0.128336
H	 2.0888714068	-1.0839361157	-3.1067729467	 0.129711
H	 3.2883125438	-0.9541834354	-1.7990543139	 0.120106
H	-0.0324396569	 1.3366190364	-2.1542493605	 0.290477
H	 3.2911243201	 3.1937362435	-3.6643378245	 0.201264
H	 2.9122226277	 0.8550727772	 0.0982552793	 0.085853
H	 0.1136082852	-0.4533748517	 0.5042810534	 0.129992
H	 1.4137245138	-0.2264654647	 1.7746745742	 0.104608
H	 0.0355148754	 1.9970324697	 0.1039259187	 0.097751
H	 2.182937876	 2.266411048	 1.9225922931	 0.282512
65.5356	97.7578	121.4566	176.8707	195.2122	220.4794	252.0736	280.4019	310.6741	391.0555	406.8952	433.0162	472.9274	567.6295	587.6373	627.454	668.6048	714.1804	814.6842	872.1811	918.4381	943.5355	954.1367	999.6181	1058.2926	1061.5769	1099.3402	1111.4104	1124.942	1173.0862	1202.9153	1233.85	1294.3614	1355.6915	1379.998	1402.808	1428.2218	1479.859	1486.3083	1489.4241	2229.7092	3051.5982	3126.9457	3130.9301	3134.3219	3137.7441	3175.1318	3222.2901	3499.8906	3820.9488	3824.0925
CC(O)(C#C)C1CC1O	C[C@](O)(C#C)[C@@H]1C[C@H]1O	
InChI=1S/C7H10O2/c1-3-7(2,9)5-4-6(5)8/h1,5-6,8-9H,4H2,2H3	InChI=1S/C7H10O2/c1-3-7(2,9)5-4-6(5)8/h1,5-6,8-9H,4H2,2H3/t5-,6-,7+/m1/s1
