19
gdb 420	2.9118451	1.6396825	1.2628418	1.7576	75.1	-0.24243	0.08051	0.32294	1033.5163	0.158233	-422.521217	-422.513708	-422.512764	-422.552954	30.125	
C	 0.6910379017	 1.3469687015	-0.0810876587	-0.329164
C	 1.5617371428	 0.1021547891	-0.0662210245	-0.331014
C	 0.0569680254	-0.0004743659	 0.0238933713	 0.436212
O	-0.616346238	-0.423302476	-1.1417397514	-0.278787
C	-0.8885864778	-1.8016145235	-1.085905646	 0.001847
O	-1.8808173189	-2.1018916038	-0.1367158166	-0.24735
C	-1.568256312	-1.6355486283	 1.1501357467	 0.094211
C	-2.0732298324	-0.2703287921	 1.5328639843	-0.320548
C	-0.5935777404	-0.4869125998	 1.2846499545	-0.130464
H	 0.680968367	 1.9873981971	 0.7939604405	 0.116271
H	 0.5773075637	 1.8626710314	-1.0278941178	 0.126477
H	 2.0180226503	-0.1931654778	-1.0040655814	 0.120129
H	 2.1539480606	-0.1063995736	 0.8185981906	 0.111963
H	-1.2902184858	-2.0939271894	-2.0576442112	 0.11619
H	 0.0398067119	-2.3551200911	-0.8654533311	 0.082291
H	-1.562819632	-2.4294128104	 1.8922837329	 0.096786
H	-2.6344931208	 0.2529896587	 0.7670226505	 0.132347
H	-2.4021069743	-0.0990490041	 2.5518230933	 0.109938
H	 0.054917439	-0.4955404622	 2.1546511742	 0.092664
102.6126	188.5285	273.7002	294.1463	345.7868	400.8792	460.6859	532.242	563.6036	674.7806	753.2247	768.0557	793.6822	818.1479	868.4075	901.9332	952.0892	975.8386	985.6523	1013.3511	1039.481	1045.7374	1060.8637	1069.4005	1079.4071	1087.3609	1120.1226	1173.1512	1188.0161	1193.4927	1229.7554	1285.5494	1290.2455	1312.5219	1376.9337	1421.26	1443.9797	1451.4835	1472.32	1496.6578	1515.4388	2959.9501	3119.083	3131.4803	3134.6697	3137.8019	3138.5101	3161.1913	3218.3588	3231.299	3232.6531
C1CC11OCOC2CC12	C1CC21OCO[C@@H]1C[C@H]21	
InChI=1S/C7H10O2/c1-2-7(1)5-3-6(5)8-4-9-7/h5-6H,1-4H2	InChI=1S/C7H10O2/c1-2-7(1)5-3-6(5)8-4-9-7/h5-6H,1-4H2/t5-,6+/m0/s1
