19
gdb 4730	2.0758016	1.3664175	1.1553507	2.5351	76.83	-0.25868	0.03799	0.29667000000000004	1182.7956	0.153935	-422.501463	-422.491459	-422.490514	-422.536188	36.616	
C	 3.9204223259	-0.1913283463	-1.6310974927	-0.445655
C	 3.374605042	-1.1644292011	-0.5688007977	-0.007396
C	 2.8962646624	-0.3516118085	 0.672765222	-0.077
O	 2.4504141907	-1.1710789401	 1.7304586314	-0.421846
C	 4.4162546366	-2.0953243025	-0.124585747	 0.32742
C	 5.2518239554	-2.8560270468	 0.2895905481	-0.490983
C	 2.1789286776	-1.9825179015	-1.0744442473	 0.095076
C	 1.9800317901	-2.3809761077	-2.4694252408	-0.188769
O	 1.2343826863	-1.2987501485	-1.8967875259	-0.245149
H	 4.6696118151	 0.4695663507	-1.1874593409	 0.124848
H	 4.3988575166	-0.7279497491	-2.4535176914	 0.127368
H	 3.1030650701	 0.411709	-2.0332552515	 0.142826
H	 3.7103228209	 0.3162044663	 0.9912558985	 0.093277
H	 2.0427573479	 0.2645986384	 0.3739081502	 0.128374
H	 3.1930595521	-1.7320891293	 1.9862606941	 0.286112
H	 6.0009919594	-3.5306487832	 0.624626135	 0.203014
H	 1.7287779906	-2.5931936274	-0.293778908	 0.112669
H	 2.7006547671	-2.0950266083	-3.2321556985	 0.116615
H	 1.4027058933	-3.2769581451	-2.6916719875	 0.1192
63.7045	120.4395	138.7712	172.3881	214.1729	231.9047	269.6154	299.2345	394.099	418.6719	452.267	482.1246	529.3399	629.5166	638.5738	649.8251	699.7512	836.5081	869.1794	913.986	945.4942	975.1847	1023.1793	1087.4851	1100.9599	1146.8406	1158.5551	1174.3289	1180.974	1198.8082	1276.0523	1308.2454	1382.4182	1397.5827	1421.4059	1432.6062	1489.3063	1501.1507	1507.2888	1534.1523	2222.6855	2993.1954	3053.2547	3089.5387	3094.302	3124.626	3132.7832	3138.1385	3181.7552	3497.2259	3777.1317
CC(CO)(C#C)C1CO1	C[C@](CO)(C#C)[C@@H]1CO1	
InChI=1S/C7H10O2/c1-3-7(2,5-8)6-4-9-6/h1,6,8H,4-5H2,2H3	InChI=1S/C7H10O2/c1-3-7(2,5-8)6-4-9-6/h1,6,8H,4-5H2,2H3/t6-,7+/m0/s1
