19
gdb 1349	2.5253863	1.3082113	1.0709862	2.4594	77.22	-0.23276	-0.01802	0.21474	1197.34	0.155269	-422.568462	-422.559191	-422.558247	-422.603475	32.768	
C	-0.3320890661	 0.7874419359	 0.2294138898	-0.41278
C	 0.8570093729	 1.7589684343	 0.1298970101	-0.08054
C	 1.9655089749	 1.3019311685	 1.0603345838	 0.167323
O	 3.0376600163	 0.888419605	 0.6979680501	-0.258784
C	 0.4173343999	 3.2049002885	 0.4561314022	 0.072131
O	-0.1210429103	 3.2765254014	 1.7808998021	-0.279006
C	 0.5101564171	 4.3203945907	 2.5227839657	-0.119079
C	 1.5794910796	 4.8531049318	 1.6121899084	-0.093245
C	 1.5248766602	 4.2267442859	 0.4430111171	-0.097341
H	-0.7399791626	 0.7784417836	 1.2438620954	 0.142078
H	-1.1318669352	 1.0976599071	-0.4507420616	 0.122359
H	-0.032770318	-0.2298846963	-0.0379918801	 0.126694
H	 1.2654162078	 1.7477817887	-0.8870176777	 0.090787
H	 1.7032711683	 1.352304662	 2.140536658	 0.083159
H	-0.374173029	 3.4707834896	-0.2666503089	 0.084935
H	-0.2299735527	 5.0903781246	 2.7931500122	 0.110491
H	 0.9129077541	 3.913012809	 3.4622969639	 0.111935
H	 2.2670993575	 5.6376667558	 1.9008626826	 0.113648
H	 2.1580561851	 4.3936928039	-0.418766703	 0.115236
53.247	71.2671	91.3841	186.6681	210.6596	224.6511	309.1147	341.7177	422.3632	463.1668	631.1237	703.1007	770.1637	810.875	837.432	914.7256	931.2198	948.2776	961.1407	970.5876	1032.0013	1047.1762	1064.6655	1098.5418	1119.4241	1137.7083	1166.6601	1198.9242	1272.8747	1294.046	1327.0817	1361.6029	1364.6553	1387.3959	1399.2151	1426.2335	1494.3741	1501.3287	1520.9002	1690.882	1829.4565	2886.2853	2938.9398	2977.0752	3001.1601	3039.9239	3053.8166	3109.2615	3124.7118	3210.8928	3234.8112
CC(C=O)C1OCC=C1	C[C@H](C=O)[C@H]1OCC=C1	
InChI=1S/C7H10O2/c1-6(5-8)7-3-2-4-9-7/h2-3,5-7H,4H2,1H3	InChI=1S/C7H10O2/c1-6(5-8)7-3-2-4-9-7/h2-3,5-7H,4H2,1H3/t6-,7+/m1/s1
