19
gdb 4391	3.241641	1.0848198	0.9569842	2.7265	79.77	-0.25286	-0.05562	0.19723999999999997	1267.7833	0.157423	-422.595094	-422.586431	-422.585487	-422.628507	32.445	
O	-2.1802119523	-2.5159026376	 1.7740259905	-0.439869
C	-2.055564643	-2.614330867	 0.3584169899	 0.121022
C	-2.1909738628	-1.244443461	-0.322224018	-0.226723
C	-1.0509985358	-0.3009911158	 0.0892981253	-0.318318
C	 0.291509974	-0.9892018962	 0.0533042344	 0.21729
C	 1.5077913848	-0.1566253826	 0.0886838836	 0.089019
O	 1.5078188813	 1.0525846761	 0.1419082926	-0.273523
C	 0.426709081	-2.3240404933	-0.0080470411	-0.134751
C	-0.7281970998	-3.2829549658	-0.0406765033	-0.282524
H	-1.4194967408	-2.0295180158	 2.1096626965	 0.284939
H	-2.8860989899	-3.2594958885	 0.0556628277	 0.087813
H	-2.1750770936	-1.3902001788	-1.4095857421	 0.100168
H	-3.1589161559	-0.8041901501	-0.0661979685	 0.108865
H	-1.0166762137	 0.5846262544	-0.5524634806	 0.131162
H	-1.2275366738	 0.0952494935	 1.0988752234	 0.120472
H	 2.4609287212	-0.73268737	 0.0612692774	 0.06615
H	 1.4302340609	-2.7470182263	-0.0424339216	 0.10155
H	-0.8069140692	-3.7131265256	-1.0500303594	 0.12323
H	-0.5389436626	-4.1299252896	 0.6297314733	 0.124027
70.7536	132.5981	180.4409	217.3911	290.6497	315.7732	358.6416	386.1092	438.2566	461.3763	552.4761	646.0349	740.3476	775.0159	809.5124	829.1991	920.1834	939.0216	975.9132	986.7093	1034.5559	1047.2678	1088.5392	1099.4206	1169.4755	1180.3857	1208.8439	1225.1107	1300.8508	1321.2702	1340.199	1375.3767	1379.4695	1398.3189	1425.036	1434.1103	1452.5552	1477.6645	1486.1772	1699.7987	1790.539	2869.6738	3006.2142	3018.0504	3033.4975	3055.6539	3065.3776	3081.61	3091.3487	3134.3185	3807.273
OC1CCC(C=O)=CC1	O[C@H]1CCC(=CC1)C=O	
InChI=1S/C7H10O2/c8-5-6-1-3-7(9)4-2-6/h1,5,7,9H,2-4H2	InChI=1S/C7H10O2/c8-5-6-1-3-7(9)4-2-6/h1,5,7,9H,2-4H2/t7-/m1/s1
