19
gdb 4090	4.219572	1.1856358	1.0351587	0.4314	74.46	-0.24124	0.06509	0.30633	1162.6349	0.157787	-422.504676	-422.496926	-422.495982	-422.537182	29.951	
O	 0.5521485792	-0.0933001937	 0.5929324737	-0.432863
C	-0.7294350569	 0.4269006992	 0.8600501989	 0.149583
C	-1.2722668133	 0.236764108	 2.3082870288	-0.283265
C	-1.4348236421	 1.7684708388	 2.4702724293	-0.05723
C	-2.7806050637	 2.3238368287	 1.9708196539	 0.119843
O	-2.8874940393	 3.7447640335	 2.1752571008	-0.291695
C	-2.409687226	 4.0248993283	 0.8396701722	-0.091668
C	-2.1931481906	 2.5328841391	 0.5359766219	-0.08667
C	-0.8391090594	 1.9740047641	 1.0156939356	-0.085442
H	 1.1574448426	 0.2384369574	 1.2650732263	 0.277422
H	-1.3712084491	 0.0186053385	 0.0730095678	 0.086334
H	-2.176877011	-0.3687305931	 2.4224527664	 0.101105
H	-0.5022518641	-0.1806014996	 2.9645992785	 0.100757
H	-1.0464623552	 2.2357956198	 3.3756537662	 0.077653
H	-3.7030252301	 1.7931542021	 2.2280768486	 0.073358
H	-3.1883413212	 4.5046559557	 0.2328562394	 0.101559
H	-1.515175281	 4.6609047432	 0.8384098486	 0.099926
H	-2.616223144	 2.1372069089	-0.3883585373	 0.076297
H	 0.0658091449	 2.5384171211	 0.7765149702	 0.064996
60.2751	178.3498	207.2311	283.6979	303.1891	357.8169	412.2697	460.3747	638.0426	771.3905	784.8194	811.6982	839.3318	889.8403	900.0708	937.2611	947.0072	996.785	1011.2279	1021.2371	1034.4195	1055.8978	1073.4268	1111.1833	1120.9868	1134.631	1161.1529	1183.4556	1216.6328	1219.5144	1230.54	1257.1993	1267.0396	1272.9015	1305.9162	1313.4411	1330.7351	1365.8389	1433.4113	1470.4524	1523.3003	3006.0313	3043.8497	3048.2695	3054.4563	3058.5335	3076.5609	3094.9371	3100.1379	3109.6511	3800.3172
OC1CC2C3OCC3C12	O[C@H]1C[C@@H]2[C@H]3OC[C@H]3[C@H]12	
InChI=1S/C7H10O2/c8-5-1-3-6(5)4-2-9-7(3)4/h3-8H,1-2H2	InChI=1S/C7H10O2/c8-5-1-3-6(5)4-2-9-7(3)4/h3-8H,1-2H2/t3-,4-,5-,6+,7+/m0/s1
