19
gdb 1116	3.3991614	0.8700998	0.8057984	2.5672	78.49	-0.2455	-0.01335	0.23215	1488.8021	0.154814	-422.540629	-422.531193	-422.530249	-422.576012	33.453	
C	 5.6229529525	-4.964487207	-1.1472902368	-0.486177
C	 5.7066921096	-3.531164601	-0.6620735114	 0.384787
O	 6.7670099897	-2.9636785862	-0.4979842317	-0.326847
C	 4.4071442178	-2.8492946039	-0.3810433889	-0.134763
C	 4.3534255348	-1.3400764146	-0.5283712094	-0.296229
C	 4.3659628439	-1.9309863058	 0.8420697489	-0.01621
C	 3.139602833	-1.9095727996	 1.6853210149	 0.083637
C	 3.1325457908	-1.3353066172	 3.0373996856	-0.185692
O	 3.1354953073	-2.7503633238	 2.8430097619	-0.237213
H	 5.0923512439	-5.5799580347	-0.4116261653	 0.145774
H	 5.0465694085	-5.0157635478	-2.0783644233	 0.139167
H	 6.6244401855	-5.3635172888	-1.3104275463	 0.141755
H	 3.5039903952	-3.4088905859	-0.6002026891	 0.090165
H	 5.2660731685	-0.8684936205	-0.873492769	 0.141506
H	 3.4291502079	-0.9127842938	-0.9022979385	 0.117037
H	 5.3060695231	-1.873195155	 1.3817511667	 0.115692
H	 2.1978574688	-1.9140050937	 1.1318751869	 0.08978
H	 4.0524453085	-0.9175727575	 3.4448002965	 0.117738
H	 2.2128963908	-0.9171118131	 3.4447457485	 0.116092
46.2086	77.7716	114.7724	137.8218	162.716	262.6443	312.0449	339.4079	408.6164	488.0851	594.5026	602.2805	786.2758	794.677	851.1645	868.3585	896.6935	940.363	966.4555	984.252	989.442	1052.4863	1081.5542	1098.736	1119.4993	1131.5082	1157.3362	1167.3155	1191.1671	1209.5443	1225.4495	1290.9043	1307.5306	1376.775	1404.1071	1455.1892	1463.7228	1474.9605	1484.3847	1532.1491	1791.553	3033.7625	3079.9889	3085.4117	3093.5471	3136.6643	3154.4503	3165.8894	3167.9475	3170.7498	3233.3347
CC(=O)C1CC1C1CO1	CC(=O)[C@@H]1C[C@H]1[C@@H]1CO1	
InChI=1S/C7H10O2/c1-4(8)5-2-6(5)7-3-9-7/h5-7H,2-3H2,1H3	InChI=1S/C7H10O2/c1-4(8)5-2-6(5)7-3-9-7/h5-7H,2-3H2,1H3/t5-,6+,7-/m0/s1
