19
gdb 3032	2.4618793	1.3995694	1.2751078	1.7544	76.4	-0.24678	-0.02503	0.22175	1118.5616	0.154221	-422.513649	-422.504463	-422.503519	-422.548356	33.541	
C	-0.096101979	 0.4284124328	-0.2085709821	-0.440105
C	 1.4094424639	 0.2683767735	-0.1457822824	 0.010182
C	 2.0819783662	-0.9421089348	-0.8521842526	 0.022205
C	 3.3197869585	-0.7804775692	 0.0559779518	-0.255057
C	 2.0281383107	-0.6958802797	 0.918888482	 0.324693
O	 1.4917826816	-1.8547532658	 0.160798494	-0.348534
C	 1.9061633872	-0.661323529	 2.4178334024	 0.245706
C	 1.4042532244	-1.923362931	 3.0783218067	-0.486156
O	 2.2100080623	 0.3448454483	 3.0177723529	-0.307091
H	-0.4497326163	 1.0878759941	 0.5907313689	 0.127837
H	-0.3963479891	 0.8766874922	-1.1616393496	 0.1186
H	-0.5898555175	-0.5407371967	-0.1099924891	 0.134988
H	 1.9415545005	 1.2178311429	-0.2513808545	 0.085212
H	 2.0228522625	-1.2591832817	-1.8935750157	 0.098716
H	 3.906699395	-1.6871740367	 0.2036107355	 0.111499
H	 3.9261271474	 0.1222149896	-0.0383205543	 0.111812
H	 1.3890626099	-1.7968371412	 4.1612496361	 0.139064
H	 0.4010780563	-2.1596853012	 2.7066475062	 0.155593
H	 2.0383647654	-2.7713424461	 2.7979912436	 0.150835
28.361	117.2485	133.1967	168.3939	230.9065	289.5604	304.1102	368.3477	453.3545	530.0785	563.8612	615.2641	673.715	750.8098	784.2366	806.5841	901.9733	919.9846	935.6336	989.0105	1012.7496	1025.9154	1064.4306	1070.3856	1106.7732	1141.3927	1148.8731	1166.6815	1204.9456	1221.5647	1242.0114	1329.5534	1382.2474	1390.5787	1411.86	1454.2031	1462.6304	1486.3171	1498.5754	1505.058	1804.9863	3039.1625	3041.5861	3071.7241	3080.242	3098.4886	3102.1921	3118.1396	3133.2047	3157.4438	3159.6925
CC1C2CC1(O2)C(C)=O	C[C@@H]1[C@H]2C[C@@]1(O2)C(=O)C	
InChI=1S/C7H10O2/c1-4-6-3-7(4,9-6)5(2)8/h4,6H,3H2,1-2H3	InChI=1S/C7H10O2/c1-4-6-3-7(4,9-6)5(2)8/h4,6H,3H2,1-2H3/t4-,6-,7+/m1/s1
