19
gdb 3059	2.940374	1.4200146	1.1842065	2.4988	75.28	-0.23408	-0.01548	0.21860000000000002	1101.0145	0.157695	-422.568941	-422.56072	-422.559776	-422.601363	31.823	
C	-2.672413564	-1.4699918913	 1.7208342621	-0.433231
C	-1.6216617606	-0.5225579262	 1.1556957559	 0.022693
C	-2.0441373106	 0.4029191381	-0.0318664645	-0.053238
C	-1.7431965574	-0.7902716674	-0.9812657616	-0.247572
C	-0.6309337749	-1.1162417899	 0.0835250367	-0.14589
C	 0.2503060796	 0.0887259306	-0.1524706638	 0.397678
O	 1.4286773218	 0.1799413132	-0.3812724756	-0.354133
C	-0.7762289821	 1.256411729	-0.1818157685	 0.051416
O	-0.708192299	 1.9633286479	-1.4010906972	-0.450872
H	-2.2109524142	-2.1904396319	 2.404004461	 0.124001
H	-3.42088249	-0.9074827034	 2.2892099699	 0.123448
H	-3.2002154652	-2.0358285035	 0.9489875727	 0.123575
H	-1.1305624938	-0.003833199	 1.9884963701	 0.075428
H	-2.9994451844	 0.9270912486	-0.0406478889	 0.075533
H	-2.5266498856	-1.5462789765	-1.003021789	 0.112546
H	-1.423636376	-0.5515939242	-1.9971150421	 0.120607
H	-0.1526899866	-2.0898667223	 0.173697475	 0.08178
H	-0.6344349233	 1.9299837109	 0.6781448984	 0.082914
H	 0.2293206262	 2.067426267	-1.6078633006	 0.293317
112.9214	196.5742	204.9995	215.6982	263.6367	348.3322	365.5929	462.5074	466.818	533.5207	610.1031	720.1331	769.3577	808.9614	831.75	855.7412	894.8423	958.5945	964.4233	1003.8019	1050.4011	1066.8124	1074.2512	1094.0675	1106.3445	1137.7812	1176.8981	1200.8737	1216.8066	1245.4717	1252.6149	1269.581	1301.6505	1348.3383	1398.4227	1404.5232	1415.573	1493.9668	1496.3715	1516.3418	1861.1904	2977.8927	3022.3151	3038.1228	3088.6268	3098.4586	3117.2719	3119.7856	3138.9174	3153.0413	3774.5818
CC1C2CC1C(=O)C2O	C[C@@H]1[C@@H]2C[C@H]1C(=O)[C@H]2O	
InChI=1S/C7H10O2/c1-3-4-2-5(3)7(9)6(4)8/h3-6,8H,2H2,1H3	InChI=1S/C7H10O2/c1-3-4-2-5(3)7(9)6(4)8/h3-6,8H,2H2,1H3/t3-,4+,5-,6+/m1/s1
