19
gdb 1361	3.419039	0.8558933	0.7227553	2.7815	77.52	-0.26128	0.05155	0.31283	1542.4824	0.154535	-422.504598	-422.494889	-422.493945	-422.539811	35.334	
O	 4.4734644716	 1.1287018696	 0.7717462003	-0.448845
C	 3.064638291	 1.1541476116	 0.9057270511	 0.145948
C	 2.5425592529	-0.038263397	 0.0828289591	-0.357714
C	 1.1133364761	-0.2695109993	 0.2369870919	 0.299009
C	-0.0683568918	-0.4393568805	 0.3801469758	-0.458455
C	 2.4831293438	 2.4944675413	 0.4282868759	-0.258883
C	 2.8543120624	 3.6302441603	 1.3527153748	 0.080467
C	 3.4731508702	 4.8718452055	 0.8736658083	-0.177642
O	 4.2676487812	 3.8740460717	 1.5236932214	-0.246745
H	 4.805028888	 2.0000050978	 1.0271158378	 0.299022
H	 2.7702721466	 0.9951065801	 1.9572530399	 0.074865
H	 2.7921653369	 0.1304495417	-0.9722421081	 0.132118
H	 3.1062820037	-0.9247782927	 0.3951902458	 0.142405
H	-1.110381951	-0.6047832688	 0.499110787	 0.195268
H	 2.8610607056	 2.6902069588	-0.5822614777	 0.104708
H	 1.3912133847	 2.423694099	 0.3723619583	 0.121856
H	 2.3053040582	 3.6702853616	 2.2942026778	 0.105855
H	 3.6598721821	 4.996145414	-0.1917602492	 0.12322
H	 3.3511566577	 5.7953503555	 1.4364824596	 0.123542
55.5376	82.3254	105.1687	152.6537	197.4708	298.7829	357.1036	360.8703	405.8608	464.4982	469.281	501.0263	565.4102	621.7834	649.0953	778.9306	841.0908	865.5494	916.7456	954.4471	969.555	1004.2103	1050.4678	1092.6565	1103.8006	1130.5682	1159.7334	1174.9658	1209.5697	1257.6802	1291.1805	1294.7298	1312.368	1340.0397	1390.3361	1438.6263	1452.8717	1467.0425	1473.5869	1526.105	2237.6168	2954.7183	3031.2598	3035.874	3070.9787	3084.8683	3090.8688	3111.7208	3180.5365	3506.1648	3749.5771
OC(CC#C)CC1CO1	O[C@H](CC#C)C[C@@H]1CO1	
InChI=1S/C7H10O2/c1-2-3-6(8)4-7-5-9-7/h1,6-8H,3-5H2	InChI=1S/C7H10O2/c1-2-3-6(8)4-7-5-9-7/h1,6-8H,3-5H2/t6-,7-/m1/s1
