19
gdb 3174	2.4656145	1.7662613	1.3337794	0.9751	74.3	-0.22381	0.08152	0.30533	1019.2482	0.157163	-422.528457	-422.520481	-422.519537	-422.560606	31.743	
O	 0.4080473028	 0.7920291565	 0.3553849422	-0.431038
C	-0.618375859	 0.0063979878	 0.9463278218	 0.054552
C	-1.8046034473	-0.149860486	 0.00698472	-0.114779
C	-3.0896869494	-0.7205612864	 0.586164925	-0.333569
C	-2.8663632726	 0.7649997114	 0.5593652767	 0.097804
O	-2.3986895612	 1.390870741	 1.731114847	-0.294728
C	-1.2595704807	 0.6684603375	 2.1685768182	 0.385288
C	-1.3052284291	 0.0090683078	 3.5222790802	-0.327085
C	-0.473632547	 1.2578103512	 3.2880726211	-0.343872
H	 0.0392604881	 1.6671031413	 0.1888577964	 0.284502
H	-0.1385777014	-0.94003736	 1.2098697236	 0.093412
H	-1.5922873177	-0.2498095689	-1.0503240723	 0.098098
H	-3.8016405874	-1.1269425725	-0.1240833268	 0.114465
H	-3.0563985734	-1.238143111	 1.5383307739	 0.126478
H	-3.4868158864	 1.4247417193	-0.034421737	 0.102368
H	-2.2225070036	 0.1256361487	 4.0886577702	 0.121287
H	-0.7955934835	-0.9394462229	 3.6596013788	 0.11312
H	-0.8431558697	 2.1865761822	 3.7078999014	 0.125193
H	 0.6061627286	 1.171633423	 3.2419364396	 0.128505
92.6704	196.0993	225.3911	277.4893	303.2717	366.7678	406.5449	451.3821	531.2449	586.0974	708.3611	766.4869	793.2669	805.9431	822.1091	884.132	899.0623	907.5557	959.0629	991.5277	995.011	1019.8013	1050.1962	1059.4977	1068.9134	1073.2206	1092.3347	1099.5561	1156.8281	1187.2008	1190.0396	1236.8795	1254.3153	1275.3777	1336.4751	1366.3448	1381.9431	1431.9415	1452.9717	1474.1699	1497.3794	3079.7686	3126.7539	3135.6899	3139.2873	3186.0854	3194.3897	3215.7553	3224.0616	3232.4173	3799.7458
OC1C2CC2OC11CC1	O[C@@H]1[C@H]2C[C@H]2OC21CC2	
InChI=1S/C7H10O2/c8-6-4-3-5(4)9-7(6)1-2-7/h4-6,8H,1-3H2	InChI=1S/C7H10O2/c8-6-4-3-5(4)9-7(6)1-2-7/h4-6,8H,1-3H2/t4-,5+,6+/m0/s1
