19
gdb 683	4.3384382	0.9051615	0.7855432	1.5481	75.75	-0.24037	-0.01799	0.22238	1421.1701	0.156824	-422.568185	-422.559731	-422.558786	-422.602037	31.27	
O	 1.0806619852	-0.1711567776	-0.7752809748	-0.309874
C	-0.0038670808	-0.1080151871	-0.2589214675	 0.40182
C	-0.7754283338	-1.2763317364	 0.3672207318	-0.324414
C	-2.1850427002	-0.7273422883	 0.6253352779	-0.228815
C	-1.9659492704	 0.7855441358	 0.884094333	-0.004431
C	-0.8528716563	 1.1613988324	-0.1097562306	-0.341739
C	-3.2203027169	 1.6072056292	 0.7395909006	 0.081509
C	-3.5055129617	 2.7775818746	 1.5785042072	-0.183947
O	-4.1656315258	 1.5310544405	 1.8088807189	-0.242041
H	-0.7280013393	-2.1624641391	-0.2699241303	 0.130218
H	-0.2695973533	-1.5325915552	 1.3076505395	 0.133904
H	-2.8083562013	-0.855338349	-0.2689101849	 0.104887
H	-2.7034328093	-1.213588079	 1.4539838936	 0.120395
H	-1.594334363	 0.9130765915	 1.9086697202	 0.082481
H	-1.2764830947	 1.3873358049	-1.0992744302	 0.128895
H	-0.2387874745	 2.0177984997	 0.1772459767	 0.130494
H	-3.6754470705	 1.5748578241	-0.2541099646	 0.089842
H	-2.7903142147	 3.0749631216	 2.3447500277	 0.113436
H	-4.1368514988	 3.5791214074	 1.1978442859	 0.11738
64.6077	83.8718	141.1391	169.5806	302.1911	352.1295	430.7918	462.3623	508.3048	569.8195	595.4431	724.269	809.7034	840.4372	865.158	894.5416	915.6462	949.2935	980.0712	991.9047	1067.1913	1093.6583	1110.3815	1153.0117	1162.1715	1162.9841	1173.3129	1209.9027	1238.1993	1255.7097	1291.8864	1292.7813	1306.1516	1327.0413	1356.4457	1446.659	1450.0075	1458.8565	1500.4819	1531.2741	1849.0348	3016.9156	3025.8687	3032.7937	3038.7935	3074.2176	3082.5493	3106.9806	3109.7868	3112.9778	3168.4846
O=C1CCC(C1)C1CO1	O=C1CC[C@@H](C1)[C@@H]1CO1	
InChI=1S/C7H10O2/c8-6-2-1-5(3-6)7-4-9-7/h5,7H,1-4H2	InChI=1S/C7H10O2/c8-6-2-1-5(3-6)7-4-9-7/h5,7H,1-4H2/t5-,7-/m0/s1
