19
gdb 4991	2.4566937	1.3547014	1.0860994	4.3834	76.26	-0.26905	0.00517	0.27422	1202.6483	0.155478	-422.565791	-422.556655	-422.555711	-422.599745	33.486	
C	 1.2632047041	-0.4228439824	 1.0470392783	-0.379593
C	 0.8377108819	 0.155762961	-0.3096748828	-0.289415
C	 1.5614529148	-0.4771983408	-1.4538381229	 0.458224
O	 3.0008276541	-0.2108079129	-1.5488292391	-0.299104
C	 2.8755669113	 0.0120297031	-2.9166372247	 0.459697
O	 3.7133872904	 0.4161181167	-3.6554386705	-0.328331
C	 1.4243299536	-0.3684697843	-2.9617939643	-0.370533
C	 1.2507175203	-1.7150007644	-2.2202118494	-0.067383
C	 2.1710750972	-2.9032456985	-2.3807706984	-0.424481
H	 1.0431244427	-1.4933849636	 1.1065871129	 0.120508
H	 2.3373179769	-0.2897886909	 1.2031722003	 0.142808
H	 0.7350917888	 0.0783582802	 1.8629208875	 0.118999
H	-0.2381228967	 0.0122399362	-0.4636603045	 0.109998
H	 1.0225450433	 1.2361195354	-0.3308841872	 0.119499
H	 0.6613935223	 0.0656298258	-3.5921638505	 0.12307
H	 0.1919591584	-1.9690999004	-2.1708938534	 0.103426
H	 1.9953370912	-3.6308154077	-1.5814235607	 0.124535
H	 1.9952040104	-3.4048276949	-3.3371787201	 0.128516
H	 3.219893505	-2.6031800374	-2.3355964006	 0.149562
79.3255	121.784	141.6655	190.601	203.2728	263.9629	293.0073	359.0852	433.4014	485.2562	547.9625	649.7414	699.1514	757.7152	781.891	825.9219	891.6463	905.4303	925.2839	971.8666	991.597	1032.9454	1061.9487	1077.4397	1106.6626	1139.3366	1141.2955	1210.3315	1234.7176	1299.5538	1333.7383	1367.2223	1410.4739	1416.0299	1471.0157	1477.709	1491.8573	1498.136	1505.4704	1513.0979	1938.7315	3034.7293	3042.2493	3043.422	3072.8764	3103.4488	3114.3522	3116.4387	3123.2253	3137.6411	3222.3394
CCC12OC(=O)C1C2C	CC[C@]12OC(=O)[C@H]1[C@H]2C	
InChI=1S/C7H10O2/c1-3-7-4(2)5(7)6(8)9-7/h4-5H,3H2,1-2H3	InChI=1S/C7H10O2/c1-3-7-4(2)5(7)6(8)9-7/h4-5H,3H2,1-2H3/t4-,5-,7-/m1/s1
