19
gdb 5379	2.6416156	1.4875147	1.11267	2.0458	76.97	-0.23401	0.01094	0.24495	1128.6309	0.157545	-422.55407	-422.545644	-422.5447	-422.586728	32.829	
O	 1.0033955015	-0.2276563944	-0.0467990144	-0.427153
C	 0.0008384732	 0.7821871176	-0.0240831482	-0.183543
C	-1.297754856	 0.3286094013	-0.6289996087	 0.228129
C	-2.0361593572	 0.9371905798	-1.56165694	-0.186593
C	-3.3190928628	 0.1936283492	-1.8769111883	-0.275927
C	-3.2912066491	-0.9937482961	-0.9184560871	-0.117895
C	-3.2796635089	-0.7254433972	 0.5770949578	-0.309223
C	-1.9830572944	-0.9213662504	-0.1507110693	 0.316739
O	-1.2079098956	-2.0398121586	 0.1974741964	-0.466932
H	 0.6336713877	-0.9809623099	 0.4305962928	 0.285493
H	-0.1782442675	 1.1247436177	 1.0098198212	 0.095349
H	 0.4004979203	 1.634352058	-0.5822495149	 0.11117
H	-1.7895201087	 1.8883846505	-2.0219027094	 0.093786
H	-4.2017430357	 0.8286451029	-1.7235040725	 0.113707
H	-3.3528914117	-0.1274597922	-2.9267149312	 0.109599
H	-3.682689673	-1.9525067145	-1.2374093146	 0.091349
H	-3.5254919529	 0.2631644958	 0.9521257716	 0.113639
H	-3.6058504645	-1.5513602088	 1.2004859956	 0.12036
H	-0.8029986948	-2.3722308406	-0.6132357869	 0.287947
95.7102	164.169	221.3479	276.4307	284.1388	302.9573	358.8606	412.5044	438.5291	595.4463	605.7224	632.2317	667.7133	745.1122	828.6315	831.5303	852.2294	907.1974	944.2422	976.7851	1003.3688	1012.8195	1047.7102	1051.7262	1078.8643	1086.3419	1143.7604	1187.3943	1209.8452	1239.4997	1257.7156	1300.856	1322.3466	1362.3583	1381.1258	1401.2531	1451.0765	1471.3179	1483.5235	1497.1483	1704.3419	2952.1139	3013.9947	3039.88	3078.3618	3124.3049	3181.614	3186.6375	3217.2238	3771.0869	3777.9303
OCC1=CCC2CC12O	OCC1=CC[C@@H]2C[C@]12O	
InChI=1S/C7H10O2/c8-4-6-2-1-5-3-7(5,6)9/h2,5,8-9H,1,3-4H2	InChI=1S/C7H10O2/c8-4-6-2-1-5-3-7(5,6)9/h2,5,8-9H,1,3-4H2/t5-,7-/m1/s1
