19
gdb 3874	2.7081614	1.3574158	1.0049159	0.8042	78.59	-0.23754	0.00744	0.24498	1205.8482	0.155782	-422.554671	-422.545693	-422.544749	-422.588477	33.56	
C	 1.3782935477	 0.6699834722	-0.3136651443	-0.511259
C	-0.0205376517	 0.2008445917	-0.074643447	 0.279111
C	-1.158369799	 0.8794058006	-0.2398307473	-0.180781
C	-2.3835557843	 0.1117957281	 0.1836421014	 0.062531
O	-3.3560419627	 0.1543967407	-0.8572045038	-0.434518
C	-1.8340002409	-1.3115666142	 0.4683821843	-0.343807
C	-0.315171043	-1.1573760261	 0.4799092893	 0.351286
C	 0.6235004971	-2.2872134432	 0.4714288576	-0.248775
O	 0.4038141232	-1.5435499347	 1.6715308913	-0.27943
H	 1.9897315762	 0.5061001998	 0.5810094027	 0.144876
H	 1.8515079175	 0.1134958058	-1.1319881864	 0.129397
H	 1.4073741372	 1.7323782858	-0.5665287246	 0.126827
H	-1.2357395838	 1.8950978836	-0.6117531514	 0.099478
H	-2.8093207493	 0.5604593771	 1.0959514793	 0.075904
H	-4.1777393801	-0.2039540739	-0.5071886926	 0.282715
H	-2.1879002528	-1.74601943	 1.4065354239	 0.111608
H	-2.1481523814	-1.9580479993	-0.356932339	 0.11563
H	 0.2273347512	-3.3029953063	 0.4707919666	 0.110378
H	 1.6135520589	-2.1823367575	 0.0289672601	 0.108829
49.1342	145.6797	180.1972	241.9571	259.8956	271.3412	309.5703	344.0802	458.1311	465.7	531.6096	593.0679	650.6881	711.1072	788.9348	874.0656	879.1698	898.8474	963.5875	978.3638	1016.5808	1056.0874	1066.2643	1082.909	1119.8071	1128.7224	1165.9261	1205.3692	1220.6264	1243.0316	1271.8874	1337.9402	1345.5577	1406.4211	1412.1171	1428.9349	1472.3068	1476.7675	1492.723	1527.503	1719.3497	2960.6932	3026.526	3056.3827	3073.1257	3080.0046	3111.4619	3121.5937	3156.9148	3196.7021	3818.0499
CC1=CC(O)CC11CO1	CC1=C[C@@H](O)C[C@]21CO2	
InChI=1S/C7H10O2/c1-5-2-6(8)3-7(5)4-9-7/h2,6,8H,3-4H2,1H3	InChI=1S/C7H10O2/c1-5-2-6(8)3-7(5)4-9-7/h2,6,8H,3-4H2,1H3/t6-,7-/m1/s1
