19
gdb 4029	2.4012962	1.998083	1.4548288	1.3356	73.65	-0.23039	0.06506	0.29545	963.0842	0.157155	-422.534514	-422.526718	-422.525774	-422.566131	31.421	
C	 0.3853388742	-0.4387561362	-0.6844151357	-0.407498
C	 0.9083542804	 0.1508219482	 0.6115366817	 0.091412
O	 1.3006536063	 1.5149226793	 0.4205842212	-0.280287
C	 2.3813266797	 1.7639553613	 1.3019475363	 0.109031
C	 3.6858518333	 1.0200165675	 1.0934564019	-0.097621
C	 3.41339843	-0.2652762297	 0.3112438961	-0.271084
C	 2.1681254027	-0.5047010962	 1.2112751042	 0.373439
O	 2.0234377254	-1.8267928047	 1.6332466051	-0.49299
C	 2.6904987576	 0.6095473856	 2.1836602119	-0.215
H	 0.1221608148	-1.4898305309	-0.5311063178	 0.11941
H	-0.5072121711	 0.0980748976	-1.0171304038	 0.124608
H	 1.134710848	-0.3790130467	-1.4776552025	 0.12726
H	 0.1090799883	 0.107714368	 1.3774029837	 0.049321
H	 2.4169771555	 2.787050136	 1.6563938012	 0.102
H	 4.6465462733	 1.5101006739	 1.2029582719	 0.084701
H	 3.2603514569	-0.1913601159	-0.7694376979	 0.09932
H	 4.1624334541	-1.0306810606	 0.5259423089	 0.115447
H	 1.2584491618	-1.8776374042	 2.2183601672	 0.280502
H	 2.7578940389	 0.5810143275	 3.2634283164	 0.088028
156.8136	205.1498	241.8699	268.8737	328.8788	360.3686	409.4641	486.6581	526.7379	583.4578	634.0107	717.6331	753.2726	786.3734	836.0373	870.4612	928.5016	941.1656	956.4882	999.0535	1007.7317	1031.7434	1062.0233	1065.8556	1111.23	1114.0134	1133.2698	1147.8555	1180.861	1200.3025	1257.7343	1290.8037	1303.5259	1335.2081	1377.4909	1391.2404	1403.6383	1410.3941	1482.0241	1488.914	1500.6964	2904.154	3046.2009	3056.3148	3116.552	3118.4021	3127.4322	3173.217	3186.9709	3200.3169	3787.8713
CC1OC2C3CC1(O)C23	C[C@@H]1O[C@@H]2[C@@H]3C[C@@]1(O)[C@H]23	
InChI=1S/C7H10O2/c1-3-7(8)2-4-5(7)6(4)9-3/h3-6,8H,2H2,1H3	InChI=1S/C7H10O2/c1-3-7(8)2-4-5(7)6(4)9-3/h3-6,8H,2H2,1H3/t3-,4+,5-,6+,7-/m0/s1
