19
gdb 1589	2.2734249	1.7463217	1.2505313	3.8673	77.88	-0.2353	-0.05691	0.17839	1065.3915	0.156422	-422.600419	-422.591496	-422.590552	-422.633496	33.902	
C	 0.0222604983	 2.5135519874	 0.3035404612	-0.412344
C	-0.8324769348	 1.29808969	-0.0172997411	 0.25054
O	-1.2962911451	 1.4787439307	-1.3669093898	-0.471351
C	-2.0219413331	 1.1516007408	 0.9474840539	-0.235602
C	-2.9021317523	-0.0577926601	 0.6044436608	-0.293657
C	-2.0937893227	-1.2865874111	 0.2987594364	-0.040484
C	-0.7804806634	-1.2607247441	 0.0306381737	-0.158934
C	 0.0035975826	-0.0033675306	 0.0032414451	 0.354052
O	 1.2149949088	-0.008047677	-0.0579757359	-0.3353
H	 0.3617970305	 2.4868731032	 1.3424922016	 0.115635
H	 0.9004491935	 2.5334554536	-0.3429441109	 0.141577
H	-0.5622432203	 3.4240622097	 0.1449075149	 0.116365
H	-1.6350101423	 0.637568755	-1.6928731339	 0.284264
H	-1.6316740299	 1.0353438878	 1.9663478102	 0.108525
H	-2.6138253469	 2.0723562111	 0.9277746991	 0.108369
H	-3.5989549111	-0.2721135873	 1.4231342842	 0.119361
H	-3.5415566859	 0.1708407477	-0.2609700654	 0.127483
H	-2.6209018422	-2.2387981826	 0.3006179002	 0.110498
H	-0.2163555038	-2.1689690942	-0.1589862944	 0.111004
85.3447	177.0373	192.9644	228.9298	285.4515	288.305	342.8469	353.8998	367.8419	481.3369	487.8937	554.3921	652.5833	672.6283	746.0766	809.9228	867.4782	879.5737	939.9095	943.5809	1001.885	1031.2471	1046.1865	1091.6807	1131.0943	1139.704	1193.5845	1218.0828	1241.2027	1285.1807	1337.7432	1365.8748	1399.325	1405.3246	1417.0361	1466.2385	1477.3105	1483.0927	1489.007	1677.9163	1784.5319	3007.3854	3030.4208	3052.9186	3055.8473	3082.3156	3123.895	3147.2104	3149.2109	3184.8586	3803.1199
CC1(O)CCC=CC1=O	C[C@]1(O)CCC=CC1=O	
InChI=1S/C7H10O2/c1-7(9)5-3-2-4-6(7)8/h2,4,9H,3,5H2,1H3	InChI=1S/C7H10O2/c1-7(9)5-3-2-4-6(7)8/h2,4,9H,3,5H2,1H3/t7-/m0/s1
