19
gdb 5766	2.2058292	1.4629835	0.9635802	2.5592	77.2	-0.25677	-0.03897	0.2178	1244.3167	0.154984	-422.530762	-422.521738	-422.520794	-422.564698	32.939	
C	 1.12696908	 1.3840929047	 0.2113928891	-0.384921
C	 0.8483638028	-0.1077791336	 0.0042687106	-0.197505
C	 1.7062425922	-0.7135454408	-1.1052722688	-0.065683
C	 1.2938456272	-0.2996014974	-2.5674285933	-0.260595
C	 1.0126186086	-1.7737000921	-2.8781617591	-0.031697
O	 2.191919536	-2.5127668596	-2.632990001	-0.273571
C	 1.3869532599	-2.172003062	-1.4859756962	 0.316106
C	 0.8608549846	-3.3092090582	-0.7103043581	 0.059371
O	 0.5608549176	-3.2649181238	 0.4587629395	-0.261401
H	 0.4991401225	 1.7924059692	 1.008816271	 0.117833
H	 2.172705279	 1.5553434403	 0.4894618224	 0.118026
H	 0.927820154	 1.963252532	-0.6969986505	 0.11544
H	 1.0294453582	-0.6590683062	 0.9316054517	 0.128152
H	-0.2131402701	-0.2591790936	-0.232117932	 0.095004
H	 2.7695480409	-0.575085845	-0.886703702	 0.087516
H	 0.3889315672	 0.3131565678	-2.5777490079	 0.114499
H	 2.0570670356	 0.1612371071	-3.1982743581	 0.117808
H	 0.2823028251	-2.2100246031	-3.5516188007	 0.115978
H	 0.7566829788	-4.2354351657	-1.3169390665	 0.089642
96.3839	111.1029	129.1442	190.4962	219.6924	238.2525	316.0534	378.0467	438.0099	479.8061	523.4499	682.4428	769.7363	802.3547	834.2891	843.103	888.3717	951.4546	958.5366	972.551	1008.017	1040.8712	1062.4847	1104.3294	1129.5274	1192.7064	1208.7436	1238.7625	1267.5367	1282.0761	1303.03	1331.9872	1363.8745	1387.8105	1412.8881	1431.4437	1469.1368	1489.1173	1498.9995	1507.4306	1804.2451	2897.8938	3025.0915	3031.7818	3062.5013	3067.8051	3081.6377	3102.999	3107.5574	3125.7349	3176.7056
CCC1CC2OC12C=O	CC[C@@H]1C[C@H]2O[C@@]12C=O	
InChI=1S/C7H10O2/c1-2-5-3-6-7(5,4-8)9-6/h4-6H,2-3H2,1H3	InChI=1S/C7H10O2/c1-2-5-3-6-7(5,4-8)9-6/h4-6H,2-3H2,1H3/t5-,6-,7+/m1/s1
