19
gdb 4993	3.0283138	1.2609153	1.0821007	2.9611	76.39	-0.23953	0.0087	0.24823	1185.8845	0.155871	-422.534929	-422.525774	-422.524829	-422.568897	33.661	
C	-1.2075875332	-2.5183731426	-0.2193512104	-0.512899
C	-1.2541749117	-1.0191726	-0.1634295799	 0.182289
C	-1.4797698884	 0.0017758068	-1.3449078479	-0.322205
C	-1.3326496114	 0.9417978772	-0.0992828668	 0.182905
C	-1.3190647855	 2.4420681348	-0.0001340457	-0.203652
O	-0.9219957839	 2.8616066435	 1.2965925547	-0.418849
C	-2.2373063653	-0.0973956903	 0.6535875812	-0.295951
C	-0.1959174058	-0.0076305408	 0.2971574403	 0.402053
O	 0.9098506766	 0.0446163371	 0.7522313155	-0.356184
H	-1.027946044	-2.9379957115	 0.7756578495	 0.134359
H	-2.1481945438	-2.9327219909	-0.5963621739	 0.125079
H	-0.4003039825	-2.858789892	-0.8757562243	 0.132686
H	-0.71081589	 0.0586608016	-2.1188465555	 0.110541
H	-2.4856185059	-0.0287099215	-1.7727594267	 0.1062
H	-0.6581035374	 2.8528934762	-0.7805512819	 0.096975
H	-2.3167607306	 2.8617459314	-0.1678874899	 0.114798
H	-0.0417993753	 2.5009157058	 1.455383702	 0.299269
H	-2.1761812833	-0.1259456389	 1.7428321521	 0.118118
H	-3.2716984286	-0.1274488258	 0.3001246573	 0.104469
65.6932	125.6767	157.8146	194.1686	204.7485	223.5474	311.4334	399.0627	435.8454	515.1267	519.0201	617.6423	678.3999	731.823	775.2017	817.1536	859.8403	902.2394	957.9649	997.5194	1019.9407	1033.4373	1056.532	1062.3195	1115.4822	1125.7218	1137.1257	1164.56	1191.7581	1249.0853	1329.7776	1366.8764	1389.3507	1416.5503	1433.5969	1487.7323	1488.5848	1493.9764	1500.8375	1535.4542	1889.8638	2974.9602	3035.0557	3053.6431	3058.232	3067.9005	3103.1008	3105.878	3124.7221	3134.6667	3796.557
CC12CC(CO)(C1)C2=O	C[C@@]12C[C@@](CO)(C1)C2=O	
InChI=1S/C7H10O2/c1-6-2-7(3-6,4-8)5(6)9/h8H,2-4H2,1H3	InChI=1S/C7H10O2/c1-6-2-7(3-6,4-8)5(6)9/h8H,2-4H2,1H3/t6-,7+
