19
gdb 5655	2.0518515	1.4979842	0.9164097	5.2503	79.32	-0.26148	-0.03539	0.22608999999999999	1293.6457	0.156249	-422.619544	-422.610358	-422.609414	-422.653653	33.263	
C	 1.1829892694	 1.2425948666	 0.1696950527	-0.386272
C	 0.9374371277	-0.2569071677	-0.0136964203	-0.187177
C	 1.7596402708	-0.8561788897	-1.1602428216	 0.021132
O	 1.4235844105	-0.2075268363	-2.3915287304	-0.241142
C	 0.9983896436	-1.1359369919	-3.3156506612	 0.442848
O	 0.654488768	-0.8284268585	-4.4218385203	-0.352177
C	 1.0704063248	-2.4626685364	-2.6697483212	-0.380386
C	 1.5155908731	-2.326796605	-1.4180378454	 0.332011
C	 1.7687601971	-3.3749475148	-0.3873446829	-0.499524
H	 0.5693002765	 1.6399668576	 0.9831348164	 0.116484
H	 2.2322109985	 1.4446785838	 0.4117492779	 0.115918
H	 0.9375418634	 1.7877715077	-0.7447881858	 0.147524
H	 1.1905511346	-0.7957641999	 0.9075034842	 0.101557
H	-0.1228545334	-0.4484980485	-0.2166946264	 0.111626
H	 2.8288556435	-0.6748589205	-0.9709095937	 0.102336
H	 0.7953733798	-3.3693486411	-3.1892530171	 0.126809
H	 1.1175189665	-3.2379945405	 0.4840041581	 0.146012
H	 1.5971601537	-4.3766526359	-0.7871041077	 0.141221
H	 2.8004465619	-3.3217169188	-0.0192651854	 0.1412
94.2693	126.0995	138.6658	172.0292	189.6902	241.7087	265.5654	360.0768	419.6255	535.8233	549.454	588.2312	686.7144	742.2444	790.2312	857.679	887.5837	910.8638	964.7075	992.0705	1014.3781	1046.0063	1083.4417	1112.6428	1138.5371	1164.2909	1183.5202	1280.8286	1296.9675	1331.5602	1361.3864	1377.5595	1412.0879	1415.0684	1475.7292	1481.1992	1482.2895	1496.6505	1509.0474	1702.1008	1870.1014	2993.2181	3028.6725	3031.4196	3040.2694	3071.5721	3079.5178	3107.299	3126.9207	3130.7004	3243.1813
CCC1OC(=O)C=C1C	CC[C@@H]1OC(=O)C=C1C	
InChI=1S/C7H10O2/c1-3-6-5(2)4-7(8)9-6/h4,6H,3H2,1-2H3	InChI=1S/C7H10O2/c1-3-6-5(2)4-7(8)9-6/h4,6H,3H2,1-2H3/t6-/m0/s1
