19
gdb 2545	2.859245	1.3399065	1.0047577	1.6408	79.87	-0.23803	0.00829	0.24631999999999998	1212.011	0.156789	-422.542244	-422.533823	-422.532879	-422.575106	31.926	
C	 1.4204020192	 0.2830224934	 0.6702111495	-0.476768
C	-0.012858552	 0.0282189254	 0.3027818479	 0.257208
C	-0.93414687	 0.9886292739	 0.1933607696	-0.214958
C	-2.3492121758	 0.675238697	-0.1088308647	 0.393333
C	-3.1667125543	 1.5564134014	-0.9607627285	-0.230124
O	-3.3347239619	 1.5584602126	 0.4578706719	-0.28309
C	-2.6699718648	-0.801128958	 0.0339066867	-0.181888
O	-1.652545873	-1.5846596402	-0.5617095464	-0.242128
C	-0.3965198112	-1.4145105442	 0.064371224	-0.155907
H	 1.7056265874	-0.2817591423	 1.5672480892	 0.129477
H	 2.0998172839	-0.0380216061	-0.1297356143	 0.12874
H	 1.5997187084	 1.3427987881	 0.8672380166	 0.129359
H	-0.6854364493	 2.0349992714	 0.3510696476	 0.090801
H	-2.7281315775	 2.4612073362	-1.3803807953	 0.112664
H	-3.9916476912	 1.1326153548	-1.5332017263	 0.114409
H	-2.774890254	-1.0375130191	 1.1058564033	 0.100116
H	-3.606240661	-1.0600547411	-0.4663026044	 0.11281
H	-0.3658790823	-1.9607526535	 1.0264932449	 0.099476
H	 0.336811439	-1.8959306796	-0.5937468313	 0.116468
102.9844	143.925	187.219	240.1102	271.9144	363.589	390.9301	396.1402	448.4032	469.109	526.8974	585.2892	803.5542	842.8828	864.0436	899.5604	926.4992	954.9276	964.962	1000.4905	1032.5805	1071.8667	1094.585	1129.3355	1137.1932	1156.1224	1181.0048	1240.3268	1301.3045	1310.3299	1331.6302	1366.7979	1405.7667	1415.5029	1431.2803	1478.3491	1482.9301	1489.4395	1496.3166	1525.9959	1736.0601	2926.7631	2972.7049	3016.994	3049.9825	3063.2266	3074.858	3098.5323	3116.827	3160.6269	3163.4098
CC1=CC2(CO2)COC1	CC1=C[C@@]2(CO2)COC1	
InChI=1S/C7H10O2/c1-6-2-7(5-9-7)4-8-3-6/h2H,3-5H2,1H3	InChI=1S/C7H10O2/c1-6-2-7(5-9-7)4-8-3-6/h2H,3-5H2,1H3/t7-/m0/s1
