19
gdb 4855	2.7419402	1.4718674	1.2395725	0.7965	75.36	-0.24708	-0.00549	0.24159	1087.4956	0.155844	-422.548466	-422.539752	-422.538808	-422.581514	33.324	
C	 1.2066114537	-0.130363167	 0.9536862769	-0.417112
C	 0.9314550786	 0.0556527109	-0.5431433884	-0.21446
C	 1.8331920476	-0.7882633752	-1.464342667	 0.316088
O	 3.2187158519	-0.5241671708	-1.2535119421	-0.475852
C	 1.5355451853	-0.5217647828	-2.9313845939	-0.096243
C	 1.1902309851	-1.6243332536	-3.5978929809	-0.098986
C	 1.1835398561	-2.8024435692	-2.6807984027	-0.001323
O	 0.2145577444	-2.6920307495	-1.6033204959	-0.260601
C	 1.5645495935	-2.3033475819	-1.3549433493	-0.025416
H	 1.0813469417	-1.1736452856	 1.2615466681	 0.12883
H	 2.2174767796	 0.1910482497	 1.23245696	 0.109089
H	 0.5135938975	 0.4728485745	 1.5470999827	 0.12494
H	-0.1060007296	-0.2134531948	-0.7619316195	 0.126223
H	 1.0590575311	 1.1108064862	-0.8118205912	 0.100127
H	 3.3909189771	-0.5773136785	-0.3069326431	 0.278966
H	 1.5732934855	 0.4844572178	-3.3334027975	 0.106677
H	 0.9168856362	-1.6780076573	-4.6444873461	 0.10713
H	 1.364865365	-3.8150566004	-3.0267619218	 0.100419
H	 2.1132861097	-2.8937386825	-0.6242637981	 0.091505
81.9004	148.8038	179.9443	248.143	267.9457	292.4154	358.8897	401.0357	422.619	469.0172	607.4945	628.6957	759.7465	769.9637	786.2134	815.8018	851.9128	879.1961	946.8496	964.8471	987.4409	1010.7982	1015.46	1038.6356	1092.2032	1102.7942	1117.0011	1160.984	1211.3332	1247.826	1290.5543	1312.8585	1323.7255	1374.6136	1387.2513	1406.596	1425.6136	1477.5949	1499.8179	1509.926	1665.9001	3026.4066	3041.2874	3082.0261	3103.6395	3110.8393	3136.2731	3169.7193	3192.4664	3219.1339	3799.2065
CCC1(O)C=CC2OC12	CC[C@]1(O)C=C[C@@H]2O[C@H]12	
InChI=1S/C7H10O2/c1-2-7(8)4-3-5-6(7)9-5/h3-6,8H,2H2,1H3	InChI=1S/C7H10O2/c1-2-7(8)4-3-5-6(7)9-5/h3-6,8H,2H2,1H3/t5-,6-,7-/m0/s1
