19
gdb 6073	2.9210674	0.7387942	0.6060826	1.2153	78.81	-0.24793	-0.02065	0.22728	1817.2715	0.152407	-422.524519	-422.513676	-422.512732	-422.562239	36.729	
C	 1.1191885604	-0.5776428021	 0.226077485	-0.228376
O	-0.109811951	-0.4517531932	 0.9002136585	-0.235835
C	-0.4732394191	 0.89289479	 1.1239147537	-0.053809
C	-1.8053747793	 0.8948441518	 1.8579504192	-0.317625
C	-2.3063213499	 2.2870526077	 2.1701191682	 0.378043
O	-1.6679670922	 3.283980571	 1.9299543075	-0.295613
C	-3.7211250649	 2.417452193	 2.7751636048	-0.441566
C	-4.1262300935	 1.3536218259	 3.6805701408	 0.298005
C	-4.4508393971	 0.4746869399	 4.4331581366	-0.447893
H	 1.9471545995	-0.1290263223	 0.7977015064	 0.105405
H	 1.3153930857	-1.645070282	 0.0990446138	 0.126406
H	 1.0922188603	-0.1001124151	-0.7663931931	 0.104612
H	 0.2906785614	 1.4150138636	 1.7205329301	 0.103249
H	-0.55882148	 1.440759176	 0.1718480351	 0.097584
H	-2.5676849367	 0.3598921171	 1.2766068205	 0.134222
H	-1.7253759767	 0.3356514146	 2.7980458415	 0.151942
H	-3.7705184351	 3.3976806763	 3.2591764441	 0.159317
H	-4.4129750037	 2.4591072271	 1.9206490446	 0.15794
H	-4.7402786481	-0.3007584394	 5.0985273828	 0.203992
37.0163	58.5683	82.9626	94.3211	125.9892	159.4156	237.1327	298.1512	312.644	331.7545	445.1003	470.6931	504.8426	621.5437	628.4332	654.5616	756.6509	826.9126	885.8448	985.4311	998.9784	1069.3017	1072.1049	1122.7197	1166.3908	1178.1044	1204.4365	1231.636	1236.3114	1293.363	1298.4337	1339.9817	1423.8746	1441.9982	1450.4967	1483.5294	1486.029	1505.3072	1526.7091	1810.0138	2239.8302	2966.0305	2979.8593	3005.4113	3010.7094	3013.6189	3039.4785	3073.9088	3084.7137	3114.0605	3504.7976
COCCC(=O)CC#C	COCCC(=O)CC#C	
InChI=1S/C7H10O2/c1-3-4-7(8)5-6-9-2/h1H,4-6H2,2H3	InChI=1S/C7H10O2/c1-3-4-7(8)5-6-9-2/h1H,4-6H2,2H3
