19
gdb 5047	2.4357277	1.5459822	1.1345751	3.2871	75.22	-0.23889	0.05035	0.28924	1149.5419	0.153706	-422.473484	-422.46448	-422.463536	-422.507094	33.667	
C	 1.1481530768	 1.2614976692	 0.1770586315	-0.376637
C	 0.6532177863	-0.1889526393	 0.0782065712	-0.316469
C	 1.2763901235	-0.9242767218	-1.0646613926	 0.335521
O	 2.658520437	-1.2999163348	-0.9991114503	-0.30114
C	 1.6927613971	-2.3130140988	-1.2988648199	 0.300625
C	 1.650635168	-3.5666141083	-0.4913387397	-0.513212
C	 1.3220227288	-2.1609306339	-2.8365202513	-0.061656
O	 2.066741884	-1.0752146622	-3.3835850131	-0.212512
C	 0.9095161855	-0.7786094882	-2.6049047157	-0.063814
H	 0.6756905639	 1.7781485521	 1.0173838187	 0.114311
H	 2.2317837002	 1.2877060946	 0.321506903	 0.139821
H	 0.9186612596	 1.8219159027	-0.735121748	 0.121447
H	 0.8774308941	-0.7254006518	 1.0069319483	 0.111364
H	-0.4376002583	-0.2065338051	-0.0440525661	 0.103483
H	 1.7194427785	-3.3413197886	 0.5761926286	 0.136046
H	 0.7199449348	-4.1143345279	-0.6741080791	 0.126068
H	 2.4857176451	-4.2252829478	-0.7559157187	 0.137514
H	 0.9421836692	-2.9215325587	-3.5083264306	 0.109705
H	 0.122479786	-0.1815574012	-3.0499345663	 0.109535
75.463	124.4328	183.5385	199.3928	223.2304	269.6513	312.9027	347.6579	443.6239	554.7878	579.2059	615.1171	737.2219	742.6234	772.9343	801.3909	852.4643	856.3195	895.1432	947.7786	980.0949	984.2475	1016.2678	1093.0567	1098.0255	1117.6077	1169.3198	1176.6469	1235.5527	1268.7129	1308.0231	1351.5197	1366.8858	1408.4289	1410.4534	1469.7431	1473.7147	1488.9807	1497.5491	1503.649	1528.9336	3024.806	3031.9239	3040.8301	3067.932	3093.6338	3109.8396	3117.8921	3121.6946	3181.4055	3196.6175
CCC12OC1(C)C1OC21	CC[C@@]12O[C@]1(C)[C@@H]1O[C@H]21	
InChI=1S/C7H10O2/c1-3-7-5-4(8-5)6(7,2)9-7/h4-5H,3H2,1-2H3	InChI=1S/C7H10O2/c1-3-7-5-4(8-5)6(7,2)9-7/h4-5H,3H2,1-2H3/t4-,5+,6-,7+/m1/s1
