19
gdb 4889	2.8350989	1.3394871	1.0889599	3.5536	76.82	-0.25348	-0.02863	0.22485	1153.3193	0.157045	-422.537594	-422.52909	-422.528146	-422.570671	32.163	
O	-1.4663686097	 0.4118005863	-0.4958333419	-0.427283
C	-0.0739567252	 0.1694387531	-0.5373928971	-0.157134
C	 0.5998331269	 0.4498836804	 0.7962842868	 0.214509
C	 0.4665198456	 1.8569994555	 1.2452600801	 0.122568
O	-0.1911324243	 2.6985174808	 0.6721941588	-0.298241
C	 1.9051379574	-0.181524446	 1.2700271869	-0.112255
C	 2.022001449	-1.6388514586	 0.7983285232	-0.246804
C	 0.6804140375	-1.9616107881	 1.5334850636	-0.250467
C	 0.6110549679	-0.500173925	 1.9936881708	-0.080157
H	-1.5573742403	 1.3575975014	-0.3223572984	 0.296221
H	 0.0516338417	-0.8747785908	-0.8299201322	 0.107196
H	 0.4177199438	 0.7830092632	-1.3080997697	 0.096645
H	 1.0155626898	 2.1098481579	 2.180991213	 0.080774
H	 2.7347834143	 0.4416368034	 1.5848370942	 0.095381
H	 2.0675971604	-1.8095358936	-0.2804596884	 0.111014
H	 2.8708297245	-2.1448209307	 1.2626389967	 0.113916
H	-0.1570113799	-2.3202438774	 0.9299619598	 0.121971
H	 0.8257738903	-2.6486854895	 2.3693337858	 0.113767
H	 0.2663152402	-0.1642663424	 2.964700588	 0.098379
91.5174	121.1226	195.4569	217.8755	281.9667	318.0516	320.3562	408.2692	489.3971	542.1634	565.9887	712.9968	787.3507	816.1625	845.4045	860.6407	935.08	937.4057	982.2523	1003.8522	1013.8766	1036.2351	1058.7054	1080.0207	1099.4201	1101.9622	1161.2622	1217.7212	1227.0301	1258.7848	1262.2413	1288.9469	1328.3434	1381.7229	1384.6594	1436.5713	1451.2633	1479.9767	1497.4814	1510.1556	1791.4466	2872.1817	2987.538	3062.3422	3070.654	3107.0447	3108.9279	3126.1297	3168.5744	3181.1649	3770.3002
OCC1(C=O)C2CCC12	OC[C@]1(C=O)[C@@H]2CC[C@H]12	
InChI=1S/C7H10O2/c8-3-7(4-9)5-1-2-6(5)7/h3,5-6,9H,1-2,4H2	InChI=1S/C7H10O2/c8-3-7(4-9)5-1-2-6(5)7/h3,5-6,9H,1-2,4H2/t5-,6+,7-
