19
gdb 3164	2.4848346	2.0516763	1.5050282	3.0148	73.25	-0.24561	0.07374	0.31935	942.5363	0.158652	-422.529589	-422.522345	-422.521401	-422.560834	29.218	
C	 0.5720005796	-1.112080334	 2.4464879753	-0.400976
C	 0.7518496706	-1.292128131	 0.9352084666	-0.017781
C	 0.210428653	-0.0939616785	 0.1471557951	 0.029805
O	 0.6741073637	 1.2110172569	 0.5256695445	-0.239272
C	 1.1658946156	 0.6525792984	-0.6852715598	 0.041723
C	 2.5842290668	 0.0829639818	-0.6480719101	 0.044475
C	 2.492155989	-1.4272788858	-0.9641483416	-0.267616
C	 2.2298842835	-1.4974257957	 0.5590069879	 0.088482
O	 2.9308444598	-0.2295418592	 0.7202281774	-0.2782
H	 0.9189255686	-1.9967240079	 2.9905565806	 0.108089
H	 1.1454868678	-0.2454250314	 2.7832719056	 0.152782
H	-0.4794486711	-0.9484682625	 2.702629881	 0.112934
H	 0.1930811869	-2.1779656034	 0.6017055949	 0.073128
H	-0.8451695844	-0.120773692	-0.1208024497	 0.091816
H	 0.8481842965	 1.1470750228	-1.6028599109	 0.091121
H	 3.3313883192	 0.7119395037	-1.1378810491	 0.080996
H	 1.712547747	-1.7684164054	-1.6500507013	 0.09953
H	 3.4576439414	-1.8588631227	-1.2312519837	 0.113255
H	 2.6972814165	-2.3012226241	 1.1359212873	 0.075708
152.4216	216.823	239.1196	303.2949	376.12	403.2918	461.3033	521.7083	652.0667	691.1486	748.2022	801.7682	852.8115	881.7642	914.3564	930.9135	936.4115	953.3429	972.8282	1020.286	1029.0748	1056.9148	1075.5008	1108.9169	1130.7405	1142.7975	1146.2502	1215.2234	1248.1851	1271.2577	1294.1258	1303.0906	1335.4671	1339.4873	1353.1654	1381.1008	1404.2793	1453.7641	1487.7674	1493.3781	1505.4742	3011.761	3038.2978	3061.7852	3069.2491	3083.5051	3102.396	3109.2091	3121.3667	3133.2092	3135.2321
CC1C2OC2C2CC1O2	C[C@H]1[C@H]2O[C@H]2[C@@H]2C[C@H]1O2	
InChI=1S/C7H10O2/c1-3-4-2-5(8-4)7-6(3)9-7/h3-7H,2H2,1H3	InChI=1S/C7H10O2/c1-3-4-2-5(8-4)7-6(3)9-7/h3-7H,2H2,1H3/t3-,4-,5+,6-,7+/m1/s1
