19
gdb 1867	2.6221616	1.5106931	1.2604547	1.2419	76.66	-0.21926	0.06619	0.28545	1090.6178	0.154525	-422.498948	-422.490081	-422.489137	-422.53186	34.24	
C	-1.9661383245	-2.3632691561	 0.5884989019	-0.491855
C	-1.6691195716	-0.9241899579	 0.3343870613	 0.367177
C	-2.5624177026	 0.0917438083	-0.3452013462	-0.374243
C	-1.1501834511	-0.0970286509	-0.8308585955	 0.189185
O	-0.8734090955	-0.3576319743	-2.1554408031	-0.444455
C	-0.2011235277	 0.4995057256	 0.178351024	 0.402572
C	 0.3576368344	 1.8685023436	 0.3465911194	-0.339576
C	 1.2758986636	 0.6837721207	 0.0584240852	-0.359386
O	-0.7893870062	-0.2449403296	 1.257125269	-0.348013
H	-2.5705803391	-2.4837403989	 1.4947797495	 0.134445
H	-2.527600424	-2.7867727351	-0.2492872127	 0.128791
H	-1.0425921566	-2.9363612778	 0.7188089846	 0.125755
H	-3.3050832842	-0.3413120757	-1.0091381964	 0.118198
H	-2.8653311765	 0.9989663447	 0.1710192215	 0.113557
H	-0.0826172137	-0.9086167102	-2.1923689618	 0.289719
H	 0.189446649	 2.5980865145	-0.4387841115	 0.122279
H	 0.3761197049	 2.2733752054	 1.3524838176	 0.126979
H	 1.7268000231	 0.6146489802	-0.9270300277	 0.112097
H	 1.8910331781	 0.3144832735	 0.8715894108	 0.126773
117.9483	166.4872	188.4808	199.8755	218.3947	326.358	358.9853	398.9887	455.1697	478.5889	506.3546	581.4945	632.5431	742.3461	763.8286	810.265	874.6581	879.7525	901.5896	948.0831	967.9795	980.7524	1005.6478	1042.4759	1059.3791	1067.59	1101.759	1111.3077	1172.2798	1187.8976	1232.4901	1304.879	1343.2339	1396.3365	1412.948	1425.1893	1444.9344	1473.0199	1490.0196	1501.1304	1525.1231	3031.301	3093.2519	3110.3632	3116.0385	3124.0842	3131.8259	3206.856	3211.6799	3226.2205	3785.5043
CC12CC1(O)C1(CC1)O2	C[C@]12C[C@@]1(O)C1(CC1)O2	
InChI=1S/C7H10O2/c1-5-4-7(5,8)6(9-5)2-3-6/h8H,2-4H2,1H3	InChI=1S/C7H10O2/c1-5-4-7(5,8)6(9-5)2-3-6/h8H,2-4H2,1H3/t5-,7-/m0/s1
