19
gdb 4415	3.2296158	1.310695	1.1246593	0.7561	75.31	-0.23329	0.06829	0.30158	1130.1032	0.156952	-422.493805	-422.485672	-422.484728	-422.526542	31.246	
O	 0.2166700923	 0.0591387871	 0.040758232	-0.427779
C	-0.8838483424	 0.9357256202	 0.0405807597	 0.067538
C	-1.0053992266	 2.0240188967	 1.146363165	-0.257169
C	-2.5291010415	 1.7161412457	 1.2565566208	-0.311165
C	-2.2722304177	 0.4268648419	 0.4695130739	 0.295514
C	-3.1732638754	-0.4864689383	-0.320041102	-0.233697
C	-4.4640023454	-0.7116500544	 0.4644032486	-0.091682
O	-3.7234298701	-1.084932284	 1.6617278797	-0.290016
C	-2.49378387	-0.9749788325	 0.9416278295	 0.031284
H	 0.3338748885	-0.264588619	 0.9404883754	 0.27856
H	-0.9067536699	 1.3718019711	-0.963797204	 0.093296
H	-0.4639737379	 1.7223614013	 2.0490776806	 0.097603
H	-0.7054369446	 3.040160657	 0.8827982567	 0.104273
H	-2.94156283	 1.5907913885	 2.2593611359	 0.117914
H	-3.1448775631	 2.435172094	 0.7079677564	 0.104046
H	-2.9994209784	-0.741195476	-1.3576159891	 0.101143
H	-5.1186721026	 0.1517522241	 0.6318933779	 0.106658
H	-5.0547541221	-1.5611980117	 0.1046721179	 0.111289
H	-1.7273183231	-1.7211185418	 1.1191752152	 0.102389
87.2835	147.7982	157.397	230.7063	289.4374	353.0188	430.9816	478.1458	530.7357	595.4172	702.3856	755.9388	804.1314	831.3301	880.2491	928.3192	935.7379	955.3883	959.6233	990.0667	1023.9962	1055.8668	1065.8775	1074.0496	1090.9125	1130.3517	1153.7567	1159.1263	1214.7785	1223.5013	1232.2351	1237.3739	1267.6246	1289.6102	1307.7097	1332.6184	1423.1649	1434.6927	1477.6189	1494.7778	1513.4971	3024.7112	3050.3426	3055.6516	3058.1173	3074.5481	3109.8795	3122.0919	3172.0858	3195.1712	3804.9325
OC1CCC11C2COC12	O[C@@H]1CC[C@]21[C@@H]1CO[C@H]21	
InChI=1S/C7H10O2/c8-5-1-2-7(5)4-3-9-6(4)7/h4-6,8H,1-3H2	InChI=1S/C7H10O2/c8-5-1-2-7(5)4-3-9-6(4)7/h4-6,8H,1-3H2/t4-,5-,6+,7-/m1/s1
