19
gdb 1386	3.4758714	0.7881295	0.6707981	2.139	78.87	-0.26514	0.03378	0.29891999999999996	1664.6676	0.153346	-422.484009	-422.473907	-422.472962	-422.52022	35.498	
C	-0.3365067231	-3.5735039295	 3.6248329412	-0.39486
C	-1.1173694414	-2.5504946463	 2.7989691409	-0.020838
O	-0.1718713448	-1.6181530514	 2.2950526853	-0.24882
C	-0.696958032	-0.7030373145	 1.3515040497	-0.084995
C	 0.4206534204	 0.192781727	 0.8975264932	 0.085859
C	 0.3839394193	 0.8486898706	-0.4140195114	-0.182193
O	 1.2328554875	-0.2739288326	-0.1808930356	-0.228251
C	-2.16950629	-1.8975850853	 3.5929270436	 0.346669
C	-3.0251982407	-1.3630653181	 4.2467884845	-0.496274
H	 0.1573602389	-3.0771982685	 4.4634996798	 0.137103
H	-1.0093777743	-4.3406680796	 4.0152925229	 0.126667
H	 0.4223472357	-4.0443154703	 2.9953563092	 0.130022
H	-1.6011138439	-3.0667692573	 1.9519578166	 0.095807
H	-1.1173422621	-1.2341703582	 0.4826160841	 0.093719
H	-1.4984358073	-0.0990510571	 1.8046451432	 0.105575
H	 0.9774923303	 0.6693408209	 1.7045750509	 0.102853
H	-0.455921026	 0.6687322956	-1.0847782153	 0.113242
H	 0.8879426266	 1.8040551605	-0.5520523378	 0.117103
H	-3.7834902131	-0.8941188759	 4.8241773651	 0.201613
42.1568	58.2128	122.1458	130.3505	191.7944	214.4172	260.752	291.9248	330.8795	450.4185	465.5771	559.1763	602.4634	629.2983	676.2478	802.8234	818.4615	871.6433	911.0851	958.4461	1002.6428	1044.1738	1094.2891	1099.3108	1137.4021	1142.3588	1161.2793	1166.4	1181.2929	1270.5635	1293.4018	1335.0631	1354.2991	1389.1725	1403.3326	1465.2262	1482.0203	1494.9852	1502.0562	1533.087	2229.0505	2954.5794	2974.6166	3014.092	3054.4037	3081.1318	3116.7174	3136.7266	3138.0902	3166.5608	3501.7744
CC(OCC1CO1)C#C	C[C@H](OC[C@@H]1CO1)C#C	
InChI=1S/C7H10O2/c1-3-6(2)8-4-7-5-9-7/h1,6-7H,4-5H2,2H3	InChI=1S/C7H10O2/c1-3-6(2)8-4-7-5-9-7/h1,6-7H,4-5H2,2H3/t6-,7+/m0/s1
