19
gdb 3736	2.2575072	1.7937004	1.2530435	2.7353	75.41	-0.24712	0.05792	0.30504	1055.6886	0.155983	-422.502731	-422.494298	-422.493354	-422.535953	32.493	
O	 0.1684955596	-0.2337559566	 0.846447366	-0.439211
C	-0.9699704047	 0.4856803323	 0.4848291851	 0.063671
C	-2.3043919595	-0.193010109	 0.630580268	-0.375858
C	-1.7276615435	 0.060946401	-0.7430668835	 0.240628
C	-2.3163717375	 0.9093113384	-1.8839619652	-0.324659
C	-1.8299944538	-0.1718439437	-2.9062657629	-0.311792
C	-1.2079894778	-0.9492171975	-1.741743323	 0.36946
C	-0.8349542011	-2.3540469276	-1.5957512135	-0.265038
O	 0.1780131444	-1.3417429185	-1.7594460519	-0.282907
H	 0.5896502874	-0.5386808639	 0.0298808938	 0.301696
H	-0.9162568069	 1.5533924667	 0.6987033724	 0.089563
H	-2.2924015738	-1.210649855	 1.0072269237	 0.118583
H	-3.164188213	 0.4005644351	 0.9259532583	 0.112742
H	-3.4003100877	 1.0399149538	-1.8427573747	 0.107983
H	-1.8500067322	 1.8896206802	-2.0122201494	 0.110377
H	-2.6319489629	-0.7007655312	-3.4266071014	 0.113581
H	-1.0957723649	 0.1702874854	-3.6385370625	 0.122984
H	-0.8632085818	-2.8200944395	-0.6123332925	 0.126276
H	-0.9394907103	-3.0341386203	-2.439671617	 0.121923
42.8566	162.1669	191.3126	234.9456	328.042	350.8652	387.508	419.3855	506.4274	524.8574	582.88	638.2023	746.516	793.363	827.2958	874.7038	885.0043	893.4159	932.102	946.5447	1007.7348	1028.1098	1098.2459	1100.0701	1116.2583	1139.39	1140.5076	1162.9391	1169.5143	1200.8452	1223.4434	1252.1227	1254.1776	1333.3061	1404.9424	1410.8349	1431.7471	1465.0744	1474.5496	1493.5733	1527.2644	3058.9532	3070.3846	3087.148	3099.0459	3105.3232	3123.0304	3128.7647	3176.6028	3215.1998	3715.6589
OC1CC11CCC11CO1	O[C@@H]1C[C@]21CC[C@@]12CO1	
InChI=1S/C7H10O2/c8-5-3-6(5)1-2-7(6)4-9-7/h5,8H,1-4H2	InChI=1S/C7H10O2/c8-5-3-6(5)1-2-7(6)4-9-7/h5,8H,1-4H2/t5-,6+,7+/m1/s1
