19
gdb 1966	3.1304265	1.6251548	1.4497017	3.1611	73.48	-0.24429	0.07419	0.31848	979.3327	0.158031	-422.534544	-422.527183	-422.526239	-422.56582	29.785	
C	 0.0638576346	 0.3309067955	 0.1478287147	-0.470006
C	 1.5532651366	 0.0972845679	 0.0803359459	 0.400241
C	 2.2104331804	-0.6007164096	 1.2774562634	-0.284117
C	 3.6601382081	-0.1296812251	 1.4398311507	 0.090856
C	 3.8082365086	 1.4074627735	 1.319998566	-0.255752
C	 3.8792853672	 1.0504356065	-0.1820605044	 0.044004
O	 4.3418203057	-0.2751023991	 0.1618827137	-0.274791
C	 2.4480175975	 0.9571895284	-0.7143633955	-0.018152
O	 2.0399156863	-0.3119682091	-1.2123761558	-0.279714
H	-0.1977357106	 0.9667763481	 1.000524131	 0.11756
H	-0.2903854794	 0.8088004295	-0.7690234931	 0.127903
H	-0.4697897304	-0.619379314	 0.2645752971	 0.127218
H	 1.6443143925	-0.3778497466	 2.1900539881	 0.098846
H	 2.1855488832	-1.6866220549	 1.1324577975	 0.121559
H	 4.1842976888	-0.6458166583	 2.2484978553	 0.078413
H	 2.9932169899	 2.0476233042	 1.6671595478	 0.098022
H	 4.7653852581	 1.7542347477	 1.7117430568	 0.113425
H	 4.5684770175	 1.5752704014	-0.8480487222	 0.080215
H	 2.0567296353	 1.8259302638	-1.2449789068	 0.084269
166.6607	201.9733	253.2712	336.6787	364.912	392.849	414.0936	491.2783	585.9369	645.5653	718.3543	802.1576	837.2687	863.7242	875.7967	917.4993	924.177	948.9131	969.3929	988.8374	1032.9082	1051.5662	1060.6189	1090.7583	1120.3873	1141.3273	1198.5702	1219.0417	1242.821	1249.5505	1287.8453	1324.5594	1331.1569	1342.7988	1379.9266	1411.6382	1449.6456	1466.1876	1484.3653	1490.1521	1500.0616	3029.2062	3034.8279	3064.8992	3076.1493	3078.5841	3081.673	3092.3553	3105.6087	3121.3117	3135.3133
CC12CC3CC(O3)C1O2	C[C@]12C[C@@H]3C[C@@H](O3)[C@H]1O2	
InChI=1S/C7H10O2/c1-7-3-4-2-5(8-4)6(7)9-7/h4-6H,2-3H2,1H3	InChI=1S/C7H10O2/c1-7-3-4-2-5(8-4)6(7)9-7/h4-6H,2-3H2,1H3/t4-,5+,6+,7-/m0/s1
