19
gdb 3175	2.460942	1.6915075	1.2980119	2.1028	73.88	-0.25108	0.0642	0.31528	1034.9116	0.157312	-422.537918	-422.529831	-422.528887	-422.570443	31.526	
O	 0.3572923623	 0.3726901666	 0.9356700921	-0.42419
C	-0.9259543066	 0.5409333231	 0.3401835209	 0.005292
C	-1.3300664281	 2.0082375173	 0.3508586114	 0.009582
O	-2.6772281632	 2.2361145906	-0.0734266731	-0.254177
C	-2.4062557768	 2.2133229349	 1.3331876025	 0.048452
C	-2.7577974988	 0.8921700078	 1.9884362162	-0.341581
C	-2.0728513022	-0.1507914172	 1.0931470134	 0.341907
C	-2.8789552307	-1.2196415442	 0.400497993	-0.302491
C	-1.9311677119	-1.5908023935	 1.5107516322	-0.326062
H	 0.2832502333	 0.5971343177	 1.8697236656	 0.280118
H	-0.816178579	 0.1525781241	-0.6766798415	 0.095476
H	-0.6009444327	 2.7678599078	 0.0808862008	 0.098434
H	-2.5587666622	 3.1562504604	 1.8523604418	 0.096156
H	-2.3623681144	 0.8800106054	 3.0134405935	 0.098101
H	-3.8393569287	 0.7371283918	 2.0569885597	 0.114743
H	-3.9449392382	-1.2558972012	 0.6003196554	 0.111537
H	-2.6082458895	-1.4825599289	-0.6167758199	 0.115843
H	-2.3520043286	-1.884759375	 2.4670918306	 0.108362
H	-1.0043585039	-2.0934750676	 1.2565981355	 0.124497
68.563	192.6164	223.376	267.2848	291.8211	336.5426	368.3675	447.3704	520.6029	566.7209	715.2187	777.2815	791.8848	826.0651	862.9085	875.6053	921.0586	941.7698	968.3542	986.7135	996.8851	1035.085	1052.1476	1062.2698	1082.4016	1087.1493	1124.9051	1188.8493	1195.0618	1242.9082	1244.2076	1266.2585	1276.2339	1296.1732	1337.496	1376.4955	1418.0707	1437.399	1469.0646	1484.8536	1504.1468	3015.8046	3071.5251	3074.3563	3125.6604	3129.8458	3143.1098	3157.1363	3204.9148	3219.8089	3804.941
OC1C2OC2CC11CC1	O[C@@H]1[C@H]2O[C@H]2CC21CC2	
InChI=1S/C7H10O2/c8-6-5-4(9-5)3-7(6)1-2-7/h4-6,8H,1-3H2	InChI=1S/C7H10O2/c8-6-5-4(9-5)3-7(6)1-2-7/h4-6,8H,1-3H2/t4-,5-,6+/m0/s1
