19
gdb 3540	2.451361	1.6010494	1.2038727	2.0183	76.36	-0.23675	-0.02147	0.21528	1097.7816	0.155954	-422.571117	-422.562528	-422.561584	-422.604413	32.586	
C	-3.0541046895	-0.9231221016	 0.9627016633	-0.392485
C	-2.3811092678	-0.8315497769	-0.4050176033	 0.093516
C	-0.9309481699	-1.3425323443	-0.4105050614	-0.351357
C	-0.1153194664	-0.0666118275	-0.1950163976	 0.32985
O	 1.0458354276	 0.0250087053	 0.1173819358	-0.329849
C	-1.0604025958	 1.0640099178	-0.4405020204	 0.330488
C	-0.5883796029	 2.3700111653	-1.0100620963	-0.318974
C	-0.9852253303	 2.2992285473	 0.4395228585	-0.312346
O	-2.29417454	 0.5422889696	-0.848087617	-0.31055
H	-2.4483103598	-0.4373535863	 1.7350150878	 0.124877
H	-4.0317228748	-0.4348135701	 0.9354493033	 0.128276
H	-3.1962789396	-1.9701774033	 1.2504150725	 0.117781
H	-2.9960922562	-1.3402040729	-1.1522236189	 0.089001
H	-0.7070593152	-2.0914575434	 0.3514530686	 0.133293
H	-0.6548121498	-1.7588127943	-1.3860591576	 0.13881
H	 0.4664549922	 2.441697625	-1.2521643307	 0.136662
H	-1.2684639932	 2.8585563709	-1.6985801662	 0.131516
H	-0.2033884923	 2.3241541982	 1.1909003086	 0.134043
H	-1.9377098062	 2.7317933912	 0.7235001512	 0.127451
74.9841	89.6922	216.5828	235.1777	251.4057	325.5462	370.2373	436.0276	462.8518	549.3195	599.2222	666.4127	732.9981	774.3736	815.6146	831.	886.7573	913.3317	928.6408	949.194	1001.2925	1032.8678	1055.3553	1076.0829	1085.1841	1100.8611	1136.2345	1201.5315	1207.8019	1263.5773	1270.8908	1346.6815	1355.2627	1385.9393	1406.7737	1439.2156	1449.1685	1475.2276	1488.6665	1495.5956	1839.4564	3035.9625	3051.1676	3070.8299	3107.3727	3119.9646	3123.6062	3135.3453	3136.3288	3226.107	3240.321
CC1CC(=O)C2(CC2)O1	C[C@@H]1CC(=O)C2(CC2)O1	
InChI=1S/C7H10O2/c1-5-4-6(8)7(9-5)2-3-7/h5H,2-4H2,1H3	InChI=1S/C7H10O2/c1-5-4-6(8)7(9-5)2-3-7/h5H,2-4H2,1H3/t5-/m1/s1
