19
gdb 5219	2.4377445	1.623529	1.4794171	2.0436	75.17	-0.25515	0.05471	0.30985999999999997	1003.9507	0.156844	-422.491517	-422.483307	-422.482362	-422.523938	32.172	
O	 0.5210854366	 1.0805468332	 0.0868418475	-0.417009
C	 0.2582167895	-0.2274344245	 0.6201752786	-0.229934
C	-1.0020067925	-0.2106791297	 1.4384597947	 0.273192
C	-1.2703336907	 0.4155585681	 2.828686129	-0.334262
C	-2.6582666849	-0.0503280718	 2.3467525961	-0.086594
C	-2.0802117954	-1.332311183	 1.6498952219	-0.109718
C	-2.7938011114	-1.0284598857	 0.3138979896	-0.330396
C	-2.3543184106	 0.3455787126	 0.8642946973	 0.403078
O	-2.5104522201	 1.6031247666	 0.3185080187	-0.487232
H	 0.7367105611	 1.6556398416	 0.8288547288	 0.29039
H	 0.1403732551	-0.877472142	-0.2532410384	 0.119035
H	 1.1211690089	-0.5970614049	 1.1928641837	 0.09914
H	-0.8427450788	-0.1009633036	 3.6943027057	 0.088562
H	-1.1322832379	 1.498086624	 2.9180129279	 0.093111
H	-3.6237358194	 0.0179826592	 2.8490534546	 0.074932
H	-1.9142826395	-2.292658461	 2.1341109136	 0.07864
H	-2.3095207772	-1.3824155372	-0.6023056951	 0.090785
H	-3.8701048514	-1.2228048979	 0.2798049365	 0.096616
H	-1.6954844914	 1.7907158359	-0.1662937508	 0.287664
98.7226	134.0258	236.4492	270.5311	300.0221	340.0553	408.9105	458.1146	482.8632	499.4131	654.6209	696.5958	736.0451	783.7031	856.0301	891.6169	914.1735	929.276	943.2331	988.7228	1007.6496	1018.4768	1061.3939	1077.1959	1089.9301	1115.2145	1122.9243	1150.3744	1188.7055	1197.6072	1216.6516	1233.1591	1276.8049	1304.9202	1340.5436	1365.2794	1394.265	1408.9507	1494.7987	1504.9081	1513.9548	2999.6541	3035.282	3039.5314	3075.6501	3092.2238	3098.6279	3110.2837	3138.2694	3759.0737	3811.3219
OCC12CC3C1CC23O	OC[C@]12C[C@@H]3[C@H]1C[C@]23O	
InChI=1S/C7H10O2/c8-3-6-1-5-4(6)2-7(5,6)9/h4-5,8-9H,1-3H2	InChI=1S/C7H10O2/c8-3-6-1-5-4(6)2-7(5,6)9/h4-5,8-9H,1-3H2/t4-,5-,6-,7-/m1/s1
