19
gdb 5123	3.4509617	1.3381274	1.1920702	0.8022	74.75	-0.23618	0.06621	0.30239	1102.8678	0.156647	-422.476187	-422.468104	-422.46716	-422.50885	30.839	
C	 1.4409813388	-0.1911408584	 0.0877550414	-0.259244
O	 0.0391375465	 0.0259986727	 0.0143753246	-0.283055
C	-0.4565022798	 0.74752014	 1.0763037663	 0.431838
C	-0.6514913155	 0.1721374503	 2.4458838636	-0.355635
C	-1.8573820227	 0.6889974409	 1.6822268446	-0.167687
C	-1.9420094095	 2.232494317	 1.6902947777	-0.064757
C	-1.3467748035	 3.0162960311	 2.8799322469	-0.108621
O	-0.0129902071	 2.9513971047	 2.3062911725	-0.297627
C	-0.515717778	 2.297932009	 1.1152485752	 0.027201
H	 1.7119852888	-0.7482500897	 0.9947142679	 0.114418
H	 1.7186025832	-0.7744702357	-0.7927981606	 0.127024
H	 1.9984883242	 0.75565711	 0.0803929517	 0.11785
H	-0.5962283389	-0.9117349573	 2.4709626231	 0.116743
H	-0.2684608595	 0.6694942957	 3.3301491234	 0.128129
H	-2.6809983122	 0.0298676862	 1.4379076955	 0.099015
H	-2.7974808148	 2.6579867759	 1.1688195021	 0.08369
H	-1.692433817	 4.0546816669	 2.949046777	 0.103386
H	-1.3993554915	 2.5518738836	 3.8712550618	 0.104376
H	-0.2454428315	 2.8058322271	 0.1860293254	 0.082957
85.5139	137.2782	170.6749	241.1207	294.1482	356.4454	389.0315	459.8856	517.1464	655.8645	704.3006	805.0273	831.6402	855.4702	898.8869	908.2123	964.4829	969.3156	983.0184	1000.1969	1017.9244	1047.2139	1066.8525	1078.2553	1106.8648	1158.3227	1179.2311	1180.2478	1195.8449	1218.69	1241.6409	1243.4303	1286.1461	1303.7603	1349.6087	1382.1039	1472.3134	1486.9153	1499.2108	1505.3966	1519.3369	2997.1552	3020.6382	3052.8489	3066.257	3082.3419	3123.9771	3128.25	3131.3853	3191.0806	3217.8216
COC12CC1C1COC21	CO[C@]12C[C@H]1[C@H]1CO[C@@H]21	
InChI=1S/C7H10O2/c1-8-7-2-5(7)4-3-9-6(4)7/h4-6H,2-3H2,1H3	InChI=1S/C7H10O2/c1-8-7-2-5(7)4-3-9-6(4)7/h4-6H,2-3H2,1H3/t4-,5+,6-,7-/m1/s1
