19
gdb 1047	4.9512244	0.7081774	0.6503363	1.228	80.35	-0.24085	0.05728	0.29813	1737.1744	0.156019	-422.526156	-422.516334	-422.51539	-422.563647	33.084	
C	 1.5643911194	-0.1787735517	 0.0981208881	-0.497212
C	 0.1160462539	-0.0825042836	-0.0133428621	 0.105803
C	-1.0808616339	-0.0040188922	-0.1126624644	 0.039727
C	-2.5296332228	 0.1118416304	-0.2189678648	-0.374899
C	-3.039997157	 1.5583274293	-0.1134899241	 0.118493
C	-4.5832888646	 1.661786873	-0.1519824427	-0.132883
O	-4.8312932598	 2.7765997169	-0.9918462886	-0.23172
C	-3.7825903565	 2.7462233042	-1.9254629565	 0.024294
O	-2.6219387431	 2.3485592822	-1.2278729416	-0.257567
H	 1.8634290629	-0.6546014385	 1.03875529	 0.144795
H	 1.9882275077	-0.7702602544	-0.7210590322	 0.146899
H	 2.0310375557	 0.8119787305	 0.0652621585	 0.149386
H	-2.8781671285	-0.3091850159	-1.171152565	 0.127024
H	-3.0106800311	-0.4780127742	 0.5746866006	 0.12464
H	-2.631451944	 2.0192897036	 0.7928854654	 0.095193
H	-5.0255856666	 0.7446564206	-0.5742647779	 0.094638
H	-5.0331532084	 1.8546632287	 0.8238805344	 0.121647
H	-4.006530002	 2.0328701983	-2.740792276	 0.081092
H	-3.6380527612	 3.7501314828	-2.3351012511	 0.120647
21.1234	42.9022	55.8301	88.9895	209.465	238.0152	277.4544	323.6754	384.9588	395.5968	493.2356	688.3095	741.2937	772.1453	836.718	909.5702	970.3383	1013.8144	1042.7184	1052.1643	1055.9047	1085.6059	1105.372	1118.3987	1171.9655	1181.2778	1212.4623	1242.358	1270.6567	1293.6223	1352.6837	1370.1257	1393.3394	1415.1996	1435.3136	1457.757	1478.8467	1479.2095	1512.903	1545.3299	2377.8065	2925.2975	2974.0452	3004.8881	3026.1749	3033.6619	3051.6988	3085.7398	3085.8715	3087.1676	3109.968
CC#CCC1COCO1	CC#CC[C@@H]1COCO1	
InChI=1S/C7H10O2/c1-2-3-4-7-5-8-6-9-7/h7H,4-6H2,1H3	InChI=1S/C7H10O2/c1-2-3-4-7-5-8-6-9-7/h7H,4-6H2,1H3/t7-/m1/s1
