19
gdb 5487	2.962427	1.6096134	1.3834735	2.9773	72.95	-0.24555	0.07533	0.32088	990.6709	0.159592	-422.52634	-422.518994	-422.51805	-422.55818	29.19	
O	 1.7144597468	 0.0698427354	 0.1815119207	-0.427171
C	 0.3332086476	 0.3093879255	-0.0306567721	-0.092862
C	-0.0275376826	 0.2467942146	-1.5186566456	-0.021742
C	-1.4155974994	-0.2036919563	-1.9974354592	-0.110915
C	-1.5460412444	-1.7222210598	-1.9750622151	-0.067098
C	-0.5705317275	-2.561686085	-1.1647235533	-0.113619
O	 0.7373476952	-2.1055222568	-1.5520160117	-0.278151
C	 0.5613287233	-0.935890964	-2.3590412575	 0.059659
C	-0.791739681	-1.0673116278	-3.0896782172	-0.088043
H	 1.867666476	-0.8339486938	-0.1226578623	 0.291674
H	-0.2884365053	-0.3942159872	 0.5426624569	 0.083088
H	 0.1260111354	 1.3084295846	 0.3684568663	 0.102729
H	 0.2433162817	 1.1861887645	-2.0131989589	 0.080121
H	-2.3009689404	 0.4178967332	-2.0674797076	 0.087832
H	-2.5352224983	-2.119820949	-2.1702944786	 0.095628
H	-0.6952840557	-2.4585262295	-0.0799959116	 0.108296
H	-0.6614051013	-3.6254147852	-1.418767154	 0.107585
H	 1.4802949561	-0.7638321977	-2.9158845436	 0.089802
H	-0.993090776	-1.1520894856	-4.1481565455	 0.093187
82.2264	173.8716	229.4357	283.863	355.2414	494.5483	553.0188	601.192	656.1408	696.5137	765.3251	788.0897	815.3431	820.5193	907.4649	912.382	953.8245	984.6311	991.8148	1027.2038	1034.0895	1047.4623	1057.3297	1081.7792	1087.1788	1119.1325	1141.9514	1181.7966	1217.4945	1220.3284	1233.9481	1271.878	1302.2835	1330.4281	1361.7488	1366.1456	1398.3112	1408.2533	1441.5508	1505.9385	1534.5795	2989.1401	3017.8408	3043.9138	3050.755	3067.3435	3139.7625	3174.2295	3188.2307	3214.8723	3768.3017
OCC1C2C3COC1C23	OC[C@@H]1[C@@H]2[C@@H]3CO[C@H]1[C@H]23	
InChI=1S/C7H10O2/c8-1-3-5-4-2-9-7(3)6(4)5/h3-8H,1-2H2	InChI=1S/C7H10O2/c8-1-3-5-4-2-9-7(3)6(4)5/h3-8H,1-2H2/t3-,4+,5-,6+,7-/m1/s1
