19
gdb 718	3.527249	1.2840623	0.9920332	4.5806	76.14	-0.25588	0.01627	0.27215	1180.1035	0.159312	-422.576106	-422.568473	-422.567529	-422.60835	29.632	
O	 0.9580956802	 0.0313914085	-0.8255928965	-0.319118
C	-0.0281241808	-0.0071147134	-0.1423606293	 0.412561
C	-0.7118008128	-1.3400958135	 0.2173078257	-0.39718
C	-1.6428435771	-1.1256984629	 1.3886269384	 0.067957
C	-2.9201523171	-1.8870145973	 1.8329806583	-0.274952
C	-3.5204143046	-0.4820025272	 2.1835071974	-0.272927
C	-2.5246568225	 0.0998115847	 1.1453516424	 0.042387
C	-1.6887416489	 1.3488526158	 1.1810131513	-0.111767
O	-0.5507741945	 1.1782378505	 0.2914901793	-0.244828
H	-1.2627189613	-1.6617761699	-0.6758666327	 0.132352
H	 0.0874719124	-2.0681702283	 0.3777589693	 0.133787
H	-1.0451630942	-0.936988208	 2.2915370211	 0.083397
H	-3.444268121	-2.3394276697	 0.9853050531	 0.108828
H	-2.8294055832	-2.6251042657	 2.6322466812	 0.104404
H	-4.586555547	-0.3164607663	 2.018660257	 0.105792
H	-3.2666147211	-0.1893012405	 3.2069807797	 0.109992
H	-2.979063088	 0.0073232037	 0.1498001103	 0.085814
H	-2.1937226453	 2.2513407983	 0.8250334725	 0.120024
H	-1.2982276134	 1.5445712811	 2.1875226516	 0.113473
87.6846	146.2439	233.4502	290.6411	344.9001	411.9815	441.4316	506.1415	587.9672	598.1342	698.7965	732.4791	802.2841	848.2859	900.649	922.4175	954.6007	966.6516	1024.7343	1028.3237	1099.5741	1113.5729	1140.7695	1165.5458	1173.5841	1197.4511	1213.2596	1241.3896	1258.7867	1262.4331	1290.6903	1296.4991	1314.9515	1380.8318	1409.2946	1427.0406	1469.6296	1486.1018	1502.4646	1517.3644	1836.8537	3001.8611	3017.2965	3030.8496	3039.6834	3058.6311	3060.9462	3088.25	3102.3688	3114.2443	3125.7766
O=C1CC2CCC2CO1	O=C1C[C@@H]2CC[C@H]2CO1	
InChI=1S/C7H10O2/c8-7-3-5-1-2-6(5)4-9-7/h5-6H,1-4H2	InChI=1S/C7H10O2/c8-7-3-5-1-2-6(5)4-9-7/h5-6H,1-4H2/t5-,6-/m0/s1
