19
gdb 1686	4.0420523	0.8534172	0.8240407	0.5778	76.51	-0.25078	-0.03417	0.21661	1416.0232	0.153176	-422.577094	-422.567459	-422.566515	-422.612641	34.563	
C	-2.1948568009	 1.6255965412	 0.2445989187	-0.448583
C	-1.0121420805	 2.0228859419	-0.6432225549	 0.3082
C	-0.1994773243	 0.7953383385	-1.0855890762	-0.340648
C	 0.4222062328	 0.046306195	 0.0739714802	 0.162189
O	 0.2672178443	-1.125948061	 0.2997467221	-0.238516
C	-1.4550748585	 2.9622906379	-1.8186686718	-0.394885
C	-0.8519259811	 4.1425709725	-1.0432186901	 0.412573
O	-0.9232196986	 5.3307613355	-1.1538327818	-0.285015
C	-0.1791469336	 3.2063986212	-0.0282306834	-0.394141
H	-1.8604508674	 1.1339090577	 1.1643142963	 0.130646
H	-2.7822741369	 2.503880636	 0.5325581354	 0.123023
H	-2.8618338699	 0.9328799883	-0.2795439613	 0.127917
H	-0.8204034867	 0.0951531639	-1.6535335001	 0.123889
H	 0.6225741523	 1.1257094914	-1.7375167372	 0.114489
H	 1.0639295522	 0.6735246071	 0.7367242651	 0.076488
H	-0.9158562264	 2.7810006218	-2.7551611118	 0.12954
H	-2.5241369764	 3.0211537658	-2.0401739832	 0.13187
H	 0.8986810039	 3.1343824468	-0.2126779616	 0.128017
H	-0.3340644943	 3.4432874887	 1.0277174756	 0.132948
42.1689	58.903	79.6491	192.2844	248.7104	305.052	311.5471	349.282	384.8328	417.1394	478.2719	514.6638	633.1816	683.067	727.8459	816.868	874.3256	881.7043	933.415	964.8085	999.7566	1007.3105	1069.4709	1079.959	1132.0215	1161.9838	1170.3273	1198.686	1218.9609	1276.7222	1309.4011	1315.5104	1415.7595	1426.3933	1431.4229	1445.1749	1462.6334	1494.4823	1495.7284	1834.0295	1897.3404	2853.9383	3006.6573	3028.6314	3046.4857	3051.6122	3087.5464	3098.1346	3100.6482	3108.6983	3109.4738
CC1(CC=O)CC(=O)C1	CC1(CC=O)CC(=O)C1	
InChI=1S/C7H10O2/c1-7(2-3-8)4-6(9)5-7/h3H,2,4-5H2,1H3	InChI=1S/C7H10O2/c1-7(2-3-8)4-6(9)5-7/h3H,2,4-5H2,1H3
