19
gdb 5163	2.4133326	1.5971104	1.2089055	3.355	75.14	-0.24428	-0.01964	0.22464	1088.355	0.157979	-422.58313	-422.574794	-422.57385	-422.616015	31.855	
O	-0.1591613822	-1.1557343777	 0.2326688742	-0.424195
C	 0.1106570539	 0.224726969	 0.0957054821	-0.162774
C	-0.5053911037	 0.81996077	-1.1525617841	 0.20981
C	-0.0120221073	 2.1578741698	-1.6924806177	-0.336927
C	 0.1490735214	 0.9317344462	-2.5281318868	-0.071267
C	-0.909170799	 0.6896842759	-3.6057073976	-0.227927
C	-2.2674384118	 0.8130302479	-2.8805159886	-0.339818
C	-1.9452950059	 0.5205357541	-1.4118449138	 0.375986
O	-2.6998286317	 0.0194749185	-0.6057371839	-0.357676
H	-1.1179620559	-1.2270994047	 0.3246658695	 0.297314
H	-0.244643975	 0.789249453	 0.9722644858	 0.098027
H	 1.2003363979	 0.3343305413	 0.0592724046	 0.103789
H	-0.7316149174	 2.9192010372	-1.9761230469	 0.118741
H	 0.8711168887	 2.5483686789	-1.1966854577	 0.125162
H	 1.145987928	 0.5326938652	-2.6791513091	 0.101417
H	-0.8106910422	 1.3853004818	-4.4450368073	 0.107949
H	-0.7934479418	-0.3226997438	-4.0056969373	 0.118608
H	-2.6880913589	 1.8227816648	-2.9574052259	 0.130983
H	-3.030767257	 0.1228027225	-3.2430852494	 0.132799
95.2052	119.3468	174.8213	215.0852	274.1002	377.0732	429.1868	471.2905	510.2804	551.1049	593.8042	673.4572	692.5008	791.4434	813.7034	856.3589	919.5651	935.4912	972.6456	991.8539	1045.4684	1053.2524	1061.3153	1085.7571	1091.9305	1112.5299	1174.7962	1206.2062	1231.837	1274.6706	1300.5318	1326.3068	1344.7594	1388.161	1400.7625	1440.1221	1460.1247	1488.4181	1495.7679	1503.468	1800.5468	2979.722	3045.3827	3048.7314	3062.6336	3086.7739	3122.8048	3124.9178	3174.7769	3208.3882	3772.9024
OCC12CC1CCC2=O	OC[C@@]12C[C@@H]1CCC2=O	
InChI=1S/C7H10O2/c8-4-7-3-5(7)1-2-6(7)9/h5,8H,1-4H2	InChI=1S/C7H10O2/c8-4-7-3-5(7)1-2-6(7)9/h5,8H,1-4H2/t5-,7-/m0/s1
