19
gdb 969	6.8989407	0.6146505	0.5958718	2.6149	77.3	-0.23889	-0.02373	0.21516	1815.0095	0.155259	-422.513636	-422.504603	-422.503659	-422.548985	31.86	
O	 0.2130931948	-1.144174886	 0.2896070101	-0.23407
C	 0.3179109439	 0.0357829668	 0.0772158233	 0.15888
C	-0.2493897412	 0.7592933846	-1.1220666675	-0.269383
C	-1.1872301165	 1.9101178323	-0.7070670368	-0.243072
C	-1.6708672346	 2.720087474	-1.8919960817	-0.03045
C	-2.1564707435	 4.1306610157	-1.6087698874	-0.154084
C	-2.5900742097	 4.7848920955	-2.9157770698	-0.096305
O	-1.3272257056	 4.4406937272	-3.5535724506	-0.288343
C	-0.8460093407	 3.8959652515	-2.3248463186	 0.103149
H	 0.8621536747	 0.6985308472	 0.7926651713	 0.06819
H	 0.5942026027	 1.1758831443	-1.6906523253	 0.123323
H	-0.7630344839	 0.0338241128	-1.7592543876	 0.125189
H	-2.0464753536	 1.4994587172	-0.1623768501	 0.118771
H	-0.6657334248	 2.5709768344	-0.0011571193	 0.102002
H	-2.1680332421	 2.1513723058	-2.6770987818	 0.091948
H	-2.3639661758	 4.4923056404	-0.6103647207	 0.100916
H	-3.4523817435	 4.3566977663	-3.4405622912	 0.107774
H	-2.6983430396	 5.8731742916	-2.8489340329	 0.112444
H	 0.1889561791	 4.0769793486	-2.0541058032	 0.103122
48.9322	58.3936	92.8008	116.4338	249.0651	279.2038	330.2941	346.8815	513.7715	529.6733	747.5107	759.1423	806.1073	826.7086	906.9621	924.8072	950.4409	989.0139	996.6371	1000.7388	1041.4665	1052.1427	1076.0032	1098.588	1114.7333	1135.7738	1158.6337	1181.0818	1224.7404	1247.0516	1258.1113	1289.478	1311.6769	1344.2621	1372.6241	1427.4571	1436.4127	1463.7354	1494.354	1514.4232	1838.0438	2842.3039	3012.9423	3019.2593	3023.9671	3052.4686	3073.8089	3101.9785	3113.6347	3166.1797	3199.7811
O=CCCC1C2COC12	O=CCC[C@H]1[C@@H]2CO[C@H]12	
InChI=1S/C7H10O2/c8-3-1-2-5-6-4-9-7(5)6/h3,5-7H,1-2,4H2	InChI=1S/C7H10O2/c8-3-1-2-5-6-4-9-7(5)6/h3,5-7H,1-2,4H2/t5-,6-,7+/m0/s1
