19
gdb 1910	2.6371875	1.518155	1.1739629	4.8545	75.87	-0.25324	0.01385	0.26709	1102.8305	0.158235	-422.595044	-422.586931	-422.585987	-422.627418	31.394	
C	-2.0109181655	-2.5283673697	-1.8704423138	-0.467033
C	-1.8172306271	-1.260940984	-1.0661479274	 0.326455
C	-2.1733586301	-1.2600168868	 0.3904812628	-0.340814
C	-0.7070245373	-1.2235315649	-0.029613354	-0.192346
C	 0.1338999221	-0.0024867944	 0.1280723931	 0.42522
O	 1.216139125	-0.0199105416	 0.6518897059	-0.340938
O	-0.3272169468	 1.1707576965	-0.3838004169	-0.234602
C	-1.6172053454	 1.2587434909	-1.0031462943	-0.090148
C	-1.9727160141	 0.0346829227	-1.8409565438	-0.284316
H	-1.8323498973	-3.4180530448	-1.259073086	 0.121475
H	-3.0327265775	-2.5910104211	-2.2623501932	 0.121593
H	-1.3230322138	-2.562737766	-2.7227083085	 0.124973
H	-2.6083425442	-0.3802127142	 0.8486675111	 0.125888
H	-2.5086376346	-2.192550191	 0.8306762155	 0.123316
H	-0.1325361516	-2.1238943899	 0.152053883	 0.113968
H	-2.3722438667	 1.4415466538	-0.2292449887	 0.115572
H	-1.5721375926	 2.1533733661	-1.6287894887	 0.125854
H	-3.0013911233	 0.1513587449	-2.2048326705	 0.109761
H	-1.3221575894	 0.0005318334	-2.7239604253	 0.116122
118.0209	143.1839	228.1504	271.4143	296.5255	365.9515	367.5615	426.9695	490.1562	521.4952	650.4816	668.2846	746.4721	761.7893	858.6849	902.6111	920.9609	946.3658	958.1021	1022.6685	1044.973	1054.5722	1064.9221	1107.7038	1116.6668	1139.1232	1225.5912	1243.7067	1251.903	1288.8968	1326.4825	1370.2417	1408.0589	1419.6578	1432.8971	1479.537	1488.7593	1491.9638	1506.0385	1527.087	1834.1557	3022.0994	3027.1811	3032.0813	3063.3135	3088.3526	3099.0147	3105.1622	3144.5594	3187.8166	3227.6672
CC12CC1C(=O)OCC2	C[C@@]12C[C@@H]1C(=O)OCC2	
InChI=1S/C7H10O2/c1-7-2-3-9-6(8)5(7)4-7/h5H,2-4H2,1H3	InChI=1S/C7H10O2/c1-7-2-3-9-6(8)5(7)4-7/h5H,2-4H2,1H3/t5-,7-/m1/s1
