19
gdb 962	5.2211687	0.7636277	0.7293556	2.6848	76.99	-0.25228	-0.02849	0.22379	1563.1397	0.154669	-422.516694	-422.507578	-422.506634	-422.552024	32.448	
O	 2.4206308537	 0.0113441789	 1.4643535312	-0.237867
C	 1.5256481272	 0.2993796593	 0.7154980947	 0.136667
C	 0.0577327034	 0.0885311246	 1.039506194	-0.17668
O	-0.7045785562	 0.6380203753	-0.0154538953	-0.293134
C	-2.064722382	 0.4219083237	 0.1000084393	 0.465374
C	-2.6893209841	-0.9059335827	-0.2291210507	-0.333425
C	-3.0784066367	 0.3257700281	-1.0232533645	-0.136332
C	-4.0727574629	 1.1643104413	-0.2090349677	-0.217098
C	-3.0110051825	 1.2924307147	 0.9371984671	-0.301451
H	 1.7009858758	 0.7421606696	-0.2897948369	 0.097762
H	-0.1297413687	-0.9911669238	 1.1530225054	 0.128365
H	-0.1670940304	 0.5627165633	 2.0069141517	 0.129883
H	-2.0291746718	-1.5869732296	-0.7570367724	 0.115991
H	-3.4030273106	-1.3854252694	 0.4380072232	 0.105201
H	-2.9251771298	 0.3770120211	-2.0938072521	 0.097481
H	-4.3089774782	 2.1270105819	-0.6662651541	 0.109601
H	-5.007903862	 0.6601136825	 0.0536608869	 0.100769
H	-2.6412646177	 2.3157332795	 1.0347036449	 0.112633
H	-3.2879227463	 0.9153257616	 1.9267809752	 0.096258
44.9244	60.4677	91.9786	117.4593	234.6458	298.199	362.8215	381.9334	439.141	550.3347	662.6174	722.2393	738.5221	788.9404	862.0145	912.8941	921.7806	958.5017	964.1418	1018.3574	1022.3973	1054.5848	1070.2197	1096.159	1113.524	1122.5536	1153.6387	1217.1384	1222.5592	1231.132	1235.4504	1265.093	1303.6332	1344.2306	1387.489	1411.1339	1474.9652	1478.8313	1481.8416	1511.8855	1845.146	2899.0045	2982.3968	3018.561	3047.0231	3056.0079	3100.5026	3102.7598	3120.5414	3192.4908	3202.9116
O=CCOC12CC1CC2	O=CCO[C@]12C[C@H]1CC2	
InChI=1S/C7H10O2/c8-3-4-9-7-2-1-6(7)5-7/h3,6H,1-2,4-5H2	InChI=1S/C7H10O2/c8-3-4-9-7-2-1-6(7)5-7/h3,6H,1-2,4-5H2/t6-,7-/m1/s1
