19
gdb 4411	2.8706277	1.6622755	1.2417236	2.5593	74.99	-0.24214	0.07019	0.31233	1033.8506	0.157277	-422.47748	-422.469825	-422.46888	-422.509378	30.572	
O	 0.2135427894	 0.1058802475	 0.1901370869	-0.442729
C	-0.9793539838	 0.8326194584	 0.3312622734	 0.077516
C	-0.831877916	 2.3551873832	 0.5647922177	-0.241623
C	-2.0217629663	 2.5880859961	-0.4155265332	-0.349244
C	-1.7873094093	 1.1555727876	-0.9394577737	 0.391734
C	-2.7193002387	 0.1599387659	-1.6639169365	-0.050486
C	-2.5693333702	 0.964292005	-2.9742054793	-0.236147
C	-1.17786928	 0.8072745432	-2.3210624632	-0.012644
O	-1.5029361665	-0.6211677119	-2.0423946171	-0.332335
H	-0.0126826437	-0.6476882235	-0.3715515745	 0.289055
H	-1.6347416083	 0.3876117513	 1.0984623674	 0.061998
H	-0.9323618974	 2.7249438577	 1.586426002	 0.101375
H	 0.1134427077	 2.7055497893	 0.1431488778	 0.114384
H	-2.9777844572	 2.6868624469	 0.1070826382	 0.109048
H	-1.9311373689	 3.4097462927	-1.1294028823	 0.106256
H	-3.5720518001	-0.4034132105	-1.2829120819	 0.09425
H	-2.7175478374	 0.3924228976	-3.8910329615	 0.110486
H	-3.0086546418	 1.963473081	-3.014112978	 0.104496
H	-0.1878879316	 1.0236691026	-2.7215235923	 0.104612
108.6277	179.7271	201.0429	280.2492	350.0476	457.3947	471.8141	496.497	569.2051	663.1994	692.2262	743.8177	780.4109	817.9953	864.8668	874.2831	915.5028	927.379	953.2924	1002.0979	1024.219	1072.2154	1089.0157	1097.5395	1125.3544	1144.6872	1169.1008	1172.4865	1191.3527	1206.695	1231.3815	1243.3791	1261.2532	1272.3703	1274.1118	1337.8656	1367.0891	1420.6859	1478.6691	1483.5301	1495.8191	2958.2438	3057.5956	3070.0545	3072.7922	3107.5091	3113.0562	3127.7731	3133.3584	3149.966	3760.5404
OC1CCC11C2CC1O2	O[C@H]1CC[C@@]21[C@H]1C[C@@H]2O1	
InChI=1S/C7H10O2/c8-4-1-2-7(4)5-3-6(7)9-5/h4-6,8H,1-3H2	InChI=1S/C7H10O2/c8-4-1-2-7(4)5-3-6(7)9-5/h4-6,8H,1-3H2/t4-,5-,6+,7-/m0/s1
