19
gdb 5621	2.6054341	1.2223328	0.9112311	2.5203	76.92	-0.2248	0.01342	0.23822	1282.3236	0.157047	-422.550405	-422.54172	-422.540776	-422.583673	33.053	
O	 1.2626020905	 0.6353744295	 0.2136740592	-0.421961
C	 0.313138776	-0.4039486807	 0.3835305052	-0.072833
C	-0.8698848717	-0.0003800947	 1.2814336658	-0.06174
C	-1.9451693545	-1.0706589892	 1.3199698382	-0.110977
C	-2.0857661388	-1.6158055212	 2.5327028022	-0.085382
C	-1.2244337052	-0.9445323605	 3.5412236109	-0.137848
C	-1.5221830871	 0.5367360523	 3.7465100116	 0.078872
O	-1.0269872271	 1.1721506596	 4.8859703073	-0.428144
C	-0.4791640225	 0.1380657797	 2.7551125703	-0.071031
H	 1.6654007303	 0.8150571055	 1.0688225027	 0.285052
H	-0.0550966735	-0.6358078049	-0.6213666393	 0.10561
H	 0.7786918351	-1.3189672285	 0.7820444354	 0.090549
H	-1.2590625797	 0.947172544	 0.8848505028	 0.090831
H	-2.5110623538	-1.3487037309	 0.4376506789	 0.096295
H	-2.7763389431	-2.4131148003	 2.7842230389	 0.096948
H	-0.7659926856	-1.4876344187	 4.3601528965	 0.089466
H	-2.4805992568	 0.9042391784	 3.3762966215	 0.088079
H	-1.6097946934	 0.95889728	 5.6224855607	 0.287597
H	 0.5386573809	 0.3956300907	 3.0298961913	 0.080617
103.155	120.1656	178.938	244.1018	285.15	306.5963	336.6147	371.4536	433.3125	462.0463	538.9811	698.6758	773.7518	783.7076	835.6724	868.6408	903.9396	960.9186	970.6283	976.9834	1009.2957	1042.8837	1057.8164	1063.55	1076.7542	1110.0135	1135.5159	1153.9192	1175.5802	1203.4045	1255.2354	1269.2799	1292.1567	1308.6667	1337.7489	1382.0786	1385.3398	1415.7891	1451.5576	1501.14	1658.7485	2983.372	3020.0718	3073.6919	3087.2329	3161.41	3174.6793	3183.9611	3207.4295	3803.7107	3821.6838
OCC1C=CC2C(O)C12	OC[C@H]1C=C[C@@H]2[C@@H](O)[C@H]12	
InChI=1S/C7H10O2/c8-3-4-1-2-5-6(4)7(5)9/h1-2,4-9H,3H2	InChI=1S/C7H10O2/c8-3-4-1-2-5-6(4)7(5)9/h1-2,4-9H,3H2/t4-,5+,6-,7-/m1/s1
