19
gdb 4552	2.9444485	1.251596	0.9800959	5.1216	79.44	-0.25893	-0.03907	0.21986	1235.6159	0.158082	-422.596225	-422.587755	-422.586811	-422.629511	31.772	
C	-3.3781905476	 1.5206765277	 2.5245575986	-0.40062
C	-2.0484846932	 0.7725491868	 2.3096834457	-0.037215
C	-2.2866342251	-0.6935050329	 1.9325806354	-0.223204
C	-1.0202384276	-1.4222060697	 1.4931896386	-0.090565
O	-0.7771971019	-1.3148887474	 0.0882063546	-0.225845
C	-0.5062119305	-0.131346462	-0.510591797	 0.390153
O	-0.2250393096	-0.1358410829	-1.6835028822	-0.336056
C	-0.5339598802	 1.1523574913	 0.2429649354	-0.195812
C	-1.1679401366	 1.5320400842	 1.3580526942	-0.04031
H	-3.9883390364	 1.0109520958	 3.27671678	 0.120407
H	-3.2080167465	 2.5462123579	 2.8662159375	 0.120161
H	-3.9531247299	 1.5659911117	 1.5939570914	 0.130106
H	-1.5176911945	 0.7849435084	 3.2760195747	 0.095841
H	-2.7224749401	-1.2101051396	 2.7953610046	 0.106549
H	-3.0198394489	-0.7705347088	 1.120555784	 0.121226
H	-0.1444458888	-1.0715219725	 2.054215909	 0.113624
H	-1.115155101	-2.4978323915	 1.6567749322	 0.124722
H	 0.0207919486	 1.9062088748	-0.3071639065	 0.121832
H	-1.0415037001	 2.5784871989	 1.6370537497	 0.105006
64.9534	117.718	230.4659	255.4917	269.8337	310.5571	344.2934	390.0357	489.4476	511.758	586.9773	677.0725	723.5168	773.6324	826.9629	859.9248	890.5289	941.9482	999.3775	1017.2454	1036.1808	1055.4991	1106.8684	1117.9588	1179.5678	1206.125	1240.6214	1292.1065	1302.3201	1321.2321	1369.5716	1390.4185	1405.6486	1422.3463	1432.0801	1476.7873	1496.7087	1500.7431	1506.0191	1702.8733	1803.1956	2968.0669	3027.7927	3033.1438	3036.7738	3075.7055	3106.2207	3108.6591	3109.5375	3123.2687	3182.2386
CC1CCOC(=O)C=C1	C[C@H]1CCOC(=O)C=C1	
InChI=1S/C7H10O2/c1-6-2-3-7(8)9-5-4-6/h2-3,6H,4-5H2,1H3	InChI=1S/C7H10O2/c1-6-2-3-7(8)9-5-4-6/h2-3,6H,4-5H2,1H3/t6-/m1/s1
