19
gdb 3316	2.4891271	1.7948202	1.3656458	2.554	73.79	-0.2306	-0.01884	0.21176	1009.8171	0.158817	-422.595775	-422.588016	-422.587072	-422.627911	30.092	
C	-0.8055481615	 2.0152031495	 1.3119201797	-0.415302
C	-1.0383847934	 1.1852655773	 0.0439347835	-0.094596
C	-2.3610121864	 0.3873938141	 0.0540984652	 0.06557
C	-2.6359943807	-0.2301716415	-1.3363516651	-0.231929
C	-1.6033691942	-1.3977482589	-1.3650565617	-0.236892
C	-0.9379723915	-1.2377724697	 0.026776812	-0.037196
O	-2.0118050569	-0.7653307228	 0.8492267936	-0.265617
C	-0.0431088783	 0.0069252456	-0.0440912016	 0.421693
O	 1.1534836034	 0.0641982794	-0.1384217626	-0.330075
H	-0.9821746649	 1.4079187663	 2.2043314505	 0.135428
H	 0.2254641933	 2.3780133165	 1.342087801	 0.137132
H	-1.4780048585	 2.878062879	 1.3421270588	 0.116207
H	-0.9240231578	 1.81802516	-0.8425215236	 0.09584
H	-3.2040920622	 0.8996300593	 0.5182885742	 0.083566
H	-3.6596503868	-0.6052670728	-1.3941541629	 0.111949
H	-2.4930622608	 0.4887416268	-2.1468216173	 0.106543
H	-2.0968284676	-2.3694920322	-1.4302210237	 0.117793
H	-0.8834016562	-1.3252760227	-2.1838477241	 0.120287
H	-0.4706856691	-2.1228196532	 0.4538079543	 0.099599
92.4679	202.5834	229.6454	230.9662	238.3418	393.9794	432.96	527.3057	604.1881	672.7263	752.6919	778.7176	799.2449	827.3214	869.3659	898.8889	929.7438	946.4776	981.9778	1003.5771	1018.1532	1041.2429	1070.0691	1102.0185	1127.7453	1175.5145	1219.4035	1225.5026	1254.4919	1260.2301	1285.2605	1306.773	1313.9971	1346.8567	1354.3993	1400.9913	1484.1044	1494.2873	1502.7659	1505.014	1862.7134	3040.3151	3055.7715	3067.8195	3076.147	3108.5701	3112.9608	3118.2138	3123.4447	3127.8669	3149.5705
CC1C2CCC(O2)C1=O	C[C@@H]1[C@H]2CC[C@H](O2)C1=O	
InChI=1S/C7H10O2/c1-4-5-2-3-6(9-5)7(4)8/h4-6H,2-3H2,1H3	InChI=1S/C7H10O2/c1-4-5-2-3-6(9-5)7(4)8/h4-6H,2-3H2,1H3/t4-,5-,6+/m1/s1
