19
gdb 4129	2.4741151	1.6898558	1.3165775	2.5118	74.99	-0.24308	-0.00982	0.23326	1043.5922	0.156122	-422.563174	-422.554569	-422.553625	-422.596001	32.6	
C	-3.3878076463	 1.2855776533	 1.0979284315	-0.419285
C	-1.9705738458	 0.740074454	 1.2593312214	-0.010321
C	-1.9008749307	-0.8298282493	 1.2792401336	-0.253865
C	-0.9853669378	-1.0390154948	 0.0624755506	-0.041188
O	-1.5137663178	-0.0721545812	-0.903771167	-0.329389
C	-1.059702473	 0.9871746407	 0.0244228379	 0.277558
C	-0.8959956208	 2.3525116207	-0.5725125461	-0.507908
C	 0.1169632046	 0.0152665275	 0.2835656253	 0.412741
O	 1.3038899529	 0.07172182	 0.3687741303	-0.321136
H	-4.026087736	 0.9438908351	 1.9193799031	 0.118084
H	-3.4049173444	 2.3801638263	 1.0980813204	 0.116905
H	-3.8278659534	 0.9333743058	 0.1598942666	 0.13275
H	-1.5067170073	 1.1670149007	 2.1555762073	 0.08333
H	-1.4806997312	-1.2376529698	 2.2026924601	 0.113407
H	-2.8825150613	-1.2813335969	 1.1125396508	 0.114362
H	-0.8157810271	-2.0350820653	-0.3408884996	 0.101236
H	-0.4782936434	 3.0337159302	 0.1755278226	 0.135401
H	-0.2148114995	 2.3209554695	-1.4264316415	 0.141633
H	-1.8557948617	 2.7577070537	-0.9056950075	 0.135684
116.6509	148.7201	176.9579	219.6218	257.6975	264.5221	323.8179	411.4681	478.5888	516.4249	616.3142	690.0399	703.9087	763.2757	817.0605	839.3596	884.2177	902.7891	932.0765	942.2905	1022.3153	1031.1316	1064.9944	1081.8542	1124.1555	1165.3473	1192.9083	1213.4735	1257.0864	1277.2831	1302.9566	1340.9212	1366.3257	1406.1841	1413.8009	1476.0791	1485.4828	1488.5183	1501.39	1505.5976	1917.2173	3034.0529	3043.162	3046.4015	3061.0096	3099.7308	3109.2785	3114.4119	3115.9824	3126.3948	3153.6766
CC1CC2OC1(C)C2=O	C[C@H]1C[C@H]2O[C@]1(C)C2=O	
InChI=1S/C7H10O2/c1-4-3-5-6(8)7(4,2)9-5/h4-5H,3H2,1-2H3	InChI=1S/C7H10O2/c1-4-3-5-6(8)7(4,2)9-5/h4-5H,3H2,1-2H3/t4-,5+,7-/m0/s1
