19
gdb 2651	2.4947675	1.4012584	1.1196443	0.9349	75.85	-0.22825	0.06848	0.29673	1149.0292	0.155911	-422.499779	-422.491067	-422.490123	-422.532799	33.43	
O	-2.2180983153	 1.8298698953	-0.1885065687	-0.421852
C	-1.3590408943	 1.010001197	 0.5484859196	-0.021155
C	-1.5889917965	-0.4788091047	 0.5852697237	-0.045241
O	-0.4405726257	-1.2779792574	 0.6090289217	-0.421752
C	-1.9308485337	 0.382217104	 1.7809872484	 0.32208
C	-1.2890162154	 0.3833823706	 3.182342368	-0.321375
C	-2.682631304	 0.6719336047	 3.7677575774	-0.036431
C	-3.6636796117	-0.3917293981	 3.361059963	-0.281925
C	-3.2985663199	 0.6735065561	 2.3626557967	-0.11853
H	-2.0301478057	 1.6926724852	-1.123289503	 0.288611
H	-0.3159761471	 1.3279888592	 0.5950811753	 0.092505
H	-2.424121268	-0.8559723779	-0.0082475778	 0.0838
H	-0.5926326116	-2.0002601943	 1.2274686056	 0.288148
H	-0.8094505692	-0.5454731586	 3.512576583	 0.086493
H	-0.5828108142	 1.2067569939	 3.3160088914	 0.111528
H	-2.881046716	 1.3459753062	 4.5915672338	 0.087697
H	-3.3370253284	-1.4195101454	 3.2142255924	 0.095487
H	-4.6539390683	-0.2998622392	 3.7963908792	 0.110762
H	-4.0222011449	 1.3503429935	 1.9284548602	 0.101152
112.9786	140.1361	177.7417	227.7332	281.2644	299.3929	328.3014	374.3484	437.9118	507.7198	556.7493	587.1869	750.7973	784.6259	821.0798	870.5736	920.08	950.3938	957.835	991.1204	1004.5399	1031.2791	1053.4421	1066.1443	1081.9882	1093.6953	1128.052	1151.36	1160.9733	1190.8053	1203.2656	1248.4686	1270.9896	1284.9311	1296.3673	1321.389	1360.6364	1368.4759	1480.6688	1487.7016	1496.8639	3032.6152	3082.6984	3090.6736	3095.4209	3099.9939	3185.113	3193.098	3208.4627	3800.6572	3802.1712
OC1C(O)C11CC2CC12	O[C@@H]1[C@@H](O)[C@]21C[C@@H]1C[C@H]21	
InChI=1S/C7H10O2/c8-5-6(9)7(5)2-3-1-4(3)7/h3-6,8-9H,1-2H2	InChI=1S/C7H10O2/c8-5-6(9)7(5)2-3-1-4(3)7/h3-6,8-9H,1-2H2/t3-,4-,5+,6+/m0/s1
