19
gdb 5020	3.2867538	1.4049914	1.2088393	1.122	75.09	-0.23242	0.00937	0.24178999999999998	1073.177	0.157756	-422.548158	-422.540144	-422.5392	-422.580518	31.327	
O	 1.5177626921	 0.7494978402	-0.0515976441	-0.425225
C	 0.142005332	 0.4292962766	 0.0950501846	-0.179319
C	-0.6238457794	 1.2160703044	-0.9456765642	 0.411267
C	-0.5779424876	 0.7698398884	-2.4275481295	-0.268421
C	-2.0725785236	 1.1606119521	-2.3542114553	 0.035083
O	-2.046546026	 0.8913078401	-0.9137346811	-0.334738
C	-2.210052526	 2.6558044467	-2.5541244652	-0.057876
C	-1.4262176216	 3.4165466184	-1.7905166552	-0.067813
C	-0.4794910198	 2.7450201786	-0.8184401749	-0.284626
H	 2.0140316499	 0.2555184522	 0.6067801932	 0.293605
H	-0.0499176538	-0.6427235329	-0.0585250585	 0.092698
H	-0.2377550494	 0.699501909	 1.093952426	 0.094295
H	 0.0634376557	 1.3079122653	-3.1262870063	 0.10401
H	-0.4305591542	-0.3091868463	-2.5086130788	 0.100519
H	-2.8222613076	 0.5588521253	-2.8710278097	 0.072173
H	-2.9069944466	 3.0574784957	-3.2816029315	 0.089466
H	-1.4481233981	 4.5017311121	-1.8307361942	 0.092912
H	 0.5598670165	 3.0397225199	-1.003359107	 0.124985
H	-0.7098277626	 3.0500008642	 0.2119794216	 0.107004
81.6789	166.6151	230.838	259.5496	332.2317	346.0076	424.5333	470.869	499.6306	558.1126	672.9127	696.5304	734.7798	862.7192	870.4705	908.5086	932.8611	948.923	955.343	967.4626	988.2994	1016.7722	1061.4453	1083.3747	1086.8758	1162.4664	1183.5249	1199.5445	1207.5522	1234.761	1243.2132	1279.563	1310.5176	1337.7585	1367.4835	1388.8945	1462.5675	1464.2714	1487.499	1520.3551	1695.435	2971.0571	3012.3615	3015.0452	3064.8317	3072.8702	3096.7901	3140.6316	3164.257	3193.3575	3838.9735
OCC12CC(O1)C=CC2	OC[C@@]12C[C@@H](O1)C=CC2	
InChI=1S/C7H10O2/c8-5-7-3-1-2-6(4-7)9-7/h1-2,6,8H,3-5H2	InChI=1S/C7H10O2/c8-5-7-3-1-2-6(4-7)9-7/h1-2,6,8H,3-5H2/t6-,7+/m0/s1
