19
gdb 3120	1.8852827	1.5132305	1.0749611	3.6979	76.82	-0.23668	-0.02558	0.2111	1201.874	0.154913	-422.538163	-422.528927	-422.527983	-422.572326	34.064	
C	 0.8955154102	-1.0831321486	-3.5078823864	-0.497873
C	 0.5785630623	-1.3413495807	-2.0622323413	 0.336282
C	 0.793814035	-2.6786313409	-1.4012697424	-0.337888
C	-0.5896951907	-2.088994948	-1.4089194723	-0.158591
C	-0.6842984228	-1.0372385277	-0.2956643455	 0.144758
O	-1.8944850005	-0.3414007984	-0.1808109947	-0.429103
C	 0.4882512435	-0.2267604349	-0.9942803031	-0.179182
C	 1.7141211563	 0.1230710922	-0.198002954	 0.141675
O	 2.0701875456	 1.2486525034	 0.0508627945	-0.254335
H	 0.7039013705	-1.9733445834	-4.115884072	 0.12282
H	 0.2901171478	-0.2634541015	-3.9111635254	 0.118937
H	 1.9494438193	-0.8119388997	-3.641585922	 0.129923
H	 0.9509582025	-3.5034568031	-2.0893232251	 0.119083
H	 1.3405907289	-2.7813803028	-0.4671098055	 0.11322
H	-1.4391736841	-2.5928267803	-1.8562341525	 0.094223
H	-0.4625263771	-1.4076676914	 0.7105356135	 0.097749
H	-2.1486861897	-0.0261164961	-1.055498984	 0.282442
H	 0.069750034	 0.6983499354	-1.4017254417	 0.086353
H	 2.298453179	-0.7495909737	 0.1741749398	 0.069508
57.6479	108.0706	192.545	209.2338	212.6337	285.1515	316.4034	365.5561	382.8242	465.1474	480.2265	501.2954	614.8488	761.1105	806.7366	848.5708	875.5127	954.2143	995.1035	1005.6888	1021.7231	1052.0273	1063.922	1083.1684	1099.1636	1118.1491	1129.8255	1178.9947	1227.3545	1246.0928	1262.3047	1283.0101	1331.7362	1386.5027	1421.6339	1431.2911	1441.8792	1484.1152	1498.1304	1503.6546	1816.785	2865.5862	3023.1087	3056.2846	3073.8486	3083.0997	3098.2457	3112.5321	3178.0484	3198.3792	3797.3956
CC12CC1C(O)C2C=O	C[C@]12C[C@H]1[C@H](O)[C@H]2C=O	
InChI=1S/C7H10O2/c1-7-2-4(7)6(9)5(7)3-8/h3-6,9H,2H2,1H3	InChI=1S/C7H10O2/c1-7-2-4(7)6(9)5(7)3-8/h3-6,9H,2H2,1H3/t4-,5+,6-,7-/m0/s1
