19
gdb 5568	2.6776714	1.461938	1.1396927	0.7932	73.86	-0.21916	0.06794	0.2871	1131.8886	0.155868	-422.489157	-422.480715	-422.479771	-422.522145	32.375	
C	 1.4409260967	 1.4029532474	 0.4016942547	-0.381139
C	 1.0063987454	-0.0498132668	 0.179029085	-0.21425
C	 1.6030053742	-0.6667056915	-1.0790545783	-0.043514
C	 1.0275205094	-0.2758521098	-2.4765133257	 0.047162
O	-0.4035763087	-0.5488154261	-2.3686903669	-0.290065
C	-0.0432680529	-1.9297210601	-2.3676677551	 0.008331
C	 1.3043476159	-1.7364397124	-2.9869216199	-0.195808
C	 1.2350590839	-2.0922112448	-1.5127748774	 0.308935
O	 1.6290934237	-3.2887453149	-0.9547712023	-0.457435
H	 1.000633562	 1.814291739	 1.3150941352	 0.112891
H	 2.5301568322	 1.4838998697	 0.4909997344	 0.112135
H	 1.1282575862	 2.0416354338	-0.4314911026	 0.118689
H	 1.3029640529	-0.6571529229	 1.0446685959	 0.089108
H	-0.0850990463	-0.1062442968	 0.1092193147	 0.11216
H	 2.6942179613	-0.5609723937	-1.1051491655	 0.076908
H	 1.2564896535	 0.6637753348	-2.9735823114	 0.087197
H	-0.8048034285	-2.6884171628	-2.4945974385	 0.110376
H	 1.8177189451	-2.1654322844	-3.8352752842	 0.106929
H	 1.0187714541	-3.5103471678	-0.2427348419	 0.29139
75.1769	155.0836	183.03	249.4831	274.1548	280.8706	342.5499	424.6222	557.7013	562.0842	644.3088	740.1412	761.4551	803.2683	820.7583	839.1415	877.2757	916.7749	940.1687	944.4171	972.3975	1021.593	1032.1726	1079.3439	1101.211	1125.1858	1142.6454	1152.7425	1194.3445	1210.4808	1272.2802	1288.9527	1305.6108	1313.43	1339.8086	1399.6107	1413.8462	1444.01	1485.7162	1500.9488	1504.807	3019.6192	3030.3342	3043.0151	3072.5578	3099.2055	3103.4378	3149.441	3203.2226	3222.2959	3795.2542
CCC1C2OC3C2C13O	CC[C@@H]1[C@@H]2O[C@H]3[C@@H]2[C@@]13O	
InChI=1S/C7H10O2/c1-2-3-5-4-6(9-5)7(3,4)8/h3-6,8H,2H2,1H3	InChI=1S/C7H10O2/c1-2-3-5-4-6(9-5)7(3,4)8/h3-6,8H,2H2,1H3/t3-,4-,5+,6+,7+/m1/s1
