19
gdb 3692	3.6898066	0.9671919	0.8728097	2.8242	77.14	-0.23631	-0.03434	0.20196999999999998	1370.3831	0.154285	-422.527846	-422.518524	-422.517579	-422.562971	33.389	
C	 2.7810994587	-1.1274842906	 1.1869002598	-0.403377
C	 1.7020356291	-0.2738958851	 0.5579498829	-0.07608
C	 1.6847292687	-0.0461385999	-0.9521601994	-0.364796
C	 2.0442732345	 1.0615818885	-0.0189454909	 0.452778
C	 1.4102702646	 2.4310247942	 0.1927006138	-0.386328
C	 2.8843558077	 2.9264206656	 0.2319442942	 0.046672
O	 3.3796791507	 1.5856210669	 0.0399472776	-0.314187
C	 3.3163393272	 3.5091788631	 1.561112573	 0.139022
O	 3.3909855177	 4.6886429682	 1.7859305299	-0.239563
H	 2.8804581833	-0.9124044018	 2.2562992648	 0.118276
H	 2.5558988572	-2.1934544247	 1.0778173626	 0.118936
H	 3.7509932739	-0.9320606514	 0.7216214479	 0.134135
H	 0.724742589	-0.3387830655	 1.0323802849	 0.087725
H	 2.4980967133	-0.4792244625	-1.5263583869	 0.125064
H	 0.7317138138	-0.0066253392	-1.4703681757	 0.114293
H	 0.8235622003	 2.8238742471	-0.6387075226	 0.128462
H	 0.8510574192	 2.553267269	 1.1235223438	 0.123216
H	 3.1722744937	 3.6013292278	-0.5804012449	 0.107883
H	 3.5389000574	 2.7363773503	 2.3322829651	 0.087868
38.8311	61.8286	160.3862	177.4924	186.4296	266.9111	316.1295	374.3772	403.8677	429.6636	523.3049	619.8356	772.5187	835.9998	848.4203	883.7134	892.653	915.67	943.2378	991.4753	1030.9181	1040.35	1061.1294	1103.9589	1121.8126	1137.7033	1168.6708	1178.4659	1205.566	1237.0547	1275.2005	1300.7943	1324.0604	1398.7903	1412.3282	1426.4459	1482.7299	1491.4882	1493.8826	1510.1679	1834.0442	2878.1238	3034.6837	3063.249	3070.9786	3094.5337	3112.2689	3122.7395	3129.8207	3130.0824	3211.9238
CC1CC11CC(O1)C=O	C[C@@H]1C[C@]21C[C@H](O2)C=O	
InChI=1S/C7H10O2/c1-5-2-7(5)3-6(4-8)9-7/h4-6H,2-3H2,1H3	InChI=1S/C7H10O2/c1-5-2-7(5)3-6(4-8)9-7/h4-6H,2-3H2,1H3/t5-,6+,7-/m1/s1
