19
gdb 5966	4.3137805	1.0017507	0.8989596	2.3346	76.9	-0.24424	0.00322	0.24746	1340.1712	0.156052	-422.530737	-422.522054	-422.52111	-422.564531	31.899	
C	 1.3596913028	-0.1706237921	-0.0951898438	-0.220048
O	-0.0307238152	 0.0208338962	 0.0077674505	-0.236561
C	-0.4065372876	 0.680081152	 1.1987651756	-0.165009
C	-1.8977158433	 0.8463971427	 1.1998671769	 0.417977
C	-2.6000531638	 1.5553975842	 0.0409671236	-0.321741
C	-3.8379110565	 2.1383079437	 0.6915569467	-0.080963
C	-3.8824196489	 1.8968689104	 2.0044257153	-0.079699
C	-2.7094595225	 1.0664844502	 2.4125064228	-0.082727
O	-2.6665362184	-0.2248141309	 1.759358728	-0.296693
H	 1.7477723106	-0.7956712385	 0.7244458282	 0.106778
H	 1.5508090696	-0.6755384949	-1.045005596	 0.129316
H	 1.9064231308	 0.7862860408	-0.0837766404	 0.10175
H	-0.1026717091	 0.1011442968	 2.0850104054	 0.096672
H	 0.0816338687	 1.6694901441	 1.2569263245	 0.086303
H	-1.9612686341	 2.3323109112	-0.3979119082	 0.112078
H	-2.8401161662	 0.8530073662	-0.7643744026	 0.13568
H	-4.6001721158	 2.6596198123	 0.1232569165	 0.102231
H	-4.6613544872	 2.208074731	 2.6889862317	 0.102598
H	-2.3027639038	 1.0827881245	 3.4199615854	 0.092059
66.9475	99.33	123.6323	224.3081	255.245	324.9591	351.3191	382.8487	423.4248	532.3756	700.9744	726.5557	742.6202	821.0568	864.833	914.0103	940.0495	945.1324	967.3575	982.599	1000.8756	1044.2305	1073.7426	1136.8114	1153.8375	1174.4321	1190.818	1215.5225	1231.8086	1255.531	1280.8786	1325.567	1367.2855	1395.7244	1448.846	1467.2364	1481.0403	1485.7223	1496.1081	1518.4427	1661.0286	2944.1888	2968.8349	2999.105	3012.6211	3034.1653	3078.3064	3116.2724	3153.2349	3191.1918	3220.9981
COCC12CC=CC1O2	COC[C@]12CC=C[C@H]1O2	
InChI=1S/C7H10O2/c1-8-5-7-4-2-3-6(7)9-7/h2-3,6H,4-5H2,1H3	InChI=1S/C7H10O2/c1-8-5-7-4-2-3-6(7)9-7/h2-3,6H,4-5H2,1H3/t6-,7-/m1/s1
