19
gdb 3895	4.1558988	1.13049	1.0617013	3.2566	75.48	-0.23562	0.07291	0.30852999999999997	1199.5288	0.155893	-422.50186	-422.493675	-422.492731	-422.534937	31.233	
C	 0.1917532238	-0.4066263939	-0.2936246415	-0.396951
C	 0.9039400399	 0.6579707201	 0.5148914126	 0.161266
C	 1.5862815013	 0.2432333995	 1.8378309421	-0.387129
C	 2.8755334684	 0.7536802569	 1.1658652036	 0.455895
C	 3.7259724563	 1.8828033769	 1.8533053747	-0.340057
C	 4.9025563431	 0.8996226089	 1.8606659972	 0.03329
O	 5.173142839	 0.5915325311	 0.4923511352	-0.239214
C	 4.1250605675	-0.1314892776	 1.1463623978	-0.049369
O	 2.1859752158	 1.0260092563	-0.0579043824	-0.326879
H	-0.7555634604	-0.6806165291	 0.1840702914	 0.115373
H	-0.0270030597	-0.037994168	-1.300594268	 0.130524
H	 0.8104668647	-1.3048875352	-0.3849976531	 0.11804
H	 0.2667819056	 1.547061713	 0.6153513745	 0.076622
H	 1.2699730445	 0.7734105489	 2.737468454	 0.110438
H	 1.5719903896	-0.8331949425	 2.0294915576	 0.108122
H	 3.8923447397	 2.7750296945	 1.2465984498	 0.122371
H	 3.3451274839	 2.1584400888	 2.8399825046	 0.103755
H	 5.7108969848	 0.7901554899	 2.5731088741	 0.106322
H	 4.1911927824	-1.2146497084	 1.1467188258	 0.097583
53.3262	118.954	214.2518	232.44	337.3563	351.5691	386.5568	432.4904	491.6078	581.7422	764.7517	796.9264	824.6432	855.1232	868.3386	895.9899	912.6795	919.604	943.1982	962.549	984.354	1039.756	1073.4721	1095.1197	1109.6717	1163.2473	1170.3724	1185.7183	1208.0575	1221.1137	1244.5892	1260.5627	1304.3591	1318.1359	1377.0383	1390.9112	1411.4247	1461.4604	1481.5201	1488.4364	1495.776	3007.8844	3032.6257	3063.409	3067.355	3104.9455	3112.6132	3123.5843	3131.5677	3170.1504	3199.5124
CC1CC2(CC3OC23)O1	C[C@H]1C[C@]2(C[C@@H]3O[C@H]23)O1	
InChI=1S/C7H10O2/c1-4-2-7(9-4)3-5-6(7)8-5/h4-6H,2-3H2,1H3	InChI=1S/C7H10O2/c1-4-2-7(9-4)3-5-6(7)8-5/h4-6H,2-3H2,1H3/t4-,5-,6-,7+/m0/s1
