19
gdb 3768	2.3900555	1.3274623	0.9617185	1.62	76.96	-0.25197	-0.02067	0.23130000000000003	1265.3511	0.154567	-422.539513	-422.530165	-422.529221	-422.574047	33.77	
C	 1.1491927041	-2.4379872148	 0.5666838828	-0.417094
C	 1.104874526	-1.0429975512	 1.1292014494	 0.080382
O	 0.1133446251	-0.1547080063	 0.5807160323	-0.272926
C	 1.4942975539	 0.1370033055	 0.3482506773	-0.030565
C	 2.0255475998	 1.3929881731	 0.9740942809	 0.222008
C	 1.2282823771	 2.6887554418	 0.8145365564	-0.302248
C	 1.2857151628	 2.0251043739	 2.1455428713	-0.308777
C	 3.4991001109	 1.5379064775	 0.9589750872	 0.109409
O	 4.2637839355	 0.7241165752	 0.5000418872	-0.271616
H	 0.3273986819	-3.0425307146	 0.9642109847	 0.127988
H	 1.0663258523	-2.4197498221	-0.523163693	 0.129515
H	 2.091307119	-2.9257146181	 0.8377698908	 0.131792
H	 1.1951029122	-0.9675565668	 2.2138932	 0.088785
H	 1.8231197864	-0.027927946	-0.6778314554	 0.103272
H	 1.7848750127	 3.6070816018	 0.6606363656	 0.124923
H	 0.3114005359	 2.6029906625	 0.243274325	 0.146034
H	 1.8814669441	 2.4769682897	 2.9313808591	 0.122682
H	 0.4039651596	 1.4889317305	 2.4752919683	 0.148503
H	 3.8689479208	 2.4879245883	 1.4126675703	 0.067934
52.2895	124.9566	143.5941	177.1206	204.8725	239.1537	283.6767	319.6756	406.4757	465.8703	488.371	611.5626	747.7301	792.3211	810.1904	846.0966	884.6367	928.7197	951.4465	992.1477	1030.0675	1051.7823	1062.0474	1074.285	1085.3777	1102.9708	1166.2567	1175.5663	1204.0529	1270.8554	1301.6407	1328.0828	1373.7782	1411.0344	1437.0458	1454.2101	1475.1135	1489.2136	1490.8024	1512.2001	1810.4989	2851.9669	3038.5278	3096.3773	3105.0363	3112.0019	3126.4882	3138.295	3140.0273	3226.2806	3239.689
CC1OC1C1(CC1)C=O	C[C@@H]1O[C@H]1C1(CC1)C=O	
InChI=1S/C7H10O2/c1-5-6(9-5)7(4-8)2-3-7/h4-6H,2-3H2,1H3	InChI=1S/C7H10O2/c1-5-6(9-5)7(4-8)2-3-7/h4-6H,2-3H2,1H3/t5-,6+/m0/s1
