19
gdb 633	3.7911372	1.2395447	1.2020355	2.3613	77.12	-0.23291	0.01146	0.24437	1107.2612	0.158246	-422.56304	-422.555123	-422.554178	-422.596495	29.735	
C	-0.5684505331	 1.0063760048	-0.8938997172	-0.082382
C	-0.0767690032	-0.0417635827	 0.1029398146	-0.252372
C	 1.3470653664	 0.4703471471	 0.4226170737	 0.352748
C	 1.7263252678	 1.203581218	-0.8988086603	-0.107938
O	 0.5644941587	 1.2655108371	-1.7152643292	-0.255426
O	 1.2952191068	 1.4232248961	 1.5007746644	-0.315725
C	 2.1003513325	 0.9924934511	 2.5935192077	-0.133814
C	 2.7547626844	-0.274574715	 2.121210008	-0.102811
C	 2.3257332844	-0.5651578059	 0.8992932113	-0.155324
H	-1.3806469064	 0.6672379668	-1.5422146141	 0.105303
H	-0.8932942154	 1.9174824997	-0.3675717359	 0.10101
H	-0.676787124	-0.1220680131	 1.010932675	 0.108791
H	-0.0247747021	-1.0223288676	-0.3820036829	 0.101429
H	 2.0879153889	 2.2064015182	-0.6373006128	 0.106468
H	 2.5085263475	 0.6803257678	-1.4598206659	 0.098391
H	 2.8285135827	 1.777104427	 2.8497349752	 0.108887
H	 1.4755716403	 0.8291129666	 3.4865051781	 0.105443
H	 3.4566987264	-0.8413360554	 2.7193383882	 0.109448
H	 2.6048263874	-1.4174906604	 0.2927353322	 0.107872
35.7423	78.5415	200.8849	240.5858	367.3148	388.4728	421.7711	505.9537	628.4756	729.7547	747.8763	786.2331	824.76	875.5362	889.8798	936.6936	953.3111	958.363	970.3726	1012.5696	1043.8606	1057.2367	1087.7355	1106.4381	1114.8263	1155.3034	1185.6542	1199.5398	1225.6535	1247.7403	1258.1143	1312.6759	1350.172	1367.9578	1381.1344	1395.7113	1465.6358	1502.3068	1520.1762	1522.1243	1690.4293	2972.6496	2985.5742	2996.0715	3017.1119	3052.951	3065.8381	3093.371	3126.353	3206.4172	3231.147
C1CC2(CO1)OCC=C2	C1C[C@@]2(CO1)OCC=C2	
InChI=1S/C7H10O2/c1-2-7(9-4-1)3-5-8-6-7/h1-2H,3-6H2	InChI=1S/C7H10O2/c1-2-7(9-4-1)3-5-8-6-7/h1-2H,3-6H2/t7-/m0/s1
