19
gdb 3377	2.4949016	1.6598364	1.173816	2.7901	74.9	-0.23542	0.05548	0.2909	1079.0287	0.156962	-422.501457	-422.493313	-422.492369	-422.534122	31.396	
O	 0.6009896794	 0.4503147409	 0.6456346547	-0.422534
C	-0.6147708923	-0.1433744759	 1.0359545729	 0.041249
C	-1.8613381779	 0.0974088064	 0.1322390687	 0.068665
O	-2.7662531949	-1.0219974713	 0.1416038868	-0.287535
C	-3.5718902137	-0.425115391	 1.1869352493	-0.079449
C	-2.6182742208	 0.77732225	 1.3141257977	-0.189064
C	-1.3829814494	 0.5438947218	 2.1896109414	 0.323261
C	-0.7601824989	 1.5483662263	 3.1224529216	-0.342665
C	-1.3140267097	 0.2514127806	 3.6588515617	-0.325082
H	 0.4782499336	 1.4060940607	 0.6447493851	 0.281084
H	-0.4107431388	-1.2089016436	 1.1713964672	 0.101009
H	-1.6925647848	 0.5190254024	-0.8631567593	 0.077356
H	-4.5732304242	-0.1732741012	 0.8157037685	 0.100552
H	-3.6643976103	-1.0739095258	 2.0663177611	 0.103628
H	-3.0505058301	 1.7778527837	 1.2904017429	 0.076889
H	 0.3187533742	 1.6619307476	 3.0849724319	 0.123114
H	-1.3058917173	 2.4641928753	 3.3267775527	 0.114172
H	-0.6098520174	-0.5039412625	 3.9925661047	 0.121416
H	-2.2360966367	 0.2871380054	 4.2307034903	 0.113932
70.5626	196.2931	217.5639	245.6026	280.8434	300.8139	341.2466	432.6793	552.0259	566.2313	744.2916	786.074	822.1179	849.7182	877.1706	924.3249	943.6103	961.9503	984.9327	1000.1458	1013.4125	1037.3851	1049.4888	1070.003	1080.8491	1117.9759	1151.8615	1175.6251	1192.3865	1198.0378	1218.0845	1251.3407	1263.5676	1272.3983	1307.4526	1354.7005	1378.3019	1417.089	1461.5622	1497.5891	1519.0345	3012.1476	3058.5073	3067.5195	3081.5576	3106.7703	3121.9637	3125.3571	3201.3579	3215.7643	3801.8702
OC1C2OCC2C11CC1	O[C@@H]1[C@H]2OC[C@H]2C21CC2	
InChI=1S/C7H10O2/c8-6-5-4(3-9-5)7(6)1-2-7/h4-6,8H,1-3H2	InChI=1S/C7H10O2/c8-6-5-4(3-9-5)7(6)1-2-7/h4-6,8H,1-3H2/t4-,5+,6-/m1/s1
