19
gdb 453	4.7647292	0.8272907	0.7968557	1.9136	77.06	-0.25835	0.07346	0.33181000000000005	1493.8351	0.156065	-422.491598	-422.482948	-422.482004	-422.525714	31.632	
C	-1.1755357363	-3.7679008063	 1.86537261	-0.264404
C	-1.2617308428	-2.2869904915	 2.1149455505	-0.270581
C	-0.5440301391	-2.8034067612	 0.8885767462	-0.015894
C	 0.9379717996	-2.6963634607	 0.818305936	 0.069776
O	 1.5970539488	-3.3892216701	-0.2567687289	-0.262342
C	 1.6372016033	-1.9636120776	-0.2492353404	-0.002096
C	 2.9764002733	-1.327640312	-0.0256117226	 0.046439
C	 4.2229113279	-2.0615089568	-0.2858997308	-0.170823
O	 3.7586161927	-1.8395641718	 1.0490996746	-0.231417
H	-0.5126293407	-4.3523072207	 2.4946988992	 0.119973
H	-2.0698457203	-4.2937625458	 1.5512467624	 0.117
H	-2.2139843673	-1.7889200653	 1.9727117434	 0.116372
H	-0.6588078631	-1.8699422732	 2.914984909	 0.11819
H	-1.0472054828	-2.6777617177	-0.0653685718	 0.088215
H	 1.465354495	-2.7825111722	 1.7688729371	 0.108163
H	 1.0390512984	-1.4861315343	-1.0283040211	 0.089634
H	 2.9809852629	-0.2399291856	-0.1145793187	 0.09476
H	 4.1546342904	-3.0911098454	-0.6278622086	 0.134769
H	 5.1237172404	-1.5168872118	-0.5639755258	 0.114268
70.4763	80.517	126.3415	162.7549	239.2712	290.6075	352.1527	438.2379	520.6966	644.9173	767.0889	782.2192	824.9372	842.3774	876.8165	899.8638	911.282	943.6472	956.8848	990.4857	1051.1504	1064.128	1081.1037	1087.4127	1117.1679	1127.333	1154.5889	1164.4015	1168.2647	1198.5387	1209.5629	1225.02	1265.2082	1291.6158	1317.2212	1395.1496	1427.3642	1470.455	1494.5356	1511.7949	1519.6943	3084.3135	3093.4336	3104.2242	3114.3404	3133.3274	3137.8267	3155.3832	3193.7908	3212.2873	3227.5594
C1CC1C1OC1C1CO1	C1CC1[C@H]1O[C@@H]1[C@@H]1CO1	
InChI=1S/C7H10O2/c1-2-4(1)6-7(9-6)5-3-8-5/h4-7H,1-3H2	InChI=1S/C7H10O2/c1-2-4(1)6-7(9-6)5-3-8-5/h4-7H,1-3H2/t5-,6+,7+/m0/s1
