19
gdb 2138	2.8465971	1.915369	1.6093656	1.1838	72.72	-0.22097	0.0836	0.30457	920.6698	0.158805	-422.564017	-422.556724	-422.55578	-422.59535	29.484	
C	 0.1609682594	 0.1599439938	-0.292411295	-0.44981
C	 1.4493192756	-0.2345121655	 0.3940553971	 0.424088
C	 1.2723277859	-1.0487226359	 1.6828570958	-0.224533
C	 2.6617634001	-1.3911063592	 2.2916439456	-0.232863
C	 3.7837926429	-0.8239667888	 1.4377363826	-0.126397
C	 3.5496335683	 0.4985625541	 0.7304145265	 0.041031
O	 2.2121132737	 0.9385242399	 0.7040734837	-0.291324
C	 3.5853038165	-0.7705343752	-0.0662575347	 0.041084
O	 2.2664734001	-0.991629108	-0.5077053203	-0.29133
H	-0.4501667037	 0.7697982328	 0.3772982033	 0.127392
H	 0.3872077205	 0.7350043846	-1.1925043091	 0.132705
H	-0.4043346938	-0.7326231595	-0.5711129873	 0.127514
H	 0.6701234542	-0.4635942231	 2.3837855946	 0.104753
H	 0.7129715882	-1.9581332794	 1.445295005	 0.104774
H	 2.7412354411	-0.9906242818	 3.3074931086	 0.107869
H	 2.7832270019	-2.4758457228	 2.3766127698	 0.10785
H	 4.7982766346	-1.0094418108	 1.7785303037	 0.086561
H	 4.2683939772	 1.3064465195	 0.6935463826	 0.105316
H	 4.3350317973	-1.0588462446	-0.7911292924	 0.105319
120.8371	181.1835	276.0642	297.1429	396.4191	442.6498	495.0196	544.8535	648.2313	736.7681	739.1386	763.0383	767.4608	817.1318	852.4003	864.6036	894.1158	923.8605	1002.187	1003.3334	1049.0819	1054.5011	1074.1398	1091.1946	1112.8648	1145.9864	1159.5618	1215.7322	1232.591	1237.7805	1282.9887	1319.7232	1330.6401	1339.9266	1380.5377	1408.6103	1432.1582	1473.0708	1483.7552	1486.1333	1504.942	3038.8215	3054.1293	3059.6959	3069.6116	3102.0136	3135.6276	3142.4836	3150.9579	3197.6431	3207.0037
CC12CCC3C(O1)C3O2	C[C@]12CC[C@@H]3[C@H](O1)[C@@H]3O2	
InChI=1S/C7H10O2/c1-7-3-2-4-5(8-7)6(4)9-7/h4-6H,2-3H2,1H3	InChI=1S/C7H10O2/c1-7-3-2-4-5(8-7)6(4)9-7/h4-6H,2-3H2,1H3/t4-,5+,6-,7+
