19
gdb 5332	3.4416172	1.1184996	0.9592992	2.482	76.87	-0.24362	-0.00622	0.2374	1281.1176	0.156795	-422.547866	-422.539179	-422.538235	-422.581484	32.549	
C	 1.6010566376	-0.7974107449	-0.687412812	-0.376655
C	 0.8611190618	 0.2789009142	 0.1276303969	-0.296706
C	 1.5413482048	 1.6145841077	 0.0991361063	 0.337716
C	 1.0974349808	 2.7609561504	-0.4276315726	-0.249308
C	 2.0541957899	 3.9278390131	-0.2237957062	 0.089717
O	 1.4743038733	 5.0025967669	 0.4978338065	-0.434744
C	 3.2161272328	 3.272090261	 0.5331966401	-0.001455
O	 2.8066611237	 2.8233077755	 1.8335852708	-0.27005
C	 2.8802853177	 1.8640201554	 0.7424615343	-0.064583
H	 2.6178608581	-0.9577155613	-0.3141049273	 0.119635
H	 1.0739641488	-1.7544866659	-0.6318069912	 0.119183
H	 1.673800255	-0.5082332613	-1.7402647278	 0.123847
H	-0.1605602173	 0.3867327775	-0.25201436	 0.108117
H	 0.7758424387	-0.0600476019	 1.1692138503	 0.113683
H	 0.1228751904	 2.9094469159	-0.8804152254	 0.10204
H	 2.3919935995	 4.3562614767	-1.1744037251	 0.09109
H	 1.3233714186	 4.6597286731	 1.3888145983	 0.287558
H	 4.2281123734	 3.659983396	 0.4656756578	 0.101022
H	 3.6202372824	 1.081356982	 0.8784578464	 0.099893
62.9435	116.7357	169.5295	200.0403	243.1602	285.6511	389.1131	454.4966	487.6969	556.6556	583.7974	635.5458	761.6213	787.8025	811.4714	856.8355	875.963	888.9033	923.186	966.2511	999.8975	1051.7185	1065.2168	1075.4043	1095.0154	1109.5118	1185.1538	1249.7378	1255.7274	1271.0023	1291.0862	1302.3379	1351.0919	1362.9066	1408.985	1419.4328	1433.2097	1480.0463	1499.3778	1506.3706	1700.5634	3015.1453	3037.4848	3048.5778	3067.2839	3107.2128	3113.3461	3156.5353	3169.5143	3191.9229	3766.6596
CCC1=CC(O)C2OC12	CCC1=C[C@@H](O)[C@H]2O[C@@H]12	
InChI=1S/C7H10O2/c1-2-4-3-5(8)7-6(4)9-7/h3,5-8H,2H2,1H3	InChI=1S/C7H10O2/c1-2-4-3-5(8)7-6(4)9-7/h3,5-8H,2H2,1H3/t5-,6+,7-/m1/s1
