19
gdb 489	3.6468836	1.3796891	1.2344802	1.0458	74.93	-0.24263	0.05844	0.30107	1069.9661	0.157667	-422.502746	-422.495203	-422.494259	-422.53484	29.374	
C	 1.1496430044	 1.593627608	-0.2800504936	-0.215825
C	-0.3225630445	 1.4770481282	 0.2108260303	-0.286814
C	-0.156930035	-0.0495671727	 0.1739359254	 0.441691
C	 1.3762861882	 0.1219529612	 0.1703834895	-0.294255
O	-0.7706919874	-0.8864307873	 1.1863805204	-0.338207
C	-1.3747716367	-1.7389690179	 0.2012939555	 0.05452
C	-2.7554435051	-1.2507544031	-0.2661565263	-0.097091
O	-2.1490187702	-0.4120571366	-1.2868661023	-0.289527
C	-0.8295407395	-0.8710302808	-0.9458871364	-0.022206
H	 1.2140756112	 1.7085120583	-1.3649589668	 0.108164
H	 1.7732463279	 2.3567542742	 0.1881033959	 0.104455
H	-0.4358991329	 1.8220607756	 1.2424356399	 0.112561
H	-1.1233332865	 1.8947508784	-0.4023990658	 0.116676
H	 1.7615618288	 0.0621078848	 1.1920688541	 0.114858
H	 1.9629588894	-0.5422328067	-0.4707520367	 0.096196
H	-1.2042730755	-2.8010140169	 0.3825888237	 0.090243
H	-3.3940498755	-2.0192795971	-0.7192500775	 0.104389
H	-3.320314105	-0.6779075269	 0.476439177	 0.115642
H	-0.2419348963	-1.1801593126	-1.8127863763	 0.08453
103.3692	120.7251	203.4684	282.5869	342.4713	409.2093	481.5522	522.0724	689.1938	779.318	786.8547	811.0774	830.8253	882.7305	910.5649	919.4511	946.7831	958.7723	979.2634	1004.8333	1025.6668	1069.1489	1070.8369	1102.7504	1145.7387	1162.4017	1179.9305	1195.0598	1203.2137	1231.6865	1241.7083	1260.9181	1271.1961	1289.557	1318.025	1334.784	1358.008	1468.2976	1483.4202	1503.0464	1505.5594	3020.7292	3053.4642	3065.8013	3070.8184	3084.2044	3088.3842	3104.9539	3106.5245	3120.1841	3132.2334
C1CC2(C1)OC1COC21	C1CC2(C1)O[C@H]1CO[C@@H]21	
InChI=1S/C7H10O2/c1-2-7(3-1)6-5(9-7)4-8-6/h5-6H,1-4H2	InChI=1S/C7H10O2/c1-2-7(3-1)6-5(9-7)4-8-6/h5-6H,1-4H2/t5-,6+/m0/s1
