19
gdb 1231	4.7983612	0.5766939	0.5585628	1.6808	84.04	-0.25233	0.01561	0.26794	2038.4553	0.153609	-422.505825	-422.495278	-422.494334	-422.54285	36.692	
C	 2.2480980303	-5.8126982465	-0.4036678301	-0.384641
C	 3.3968056824	-4.8054403033	-0.2464910278	-0.023043
O	 4.3866181962	-5.2744296167	 0.6659477796	-0.412518
C	 2.8969520214	-3.4783286214	 0.1277039307	 0.16261
C	 2.46796515	-2.4082128084	 0.4807166563	 0.014127
C	 1.9922619928	-1.117868597	 0.8975173281	-0.17126
O	 0.7927159235	-1.0728036535	 1.6956253888	-0.241926
C	 0.7356327164	-0.5356240147	 0.3768775272	 0.094192
C	 0.5353832508	 0.9513591084	 0.2493926421	-0.419732
H	 1.6931248224	-5.9096501128	 0.5348708923	 0.121686
H	 1.5488004835	-5.4892232142	-1.1800986203	 0.125016
H	 2.6583175195	-6.7890877343	-0.6738819344	 0.126599
H	 3.9265795507	-4.7251453255	-1.2037306919	 0.119788
H	 4.0101332507	-5.2199928263	 1.5515844524	 0.284227
H	 2.7621432295	-0.4215756065	 1.2300567167	 0.113598
H	 0.1705129777	-1.1535113339	-0.3223125718	 0.099953
H	 1.16201976	 1.4913448119	 0.9642106558	 0.129941
H	 0.7838179331	 1.2874980317	-0.7627241471	 0.127655
H	-0.509784261	 1.212975273	 0.4447042733	 0.133726
25.2181	70.5011	80.4233	166.9684	192.5589	206.1495	251.6609	294.238	320.823	346.1865	397.6938	464.3414	517.7366	557.23	603.2386	749.4104	784.9408	862.5304	903.4683	954.398	1019.4501	1039.5951	1064.5775	1078.0568	1102.3565	1161.1556	1169.609	1184.9711	1275.8961	1282.9524	1336.2321	1353.4527	1399.1374	1410.2105	1417.2204	1458.8398	1484.5327	1487.7406	1491.7533	1499.5989	2354.1279	3036.2199	3038.1799	3041.0704	3100.4795	3104.5831	3109.1421	3116.1957	3126.7473	3128.3855	3803.1627
CC(O)C#CC1OC1C	C[C@H](O)C#C[C@@H]1O[C@H]1C	
InChI=1S/C7H10O2/c1-5(8)3-4-7-6(2)9-7/h5-8H,1-2H3	InChI=1S/C7H10O2/c1-5(8)3-4-7-6(2)9-7/h5-8H,1-2H3/t5-,6-,7-/m0/s1
