19
gdb 5884	8.5412773	0.3818528	0.379867	1.6689	83.36	-0.24806	-0.02798	0.22008	2751.2487	0.153754	-422.533935	-422.522913	-422.521969	-422.573014	36.319	
O	 1.6860567946	 0.6958553054	 0.2841001635	-0.407906
C	 0.7087127074	-0.1963532865	 0.7837507683	-0.05469
C	-0.5143551341	 0.5476668266	 1.3583610117	-0.357388
C	-1.5467016326	-0.3630200184	 1.8365890621	 0.095179
C	-2.3721198355	-1.1570287571	 2.2096979166	 0.045141
C	-3.3809719147	-2.0903061696	 2.6948231187	-0.364692
C	-3.8074164877	-1.8017454379	 4.1537500485	-0.260135
C	-4.9331369726	-2.7079069314	 4.5989809667	 0.15633
O	-4.9366686191	-3.3589551505	 5.6106992772	-0.232073
H	 2.0801393368	 1.1566040276	 1.0316039579	 0.284461
H	 0.3939576541	-0.8116329651	-0.0639641268	 0.125199
H	 1.1192206661	-0.8734303523	 1.5466713017	 0.100915
H	-0.1817323309	 1.1986137908	 2.1793101162	 0.117338
H	-0.9120256926	 1.2107884739	 0.5806821583	 0.137957
H	-4.265769823	-2.052112746	 2.0449410893	 0.133597
H	-2.999392635	-3.1171772338	 2.6265933951	 0.141949
H	-2.9671168957	-1.9067237057	 4.8437495908	 0.133458
H	-4.1697220613	-0.766453806	 4.2130114104	 0.133817
H	-5.8031369442	-2.7330834139	 3.8993756538	 0.071541
19.4073	55.1771	57.9309	79.1426	103.3585	130.7935	252.049	273.4742	302.9801	336.8138	394.4059	463.8777	499.9908	543.5193	754.4563	780.9119	803.238	851.3605	990.1369	1009.2843	1051.1125	1075.7733	1083.6934	1094.0193	1166.1033	1170.3335	1197.9949	1263.3389	1295.0817	1303.7083	1312.4678	1364.0117	1396.21	1413.5519	1430.7881	1461.6656	1474.043	1481.616	1510.0941	1839.3354	2368.7174	2845.1928	3003.4835	3009.2981	3013.6721	3029.2385	3047.0242	3055.9449	3095.7061	3117.3129	3817.5309
OCCC#CCCC=O	OCCC#CCCC=O	
InChI=1S/C7H10O2/c8-6-4-2-1-3-5-7-9/h6,9H,2,4-5,7H2	InChI=1S/C7H10O2/c8-6-4-2-1-3-5-7-9/h6,9H,2,4-5,7H2
