19
gdb 5004	3.3850748	1.2432619	1.1100485	3.1661	75.2	-0.23037	-0.01651	0.21386	1159.5092	0.156625	-422.562088	-422.553803	-422.552859	-422.594996	31.726	
C	 1.6918792822	 1.9650080094	-0.7194294045	-0.388568
C	 1.4881054448	 0.4893053968	-0.3556913249	-0.289867
C	 2.0709399256	-0.466912689	-1.3644045002	 0.42849
C	 1.7082296073	-1.9764769984	-1.4094960095	-0.297834
C	 1.9979319649	-1.7107132215	-2.903005077	-0.035186
O	 1.50043274	-0.3479332082	-2.726694504	-0.333329
C	 3.5118096103	-1.4402412425	-2.8789367171	 0.446342
O	 4.3848455951	-1.8712494185	-3.5770330301	-0.322058
C	 3.5821229124	-0.4491408038	-1.69384765	-0.388721
H	 1.1903891436	 2.6121211943	 0.0054900798	 0.117562
H	 2.7517859399	 2.2371488117	-0.7296379688	 0.120351
H	 1.2790618132	 2.1775686617	-1.7094955285	 0.142104
H	 1.9366062224	 0.2704062897	 0.6219046438	 0.10481
H	 0.4166964209	 0.2759556652	-0.265808971	 0.107896
H	 2.3258874611	-2.6927162477	-0.8606894347	 0.108546
H	 0.6445511408	-2.1435571755	-1.2322731514	 0.118744
H	 1.5692549887	-2.2657236575	-3.7343862982	 0.098966
H	 4.2374144284	-0.8131690284	-0.8972662535	 0.124252
H	 3.9282876884	 0.5342503522	-2.01931143	 0.137497
83.6078	114.3029	198.3215	208.3941	300.2195	364.033	438.2585	461.3998	517.2445	558.6956	631.3548	675.7849	764.4226	773.632	818.9527	833.8125	889.8973	935.0856	964.7519	980.7752	1012.3594	1026.0668	1059.5752	1096.9608	1104.1403	1168.3374	1187.3515	1206.4517	1223.1467	1251.0156	1256.0676	1300.1141	1332.8524	1392.0831	1411.0071	1450.1282	1474.2757	1487.1681	1500.179	1509.1786	1884.4446	3027.9778	3044.8093	3062.0803	3065.6869	3069.2099	3112.6558	3122.8705	3124.2421	3136.9106	3156.9203
CCC12CC(O1)C(=O)C2	CC[C@@]12C[C@@H](O1)C(=O)C2	
InChI=1S/C7H10O2/c1-2-7-3-5(8)6(4-7)9-7/h6H,2-4H2,1H3	InChI=1S/C7H10O2/c1-2-7-3-5(8)6(4-7)9-7/h6H,2-4H2,1H3/t6-,7-/m1/s1
