19
gdb 3464	3.327112	1.387332	1.2232124	1.6133	75.52	-0.24406	0.00205	0.24611	1060.4968	0.157732	-422.563164	-422.555157	-422.554212	-422.594963	32.391	
O	 0.3441139395	-0.0085497051	 0.3176817851	-0.439962
C	-0.8018082424	 0.8365409156	 0.2320030111	 0.108267
C	-2.0917861157	 0.0504610634	 0.3366510674	-0.126345
C	-2.9808504561	 0.394306508	 1.2687015789	-0.136565
C	-2.6677145582	 1.5717552958	 2.1760607774	 0.398533
O	-3.6998354001	 1.9096739237	 3.0624295259	-0.496004
C	-1.2025564262	 1.3998153024	 2.6875504036	-0.290297
C	-0.7862161344	 1.9541342688	 1.2922676163	-0.057447
C	-2.1389026302	 2.7275587895	 1.2874844609	-0.2584
H	 0.2707625849	-0.5090451534	 1.1378508553	 0.276365
H	-0.7223029266	 1.2907092446	-0.7643774576	 0.093816
H	-2.24189757	-0.7785467678	-0.3481981157	 0.09836
H	-3.934035666	-0.1123104569	 1.3960950937	 0.091869
H	-3.9189997784	 1.1317545553	 3.5869157106	 0.275333
H	-0.9791697824	 2.1164694478	 3.4817516076	 0.104809
H	-0.8778458827	 0.3980304312	 2.9856080986	 0.075623
H	 0.1385645919	 2.5283859036	 1.2271998863	 0.075982
H	-2.0709987106	 3.6595525894	 1.8546359183	 0.106626
H	-2.6434316962	 2.9000636342	 0.3341018061	 0.099437
140.6508	240.6946	244.9281	313.6351	315.9346	342.7874	415.0446	428.5185	465.4429	487.2824	613.6379	640.0686	706.7335	741.8936	815.6782	870.5861	899.6499	933.979	949.888	969.1173	982.4784	1017.8122	1022.1367	1060.9934	1065.011	1122.9687	1151.6521	1167.5749	1191.3106	1237.1694	1243.2696	1263.2202	1269.558	1320.1462	1351.6991	1361.0096	1390.2729	1421.6317	1476.4709	1508.4937	1690.1541	3025.1939	3044.623	3061.1703	3102.4085	3110.8466	3122.1763	3156.7324	3184.2812	3801.8463	3801.8915
OC1C=CC2(O)CC1C2	O[C@H]1C=C[C@@]2(O)C[C@@H]1C2	
InChI=1S/C7H10O2/c8-6-1-2-7(9)3-5(6)4-7/h1-2,5-6,8-9H,3-4H2	InChI=1S/C7H10O2/c8-6-1-2-7(9)3-5(6)4-7/h1-2,5-6,8-9H,3-4H2/t5-,6-,7-/m0/s1
