19
gdb 1852	2.7277302	1.844863	1.5583382	1.7445	74.51	-0.25304	-0.00722	0.24581999999999998	941.2321	0.158908	-422.56731	-422.56	-422.559055	-422.598357	30.05	
C	 0.0396732747	-0.1295843601	-0.1713723085	-0.468534
C	 1.2997874039	 0.3666273616	 0.5051896633	 0.379998
C	 2.2138336697	 1.3010995025	-0.314463616	-0.240611
C	 3.1622449995	 1.7209316923	 0.8193143275	 0.063567
O	 3.9954808786	 0.5839693825	 1.1212050671	-0.276182
C	 3.2484448487	-0.524711475	 1.5794705054	 0.027297
O	 2.097941754	-0.8070408186	 0.8091523408	-0.30898
C	 2.1702195529	 1.9883036028	 1.9514720996	-0.109514
C	 1.1066230971	 1.2033016182	 1.7752570324	-0.120143
H	-0.5265536665	-0.781498049	 0.5007396978	 0.122776
H	-0.5950970048	 0.7138765348	-0.4592072323	 0.117096
H	 0.290173672	-0.7018843519	-1.0689609693	 0.127669
H	 2.7290561768	 0.7753290121	-1.1206978279	 0.103793
H	 1.6586432689	 2.1563003554	-0.7101438009	 0.095248
H	 3.8478299921	 2.5382839167	 0.5929806183	 0.077634
H	 3.9015225915	-1.3967165393	 1.4987975143	 0.114988
H	 2.9629546856	-0.370337018	 2.6302906688	 0.085726
H	 2.3734365956	 2.6315356084	 2.7989307419	 0.105623
H	 0.2656931395	 1.0791602346	 2.4476856577	 0.102549
210.1374	223.553	284.7723	329.0004	341.852	403.7943	435.2737	493.0805	584.1467	591.7359	675.4715	778.8247	798.8838	818.4249	855.1358	867.5223	912.8034	947.5362	963.1048	978.7335	1008.4306	1014.0711	1083.7152	1098.1821	1132.2713	1159.6829	1173.4404	1221.8622	1243.8345	1277.747	1300.5928	1305.0618	1359.1323	1370.9345	1411.618	1442.5642	1472.4587	1480.5193	1495.183	1514.2157	1654.1722	2991.0015	3040.8889	3061.4308	3102.1855	3109.0504	3114.3496	3118.9328	3126.3823	3191.062	3217.2898
CC12CC(OCO1)C=C2	C[C@]12C[C@H](OCO1)C=C2	
InChI=1S/C7H10O2/c1-7-3-2-6(4-7)8-5-9-7/h2-3,6H,4-5H2,1H3	InChI=1S/C7H10O2/c1-7-3-2-6(4-7)8-5-9-7/h2-3,6H,4-5H2,1H3/t6-,7+/m1/s1
