19
gdb 925	5.0508798	0.7881399	0.7513101	3.4974	77.32	-0.23647	-0.02275	0.21372000000000002	1529.5437	0.154782	-422.527712	-422.518634	-422.517689	-422.562963	32.665	
O	 0.2274574226	-1.2079943552	 0.2166049359	-0.239802
C	 0.3815129208	-0.0453926591	-0.0591954153	 0.154276
C	-0.3098121217	 0.6612378942	-1.2077860455	-0.293288
C	-1.040107	 1.9203844294	-0.747371753	 0.13138
C	-1.5112242287	 2.9125293872	-1.8354461044	-0.388614
C	-0.5602164776	 3.8827997882	-1.143586171	 0.468519
C	 0.3758122248	 4.8990011019	-1.7035061383	-0.331639
C	-0.7529169302	 5.3125332052	-0.7646321259	-0.33192
O	-0.1292673034	 2.9043855521	-0.1912617136	-0.320697
H	 1.0618717835	 0.6043288272	 0.5323609895	 0.098171
H	 0.4579782473	 0.9555873316	-1.9364404175	 0.121939
H	-1.0039400651	-0.0364831368	-1.6867749394	 0.120886
H	-1.8159633781	 1.6629757888	-0.0153579231	 0.09249
H	-1.2332006091	 2.635006892	-2.8550525975	 0.113722
H	-2.569171559	 3.1785875997	-1.8049043839	 0.117651
H	 1.3841891437	 4.9131513664	-1.303682791	 0.126796
H	 0.299782003	 5.153252724	-2.7560357301	 0.116248
H	-0.4794123886	 5.5954801662	 0.2461493495	 0.127855
H	-1.602165074	 5.8498686072	-1.1747004754	 0.116026
36.8119	66.8547	78.0299	172.3476	275.5767	291.2925	326.8039	419.8795	453.6953	507.3714	563.5274	754.7807	777.0393	831.224	837.2391	884.616	912.1232	917.3848	951.0428	982.483	994.618	1049.2043	1068.9839	1073.5421	1088.3582	1123.5148	1164.678	1186.9416	1218.3118	1233.665	1247.6496	1277.3188	1334.3857	1364.6552	1402.2865	1422.9985	1447.8639	1449.1136	1488.3757	1505.7823	1830.6926	2907.2798	3017.3534	3028.6714	3068.908	3097.8748	3124.9418	3126.5242	3129.1725	3210.1528	3224.3064
O=CCC1CC2(CC2)O1	O=CC[C@@H]1CC2(CC2)O1	
InChI=1S/C7H10O2/c8-4-1-6-5-7(9-6)2-3-7/h4,6H,1-3,5H2	InChI=1S/C7H10O2/c8-4-1-6-5-7(9-6)2-3-7/h4,6H,1-3,5H2/t6-/m1/s1
