19
gdb 4447	2.6946225	1.2519301	1.1979987	2.4034	76.08	-0.25153	-0.02046	0.23106999999999997	1137.4459	0.157361	-422.578008	-422.569603	-422.568658	-422.61094	32.136	
O	-1.1394673453	 2.1498799498	 1.3567465744	-0.432461
C	-0.8112557701	 0.8625227485	 0.8510277398	 0.133231
C	-1.9430812607	 0.2405912842	 0.0010874089	-0.269398
C	-2.8328395302	-0.5384731892	 0.998614705	-0.296268
C	-1.8926527107	-0.9558306678	 2.1202955676	 0.263219
C	-0.5684952004	-1.5859546218	 1.7172089366	-0.354208
C	-0.5981502181	-0.1220647197	 1.9937987196	-0.099959
C	-2.4281804309	-1.2508019183	 3.4617426002	 0.076223
O	-3.5956653457	-1.1858328437	 3.7661643228	-0.271185
H	-1.921758726	 2.0612305588	 1.9128313559	 0.282871
H	 0.0988573746	 1.019798625	 0.2638069152	 0.093975
H	-2.4832281747	 1.0202565267	-0.5403190182	 0.115208
H	-1.5202628408	-0.4360991555	-0.7481614927	 0.106823
H	-3.6214695735	 0.0922659525	 1.4224541643	 0.119825
H	-3.3348662618	-1.3909627919	 0.5319987635	 0.112213
H	-0.0822455953	-2.2147940056	 2.4566475397	 0.125253
H	-0.4753558375	-1.9484780328	 0.6991286657	 0.126692
H	-0.0924477517	 0.2524101401	 2.8773444979	 0.104195
H	-1.6530933208	-1.5368805295	 4.2117810839	 0.063752
78.473	163.3059	197.7581	213.1863	297.7609	351.0834	365.2755	414.209	455.6595	480.7435	635.3628	717.3941	746.697	794.4422	822.1805	832.8674	917.4912	941.422	981.3867	1006.6176	1033.1521	1036.6577	1067.394	1080.604	1090.2734	1108.694	1168.2404	1206.1597	1251.623	1278.0325	1282.6444	1309.4375	1331.4847	1342.3718	1389.29	1429.7266	1437.3165	1480.4349	1495.6497	1509.8865	1806.2945	2850.0299	3052.8432	3054.1486	3070.0579	3090.1212	3113.7066	3129.7192	3174.3216	3213.6882	3799.6467
OC1CCC2(CC12)C=O	O[C@@H]1CC[C@]2(C[C@@H]12)C=O	
InChI=1S/C7H10O2/c8-4-7-2-1-6(9)5(7)3-7/h4-6,9H,1-3H2	InChI=1S/C7H10O2/c8-4-7-2-1-6(9)5(7)3-7/h4-6,9H,1-3H2/t5-,6+,7-/m0/s1
