19
gdb 4107	3.7882879	1.1856831	1.0295233	4.3473	74.96	-0.26332	0.01631	0.27963	1198.6476	0.157992	-422.599691	-422.591584	-422.59064	-422.633197	30.523	
C	-4.133689558	-1.5317210271	-1.3729656427	-0.408059
C	-2.7677211292	-0.858899491	-1.4364946181	 0.013605
C	-2.7911961463	 0.7039861365	-1.441620113	-0.262393
C	-2.1842391064	 0.7261448082	-0.0061866741	-0.031226
C	-0.7725815846	 1.2705431348	 0.1578202025	-0.379785
C	 0.1425333684	 0.0826797276	-0.1470734964	 0.414562
O	 1.3300558372	 0.0829543496	-0.2843342668	-0.329749
O	-0.5978858794	-1.0604046065	-0.2348447011	-0.221541
C	-1.9994502255	-0.8197068891	-0.0894154998	 0.088456
H	-4.7418544027	-1.1263425785	-0.5555797534	 0.114567
H	-4.6885481743	-1.3761066096	-2.3038157947	 0.122591
H	-4.0366954167	-2.6109346046	-1.213527907	 0.123724
H	-2.1628942755	-1.3003228178	-2.232890554	 0.092167
H	-2.14756522	 1.1627695877	-2.1970283519	 0.107278
H	-3.7866964927	 1.1461378139	-1.5275691356	 0.106136
H	-2.8752588926	 1.0710813036	 0.7627484779	 0.083425
H	-0.5254491575	 2.1003990497	-0.5086654898	 0.140055
H	-0.5596676905	 1.6018691799	 1.179664787	 0.139852
H	-2.3733076538	-1.4555186073	 0.7173850212	 0.086335
35.8416	95.1676	233.0829	250.8958	274.1825	365.4886	420.8559	489.725	555.0125	638.2415	677.9338	765.1372	816.3018	835.6309	865.6502	872.0697	915.5715	920.3132	971.4204	1044.2072	1061.4883	1088.0057	1098.8957	1120.2856	1153.8849	1177.0566	1211.9104	1216.652	1256.313	1266.8739	1285.7562	1299.5123	1328.9123	1344.2772	1378.3999	1411.2804	1461.0107	1484.5477	1496.5083	1497.7143	1881.8997	3025.5025	3058.2715	3059.6303	3070.7888	3073.3408	3094.1895	3101.9668	3103.5278	3108.8934	3118.164
CC1CC2CC(=O)OC12	C[C@H]1C[C@@H]2CC(=O)O[C@H]12	
InChI=1S/C7H10O2/c1-4-2-5-3-6(8)9-7(4)5/h4-5,7H,2-3H2,1H3	InChI=1S/C7H10O2/c1-4-2-5-3-6(8)9-7(4)5/h4-5,7H,2-3H2,1H3/t4-,5+,7+/m0/s1
