19
gdb 964	5.4516135	0.6513229	0.616872	1.5993	80.4	-0.23427	-0.02763	0.20664000000000002	1768.1172	0.155527	-422.563726	-422.554292	-422.553348	-422.599982	32.165	
O	 0.5141402456	-1.0631376273	 0.1869820647	-0.232275
C	 0.4547212181	 0.1341324353	 0.0837523326	 0.160223
C	-0.1593635721	 0.8767458137	-1.0809308988	-0.270394
C	-1.250029048	 1.8690836551	-0.610294142	-0.333018
C	-1.8143718468	 2.6961955999	-1.7241036903	 0.319986
C	-3.047513717	 2.6809655138	-2.2238863902	-0.211314
C	-3.1772290391	 3.6905012526	-3.3261743303	-0.101783
O	-1.8891768399	 4.2940277762	-3.4324820658	-0.263161
C	-1.0092284296	 3.7390102176	-2.4641824535	-0.14943
H	 0.86445579	 0.798577277	 0.8821134349	 0.0708
H	 0.6481572636	 1.4324909889	-1.5776093629	 0.125467
H	-0.5620047645	 0.1522762474	-1.7934268562	 0.130281
H	-2.0569950496	 1.3114880988	-0.1236406776	 0.122346
H	-0.8164705849	 2.5292892561	 0.154803294	 0.11323
H	-3.8655569912	 2.0500475702	-1.8981127318	 0.10222
H	-3.4541375296	 3.2340585977	-4.2897814499	 0.107088
H	-3.9350483915	 4.459627956	-3.10562281	 0.105843
H	-0.1245528794	 3.3170224149	-2.9680053174	 0.102836
H	-0.642941634	 4.5285535661	-1.7859643094	 0.101058
46.9164	58.301	72.4836	103.5917	129.0087	264.9592	286.4002	334.5379	459.9382	534.2459	653.0241	760.492	777.8127	833.2115	846.0358	914.6335	926.7608	972.0204	987.0653	1022.2003	1057.7194	1067.8765	1095.1355	1115.2431	1172.2152	1188.3087	1211.2966	1226.7626	1264.3739	1284.0153	1328.6438	1363.0425	1373.41	1397.3115	1429.0895	1463.4677	1487.4712	1516.0658	1528.9821	1729.2409	1838.747	2845.1571	2956.5308	2971.2427	2975.7186	2986.3443	3006.6597	3022.5395	3072.9021	3110.6766	3210.2259
O=CCCC1=CCOC1	O=CCCC1=CCOC1	
InChI=1S/C7H10O2/c8-4-1-2-7-3-5-9-6-7/h3-4H,1-2,5-6H2	InChI=1S/C7H10O2/c8-4-1-2-7-3-5-9-6-7/h3-4H,1-2,5-6H2
