19
gdb 5757	4.3395905	1.1037123	1.069814	2.6612	74.69	-0.24245	0.0549	0.29735	1206.6082	0.156417	-422.485957	-422.477992	-422.477048	-422.51853	30.548	
C	 1.3288064604	-0.1624266977	 1.1001998478	-0.382644
C	 0.8946430031	 0.2611199833	-0.3059519592	-0.204113
C	 1.7284938688	-0.3992261269	-1.389968758	 0.160301
O	 1.5709176646	-1.8554393994	-1.378465941	-0.30751
C	 1.0499300776	-1.8551969042	-2.710430012	 0.095589
C	 2.0928250243	-2.0098556845	-3.862622975	-0.007297
O	 3.2759275893	-1.3106825984	-3.4758849066	-0.219342
C	 2.1901755917	-0.5394925078	-3.9878495878	 0.001958
C	 1.1749260972	-0.3211042462	-2.8358088791	-0.162051
H	 1.2659621617	-1.2490872852	 1.2045340207	 0.138407
H	 2.3639274637	 0.134843995	 1.3008850779	 0.115191
H	 0.6938656729	 0.2938862024	 1.8653557271	 0.10982
H	-0.1617601755	 0.0093866818	-0.4632200348	 0.095661
H	 0.9835370775	 1.3497072916	-0.4242408393	 0.093998
H	 2.7872553871	-0.1354024928	-1.2931118201	 0.092582
H	 0.1191914299	-2.4152408055	-2.8323343262	 0.082368
H	 2.2053736126	-2.8062124774	-4.5901718169	 0.105823
H	 2.3888512911	 0.0912560583	-4.8466659657	 0.108087
H	 0.3235523221	 0.3264855936	-3.0385871019	 0.083172
95.6189	135.9973	167.5198	242.7212	293.9416	343.7838	375.2715	540.1005	626.8464	725.93	764.4837	780.2047	820.3694	870.0425	878.3584	880.5887	906.6971	937.9292	961.9968	986.706	1000.6822	1030.6724	1050.0342	1083.4123	1097.4826	1137.9967	1164.6407	1199.8352	1218.6399	1241.3389	1262.319	1274.5186	1298.4582	1312.1401	1345.379	1371.6155	1403.0566	1409.3267	1475.6454	1497.8828	1509.4671	3015.5848	3037.4631	3043.8589	3062.7894	3078.3879	3104.1084	3121.0138	3130.5068	3173.1796	3189.661
CCC1OC2C3OC3C12	CC[C@H]1O[C@@H]2[C@@H]3O[C@@H]3[C@H]12	
InChI=1S/C7H10O2/c1-2-3-4-5(8-3)7-6(4)9-7/h3-7H,2H2,1H3	InChI=1S/C7H10O2/c1-2-3-4-5(8-3)7-6(4)9-7/h3-7H,2H2,1H3/t3-,4-,5+,6-,7+/m1/s1
