19
gdb 5649	2.0849642	1.3364783	0.9218005	2.8004	77.7	-0.24837	-0.04134	0.20703	1302.7249	0.154036	-422.576381	-422.566693	-422.565749	-422.612167	33.958	
C	 3.1130116651	-2.2031360344	 0.9300972153	-0.378831
C	 1.8165236716	-1.5122590092	 0.4978735403	-0.202186
C	 1.8649959592	-0.9839956766	-0.9319145296	 0.023818
C	 0.5512733978	-0.3612042617	-1.5035557286	-0.379111
C	 0.6575386556	-1.3003709785	-2.7063975582	 0.390247
O	 0.0735709203	-1.4219630817	-3.7399647649	-0.279701
C	 1.8848058949	-2.0360965836	-2.0779421712	-0.232783
C	 3.0986710712	-2.1223096589	-2.9661882308	 0.144604
O	 4.0986866739	-1.4676253319	-2.8120986836	-0.240025
H	 3.0417757325	-2.5683294874	 1.9589586387	 0.116239
H	 3.3424100204	-3.0610913207	 0.2886831992	 0.116797
H	 3.9635772326	-1.5163551986	 0.873227664	 0.128699
H	 0.9719772608	-2.2085558848	 0.5993139394	 0.091938
H	 1.6015571288	-0.6758302213	 1.175150097	 0.103966
H	 2.7140568904	-0.3061451671	-1.0553309364	 0.105564
H	-0.3417035142	-0.5722155574	-0.9038423907	 0.134239
H	 0.5578335979	 0.7049458732	-1.7466423699	 0.139208
H	 1.5871444852	-3.0506465889	-1.7809487082	 0.119725
H	 2.996060476	-2.8295662405	-3.8168159417	 0.097595
33.211	81.0169	101.9369	161.1723	181.4605	219.3626	245.7985	363.0139	374.4173	448.0268	536.7906	630.9337	642.7192	740.2727	785.6142	814.039	891.0066	931.4609	963.8698	998.173	1020.9445	1054.7722	1076.768	1118.8278	1128.469	1136.6794	1189.0125	1224.1657	1236.1802	1290.9787	1306.566	1350.3783	1397.4567	1416.3841	1417.5786	1436.6813	1486.5249	1498.5101	1504.8366	1811.1701	1893.6353	2905.3479	3007.896	3034.6282	3035.9198	3043.6597	3048.1546	3080.8207	3101.0954	3107.0564	3110.2945
CCC1CC(=O)C1C=O	CC[C@@H]1CC(=O)[C@H]1C=O	
InChI=1S/C7H10O2/c1-2-5-3-7(9)6(5)4-8/h4-6H,2-3H2,1H3	InChI=1S/C7H10O2/c1-2-5-3-7(9)6(5)4-8/h4-6H,2-3H2,1H3/t5-,6+/m1/s1
