19
gdb 1643	3.496905	1.3083546	1.1374814	1.6565	74.75	-0.23653	0.07837	0.31489999999999996	1131.0665	0.155567	-422.491279	-422.482907	-422.481963	-422.524216	31.836	
C	-0.2392690397	-3.5728771711	-0.8424109142	-0.471211
C	-0.5702601588	-2.189126954	-1.3576389697	 0.382491
C	-1.5204108229	-2.0025014286	-2.4625924289	-0.221158
O	-1.9034076285	-1.7375551269	-1.1069092215	-0.272421
C	 0.5100939001	-1.1505079478	-1.1250769817	 0.045439
O	 0.1926499968	 0.1265362694	-1.7386552823	-0.296855
C	 0.0753176877	 0.7320849629	-0.4456800227	 0.115922
C	 1.3901925163	 0.71237657	 0.2657952447	-0.31408
C	 0.5058672205	-0.5196556867	 0.2708532239	-0.117105
H	-0.0027170168	-3.5474722867	 0.2270656659	 0.12699
H	-1.0909057674	-4.2417891728	-0.9848343209	 0.133003
H	 0.6265687536	-3.990244264	-1.3673692637	 0.124254
H	-1.4340175153	-1.1209383901	-3.0915851951	 0.131408
H	-1.9866516479	-2.8766184396	-2.9159392334	 0.105655
H	 1.4736414714	-1.539306833	-1.4829828716	 0.07996
H	-0.7353309599	 1.4318342912	-0.28561982	 0.109191
H	 2.3123801632	 0.7336569045	-0.3087343469	 0.114763
H	 1.4214540926	 1.2474501792	 1.2101773985	 0.116802
H	 0.120499835	-0.9811221758	 1.1693248695	 0.106952
84.0373	137.341	172.1628	191.4221	302.0253	332.7444	363.2269	446.4808	484.3873	526.5494	737.8594	766.9982	800.8869	847.7208	874.3399	903.0404	932.6356	945.5341	958.1504	982.7228	1018.9982	1033.1236	1045.0312	1060.0821	1068.4867	1086.1337	1111.3185	1135.426	1176.7592	1206.5463	1233.7809	1245.1781	1298.115	1340.5739	1389.4053	1394.7217	1414.9875	1472.3671	1482.9378	1493.6501	1519.4374	3010.9519	3036.1562	3090.0503	3097.5383	3113.6675	3127.978	3192.464	3193.361	3203.7049	3214.5967
CC1(CO1)C1OC2CC12	C[C@]1(CO1)[C@H]1O[C@@H]2C[C@H]12	
InChI=1S/C7H10O2/c1-7(3-8-7)6-4-2-5(4)9-6/h4-6H,2-3H2,1H3	InChI=1S/C7H10O2/c1-7(3-8-7)6-4-2-5(4)9-6/h4-6H,2-3H2,1H3/t4-,5+,6-,7-/m0/s1
