19
gdb 4121	2.5321803	1.7859688	1.3027277	2.3336	75.	-0.23826	-0.01604	0.22222	1023.5021	0.157746	-422.566918	-422.558976	-422.558032	-422.599458	30.747	
C	-0.4837826522	-2.2281757653	 1.1703793134	-0.393997
C	-0.8919607858	-1.2180841502	 0.1046512161	 0.027576
O	-2.3057436326	-1.000672369	 0.1806841095	-0.289339
C	-2.7306964212	 0.3418221894	 0.0318027177	 0.133932
C	-2.0285928324	 1.2663873595	 1.059027505	-0.254634
C	-0.8595751927	 1.3427277587	 0.0205008786	-0.126355
C	-1.9416930371	 1.0858414009	-1.0766037963	-0.264786
C	-0.0544217491	 0.0763068147	 0.1811767506	 0.389094
O	 1.1432352223	 0.0395267896	 0.3312624369	-0.336211
H	-1.0290741601	-3.1643545358	 1.027923903	 0.124579
H	 0.5892342038	-2.4184196657	 1.1023583365	 0.140212
H	-0.7113886193	-1.8451954458	 2.1694431302	 0.121919
H	-0.6637971315	-1.6416815369	-0.8876496989	 0.108768
H	-3.8203941893	 0.3111023974	-0.0084760931	 0.083648
H	-2.5289344059	 2.2331904368	 1.1530775597	 0.112418
H	-1.8252900545	 0.8553225865	 2.0506396096	 0.112804
H	-0.2155773915	 2.220778791	-0.0237372964	 0.085424
H	-2.4347926993	 2.0177625345	-1.3619342615	 0.113556
H	-1.6635707017	 0.5279541499	-1.9739969006	 0.111391
59.9266	161.7937	210.5848	267.5961	376.4569	399.0487	426.8488	455.5259	469.6423	558.6445	657.7479	761.7544	811.5867	830.8436	870.4103	886.4883	922.1043	946.6979	977.3047	1012.9078	1032.3739	1061.0422	1088.0858	1118.1806	1135.255	1141.8799	1174.7774	1240.3253	1245.1964	1265.8529	1269.0686	1318.6456	1328.3366	1345.6223	1377.225	1398.3038	1472.6183	1485.6195	1495.3771	1503.3326	1821.1786	2964.7526	3050.5961	3063.5144	3066.7942	3104.4537	3118.4299	3122.9968	3124.9476	3126.2423	3143.6756
CC1OC2CC(C2)C1=O	C[C@H]1O[C@H]2C[C@H](C2)C1=O	
InChI=1S/C7H10O2/c1-4-7(8)5-2-6(3-5)9-4/h4-6H,2-3H2,1H3	InChI=1S/C7H10O2/c1-4-7(8)5-2-6(3-5)9-4/h4-6H,2-3H2,1H3/t4-,5-,6+/m1/s1
