19
gdb 5711	2.9424594	1.3061194	1.1171073	2.2749	79.63	-0.20271	0.01302	0.21573	1164.5685	0.155635	-422.518121	-422.509335	-422.508391	-422.551894	32.293	
C	 1.4174673621	 0.022987642	-0.0810398015	-0.230775
O	 0.0109012469	-0.0709940151	 0.0616697149	-0.229122
C	-0.4634811983	 0.5752665771	 1.1924348585	 0.040653
C	-1.8510541941	 1.1457728544	 1.0895002619	-0.392158
C	-0.6640628061	 2.0840319522	 1.1575489808	 0.403435
O	-0.3008955954	 2.7695168454	-0.0236056208	-0.303002
C	 0.2073019887	 4.0620130695	 0.3189444292	-0.129634
C	 0.1328352097	 4.1290112021	 1.8198801191	-0.112243
C	-0.3690933027	 2.9885998834	 2.2864323821	-0.154697
H	 1.9402246369	-0.4132729349	 0.7840032919	 0.099593
H	 1.6838518098	-0.5445916376	-0.9757771307	 0.125181
H	 1.7362049627	 1.0647943069	-0.2033560887	 0.121579
H	-0.1463833461	 0.1341089508	 2.141300429	 0.078212
H	-2.3091108239	 1.0588085179	 0.1103502475	 0.13829
H	-2.5273700668	 1.0707672389	 1.9342823211	 0.11236
H	 1.2364290469	 4.1666797968	-0.0594522898	 0.10622
H	-0.3992798302	 4.8386115401	-0.1725438752	 0.109672
H	 0.4499076899	 4.9889287398	 2.3949417993	 0.107203
H	-0.5501720099	 2.7237322901	 3.3198218211	 0.109232
71.6069	115.0974	143.0728	156.0158	219.2957	312.0399	324.9079	444.5102	457.3198	541.635	642.0554	713.1103	781.1813	806.0312	845.5504	876.1856	897.7617	947.3427	955.0061	1005.0083	1027.7267	1043.9488	1058.0043	1094.103	1118.3956	1127.9822	1173.636	1188.2246	1194.8551	1226.9262	1245.2979	1288.7987	1357.2578	1383.5873	1407.7574	1458.6689	1485.8122	1488.6353	1506.3935	1519.7011	1676.2397	2973.4194	2986.4714	2990.3824	3058.1432	3062.3947	3120.7247	3131.3737	3212.5985	3229.5185	3236.2622
COC1CC11OCC=C1	CO[C@@H]1C[C@@]21OCC=C2	
InChI=1S/C7H10O2/c1-8-6-5-7(6)3-2-4-9-7/h2-3,6H,4-5H2,1H3	InChI=1S/C7H10O2/c1-8-6-5-7(6)3-2-4-9-7/h2-3,6H,4-5H2,1H3/t6-,7+/m1/s1
