19
gdb 911	3.4633983	1.0608989	1.0307189	1.9767	74.95	-0.24946	-0.02691	0.22255	1227.0981	0.157547	-422.548308	-422.540239	-422.539295	-422.58232	30.057	
O	 1.3738650174	-0.4201712358	-0.255116028	-0.236671
C	 0.2208194873	-0.1315294034	-0.0648372438	 0.163291
C	-0.2878709633	 0.6520002595	 1.1258154986	-0.328553
C	-0.9441788489	 1.9586182762	 0.6778209382	 0.014735
C	-1.419884867	 3.0499905166	 1.6723695728	 0.047442
C	-0.17647589	 3.3824398217	 2.5237355869	-0.220216
C	 0.8444065867	 3.5021134069	 1.3468297137	-0.223256
C	-0.1423671876	 3.2006097855	 0.2003837925	 0.064432
O	-1.2987911752	 4.0119991171	 0.5793191422	-0.296939
H	-0.570327979	-0.4217088717	-0.7957797811	 0.075331
H	-1.0457352431	 0.0385673179	 1.634033125	 0.120627
H	 0.5443443073	 0.8096204896	 1.8149039954	 0.124867
H	-1.7486216931	 1.7683903327	-0.0378040756	 0.092487
H	-2.4008615109	 3.0328050458	 2.1477933506	 0.079949
H	-0.3143456985	 4.3236253508	 3.0589201815	 0.11211
H	 0.0740123883	 2.6050731138	 3.2505795629	 0.101114
H	 1.2570172911	 4.5076647386	 1.2487482282	 0.112442
H	 1.6727439271	 2.7912015149	 1.4016893821	 0.111965
H	 0.1833025812	 3.3411068334	-0.8300848123	 0.084845
32.4528	65.7574	172.003	256.4281	295.8823	370.2158	464.6528	519.0941	595.0995	716.2811	749.6456	831.1855	840.0176	853.8886	862.0911	874.2455	923.4947	957.4793	975.2326	1005.7821	1021.8839	1056.7346	1067.9547	1128.0616	1144.4234	1162.3659	1197.0534	1207.2512	1239.7153	1247.4052	1275.3896	1283.0101	1310.1446	1315.1919	1342.5202	1400.0563	1428.7538	1462.3565	1484.8748	1505.1264	1834.3388	2856.3218	3017.3473	3067.0157	3075.5752	3078.1158	3113.1812	3117.3911	3121.1371	3127.1108	3130.9688
O=CCC1C2CCC1O2	O=CC[C@H]1[C@H]2CC[C@@H]1O2	
InChI=1S/C7H10O2/c8-4-3-5-6-1-2-7(5)9-6/h4-7H,1-3H2	InChI=1S/C7H10O2/c8-4-3-5-6-1-2-7(5)9-6/h4-7H,1-3H2/t5-,6+,7-
