19
gdb 2684	2.0297781	1.2231248	0.8583778	1.9818	77.75	-0.24998	-0.02161	0.22837000000000002	1368.0081	0.154801	-422.528628	-422.519211	-422.518267	-422.563631	33.438	
C	 3.3961516147	 1.2029260605	-1.6038945981	-0.414769
C	 3.4658961717	-0.0333191588	-0.7365757431	-0.035574
C	 2.8361114266	-0.019285249	 0.657283966	-0.130478
C	 3.5744562001	-0.6475930447	 1.7738032598	 0.162374
O	 3.5554589641	-0.2508714774	 2.9134926913	-0.273037
C	 2.2615978506	-0.8727452869	-0.479494781	-0.062988
C	 2.2658173879	-2.3695953832	-0.4267686092	 0.051176
C	 3.3695159183	-3.2162787866	-0.9026231367	-0.174232
O	 2.1950652157	-3.0405200681	-1.6901037652	-0.232359
H	 4.1736020984	 1.9228948803	-1.3291734181	 0.129286
H	 3.5308255034	 0.9443808975	-2.6593965329	 0.132007
H	 2.4267998796	 1.7009502859	-1.502993947	 0.123554
H	 4.4108746509	-0.5689456254	-0.7855081209	 0.095035
H	 2.2693112185	 0.860608006	 0.9437421076	 0.106463
H	 4.1847098035	-1.5353050426	 1.4867352227	 0.068015
H	 1.3247896323	-0.4775708064	-0.8673835099	 0.111081
H	 1.6011489451	-2.7988565108	 0.3252838718	 0.105768
H	 4.2718441245	-2.7616375853	-1.3067434889	 0.118593
H	 3.5055527543	-4.2074471152	-0.4713859782	 0.120086
56.6134	85.6009	134.0053	179.1654	197.3695	237.7817	257.1359	342.8477	378.337	456.0003	531.004	542.9793	779.0476	808.9289	856.5407	878.6644	918.6989	969.399	984.3966	1046.6378	1048.303	1063.6735	1100.8445	1124.2008	1128.464	1145.1921	1163.1662	1178.7476	1194.3569	1225.7506	1294.3427	1306.5918	1349.9457	1416.7009	1431.5393	1436.323	1471.2187	1490.1851	1502.1189	1528.0989	1815.7202	2860.9221	3034.5022	3085.5457	3093.199	3102.0174	3104.9104	3130.3194	3143.6506	3171.3273	3173.3067
CC1C(C=O)C1C1CO1	C[C@H]1[C@H](C=O)[C@@H]1[C@@H]1CO1	
InChI=1S/C7H10O2/c1-4-5(2-8)7(4)6-3-9-6/h2,4-7H,3H2,1H3	InChI=1S/C7H10O2/c1-4-5(2-8)7(4)6-3-9-6/h2,4-7H,3H2,1H3/t4-,5-,6-,7+/m0/s1
