19
gdb 5443	4.6826121	1.0859714	1.0591007	1.4043	75.27	-0.23822	0.08632	0.32454	1203.8585	0.157636	-422.492281	-422.484635	-422.48369	-422.524488	29.797	
C	 1.4384542435	-0.0404327252	 0.0094446256	-0.236762
O	 0.029751072	 0.0138578341	 0.1099357288	-0.255292
C	-0.4017876107	 0.6616358378	 1.2637362806	 0.109152
C	-0.5973131507	 2.1639909893	 1.1741543073	-0.108731
C	-1.7919340075	 1.2123063017	 1.1777083611	-0.110455
C	-2.4269899027	 1.6730508334	 2.5064699827	 0.045556
C	-2.4173477697	 3.2201957856	 2.3722067753	-0.215042
C	-0.9035873569	 2.8959333752	 2.4970549245	 0.046052
O	-1.2739204249	 1.8025802187	 3.3962768456	-0.291703
H	 1.8841270817	-0.572699642	 0.8632324137	 0.10868
H	 1.6752666803	-0.5826593608	-0.9089061077	 0.126119
H	 1.8821869963	 0.9645769972	-0.040162081	 0.106724
H	-0.0470900452	 0.2288598912	 2.1966212107	 0.107238
H	-0.280141955	 2.701450659	 0.2893864885	 0.095061
H	-2.394947059	 1.0163725943	 0.300419045	 0.100759
H	-3.2544202831	 1.1056443831	 2.9314998008	 0.085339
H	-2.7876814591	 3.6747223188	 1.4495926403	 0.095766
H	-2.810070531	 3.714533488	 3.2623799289	 0.108567
H	-0.1691114084	 3.5840153004	 2.9149192692	 0.08297
92.1275	161.265	172.6805	277.588	344.0992	402.277	444.5278	509.131	637.4984	704.5218	793.6583	848.5234	858.2982	859.6023	868.0723	925.1512	943.8043	951.0089	972.4669	1009.4359	1046.8104	1070.8014	1087.6189	1096.1752	1111.3144	1161.7369	1174.6911	1179.361	1183.7953	1219.8288	1233.6162	1248.1629	1268.5502	1277.756	1282.6445	1310.592	1414.5537	1480.2039	1484.0891	1486.0438	1508.5619	2983.4412	3033.0199	3063.9142	3118.3492	3124.3203	3127.1422	3128.4577	3141.2865	3193.9441	3202.9341
COC1C2C1C1CC2O1	CO[C@H]1[C@H]2[C@@H]1[C@@H]1C[C@H]2O1	
InChI=1S/C7H10O2/c1-8-7-5-3-2-4(9-3)6(5)7/h3-7H,2H2,1H3	InChI=1S/C7H10O2/c1-8-7-5-3-2-4(9-3)6(5)7/h3-7H,2H2,1H3/t3-,4+,5-,6+,7+
