19
gdb 2146	2.2723554	2.0817268	1.6146108	0.5725	73.97	-0.2381	0.07053	0.30863	934.6872	0.157208	-422.535382	-422.527676	-422.526732	-422.566848	31.314	
C	-0.0595655139	 0.1783900846	 0.3376636221	-0.499102
C	 1.3934720041	 0.0284855501	 0.0011282385	 0.322471
C	 2.036985525	 0.7536592362	-1.1978722367	-0.239283
C	 3.3384210212	-0.069259111	-1.129838752	-0.095397
C	 2.8290628164	-1.502026229	-1.4593183041	-0.295229
C	 2.1402192945	-1.3899998767	-0.102719286	 0.380298
O	 1.6061189255	-2.4992256717	 0.5256234574	-0.48399
C	 3.2504191102	-0.451768517	 0.4261736105	 0.022953
O	 2.3184227914	 0.4178522688	 1.0763247808	-0.335646
H	-0.3438859242	-0.4739887404	 1.1691955253	 0.114292
H	-0.2828817364	 1.2117110871	 0.6224248323	 0.132909
H	-0.6787870988	-0.08331416	-0.5257314843	 0.127249
H	 1.5066893363	 0.6232667912	-2.1454791908	 0.09544
H	 2.1562199854	 1.8182916449	-0.9832432428	 0.1038
H	 4.2445567601	 0.3286425219	-1.5795109874	 0.073239
H	 2.2267408802	-1.6346011604	-2.3623700399	 0.097518
H	 3.6213352512	-2.2550608407	-1.423631096	 0.106892
H	 1.4034388735	-2.2567591767	 1.437176609	 0.2886
H	 4.1415685584	-0.7144469111	 0.9941401742	 0.082986
167.9394	207.6404	221.5149	311.8951	332.7476	366.8154	455.9608	483.1186	529.8351	597.3392	655.4383	696.5077	730.4798	785.6548	832.6963	887.1238	893.5719	926.7649	941.944	966.7427	1004.6088	1028.374	1038.5463	1061.8055	1116.3599	1140.4765	1152.413	1171.3985	1187.844	1228.5641	1237.4168	1273.7316	1294.5164	1323.0419	1345.518	1393.2952	1421.5861	1478.1713	1480.7376	1486.5345	1504.9725	3036.9286	3053.48	3059.5357	3105.1817	3109.9119	3112.2029	3116.2892	3134.1574	3150.756	3788.6892
CC12CC3CC1(O)C3O2	C[C@]12C[C@@H]3C[C@@]1(O)[C@@H]3O2	
InChI=1S/C7H10O2/c1-6-2-4-3-7(6,8)5(4)9-6/h4-5,8H,2-3H2,1H3	InChI=1S/C7H10O2/c1-6-2-4-3-7(6,8)5(4)9-6/h4-5,8H,2-3H2,1H3/t4-,5-,6+,7-/m1/s1
