19
gdb 3806	1.9765235	1.6085109	1.0545786	3.5545	77.87	-0.23015	-0.01995	0.2102	1196.3453	0.154529	-422.530648	-422.521439	-422.520495	-422.564497	33.809	
C	-0.2046970569	 0.0615587043	 0.0230614176	-0.420541
C	 1.2869218297	-0.1788629729	 0.1112841873	 0.147953
O	 1.8502738757	-0.9986527846	-0.9624084637	-0.338079
C	 2.6252061943	-1.7417686529	-0.0066944491	 0.433259
C	 4.0434101331	-2.0550392126	-0.3547277054	-0.488612
C	 1.7037696032	-2.5849630568	 0.8476076535	-0.170791
C	 0.4749943106	-3.2280493594	 0.3173635464	 0.138107
O	-0.042294861	-4.1934734456	 0.8303773217	-0.277808
C	 1.9291944042	-1.0869142425	 1.1523544325	-0.226768
H	-0.5147984837	 0.7398368485	 0.8250630286	 0.125508
H	-0.4498681424	 0.535590529	-0.9328180524	 0.134072
H	-0.7839349709	-0.8593529926	 0.1110854941	 0.130992
H	 1.8136651059	 0.7856388788	 0.1072310984	 0.092016
H	 4.5391140532	-2.5643030787	 0.4761690625	 0.130824
H	 4.0845009128	-2.7128677128	-1.2295858899	 0.140644
H	 4.5971982621	-1.1408655507	-0.589676722	 0.133025
H	 2.2124953099	-3.2021194196	 1.583886652	 0.110465
H	 0.0798892417	-2.7924422667	-0.6208688785	 0.09586
H	 2.3019087487	-0.7876519024	 2.1228411864	 0.109877
80.8176	145.1451	183.4194	194.5098	216.7569	233.218	269.6795	327.4551	402.3106	442.5474	541.0204	578.1348	662.8011	700.444	826.4372	863.0803	873.0059	912.1212	975.2062	986.8649	1033.1589	1053.3853	1074.1932	1087.4129	1107.6232	1139.1716	1164.3284	1194.7366	1244.555	1302.9668	1310.5313	1386.7601	1403.8632	1411.9813	1417.4022	1470.917	1477.7934	1488.6608	1492.2529	1497.7082	1800.7935	2943.3862	3006.4465	3037.4189	3043.8201	3103.0268	3108.1573	3121.6357	3138.0045	3154.8601	3203.407
CC1OC2(C)C(C=O)C12	C[C@@H]1O[C@]2(C)[C@H](C=O)[C@H]12	
InChI=1S/C7H10O2/c1-4-6-5(3-8)7(6,2)9-4/h3-6H,1-2H3	InChI=1S/C7H10O2/c1-4-6-5(3-8)7(6,2)9-4/h3-6H,1-2H3/t4-,5+,6-,7+/m0/s1
