19
gdb 2046	2.8038788	1.4743143	1.2618955	2.2158	74.55	-0.24305	0.07456	0.31761	1067.5197	0.15579	-422.498154	-422.489715	-422.488771	-422.531374	31.504	
C	-1.6492429492	 1.2556474416	-2.3359893185	-0.512085
C	-1.2939073195	 1.8825547834	-1.0281607857	 0.348826
O	-1.1981568988	 3.3179373872	-0.9645772424	-0.291441
C	-2.0624915692	 2.650230258	-0.0319634913	-0.038014
C	-1.1760891755	 2.1589560056	 1.1175876667	-0.34843
C	-0.3286078671	 1.3758177336	 0.0650903471	 0.255869
C	 1.1900493006	 1.519474284	-0.1258964647	-0.127912
O	 1.3681737712	 0.0847785973	-0.1118306046	-0.276135
C	-0.0161030473	-0.1243457673	 0.2251254119	-0.144062
H	-1.9777540226	 0.2204449452	-2.2015745231	 0.127916
H	-2.4543938134	 1.8181852021	-2.8156366977	 0.137565
H	-0.787286231	 1.2495012623	-3.0128108564	 0.137012
H	-3.1029695727	 2.95485704	-0.0186915197	 0.103677
H	-0.6628943383	 2.9406703794	 1.6839631857	 0.11239
H	-1.6939878037	 1.4858131868	 1.8073738068	 0.107347
H	 1.5188065872	 1.9731055763	-1.0682316333	 0.109799
H	 1.7157116138	 2.0050217555	 0.7070546571	 0.100308
H	-0.512067837	-0.8130173506	-0.4708992883	 0.100996
H	-0.1387152573	-0.5071887304	 1.2482012304	 0.096374
68.7685	120.6529	186.9321	193.016	244.2488	315.1444	396.1042	444.0304	460.5111	565.4161	642.7417	759.2138	830.2353	854.8792	869.4298	887.8611	935.8171	972.748	983.9451	985.6466	1033.3955	1046.7096	1092.9828	1110.3422	1134.1813	1152.3667	1165.2809	1199.8481	1215.1129	1217.6524	1265.3225	1303.8054	1309.3048	1380.6793	1401.4811	1453.836	1474.1542	1484.9398	1492.4043	1507.3061	1531.6755	2993.8678	3011.0522	3034.8881	3040.7393	3053.3088	3059.3266	3098.3058	3110.1733	3123.0476	3182.4428
CC12OC1CC21COC1	C[C@@]12O[C@@H]1CC12COC1	
InChI=1S/C7H10O2/c1-6-5(9-6)2-7(6)3-8-4-7/h5H,2-4H2,1H3	InChI=1S/C7H10O2/c1-6-5(9-6)2-7(6)3-8-4-7/h5H,2-4H2,1H3/t5-,6-/m1/s1
