19
gdb 1640	3.3511216	0.9733191	0.8671707	3.6051	77.43	-0.24867	-0.01771	0.23096	1374.976	0.154455	-422.538298	-422.529007	-422.528063	-422.572801	33.742	
C	 3.1372802216	 0.0563867387	-3.8632715208	-0.458467
C	 4.1038230058	 0.1167816227	-2.7004087526	 0.393237
C	 5.4806561044	 0.5897609884	-2.9094441809	-0.224274
O	 5.1951510048	-0.808486486	-2.7648722276	-0.267266
C	 3.459189896	 0.2421538441	-1.3454217954	-0.100386
C	 3.0594196067	-0.9769195955	-0.5823491329	-0.300342
C	 4.2407493301	-0.144736304	-0.0986675216	-0.114442
C	 4.0691249438	 0.688293787	 1.1104940177	 0.166208
O	 4.9402015906	 0.952233518	 1.901217209	-0.268588
H	 2.4475789507	-0.7856234223	-3.7454268218	 0.13134
H	 2.54133264	 0.9736557241	-3.919862774	 0.123803
H	 3.6768342621	-0.0678548714	-4.8050147954	 0.130701
H	 5.8010981683	 0.8948367243	-3.9043820855	 0.117117
H	 6.0285768825	 1.0389146735	-2.0831996278	 0.123323
H	 2.8053177404	 1.1059724826	-1.2478873188	 0.098418
H	 2.1451886408	-0.9481565936	 0.0012029144	 0.123145
H	 3.3124988782	-1.9451473957	-0.9985215512	 0.141161
H	 5.228601365	-0.5633503038	-0.2496323338	 0.125335
H	 3.0295895381	 1.0764152487	 1.2477471789	 0.059976
62.386	82.9777	164.7339	184.7543	204.8412	276.0423	310.2699	356.2789	375.742	450.8806	522.2017	543.5613	689.5036	816.8006	854.8094	874.201	902.2849	916.2817	950.8611	985.6432	1022.9234	1046.6073	1079.1678	1094.4527	1129.8256	1131.5976	1140.3228	1171.1452	1176.2787	1215.9385	1240.2693	1295.8555	1385.0751	1414.697	1418.5867	1444.1719	1479.1049	1485.5272	1496.6372	1528.0627	1823.7857	2826.1276	3037.9032	3088.531	3102.5343	3127.3111	3134.0878	3137.1368	3177.8474	3196.6935	3229.2579
CC1(CO1)C1CC1C=O	C[C@@]1(CO1)[C@H]1C[C@@H]1C=O	
InChI=1S/C7H10O2/c1-7(4-9-7)6-2-5(6)3-8/h3,5-6H,2,4H2,1H3	InChI=1S/C7H10O2/c1-7(4-9-7)6-2-5(6)3-8/h3,5-6H,2,4H2,1H3/t5-,6+,7-/m1/s1
