19
gdb 710	3.2164804	1.3479319	1.0424267	4.495	75.31	-0.2559	0.01571	0.27161	1150.4911	0.159071	-422.579322	-422.571448	-422.570504	-422.612073	30.372	
O	-2.6132034028	-1.216200648	 1.3854522708	-0.314359
C	-1.5521928836	-1.1853097807	 0.8205573008	 0.379213
C	-0.4501317007	-2.1649330128	 1.260207106	-0.302729
C	 0.9886035721	-2.0885986831	 0.7305464419	-0.263029
C	 1.0529776897	-2.2652413351	-0.7731033017	 0.012077
C	 1.9087869155	-1.3755472036	-1.6341746835	-0.321152
C	 0.4074526869	-1.191457399	-1.6152105435	-0.025063
C	-0.1818866764	-0.0165047653	-0.883683143	-0.092721
O	-1.4184349255	-0.3162988384	-0.2126864851	-0.226408
H	-0.4598429565	-2.1148539243	 2.3533529486	 0.137509
H	-0.867424744	-3.1505478271	 1.0166197691	 0.141638
H	 1.4589726031	-1.1467237823	 1.030468827	 0.10602
H	 1.5715418668	-2.8747972829	 1.2240718112	 0.107507
H	 0.9152400688	-3.2867902957	-1.1166201568	 0.09195
H	 2.5208289361	-0.6253859654	-1.1424352692	 0.115451
H	 2.3558302534	-1.7932206529	-2.5289177143	 0.120394
H	-0.1445808144	-1.5048183475	-2.4956775017	 0.098045
H	 0.5309475281	 0.4080831982	-0.1699255219	 0.11026
H	-0.4556445569	 0.7812884458	-1.5787125347	 0.125397
49.9805	154.1113	260.7164	264.086	336.4714	361.7402	428.9136	494.6712	522.5303	614.0216	673.7484	718.9613	783.8242	821.7176	859.444	895.0387	936.2419	973.5143	991.6827	1032.6622	1062.1762	1068.9279	1087.717	1124.4585	1136.0683	1176.2493	1213.1808	1222.5845	1244.1549	1272.6506	1293.2391	1351.0668	1365.8642	1385.0888	1416.1897	1437.6917	1455.2327	1491.167	1494.6058	1520.1825	1821.2424	3036.8359	3038.4707	3053.0588	3075.2808	3089.1005	3100.6061	3130.3485	3143.484	3160.695	3217.1515
O=C1CCC2CC2CO1	O=C1CC[C@@H]2C[C@@H]2CO1	
InChI=1S/C7H10O2/c8-7-2-1-5-3-6(5)4-9-7/h5-6H,1-4H2	InChI=1S/C7H10O2/c8-7-2-1-5-3-6(5)4-9-7/h5-6H,1-4H2/t5-,6-/m1/s1
