19
gdb 4883	2.3144725	1.3346281	1.1260079	2.3983	77.39	-0.25083	0.04935	0.30018	1178.7704	0.154655	-422.516375	-422.506769	-422.505825	-422.550532	36.067	
O	 1.3362409934	 0.5312488416	-0.065374727	-0.421429
C	 0.2769818346	-0.2480453727	 0.4428975959	-0.093072
C	-0.8220265955	 0.6358782788	 1.0321750669	 0.368537
O	-0.2498920264	 1.4755480722	 2.0191368458	-0.468867
C	-2.12470288	-0.1270029915	 1.3770535919	-0.292113
C	-2.7253780752	 0.3480071006	 0.0274195984	-0.224457
C	-1.5918376189	 1.4288198961	-0.0822109235	-0.261162
C	-2.0150883922	 2.7668417304	 0.2770246499	 0.361721
C	-2.3957825446	 3.8729887682	 0.5546822175	-0.470642
H	 1.4818690919	 1.2269366259	 0.5894503322	 0.287394
H	-0.1073637785	-0.8578119815	-0.3820940226	 0.10718
H	 0.6219813691	-0.9443716453	 1.2302287795	 0.071534
H	-0.0230155031	 0.9278871542	 2.7801044895	 0.282386
H	-2.0410601108	-1.2037939855	 1.5502483692	 0.097055
H	-2.6258402833	 0.3388128884	 2.2290078396	 0.118409
H	-2.6479348917	-0.4017182684	-0.7626829421	 0.110413
H	-3.7429407011	 0.7365503763	 0.0522021805	 0.118707
H	-1.052200124	 1.4522080305	-1.0330583391	 0.116314
H	-2.7144185238	 4.8536864914	 0.8070048576	 0.19209
69.7868	126.8236	139.9217	199.0328	228.7257	270.8177	337.7076	341.1033	380.6506	468.1091	506.7301	529.0707	569.2684	621.642	625.9436	677.965	742.4798	810.6301	886.3264	905.4944	937.4761	965.1137	1028.5047	1042.2427	1094.1865	1116.6985	1140.172	1174.4741	1207.0597	1227.5794	1255.2651	1268.2258	1276.6021	1326.7945	1354.1962	1378.494	1440.1877	1472.4532	1489.9972	1505.3119	2235.9571	2929.4096	3055.3363	3066.2597	3068.7099	3080.6163	3113.0551	3144.632	3505.4999	3763.3263	3789.4153
OCC1(O)CCC1C#C	OC[C@]1(O)CC[C@H]1C#C	
InChI=1S/C7H10O2/c1-2-6-3-4-7(6,9)5-8/h1,6,8-9H,3-5H2	InChI=1S/C7H10O2/c1-2-6-3-4-7(6,9)5-8/h1,6,8-9H,3-5H2/t6-,7-/m1/s1
