19
gdb 2746	2.7184703	1.6232632	1.4916747	1.1835	74.03	-0.22186	0.05401	0.27587	994.7152	0.157482	-422.494764	-422.486877	-422.485932	-422.526747	30.631	
C	 2.6716219659	 1.3748741128	 0.3384599228	-0.424683
C	 1.798623588	 0.1506032064	 0.1957030359	-0.12394
C	 2.1017792974	-0.9643566947	-0.7784844658	 0.312719
C	 1.0564307323	-1.9030585274	-1.3273152863	-0.325938
C	 0.3107881397	-2.3585208414	-0.0297628248	-0.097157
O	 1.2015926834	-2.1529875006	 1.0884255519	-0.29276
C	 2.1691178345	-1.2354966977	 0.692244589	 0.255429
C	 3.6321881664	-1.5938159289	 0.4291221584	-0.152398
O	 3.5180168683	-1.1727383109	-0.9637021156	-0.324257
H	 2.6356092856	 1.7665519409	 1.3598693804	 0.121185
H	 3.7097462683	 1.1455715017	 0.0878351276	 0.138962
H	 2.3362817462	 2.1661391624	-0.3401935787	 0.121564
H	 0.7318966371	 0.3338974789	 0.3000149983	 0.099267
H	 0.3614503025	-1.4713166108	-2.052834381	 0.113547
H	 1.569863062	-2.7439253145	-1.8019639128	 0.127986
H	-0.6010002867	-1.7651666657	 0.118502901	 0.107945
H	 0.0253072052	-3.4143831978	-0.0460764466	 0.116672
H	 4.4123898797	-1.0422120613	 0.9645346077	 0.108994
H	 3.8103221742	-2.6715542214	 0.5049404187	 0.116864
143.8147	179.4446	227.1739	233.1638	237.8059	358.1961	379.0785	482.2528	564.8741	653.5846	689.7443	736.3661	771.8416	847.2464	855.9617	916.7565	934.3593	964.664	984.4764	1007.7054	1013.6155	1046.8743	1106.0754	1120.5806	1148.535	1158.4201	1196.9959	1213.83	1226.3055	1257.2742	1285.3542	1309.9341	1334.49	1386.837	1410.4212	1452.2936	1488.0964	1490.8076	1502.044	1512.2209	1523.3437	3016.0733	3032.0247	3039.049	3059.6181	3082.2312	3087.8935	3098.9595	3109.3731	3124.6664	3148.1509	143.814	179.4454	227.1738	233.1638	237.8056	358.196	379.0783	482.2528	564.8741	653.5847	689.7444	736.3661	771.8416	847.2464	855.9615	916.7563	934.3592	964.6639	984.4763	1007.7052	1013.6154	1046.8744	1106.0752	1120.5805	1148.535	1158.4202	1196.996	1213.8302	1226.3058	1257.2741	1285.3543	1309.9342	1334.49	1386.8372	1410.421	1452.2936	1488.0969	1490.8073	1502.0437	1512.2208	1523.344	3016.0732	3032.0247	3039.0489	3059.6181	3082.2311	3087.8935	3098.9595	3109.3731	3124.6665	3148.1509
CC1C23CCOC12CO3	C[C@H]1[C@]23CCO[C@]12CO3	
InChI=1S/C7H10O2/c1-5-6-2-3-8-7(5,6)4-9-6/h5H,2-4H2,1H3	InChI=1S/C7H10O2/c1-5-6-2-3-8-7(5,6)4-9-6/h5H,2-4H2,1H3/t5-,6+,7+/m0/s1
