19
gdb 2825	3.051312	1.2792774	1.1849314	2.2427	75.37	-0.19259	0.06219	0.25478	1136.0943	0.154878	-422.48311	-422.474327	-422.473383	-422.515629	34.628	
C	-4.5049020006	 2.1822668949	 0.3684487589	-0.487273
C	-3.3877227607	 1.3325829432	 0.8995389878	 0.350405
C	-3.3291119882	 0.8127667956	 2.3146413632	-0.358538
C	-3.3584009124	-0.1652464298	 1.1622190432	-0.164028
C	-2.0229731853	-0.2716870654	 0.4024086806	 0.44291
O	-1.7887054084	-1.3589057939	-0.4033421902	-0.467853
C	-0.9109890003	 0.5778494469	 0.9376066159	-0.025297
O	 0.2570822116	 0.3227119123	 0.189897256	-0.447552
C	-2.0274720222	 1.239176183	 0.1399325453	-0.272314
H	-5.4482682659	 1.9483639726	 0.8725484145	 0.117452
H	-4.3017589721	 3.250008804	 0.5199505433	 0.116965
H	-4.6498129827	 2.0220415445	-0.7063614413	 0.121078
H	-2.4679591427	 0.9291050755	 2.9625543225	 0.11343
H	-4.2729065279	 0.8852897759	 2.8493079061	 0.108874
H	-4.1494263642	-0.8912286126	 1.0237530106	 0.096989
H	-0.8618036198	-1.2909695928	-0.6739107227	 0.293145
H	-0.710012899	 0.7803289987	 1.9889226392	 0.084503
H	 0.6492276224	 1.1632893348	-0.0677609499	 0.294165
H	-1.806310782	 1.8160918127	-0.7512656231	 0.08294
148.8143	209.1004	215.8663	247.2435	277.3247	300.9249	340.8294	357.7026	426.4777	444.6922	483.2916	514.8384	624.2505	687.8728	806.4769	814.5883	847.3215	881.0083	904.905	939.1597	948.043	984.9609	1023.6064	1053.8025	1079.4326	1083.3721	1101.2538	1118.2652	1137.2788	1174.2614	1237.1464	1257.0639	1290.5598	1339.2922	1379.304	1418.9389	1424.6574	1452.6294	1482.6815	1499.0415	1505.5081	3015.896	3072.6515	3089.1115	3095.8749	3125.8627	3172.241	3195.2286	3203.7398	3745.896	3810.4126
CC12CC1C1(O)C(O)C21	C[C@@]12C[C@@H]1[C@]1(O)[C@@H](O)[C@H]21	
InChI=1S/C7H10O2/c1-6-2-3(6)7(9)4(6)5(7)8/h3-5,8-9H,2H2,1H3	InChI=1S/C7H10O2/c1-6-2-3(6)7(9)4(6)5(7)8/h3-5,8-9H,2H2,1H3/t3-,4+,5-,6+,7+/m0/s1
