19
gdb 6028	3.5759184	0.9506534	0.8113276	3.2925	76.35	-0.24114	-0.01198	0.22916	1416.8435	0.15642	-422.543967	-422.534962	-422.534018	-422.57819	32.884	
O	-0.6914516064	-0.8465239076	-0.5899848028	-0.419181
C	-0.150592188	 0.419504684	-0.2434753846	-0.074302
C	-0.5647755531	 0.8618667722	 1.1644791109	-0.227012
C	-0.0313236991	 2.2507293638	 1.5231815471	-0.129043
C	-0.3010056438	 2.7495902823	 2.9575667289	-0.055406
C	 0.3716688866	 4.0544850245	 3.1645806937	-0.294808
C	 1.2209965996	 2.792640406	 3.2786483633	-0.159642
C	 1.4754870153	 2.2227051086	 1.9212852748	 0.414168
O	 2.4293521232	 1.6979190124	 1.4134758049	-0.328548
H	-0.2300632622	-1.5128997877	-0.0714259058	 0.282279
H	 0.9436616519	 0.4353588788	-0.3306606453	 0.122943
H	-0.548916158	 1.1246229373	-0.982264423	 0.106974
H	-1.6595243746	 0.8575314694	 1.22840501	 0.107416
H	-0.2017428781	 0.1269995966	 1.8965466349	 0.092156
H	-0.3033276113	 2.9747121018	 0.7453826024	 0.090718
H	-1.077777196	 2.3664049499	 3.6062811806	 0.108204
H	 0.5161353597	 4.7352628733	 2.3298776155	 0.123877
H	 0.2040153893	 4.5480645559	 4.1163909281	 0.128795
H	 1.761279685	 2.5602333785	 4.1878939566	 0.110412
81.838	92.5379	120.9816	169.6694	231.0796	290.3838	321.3478	335.6902	460.6898	504.0385	632.434	698.3825	765.3495	784.241	840.792	886.3537	920.8494	930.2017	946.2669	1012.1867	1046.7225	1051.7533	1070.3282	1074.0649	1092.1481	1114.668	1122.4588	1156.7065	1192.8775	1221.3122	1274.8333	1293.6973	1313.734	1327.7203	1360.9925	1405.7899	1420.3926	1489.1137	1495.6128	1517.6855	1863.382	3010.8632	3022.4491	3033.3785	3053.3435	3079.5308	3117.3168	3195.4206	3201.051	3212.2137	3820.8785
OCCC1C2CC2C1=O	OCC[C@H]1[C@@H]2C[C@@H]2C1=O	
InChI=1S/C7H10O2/c8-2-1-4-5-3-6(5)7(4)9/h4-6,8H,1-3H2	InChI=1S/C7H10O2/c8-2-1-4-5-3-6(5)7(4)9/h4-6,8H,1-3H2/t4-,5-,6-/m0/s1
