19
gdb 5791	4.2822738	1.0970194	0.970805	2.625	76.51	-0.24294	0.01449	0.25743	1235.2433	0.158437	-422.553632	-422.545691	-422.544746	-422.586325	30.38	
O	 1.3453644997	 0.8285119123	 0.0135615573	-0.42178
C	 0.4465054649	-0.110515225	 0.5668870879	-0.071498
C	-0.7355397433	 0.6032476996	 1.2041559906	 0.114984
O	-1.3771295457	 1.4550004696	 0.2145451092	-0.324384
C	-2.5637104556	 0.6195500141	 0.189297156	 0.122528
C	-3.8261440965	 1.3594710311	 0.6559924978	-0.275872
C	-3.866314286	 1.0685678225	 2.1395557136	-0.061011
C	-2.9218369079	 0.2097861217	 2.5259324035	-0.086193
C	-2.0365885919	-0.2168002235	 1.3882069834	-0.141465
H	 0.7995893981	 1.422701857	-0.5177207513	 0.291427
H	 0.0799928591	-0.8183326525	-0.1961181657	 0.079866
H	 0.9963045206	-0.6865873665	 1.3200716193	 0.105783
H	-0.4068556742	 1.1952820816	 2.0662510152	 0.085133
H	-2.6753479806	 0.1224564149	-0.7791706159	 0.077444
H	-3.7366769374	 2.4290441629	 0.4317020868	 0.123832
H	-4.7295489645	 1.0004190989	 0.1451308207	 0.10525
H	-4.601412837	 1.5182879844	 2.7982200893	 0.097958
H	-2.7718547634	-0.1383643054	 3.5420126601	 0.097516
H	-1.9283164782	-1.2992977876	 1.2767855821	 0.080484
90.0237	126.7715	149.9347	251.5243	335.9772	364.3071	441.4768	482.7837	561.0104	675.3906	739.559	772.544	822.9401	849.7132	884.9771	904.537	954.1298	973.5772	986.7111	1015.0068	1026.8924	1034.0986	1071.5985	1093.1732	1100.9343	1130.9739	1180.1102	1209.2054	1224.7371	1227.9408	1270.307	1303.7568	1323.0008	1338.6939	1357.0648	1384.9135	1398.0974	1436.589	1466.5773	1500.3645	1677.9412	2959.6239	3018.3521	3041.8494	3055.3017	3063.0532	3066.9828	3070.9236	3182.3043	3206.8723	3771.2036
OCC1OC2CC=CC12	OC[C@H]1O[C@@H]2CC=C[C@H]12	
InChI=1S/C7H10O2/c8-4-7-5-2-1-3-6(5)9-7/h1-2,5-8H,3-4H2	InChI=1S/C7H10O2/c8-4-7-5-2-1-3-6(5)9-7/h1-2,5-8H,3-4H2/t5-,6+,7+/m0/s1
