19
gdb 2910	2.8549317	1.5308195	1.2018334	2.0256	74.04	-0.24244	0.07409	0.31653	1069.7463	0.156891	-422.534655	-422.526527	-422.525583	-422.566673	32.096	
C	-0.7654884874	 1.9090962233	-1.0861409772	-0.486969
C	-0.4256579992	 0.4926722059	-1.4881820526	 0.272796
C	-1.5925077395	-0.4837744363	-1.7298121261	-0.325864
C	-1.1767621377	-1.3823794557	-2.8861468749	 0.044576
O	-0.0321004393	-2.2059037749	-2.6243137387	-0.256428
C	 0.1603103302	-0.9822180745	-3.3565241236	 0.022673
C	 0.6558286638	 0.1750207371	-2.5257724415	-0.140429
C	 0.9062455446	-0.0996400347	-1.0689703941	 0.052992
O	 1.8585202063	 0.7336919314	-0.4689956689	-0.43345
H	-1.3418909713	 1.9272057883	-0.1525729704	 0.111118
H	 0.142138667	 2.4962929528	-0.9304895716	 0.132272
H	-1.3701037629	 2.4056310968	-1.8536197646	 0.114209
H	-1.8526433775	-1.0681736106	-0.8397158138	 0.111573
H	-2.4876548622	 0.0800671742	-2.0190896991	 0.103981
H	-1.9311644201	-1.8362721969	-3.5249892962	 0.094529
H	 0.4984428076	-1.1064893088	-4.3812897665	 0.096677
H	 1.2305961145	 0.9619512545	-3.0001889274	 0.091963
H	 0.9381809889	-1.1421448594	-0.7613527956	 0.106975
H	 1.6649942543	 0.7723398376	 0.4737418329	 0.286805
178.0529	200.9103	214.4499	263.6093	299.8207	323.2987	335.8547	384.3332	442.9728	557.4027	659.2997	715.2987	722.3245	799.9017	856.4408	860.8078	896.8398	930.3334	968.2344	976.9416	998.7655	1025.5947	1060.3149	1094.4744	1107.6143	1126.4905	1146.8633	1197.5394	1221.6625	1248.2084	1265.753	1290.9354	1298.8268	1334.9953	1369.5968	1411.2108	1417.1995	1459.9798	1475.9068	1497.7383	1504.5306	3021.046	3033.2662	3071.2487	3074.9985	3125.5033	3136.0009	3137.1971	3156.9066	3186.9327	3803.1774
CC12CC3OC3C1C2O	C[C@@]12C[C@@H]3O[C@@H]3[C@@H]1[C@H]2O	
InChI=1S/C7H10O2/c1-7-2-3-5(9-3)4(7)6(7)8/h3-6,8H,2H2,1H3	InChI=1S/C7H10O2/c1-7-2-3-5(9-3)4(7)6(7)8/h3-6,8H,2H2,1H3/t3-,4+,5-,6+,7+/m0/s1
