19
gdb 3901	4.1761186	0.8690521	0.8118517	2.926	76.76	-0.2393	-0.01951	0.21979	1423.2894	0.155167	-422.536588	-422.527474	-422.52653	-422.571444	33.199	
O	-3.9594420539	 2.854289513	 1.7438236206	-0.437907
C	-2.8771726413	 3.1730881469	 0.8944845288	 0.146904
C	-2.4840904585	 1.9139495588	 0.0713700915	-0.308888
C	-1.1071741636	 1.9038190592	 0.7597779463	 0.360602
C	-0.356243748	 0.667966413	 1.1936471693	-0.396975
C	 0.2941423778	-0.0373618724	 0.0196150714	 0.167339
O	 1.46022749	-0.3290184163	-0.046728883	-0.239339
C	-0.4237348503	 3.2232646684	 0.5104529461	-0.329737
C	-1.4941085959	 3.1441081873	 1.5662320542	-0.160521
H	-4.1117994606	 3.606418426	 2.3255237605	 0.282362
H	-3.0872887723	 4.0822568371	 0.3115214469	 0.0652
H	-3.1197572877	 1.0802509782	 0.3786271172	 0.120562
H	-2.4945750942	 1.9982330744	-1.0196602155	 0.096576
H	 0.4244060526	 0.9093162963	 1.9215369677	 0.120081
H	-1.0547425074	-0.0395120006	 1.6650423245	 0.121716
H	-0.4023500347	-0.2746239216	-0.8182408406	 0.075451
H	 0.5928569437	 3.3012185019	 0.8835500345	 0.121013
H	-0.6003055965	 3.7741305256	-0.4115907631	 0.107044
H	-1.3016025692	 3.3722388649	 2.6089172026	 0.088518
48.3251	59.5864	107.9088	189.1111	294.2267	328.2704	347.2344	362.5012	423.4467	466.5865	490.4089	657.3359	744.7621	813.2093	826.7956	884.9495	887.2283	940.1005	964.7428	997.7968	1020.7768	1040.0685	1047.1639	1066.4456	1088.2138	1123.3579	1169.7403	1185.2603	1222.2241	1249.884	1258.5063	1291.4278	1302.1359	1327.0897	1386.9514	1423.2324	1430.8205	1454.3186	1475.0386	1502.1706	1834.6829	2860.1556	2982.7996	3004.5773	3051.3962	3090.2173	3100.8195	3116.6319	3172.4273	3195.7182	3810.6104
OC1CC2(CC=O)CC12	O[C@@H]1C[C@@]2(CC=O)C[C@@H]12	
InChI=1S/C7H10O2/c8-2-1-7-3-5(7)6(9)4-7/h2,5-6,9H,1,3-4H2	InChI=1S/C7H10O2/c8-2-1-7-3-5(7)6(9)4-7/h2,5-6,9H,1,3-4H2/t5-,6+,7+/m0/s1
