19
gdb 3270	2.6222667	1.8666934	1.4401233	0.6218	73.61	-0.23894	0.07551	0.31445	968.3914	0.157866	-422.526472	-422.518903	-422.517959	-422.557881	30.696	
C	-0.0874607672	 0.1139422094	 0.2718853316	-0.420603
C	 1.3879961152	 0.1017030136	-0.1145493471	-0.037494
C	 2.1656788174	 1.4370661298	 0.1101217075	-0.096281
C	 3.5691496682	 1.0758771416	-0.4175241155	-0.217062
C	 3.8095825639	 0.0285456848	 0.683588695	-0.024422
O	 3.8107224132	 0.8667549256	 1.8791693203	-0.301518
C	 2.4037754884	 0.9948062318	 1.6370472407	 0.00883
C	 2.3078087721	-0.4172751243	 0.9940415397	 0.421789
O	 2.0396961137	-1.6165238034	 1.6247285529	-0.489701
H	-0.2498850233	 0.5726867419	 1.2526482409	 0.116773
H	-0.675005508	 0.6758532059	-0.4612764296	 0.11276
H	-0.4837205157	-0.9048306746	 0.3175056434	 0.129906
H	 1.5174998795	-0.3463443333	-1.106162719	 0.06608
H	 1.7247818247	 2.3961233243	-0.1525839871	 0.070956
H	 3.5468316594	 0.6764680678	-1.4347815644	 0.098991
H	 4.3072218954	 1.8781407997	-0.3498849709	 0.106732
H	 4.6474451544	-0.6664222565	 0.628022697	 0.077565
H	 1.8221217813	 1.4191992039	 2.4525066869	 0.086518
H	 2.6254688874	-1.6933173678	 2.3873123476	 0.290181
195.1064	206.4108	219.4601	282.3285	334.1993	366.6165	462.819	492.2872	532.6842	639.7011	695.5803	747.0409	771.7177	842.7942	868.4774	923.7464	929.2057	945.016	963.9274	984.6216	1003.1158	1025.6356	1055.7854	1081.235	1089.7899	1119.8868	1148.1201	1172.3799	1205.8635	1226.3076	1237.3926	1250.6007	1286.5657	1315.3654	1351.0471	1355.184	1411.529	1424.9362	1486.8972	1494.4407	1501.0801	3036.4501	3038.8135	3065.3871	3102.9461	3109.1488	3120.0762	3124.2549	3139.1328	3148.85	3789.8229
CC1C2CC3OC2C13O	C[C@H]1[C@@H]2C[C@H]3O[C@@H]2[C@@]13O	
InChI=1S/C7H10O2/c1-3-4-2-5-7(3,8)6(4)9-5/h3-6,8H,2H2,1H3	InChI=1S/C7H10O2/c1-3-4-2-5-7(3,8)6(4)9-5/h3-6,8H,2H2,1H3/t3-,4-,5+,6-,7+/m0/s1
