19
gdb 5449	3.1170044	1.2373564	1.1393242	2.3402	74.43	-0.22969	0.06826	0.29795	1159.6652	0.156035	-422.493812	-422.485282	-422.484338	-422.527028	32.342	
C	-1.5236421889	 3.0466845849	 2.5479085924	-0.506142
C	-1.5390404927	 1.5760193925	 2.3102315566	 0.480082
O	-2.1407547092	 1.0704833795	 1.110536621	-0.325114
C	-2.0768365856	-0.2481531231	 1.7281140551	 0.030978
C	-1.9096419378	 0.3993477196	 3.1485740456	-0.201076
C	-0.4471022039	 0.5667935294	 2.7306054323	-0.194885
C	-0.559266512	-0.5914478984	 1.7280451149	-0.000358
C	 0.213306826	-0.5543497094	 0.4170406906	-0.098128
O	 1.6191725946	-0.6518999868	 0.6218188845	-0.423153
H	-1.085681301	 3.2677026107	 3.5258077927	 0.127374
H	-0.9271994075	 3.5568542252	 1.7839029945	 0.132587
H	-2.5378822306	 3.456838713	 2.5220201915	 0.134216
H	-2.8470909955	-0.9302056011	 1.3741565755	 0.085272
H	-2.3912501873	 0.2730044325	 4.1081192695	 0.099787
H	 0.3885852249	 0.8429340073	 3.3623782419	 0.086921
H	-0.3931688732	-1.5408153801	 2.2480350581	 0.082369
H	-0.0560343239	-1.4189064409	-0.200727034	 0.103756
H	-0.0538223727	 0.3507880263	-0.1431854917	 0.103628
H	 1.8996996263	 0.149657689	 1.0745574191	 0.281887
66.9078	164.0685	171.7902	203.6047	267.9109	295.915	311.2101	414.0837	556.561	599.6482	628.3225	739.2759	769.7313	793.9136	825.8949	879.8558	889.947	917.7629	931.5636	961.1993	1012.0595	1033.4733	1061.9482	1074.0903	1096.9439	1104.6702	1130.1697	1147.9341	1185.1947	1208.8102	1227.9511	1258.2724	1302.5347	1352.9963	1395.6421	1400.7147	1419.3013	1456.9093	1473.7229	1501.1885	1508.0575	3021.658	3035.9359	3056.2029	3075.0816	3102.0398	3115.1624	3143.8546	3186.4558	3211.178	3817.0508
CC12OC3C1C2C3CO	C[C@]12O[C@@H]3[C@H]1[C@H]2[C@@H]3CO	
InChI=1S/C7H10O2/c1-7-4-3(2-8)6(9-7)5(4)7/h3-6,8H,2H2,1H3	InChI=1S/C7H10O2/c1-7-4-3(2-8)6(9-7)5(4)7/h3-6,8H,2H2,1H3/t3-,4+,5+,6-,7+/m0/s1
