19
gdb 2680	2.1067976	1.3612627	0.960041	4.2594	78.56	-0.23222	-0.01252	0.2197	1276.0244	0.15498	-422.531282	-422.522015	-422.52107	-422.565762	33.126	
C	 1.0752582508	 1.22367521	-0.0758425914	-0.41517
C	 0.9257826669	-0.2768824325	 0.0277012651	-0.116993
C	 1.9462492499	-1.0993253417	 0.8472371363	-0.212578
C	 1.4452433255	-2.1967028126	 1.7009593081	 0.168433
O	 1.950513908	-2.5329917308	 2.7454793906	-0.277906
C	 1.8285437344	-1.2145468026	-0.6660166463	 0.442168
C	 2.9286559851	-1.0001032627	-1.699777706	-0.35936
C	 2.416353977	-2.3393243946	-2.2756368038	-0.074947
O	 1.3547655296	-2.4034961447	-1.2907874315	-0.30195
H	 0.7094602612	 1.7193894621	 0.8289566959	 0.132248
H	 2.1227046659	 1.5106118068	-0.2115871368	 0.121924
H	 0.5080487853	 1.6145556847	-0.9274945339	 0.127244
H	-0.0961643806	-0.6411557878	 0.1198041355	 0.107552
H	 2.8149404818	-0.5767528154	 1.2375411139	 0.101482
H	 0.5418173157	-2.7113315728	 1.3052553864	 0.080618
H	 2.7846289184	-0.1335331586	-2.3484055984	 0.121536
H	 3.9502358184	-1.0043889341	-1.3175247635	 0.12499
H	 2.0166251676	-2.3075743385	-3.2940303583	 0.114375
H	 3.106381509	-3.1845074042	-2.1798113217	 0.116334
72.8603	103.5784	150.8473	175.1098	192.2721	223.137	233.7396	355.6314	442.0648	473.3233	544.3407	570.3288	770.8526	804.1895	865.6299	913.0595	934.0836	965.4449	999.8171	1019.5006	1041.3452	1061.7563	1074.2136	1106.7356	1121.5774	1163.3602	1171.0729	1193.9435	1212.6059	1246.3677	1265.1517	1314.6677	1361.5099	1416.4578	1433.8534	1466.7623	1490.699	1492.7338	1503.6509	1533.6485	1809.2141	2887.5284	3033.0805	3037.1415	3077.193	3084.8446	3098.5565	3103.5706	3130.3527	3134.1199	3158.9292
CC1C(C=O)C11CCO1	C[C@@H]1[C@@H](C=O)[C@@]21CCO2	
InChI=1S/C7H10O2/c1-5-6(4-8)7(5)2-3-9-7/h4-6H,2-3H2,1H3	InChI=1S/C7H10O2/c1-5-6(4-8)7(5)2-3-9-7/h4-6H,2-3H2,1H3/t5-,6-,7+/m1/s1
