19
gdb 4318	2.1494437	1.7162797	1.43144	2.6455	77.34	-0.2374	-0.00905	0.22835	1027.0985	0.158595	-422.559528	-422.551218	-422.550274	-422.591899	32.572	
O	-2.4330734541	-1.2586133288	 0.616679133	-0.424665
C	-2.8720749787	-0.5830558737	 1.8152693292	 0.041814
C	-3.6478682915	 0.6582646519	 1.3744698145	-0.251164
C	-2.8952001724	 1.7670992677	 0.6879669336	-0.033738
C	-1.5841728892	 1.9812532704	 0.5752775103	-0.090419
C	-0.4316001206	 1.1401632464	 1.0855813887	 0.040298
O	-0.0139789911	 0.1976944155	 0.092531351	-0.441602
C	-0.6706805397	 0.4693278181	 2.4289219337	-0.065937
C	-1.7227724684	-0.2826386906	 2.7512607893	-0.103264
H	-1.940030904	-2.0381628482	 0.8967875785	 0.289135
H	-3.5843747531	-1.2397453846	 2.3343094984	 0.073823
H	-4.4486556322	 0.3219093914	 0.7026227205	 0.118471
H	-4.1590162667	 1.0669360623	 2.2586105623	 0.115748
H	-3.5537431349	 2.4939831727	 0.213920699	 0.088565
H	-1.2708434948	 2.8448963365	-0.0072321578	 0.09102
H	 0.4303712901	 1.8048179466	 1.2029368331	 0.081362
H	-0.7982025073	-0.350171969	-0.0682349928	 0.281533
H	 0.1224484593	 0.590251049	 3.1632589007	 0.097987
H	-1.7671957705	-0.7403549437	 3.7367320449	 0.091032
107.2599	182.2572	214.8995	265.593	306.7125	331.6148	346.4304	438.5559	491.0353	518.7782	601.2435	666.6543	721.789	751.2696	759.873	813.088	859.8553	889.9473	905.62	937.514	994.5969	1010.8182	1031.7528	1050.4583	1070.3943	1096.7079	1218.9569	1238.6391	1254.4596	1275.8012	1307.2793	1380.0441	1382.7032	1399.3414	1402.6964	1425.3503	1435.5582	1452.5774	1484.7362	1718.8258	1732.5697	2993.543	3010.5888	3040.2015	3051.2651	3124.5644	3140.1211	3153.8455	3164.722	3689.5078	3803.9637
OC1CC=CC(O)C=C1	O[C@@H]1CC=C[C@H](O)C=C1	
InChI=1S/C7H10O2/c8-6-2-1-3-7(9)5-4-6/h1-2,4-9H,3H2	InChI=1S/C7H10O2/c8-6-2-1-3-7(9)5-4-6/h1-2,4-9H,3H2/t6-,7+/m0/s1
