19
gdb 5096	4.484425	1.0005408	0.9480609	0.8958	76.29	-0.24974	0.07401	0.32375	1309.0638	0.154982	-422.496542	-422.487827	-422.486883	-422.530114	32.622	
C	 0.9679379953	-0.2607500886	 1.1666967599	-0.381078
C	 0.7882501629	 0.3269479293	-0.2401332955	-0.300306
C	 1.4024135265	-0.5294061996	-1.3023213913	 0.440535
C	 0.9398934289	-1.9156882744	-1.8151890723	-0.391121
C	 1.5992879743	-1.5521960398	-3.1661055201	 0.454795
C	 2.1648131422	-2.3610870292	-4.240944883	-0.263763
O	 0.9065807544	-1.6747432926	-4.3921469082	-0.274484
C	 2.0299039344	-0.2076065548	-2.6011066461	-0.174258
O	 2.8338847253	-0.5160394685	-1.4485343185	-0.288005
H	 0.4949468413	-1.2448176131	 1.2500720443	 0.120659
H	 2.0295070469	-0.3763462264	 1.4043019092	 0.135351
H	 0.5181484372	 0.3910424234	 1.9210268798	 0.116477
H	-0.279012519	 0.4525005939	-0.4609174991	 0.107142
H	 1.2462664876	 1.3208621166	-0.2922546802	 0.113363
H	 1.3335008878	-2.7773255229	-1.2716602778	 0.113227
H	-0.1447542432	-1.9996727133	-1.9265365696	 0.122307
H	 2.9836986929	-1.9713591267	-4.8435855817	 0.120329
H	 2.0952225525	-3.4466339992	-4.1933182191	 0.119997
H	 2.2009322417	 0.7345060262	-3.1097902705	 0.108833
69.2759	93.6586	171.8985	214.0109	276.4782	329.6524	360.1983	392.017	434.2232	498.7094	595.8382	670.9554	763.0254	794.1653	840.1037	885.5515	903.4226	905.2967	954.1865	974.3798	1012.6255	1022.4016	1063.4994	1104.1592	1121.3173	1140.6831	1155.3592	1163.4074	1203.3053	1225.5975	1236.8748	1314.1969	1345.6663	1408.2333	1440.6136	1445.2888	1471.5553	1479.5313	1498.401	1509.6167	1541.4568	3031.1454	3039.3914	3064.0716	3072.51	3086.2426	3109.1013	3118.202	3125.312	3174.1099	3186.0851
CCC12CC3(CO3)C1O2	CC[C@@]12C[C@]3(CO3)[C@@H]1O2	
InChI=1S/C7H10O2/c1-2-6-3-7(4-8-7)5(6)9-6/h5H,2-4H2,1H3	InChI=1S/C7H10O2/c1-2-6-3-7(4-8-7)5(6)9-6/h5H,2-4H2,1H3/t5-,6-,7+/m1/s1
