19
gdb 4153	2.7875344	1.1683997	0.9638946	1.956	75.98	-0.23489	-0.02747	0.20742	1256.8116	0.154522	-422.524676	-422.515529	-422.514584	-422.559518	33.082	
C	-2.5528754222	 2.2067716965	-1.4590858057	-0.414818
C	-2.4300754187	 2.0830335364	 0.0445736759	 0.112449
O	-2.7884331236	 3.2988438994	 0.7722285403	-0.305779
C	-1.5734838927	 3.2304115844	 1.5152259413	 0.046748
C	-0.3903113772	 3.399814789	 0.6165944581	-0.354036
C	-1.0596042872	 2.0381995713	 0.7397136138	 0.241337
C	-0.351142503	 0.7755400607	 1.1561478737	-0.394382
C	 0.3530645028	 0.1283930345	-0.0231077891	 0.166918
O	 0.1528044912	-0.9932339053	-0.4108823947	-0.23736
H	-2.2888123124	 1.2564883655	-1.9356991639	 0.130175
H	-3.5843997545	 2.4483559338	-1.7338734869	 0.132795
H	-1.9020060835	 2.9906600684	-1.8550098547	 0.122013
H	-3.0598002066	 1.260778504	 0.411205219	 0.086895
H	-1.6064312838	 3.4547321983	 2.5753511041	 0.108176
H	-0.4805854948	 4.0042717994	-0.280920007	 0.120913
H	 0.5708551168	 3.4667717382	 1.1183319203	 0.114775
H	 0.4120669944	 1.0160033865	 1.9093363542	 0.121011
H	-1.0421912545	 0.0460810689	 1.5906795014	 0.123625
H	 1.0839263993	 0.7941938802	-0.5371594203	 0.078543
40.9084	67.2747	137.2867	214.1783	220.4523	269.8696	320.1358	357.8836	454.8988	484.4889	532.6858	668.4595	709.0895	815.7727	837.3904	869.8723	895.9214	917.6929	983.5101	998.2943	1031.3139	1054.5254	1065.1078	1084.4471	1090.1868	1133.9402	1138.9251	1179.5471	1248.7514	1262.7668	1304.5834	1313.2358	1380.0165	1396.5004	1416.345	1425.5598	1454.38	1481.85	1484.4436	1496.8053	1833.8502	2870.1864	3010.2283	3018.145	3039.2698	3087.5823	3108.5539	3117.4978	3122.5806	3178.4204	3206.6254
CC1OC2CC12CC=O	C[C@@H]1O[C@@H]2C[C@]12CC=O	
InChI=1S/C7H10O2/c1-5-7(2-3-8)4-6(7)9-5/h3,5-6H,2,4H2,1H3	InChI=1S/C7H10O2/c1-5-7(2-3-8)4-6(7)9-5/h3,5-6H,2,4H2,1H3/t5-,6+,7+/m0/s1
