19
gdb 1577	2.9695732	1.2931487	1.1443654	1.4653	76.3	-0.25861	0.03344	0.29205000000000003	1155.4915	0.154585	-422.529246	-422.519893	-422.518949	-422.563479	34.848	
C	 0.1687775736	-1.0446223759	-0.5955817251	-0.417783
C	 1.2375930101	-0.0510413368	-0.1374365875	 0.373244
C	 2.2110379139	-0.6691861324	 0.8632161868	-0.426733
C	 1.951557199	 0.6274190346	-1.331450989	-0.154327
O	 1.205449827	 1.8203600022	-1.541825496	-0.233713
C	 0.8316793499	 2.2351828801	-0.2478880219	-0.022986
O	 0.5527981949	 1.0627414191	 0.489187213	-0.2883
C	 1.8881821878	 3.0396057097	 0.3998875048	 0.346732
C	 2.7369796993	 3.7089902548	 0.924962389	-0.453116
H	-0.4541474188	-1.3445811138	 0.251640334	 0.125663
H	-0.4753492448	-0.5862508315	-1.3512455568	 0.126944
H	 0.6266796795	-1.943094245	-1.0225488625	 0.111513
H	 1.669313049	-1.0880642364	 1.7159519932	 0.126057
H	 2.7859304929	-1.4759171636	 0.3954379361	 0.114441
H	 2.9076736623	 0.086575313	 1.2350247334	 0.130332
H	 2.9978127995	 0.8605105818	-1.0902641521	 0.104556
H	 1.9136354975	 0.0401043021	-2.2507488937	 0.118781
H	-0.0860956909	 2.8262964354	-0.338042217	 0.117798
H	 3.4847905483	 4.3031243327	 1.3900950014	 0.200897
38.4797	120.5766	185.3017	219.9956	260.4348	265.139	326.1335	337.9198	384.6866	439.7703	525.8357	553.2835	622.0358	655.9836	667.2769	792.3974	796.0859	874.4722	924.2441	943.5529	961.6593	977.9531	990.303	1037.0663	1047.8403	1123.6054	1187.4616	1220.2596	1256.0995	1290.2187	1325.561	1372.0777	1382.092	1399.9172	1417.6868	1476.563	1486.3188	1496.0102	1504.5867	1515.3168	2231.2845	3012.6151	3035.6104	3040.8951	3056.3025	3107.0532	3112.1892	3114.6676	3121.8363	3125.892	3499.911
CC1(C)COC(O1)C#C	CC1(C)CO[C@@H](O1)C#C	
InChI=1S/C7H10O2/c1-4-6-8-5-7(2,3)9-6/h1,6H,5H2,2-3H3	InChI=1S/C7H10O2/c1-4-6-8-5-7(2,3)9-6/h1,6H,5H2,2-3H3/t6-/m0/s1
