19
gdb 2114	2.7757551	1.6830713	1.3023757	1.2515	74.45	-0.23708	0.07833	0.31541	1021.0991	0.156842	-422.539027	-422.531056	-422.530111	-422.570767	31.952	
C	 0.0359155046	 0.1617393599	 0.2151932688	-0.47623
C	 1.4730292663	-0.1535454484	-0.1164225536	 0.419242
C	 1.9623048114	-1.6452655482	-0.013685898	-0.354048
C	 3.2353866564	-1.1039716676	 0.6357199488	 0.388527
O	 4.0244708022	-1.7853447646	 1.5435895758	-0.465131
C	 3.7545281358	 0.1030756439	-0.1368763506	-0.150958
C	 3.2157376774	 0.358120239	-1.5388037319	-0.107882
O	 1.7944786825	 0.3939269209	-1.3966285159	-0.30159
C	 2.6214476081	 0.260714365	 0.8442405224	-0.185639
H	-0.2265803765	-0.2279925556	 1.2024101626	 0.11953
H	-0.1263235944	 1.2438604554	 0.2099424805	 0.125691
H	-0.6335852793	-0.2878233106	-0.5244864121	 0.127394
H	 1.3719742246	-2.2142781769	 0.710171223	 0.104736
H	 2.0322921867	-2.2016374892	-0.9547824433	 0.088724
H	 4.6395738092	-2.3425009097	 1.0537997868	 0.285018
H	 4.741220988	 0.4517600481	 0.1444546112	 0.093833
H	 3.5540830759	 1.3229817738	-1.9356320882	 0.103727
H	 3.5071916991	-0.4239247779	-2.2546363791	 0.091721
H	 2.593865282	 0.9249621825	 1.6972837527	 0.093334
190.0333	216.9944	229.4133	262.0926	310.7484	315.7057	373.929	457.7284	462.1605	570.5827	606.3898	716.7711	727.9063	768.4904	837.4691	890.5021	896.3859	903.3129	959.4557	982.0707	993.7259	1006.225	1057.2451	1072.2097	1108.8837	1135.2531	1152.0847	1181.2565	1206.6707	1219.7553	1246.6886	1292.1897	1297.3436	1340.4483	1375.449	1413.8691	1439.6458	1483.0075	1493.787	1497.9445	1527.2972	2996.4381	3037.0182	3042.176	3044.1829	3099.2998	3112.6208	3121.5184	3190.0093	3209.2025	3793.9642
CC12CC3(O)C(CO1)C23	C[C@@]12C[C@@]3(O)[C@@H](CO1)[C@@H]23	
InChI=1S/C7H10O2/c1-6-3-7(8)4(2-9-6)5(6)7/h4-5,8H,2-3H2,1H3	InChI=1S/C7H10O2/c1-6-3-7(8)4(2-9-6)5(6)7/h4-5,8H,2-3H2,1H3/t4-,5-,6-,7+/m0/s1
