19
gdb 5276	2.7718055	1.5879229	1.3043668	1.0772	74.29	-0.24124	0.07175	0.31299	1043.3006	0.156032	-422.479538	-422.471388	-422.470444	-422.51203	31.28	
C	 1.5208684736	-0.0416762108	 0.0608120766	-0.264192
O	 0.1078977075	 0.0521548967	 0.0796043703	-0.292486
C	-0.3955230006	 0.6557726929	 1.2276067564	 0.418414
C	-0.3168140636	-0.0910263323	 2.5956431755	-0.29141
C	-1.864277899	 0.0604394797	 2.7529822112	-0.226132
C	-1.9385185113	 0.7900473677	 1.379419261	-0.134796
C	-1.7598238216	 2.3278191805	 1.3995452819	 0.016868
O	-0.8846352223	 2.6645031409	 2.4886905393	-0.237119
C	-0.2978386123	 2.2181333393	 1.2638632743	-0.056595
H	 1.8991331836	-0.6548068492	 0.8908185578	 0.11508
H	 1.7965014995	-0.5157928863	-0.8836095585	 0.129979
H	 2.0005027836	 0.9461980808	 0.1147532868	 0.109138
H	 0.0038212976	-1.1277882213	 2.465887235	 0.103254
H	 0.2874302156	 0.3848323471	 3.3695048506	 0.106701
H	-2.4010565519	-0.8900921055	 2.7674775493	 0.100191
H	-2.1794654579	 0.6637334078	 3.604934228	 0.113586
H	-2.5949132552	 0.4036055652	 0.6007699519	 0.08362
H	-2.4499047096	 3.0998779847	 1.0779187372	 0.103524
H	 0.4303124943	 2.867899622	 0.7896975355	 0.102375
113.9421	154.0632	186.7572	190.1145	282.0012	347.7968	371.1045	452.0606	549.4146	637.5433	705.5314	738.6937	806.1173	809.3702	848.4358	872.5317	929.1705	945.0097	968.366	1002.7473	1031.8153	1059.7084	1088.513	1101.5556	1131.8874	1146.8737	1182.0653	1195.9149	1225.8985	1231.3478	1237.6805	1245.6682	1270.8499	1293.4213	1323.963	1376.7326	1454.1249	1477.1303	1484.1436	1488.1914	1507.3206	2991.1554	3041.4812	3066.4169	3077.2438	3121.7671	3121.9968	3128.1906	3141.3979	3166.3242	3183.2678
COC12CCC1C1OC21	CO[C@]12CC[C@H]1[C@H]1O[C@@H]21	
InChI=1S/C7H10O2/c1-8-7-3-2-4(7)5-6(7)9-5/h4-6H,2-3H2,1H3	InChI=1S/C7H10O2/c1-8-7-3-2-4(7)5-6(7)9-5/h4-6H,2-3H2,1H3/t4-,5+,6+,7+/m0/s1
