19
gdb 1974	2.8508005	1.5774022	1.3790478	0.7277	74.16	-0.23059	0.07339	0.30398	1006.7134	0.158146	-422.52867	-422.521001	-422.520057	-422.560182	31.229	
O	 0.2964536072	-0.4577206371	 0.4539237642	-0.464383
C	-1.0235299934	-0.0192437559	 0.6313327016	 0.358474
C	-1.4535576918	 0.4407476769	 1.9975660051	-0.355431
C	-1.9002590523	-0.9141359643	 1.4553452629	-0.078356
C	-3.3202118565	-1.0939841323	 1.0215421018	-0.07223
C	-3.5831617732	-1.6189987959	-0.3889510874	-0.350116
C	-3.8050617046	-0.1675158016	-0.0576656472	 0.131332
O	-2.9993249006	 0.8833349334	-0.5214510465	-0.254797
C	-1.616594612	 0.6065761894	-0.6233948272	-0.157402
H	 0.871428992	 0.3156568542	 0.4782617625	 0.283146
H	-0.6966318703	 0.4407815173	 2.7741318158	 0.109778
H	-2.1967822032	 1.2279378255	 2.0657251544	 0.123632
H	-1.4022345034	-1.7814566677	 1.87933729	 0.096406
H	-4.0236323482	-1.3697586404	 1.8025974121	 0.085922
H	-2.7155828888	-1.9056852376	-0.9719014401	 0.12602
H	-4.460710188	-2.2312556221	-0.5663138659	 0.112034
H	-4.8297533381	 0.1844144839	-0.0166288086	 0.101114
H	-1.4024499708	-0.0600811027	-1.4725182534	 0.104016
H	-1.1406706839	 1.5715707973	-0.8347295342	 0.100843
155.2868	203.2396	298.7896	312.6098	360.713	373.4687	392.9977	439.97	528.0487	549.4944	673.9878	723.6202	748.5958	785.6916	823.68	890.5904	924.8026	935.1111	973.7046	1001.9351	1035.1674	1045.8836	1054.1685	1071.3524	1095.7467	1114.2844	1130.2581	1148.6096	1184.7171	1220.7102	1236.8153	1279.0828	1303.2999	1337.8123	1369.3201	1386.7414	1411.5593	1426.7404	1480.5677	1491.1941	1511.008	2991.0783	3052.8442	3132.2837	3134.9321	3138.9353	3150.4325	3174.1639	3225.5129	3226.3232	3788.7627
OC12CC1C1CC1OC2	O[C@]12C[C@H]1[C@@H]1C[C@@H]1OC2	
InChI=1S/C7H10O2/c8-7-2-5(7)4-1-6(4)9-3-7/h4-6,8H,1-3H2	InChI=1S/C7H10O2/c8-7-2-5(7)4-1-6(4)9-3-7/h4-6,8H,1-3H2/t4-,5-,6-,7-/m0/s1
