19
gdb 1224	2.5973996	0.9225002	0.8210894	3.0966	78.71	-0.25443	-0.02564	0.22879	1475.3858	0.150991	-422.524057	-422.513179	-422.512235	-422.560618	38.085	
C	-1.4199212026	 3.0255546412	-1.2867713397	-0.414014
C	-1.5013260185	 2.1958676449	 0.0080141794	 0.182783
C	-1.8682217531	 3.0864485879	 1.2030907376	-0.405017
O	-0.2183375432	 1.6509802312	 0.3527428182	-0.276756
C	 0.3427039417	 0.7050900456	-0.5279843379	-0.163012
C	 1.466839063	-0.0006887853	 0.2097713421	 0.14738
O	 2.3076911243	-0.6663163516	-0.3332249227	-0.240429
C	-2.4958143751	 1.1189479741	-0.1421068178	 0.354404
C	-3.3090724106	 0.2423536368	-0.2677667688	-0.511834
H	-1.1872228974	 2.3992392701	-2.15115263	 0.128963
H	-2.3764253854	 3.5180171364	-1.4793754869	 0.130164
H	-0.643017865	 3.7882212511	-1.1801872313	 0.125969
H	-1.8946055379	 2.4914338142	 2.11811205	 0.134619
H	-1.1148766769	 3.8709870585	 1.3141844398	 0.125219
H	-2.8468915706	 3.5471853583	 1.0511516518	 0.12632
H	-0.3952451405	-0.0576072613	-0.8253705487	 0.133846
H	 0.7455588428	 1.155998924	-1.4455088521	 0.123158
H	 1.4318614781	 0.142416242	 1.3123318131	 0.092883
H	-4.0303532533	-0.5306553879	-0.3730232162	 0.205354
48.5045	68.0367	111.8081	139.2241	176.3582	200.7042	213.5677	264.4212	308.9171	346.5356	389.525	419.8749	532.2326	573.1456	600.8107	632.5322	678.0773	719.1651	750.4452	886.6686	934.0057	955.6465	1019.7261	1054.9036	1116.9659	1125.7454	1184.0863	1202.3084	1243.7029	1250.9801	1355.2643	1391.3817	1406.9644	1412.3506	1473.4658	1478.1038	1481.8076	1492.3542	1505.57	1843.6039	2227.3102	2898.3625	2983.4321	3032.2138	3047.0567	3053.7937	3125.4089	3128.9134	3133.4622	3141.7498	3498.0229
CC(C)(OCC=O)C#C	CC(C)(OCC=O)C#C	
InChI=1S/C7H10O2/c1-4-7(2,3)9-6-5-8/h1,5H,6H2,2-3H3	InChI=1S/C7H10O2/c1-4-7(2,3)9-6-5-8/h1,5H,6H2,2-3H3
