19
gdb 2874	2.5240586	1.8547108	1.5102434	1.8591	73.23	-0.2327	0.08829	0.32099	963.4205	0.158774	-422.571692	-422.564228	-422.563284	-422.603086	30.347	
C	 2.56737914	-0.1140307335	-4.2524906359	-0.499453
C	 1.4551521563	-0.1924347981	-3.2572378529	 0.450253
O	 1.1018699839	 1.0533407176	-2.6486470351	-0.312511
C	 0.0240107467	 0.610083394	-1.8021995417	 0.000169
C	-0.9027412185	-0.1480972744	-2.7677031914	-0.23845
C	 0.1980130841	-1.0262869572	-3.3549677737	-0.1529
C	 1.2123630209	-1.2810269524	-2.234657393	-0.197039
C	 0.7131301775	-0.5260929931	-1.0038180352	 0.171492
O	 1.7356247661	-0.0738721835	-0.1472817836	-0.453213
H	 3.4878403493	 0.2521744811	-3.7858181017	 0.126663
H	 2.7694649651	-1.1028441199	-4.6729431391	 0.125024
H	 2.3096025574	 0.5624786216	-5.0737288373	 0.130364
H	-0.3726889608	 1.4481503996	-1.2334272669	 0.08413
H	-1.6842199858	-0.7066996663	-2.2445632869	 0.104774
H	-1.3639001217	 0.5114792283	-3.5083072003	 0.107596
H	 0.0337047647	-1.7290808794	-4.1612446358	 0.089695
H	 1.8152321838	-2.1764161651	-2.1657332781	 0.091453
H	 0.0104458628	-1.0961074065	-0.3904501186	 0.087419
H	 2.2522375586	 0.5568759673	-0.6654539627	 0.284534
158.4922	190.9878	251.2187	301.6301	347.2523	419.8093	449.3144	531.4868	596.4545	612.4008	704.929	750.0137	817.7467	858.459	861.1623	886.3727	900.3598	937.8341	954.6296	995.7692	1006.6295	1012.9888	1037.1864	1074.1945	1097.7172	1122.1865	1156.6647	1175.1982	1195.606	1214.7275	1258.5808	1281.5422	1308.3165	1313.3568	1336.2537	1407.2608	1439.7444	1451.6188	1477.1875	1490.2929	1502.5197	3036.6319	3056.6703	3085.7014	3099.5778	3106.2907	3118.6031	3153.7616	3199.9484	3212.0728	3770.9423
CC12OC3CC1C2C3O	C[C@@]12O[C@H]3C[C@@H]1[C@@H]2[C@H]3O	
InChI=1S/C7H10O2/c1-7-3-2-4(9-7)6(8)5(3)7/h3-6,8H,2H2,1H3	InChI=1S/C7H10O2/c1-7-3-2-4(9-7)6(8)5(3)7/h3-6,8H,2H2,1H3/t3-,4+,5-,6+,7-/m1/s1
