19
gdb 2687	2.5929754	1.1762303	1.0215998	3.6677	76.74	-0.24367	-0.02064	0.22303	1241.2891	0.154723	-422.539108	-422.52982	-422.528875	-422.573226	34.193	
C	 0.7439485157	-0.1315976417	-0.9341327975	-0.423415
C	 1.0028510729	 0.3198541633	 0.4966108041	-0.067184
C	 1.9904998762	-0.5278147452	 1.4015714278	-0.088883
C	 1.2906133743	-1.1422620751	 2.5809325482	 0.151146
O	 1.2866638204	-2.3166915217	 2.8489202245	-0.259757
C	 2.7579162754	 0.7688691391	 1.7163986878	-0.130296
C	 3.3038672883	 1.3471354604	 0.4292908614	-0.357744
C	 1.8595372494	 1.5615418167	 0.7786716896	 0.397609
O	 1.3230664004	 2.8187147204	 0.9894610149	-0.462554
H	 0.2237958845	-1.0947440239	-0.9549653011	 0.128881
H	 0.1164719076	 0.5957691053	-1.4612605213	 0.118803
H	 1.6751228456	-0.2440357428	-1.4984682582	 0.118477
H	 0.0520359284	 0.4389839384	 1.0291267003	 0.090126
H	 2.559643911	-1.2999438424	 0.8762304173	 0.086485
H	 0.7381566967	-0.4066667812	 3.2135212833	 0.075755
H	 3.16445029	 1.0411405551	 2.6824596549	 0.10367
H	 3.920981129	 2.229184054	 0.5698959134	 0.118877
H	 3.6196104016	 0.6984112738	-0.384474649	 0.110851
H	 1.3982292326	 3.3259381774	 0.1741673394	 0.289151
71.9207	95.4786	199.4776	211.0834	226.2099	247.2804	287.3564	386.4073	390.9665	402.0141	483.1421	529.6278	651.1246	709.1927	825.3396	859.3235	880.5533	919.7291	982.7616	1006.4302	1014.766	1037.9411	1066.3558	1084.2219	1097.0767	1119.3013	1159.5093	1194.016	1224.7906	1240.8367	1268.871	1283.5239	1327.1285	1372.0334	1406.3489	1413.1315	1432.5542	1493.5948	1494.6707	1500.299	1828.371	2846.6477	3030.8936	3039.9773	3075.0693	3097.2017	3103.8254	3108.188	3190.4878	3202.2501	3802.3563
CC1C(C=O)C2CC12O	C[C@H]1[C@H](C=O)[C@H]2C[C@@]12O	
InChI=1S/C7H10O2/c1-4-5(3-8)6-2-7(4,6)9/h3-6,9H,2H2,1H3	InChI=1S/C7H10O2/c1-4-5(3-8)6-2-7(4,6)9/h3-6,9H,2H2,1H3/t4-,5-,6+,7+/m0/s1
