19
gdb 1469	2.632983	2.0271291	1.5517471	2.2762	73.1	-0.23903	0.06899	0.30801999999999996	919.8056	0.158319	-422.52755	-422.520371	-422.519427	-422.558544	29.999	
C	-0.1433349263	 0.1066426666	-0.104144647	-0.455221
C	 1.3627278142	-0.011867632	 0.0751934705	 0.475276
O	 1.73671417	 0.9780256776	 1.0090673563	-0.501999
C	 2.2506299369	 0.0124584052	-1.2057519004	-0.152593
C	 1.7242835576	-1.1820741278	-2.0404202721	-0.266016
C	 2.2960109269	-2.0352392067	-0.8938134759	-0.070458
C	 3.3893830835	-0.9752964448	-0.6591974657	 0.098026
O	 3.2950236458	-1.0797315011	 0.7754449915	-0.313561
C	 1.8931890728	-1.4148823736	 0.4996652566	-0.002918
H	-0.6107693206	 0.1228496303	 0.8842941289	 0.128156
H	-0.3970038385	 1.0437611456	-0.6087746501	 0.126427
H	-0.5727985399	-0.720725963	-0.6720737473	 0.115676
H	 2.6186062344	 0.7149775422	 1.312437565	 0.281613
H	 2.4626855815	 0.9892019203	-1.6361810988	 0.073643
H	 0.6635388758	-1.2210836732	-2.2909181289	 0.103798
H	 2.3120017497	-1.3432885876	-2.9492799539	 0.104431
H	 2.488818652	-3.1054026914	-0.9434323205	 0.081363
H	 4.3983087497	-0.958730875	-1.0674822234	 0.091244
H	 1.4087679345	-1.9616040815	 1.3077470451	 0.083112
161.8127	228.5824	264.3512	384.9714	394.2444	446.0686	506.9656	564.6892	590.1137	614.4965	725.9794	763.3565	806.488	824.9506	852.913	856.35	925.1859	939.1049	957.6293	959.483	995.3306	1020.542	1027.4243	1070.3753	1095.8803	1122.8321	1156.9583	1173.0844	1197.4714	1203.5193	1209.9623	1230.0939	1249.8697	1291.6626	1302.7131	1326.9556	1401.0112	1432.8295	1483.718	1495.8254	1520.6743	3049.4573	3062.008	3115.8127	3119.6944	3128.2007	3133.861	3137.2312	3138.9961	3146.6142	3715.475
CC1(O)C2CC3C2OC13	C[C@]1(O)[C@@H]2C[C@H]3[C@@H]2O[C@@H]13	
InChI=1S/C7H10O2/c1-7(8)4-2-3-5(4)9-6(3)7/h3-6,8H,2H2,1H3	InChI=1S/C7H10O2/c1-7(8)4-2-3-5(4)9-6(3)7/h3-6,8H,2H2,1H3/t3-,4+,5-,6+,7-/m0/s1
