19
gdb 4839	2.5066544	1.356364	1.1119356	3.0752	76.6	-0.23909	-0.01267	0.22642	1166.7812	0.154832	-422.547334	-422.538185	-422.53724	-422.58106	34.395	
C	 2.9786433041	 1.5733012322	-2.0151643834	-0.379671
C	 2.1298027632	 0.6848911221	-1.0985362019	-0.238438
C	 2.0131224964	-0.7351309839	-1.6094535283	 0.463207
O	 1.3643985449	-0.71513189	-2.8526953997	-0.47531
C	 1.7938066192	-1.9486747098	-0.7830577647	-0.166417
C	 2.5115720883	-1.8894970854	 0.5716399169	-0.375062
C	 3.8464701352	-1.7277750826	-0.2077441199	 0.411184
O	 4.9949603416	-1.7307461406	 0.1366541284	-0.317687
C	 3.1643049367	-1.7659205231	-1.5353202401	-0.268533
H	 3.0199857419	 2.5963148515	-1.6305471346	 0.112276
H	 4.0041382147	 1.1963496963	-2.0824154577	 0.12659
H	 2.5604019772	 1.6016220231	-3.0240148767	 0.135663
H	 2.5552077273	 0.6800364702	-0.0914571946	 0.111375
H	 1.1148479602	 1.092058851	-1.0149681062	 0.109605
H	 1.2142391534	-1.6190543741	-3.1495053971	 0.285872
H	 1.0113178381	-2.6594030097	-1.0249324986	 0.097814
H	 2.2203506317	-1.1113337489	 1.281275998	 0.125303
H	 2.5113360576	-2.8558575763	 1.0855347987	 0.135511
H	 3.5456402684	-2.1924977522	-2.4558711983	 0.106717
71.6786	118.5692	192.0656	221.1362	240.5568	273.4673	284.8969	377.4055	451.4537	461.4147	533.4154	547.2916	624.1337	685.7639	787.309	818.399	832.5444	888.9235	905.3773	967.3471	989.7538	1001.1486	1014.9728	1058.4032	1089.7546	1110.0776	1124.8663	1153.6297	1201.4332	1226.2116	1256.8022	1298.2881	1344.7672	1357.945	1410.7136	1452.1002	1464.7878	1477.5044	1497.9052	1511.7878	1875.189	3039.4095	3045.414	3060.7494	3092.2576	3112.6671	3113.6142	3131.5247	3173.5082	3188.1118	3811.8342
CCC1(O)C2CC(=O)C12	CC[C@]1(O)[C@@H]2CC(=O)[C@H]12	
InChI=1S/C7H10O2/c1-2-7(9)4-3-5(8)6(4)7/h4,6,9H,2-3H2,1H3	InChI=1S/C7H10O2/c1-2-7(9)4-3-5(8)6(4)7/h4,6,9H,2-3H2,1H3/t4-,6-,7+/m1/s1
