19
gdb 3451	2.5623824	1.4755683	1.1894246	2.3016	76.74	-0.24482	-0.02699	0.21783000000000002	1124.9069	0.154814	-422.596616	-422.587156	-422.586211	-422.630644	35.089	
C	-0.6267818922	 2.204704928	-1.0905568548	-0.395377
C	-0.9762191287	 1.1361111522	-0.047729879	-0.155138
C	-2.3640104236	 0.5394180824	-0.1398982552	-0.085733
C	-2.371597326	-0.794284939	-0.1126413349	-0.103951
C	-0.9912027172	-1.3770572585	 0.0615054554	 0.258145
C	-0.750993136	-1.9480327228	 1.4710043031	-0.426921
O	-0.7055603141	-2.3595485802	-0.9207377803	-0.475482
C	-0.1147958113	-0.1263178407	-0.1739784266	 0.349496
O	 1.042642496	-0.1859285627	-0.5048705491	-0.336554
H	-0.8234082987	 1.8394921532	-2.1029739359	 0.128478
H	-1.2182949847	 3.1112292241	-0.9328289145	 0.117035
H	 0.4329828388	 2.4628750711	-1.0228032876	 0.139247
H	-0.8034445342	 1.5597592544	 0.9544662357	 0.112762
H	-3.2471778143	 1.1636429314	-0.2242944728	 0.104083
H	-3.2506851056	-1.4253703581	-0.1722371361	 0.109224
H	-1.3880630623	-2.824314289	 1.620263174	 0.129546
H	 0.2947224908	-2.2567543658	 1.5705171378	 0.125873
H	-0.9756476127	-1.2150222529	 2.2524029864	 0.116862
H	 0.2451472461	-2.2985875172	-1.0883985558	 0.288404
49.7632	169.1438	189.5836	201.8604	233.3491	249.7151	294.4394	335.6691	348.8046	371.7149	529.2417	549.3036	582.9012	681.5167	704.7249	750.9038	788.6889	885.4297	915.3443	964.539	982.9062	993.6676	1038.9194	1087.1526	1096.0868	1127.6414	1146.4841	1153.832	1229.78	1274.1989	1305.0762	1369.0472	1391.6812	1400.405	1412.2024	1485.7677	1488.5732	1492.6546	1499.56	1674.3942	1841.8743	2982.7852	3033.0027	3043.9233	3108.7092	3115.0324	3118.0983	3127.2258	3184.1637	3210.5312	3750.2188
CC1C=CC(C)(O)C1=O	C[C@H]1C=C[C@@](C)(O)C1=O	
InChI=1S/C7H10O2/c1-5-3-4-7(2,9)6(5)8/h3-5,9H,1-2H3	InChI=1S/C7H10O2/c1-5-3-4-7(2,9)6(5)8/h3-5,9H,1-2H3/t5-,7+/m0/s1
