19
gdb 1409	3.505551	1.4548506	1.2952583	1.2509	75.07	-0.24534	0.07869	0.32403	1030.3057	0.157169	-422.508828	-422.501131	-422.500187	-422.540349	31.294	
C	-0.0935147776	-0.3234272413	 0.1164507107	-0.480094
C	 1.2218325445	 0.4109238299	 0.2459959384	 0.393225
O	 2.0643468881	-0.1956078013	 1.2077783143	-0.470819
C	 1.4596110637	 1.9144917001	 0.1802929486	-0.131964
C	 2.0923903883	 0.9681831106	-0.8493766892	-0.094991
C	 1.4694176522	 1.5882445032	-2.1148027576	 0.034916
C	 1.7337317089	 3.1060713263	-1.901624481	-0.21491
C	 0.6726989381	 2.8000637602	-0.8064454579	 0.037671
O	 0.0814594382	 1.8451900174	-1.7407932614	-0.287929
H	-0.6299515987	-0.2898395105	 1.0745788879	 0.097553
H	-0.7306634458	 0.1079031397	-0.6503046875	 0.15467
H	 0.1026201385	-1.3754771	-0.1159630789	 0.119755
H	 1.5741035399	-0.2278802328	 2.0368858292	 0.277779
H	 2.0386315159	 2.3744590992	 0.9723499256	 0.090962
H	 3.1455829463	 0.714532102	-0.8393780188	 0.100037
H	 1.5842639937	 1.0834385709	-3.0736506959	 0.085236
H	 2.7310455073	 3.4339960122	-1.5975662217	 0.097539
H	 1.3289163133	 3.713734726	-2.7128659783	 0.108276
H	-0.030963315	 3.5393735081	-0.4243249766	 0.083086
176.3454	202.0755	243.7583	279.5367	333.9441	367.5133	408.4296	490.9586	506.948	647.9013	702.9837	707.3109	810.6342	829.4689	857.3873	859.6006	910.2511	941.5388	952.4677	961.6304	969.3988	1000.699	1028.0207	1070.6166	1087.0674	1090.1214	1109.4004	1158.063	1170.6544	1218.7935	1252.7948	1256.453	1273.4404	1276.4906	1299.9664	1322.5964	1402.4289	1435.8057	1481.4944	1493.6057	1509.9023	3017.9677	3064.3968	3083.0524	3122.9981	3126.3169	3140.7609	3181.0551	3189.608	3190.4493	3796.4152
CC1(O)C2C1C1CC2O1	C[C@]1(O)[C@H]2[C@@H]1[C@@H]1C[C@H]2O1	
InChI=1S/C7H10O2/c1-7(8)5-3-2-4(9-3)6(5)7/h3-6,8H,2H2,1H3	InChI=1S/C7H10O2/c1-7(8)5-3-2-4(9-3)6(5)7/h3-6,8H,2H2,1H3/t3-,4+,5-,6+,7+
