19
gdb 936	5.1523772	0.848301	0.7965516	3.7736	76.45	-0.2414	-0.02137	0.22003	1445.7712	0.156103	-422.530261	-422.521649	-422.520705	-422.56475	30.986	
O	 0.2336861497	-1.0935580098	 0.2946555519	-0.241579
C	 0.36813291	 0.0746088208	 0.0311471582	 0.152866
C	-0.2127792354	 0.7475960133	-1.1951258753	-0.300462
C	-1.0391173257	 1.9822869287	-0.8316268786	 0.127982
O	-0.2261108131	 2.9865476745	-0.167727126	-0.311857
C	-0.4152129674	 3.9262443133	-1.2478964696	 0.124414
C	-1.5856179767	 4.9040993209	-0.999477898	-0.229767
C	-2.5575904496	 3.9059763653	-1.7070570354	-0.246487
C	-1.3704317003	 2.9446263176	-1.9879925202	-0.090239
H	 0.9433799403	 0.7552114767	 0.6944242061	 0.098456
H	 0.6221558378	 1.065993037	-1.8349085363	 0.120004
H	-0.8207622289	 0.0220274298	-1.7448473023	 0.119071
H	-1.8963816435	 1.6922945774	-0.2084623299	 0.087304
H	 0.5330694679	 4.3174143792	-1.6251436066	 0.078311
H	-1.7714224907	 5.1058130177	 0.0574030241	 0.115177
H	-1.4791893212	 5.8543019561	-1.5296234728	 0.10499
H	-3.3540250207	 3.4858058768	-1.0866521397	 0.105741
H	-3.0107354199	 4.3111901905	-2.6141392793	 0.108537
H	-1.2272260225	 2.5740097644	-3.0026967304	 0.077537
50.4491	79.4092	93.7032	157.1574	247.8122	306.165	381.821	451.5187	529.9099	698.3416	729.4753	817.1671	820.2065	839.6471	857.2264	922.0456	936.6866	952.2743	972.8025	1027.4552	1044.633	1066.7949	1084.7686	1105.2059	1148.7753	1171.43	1204.2641	1220.4006	1238.8858	1246.8108	1269.4774	1277.6565	1298.64	1314.3905	1343.7523	1390.388	1422.8576	1450.9096	1462.4667	1489.6478	1829.1679	2911.0698	3007.1559	3021.2042	3059.2813	3062.9771	3076.7993	3095.2688	3105.6099	3115.867	3128.764
O=CCC1OC2CCC12	O=CC[C@H]1O[C@@H]2CC[C@H]12	
InChI=1S/C7H10O2/c8-4-3-7-5-1-2-6(5)9-7/h4-7H,1-3H2	InChI=1S/C7H10O2/c8-4-3-7-5-1-2-6(5)9-7/h4-7H,1-3H2/t5-,6+,7+/m0/s1
