19
gdb 3577	2.2061052	1.7361588	1.238746	2.4109	76.37	-0.2404	-0.01399	0.22641	1065.7144	0.157768	-422.584975	-422.576403	-422.575459	-422.61819	32.426	
O	-1.0075015039	-1.4359960417	 2.3995848966	-0.428814
C	-1.8104250859	-1.5897502078	 1.2275863827	 0.066466
C	-0.9563443244	-1.3656532329	-0.0464336046	-0.338116
C	-0.0675345268	-0.1335144457	 0.0897813571	 0.396655
O	 1.1313712943	-0.2556912956	 0.2095853459	-0.312371
C	-0.7285531325	 1.235887188	 0.1058605602	-0.28511
C	-1.6016471737	 1.4820279479	 1.3652835085	-0.258519
C	-2.8847820379	 0.6877008325	 1.3967639193	-0.04924
C	-2.9818790937	-0.6397154675	 1.3284276493	-0.048044
H	-0.1728361545	-1.8963082846	 2.2537714053	 0.291292
H	-2.2041972487	-2.6154115801	 1.1786018326	 0.075666
H	-0.2916681097	-2.2219344927	-0.2006015716	 0.112595
H	-1.6195049985	-1.2794962472	-0.9137436285	 0.11689
H	 0.0749973363	 1.9757416052	 0.0663255452	 0.118467
H	-1.3535459339	 1.3493802603	-0.78855776	 0.108916
H	-1.0025999634	 1.2554616074	 2.2539152718	 0.143363
H	-1.8362336988	 2.5495650423	 1.4015367754	 0.105073
H	-3.804519536	 1.2625887399	 1.4779044139	 0.094502
H	-3.9662574783	-1.0985427975	 1.346631301	 0.090329
70.9429	116.5619	171.7877	241.937	299.931	328.4539	358.0075	421.6078	479.5761	511.1882	579.3561	653.0439	703.0479	751.5195	810.18	867.851	877.1367	892.56	946.0667	993.7412	1000.8353	1032.958	1049.8051	1077.6176	1130.3777	1197.7616	1228.5225	1240.7317	1268.4003	1271.6443	1294.1501	1328.5026	1370.6572	1379.1636	1410.8233	1446.9202	1468.2162	1477.0383	1483.7969	1723.038	1800.7237	2987.4202	3032.4106	3044.5709	3048.8112	3091.1975	3096.3985	3105.8961	3145.8394	3173.2698	3796.2533
OC1CC(=O)CCC=C1	O[C@@H]1CC(=O)CCC=C1	
InChI=1S/C7H10O2/c8-6-3-1-2-4-7(9)5-6/h1,3,6,8H,2,4-5H2	InChI=1S/C7H10O2/c8-6-3-1-2-4-7(9)5-6/h1,3,6,8H,2,4-5H2/t6-/m0/s1
