19
gdb 699	3.6192232	1.2323553	1.0577901	2.8876	75.66	-0.23246	-0.02087	0.21159	1163.1621	0.157213	-422.564661	-422.556534	-422.55559	-422.597352	31.426	
O	 1.1229544958	 0.0221143252	 0.2591006796	-0.299108
C	-0.061865938	-0.0156380977	 0.0277039959	 0.378769
C	-0.8542181215	-1.3105961135	-0.0660758045	-0.314058
C	-1.969288948	-1.2393442583	-1.1271882283	-0.275663
C	-2.7207469908	 0.0671200588	-1.0006178994	 0.454074
C	-4.0881715119	 0.2531638454	-1.5669905621	-0.333453
C	-3.8970483104	 0.2077241561	-0.0607716501	-0.327976
O	-1.8747786808	 1.1809793219	-1.141137384	-0.288897
C	-0.888705105	 1.2634852046	-0.1216681763	-0.18901
H	-0.1612703014	-2.1392134219	-0.2301689935	 0.124185
H	-1.3125563533	-1.4578023822	 0.9229405685	 0.128236
H	-1.5299632991	-1.2946030046	-2.1304587249	 0.11725
H	-2.6502818425	-2.0898212064	-1.0227598502	 0.103468
H	-4.3004711434	 1.2189840456	-2.0104281855	 0.12941
H	-4.5616549467	-0.5901500295	-2.0577758135	 0.115657
H	-3.9953062657	 1.1449610416	 0.4753626365	 0.121908
H	-4.2433282381	-0.66643049	 0.4805933423	 0.113403
H	-0.224300155	 2.0916315208	-0.3742878342	 0.133708
H	-1.3555505144	 1.4763057343	 0.856658994	 0.108097
72.4398	151.9682	182.7908	276.713	339.4657	379.25	427.6681	436.9456	488.7884	522.7968	671.5365	696.3107	758.7657	778.4352	827.5106	886.7434	906.178	941.6325	951.0689	1001.8625	1004.7929	1047.851	1081.0062	1098.598	1103.9037	1174.1254	1179.08	1191.9537	1235.8496	1267.2037	1299.1444	1322.5655	1336.4863	1373.8199	1392.7545	1453.6728	1455.7623	1467.5741	1484.9546	1500.3434	1824.1971	2952.8644	3013.8593	3035.4288	3083.1154	3106.2709	3121.7225	3132.696	3139.116	3218.2162	3233.0329
O=C1CCC2(CC2)OC1	O=C1CCC2(CC2)OC1	
InChI=1S/C7H10O2/c8-6-1-2-7(3-4-7)9-5-6/h1-5H2	InChI=1S/C7H10O2/c8-6-1-2-7(3-4-7)9-5-6/h1-5H2
