19
gdb 1276	3.0172033	1.3153124	1.3103103	0.5865	74.45	-0.24218	0.05095	0.29313	1095.4204	0.154356	-422.453908	-422.445385	-422.444441	-422.48709	32.293	
C	-0.4066186811	 1.0002717687	 0.7352886595	-0.393032
C	-1.5445027249	 1.9713792152	 0.3832182998	-0.13787
C	-2.7530189914	 1.239923422	-0.2219620873	-0.393037
C	-1.0557958379	 3.041684857	-0.5467130384	 0.477376
O	-0.5504899328	 2.6786626457	-1.8756005781	-0.358962
C	-0.4052795572	 4.1231883833	-1.8703056752	 0.035103
C	-1.7010902501	 4.3845609629	-1.0460153861	-0.020057
O	-1.04164125	 5.2044541317	-0.040753892	-0.327679
C	-0.0254842555	 4.213616809	-0.3621724038	-0.020057
H	-0.7612349418	 0.2256957148	 1.421825287	 0.113469
H	-0.0258428848	 0.5113817247	-0.1664273694	 0.136674
H	 0.4280924068	 1.5207999596	 1.2147868907	 0.115171
H	-1.8638786236	 2.4922049491	 1.2964632064	 0.096023
H	-3.1153926538	 0.4661099531	 0.4613764747	 0.11347
H	-3.5789435555	 1.9300529724	-0.4198995269	 0.115173
H	-2.4790449361	 0.7619716379	-1.1672648955	 0.136669
H	 0.0039386719	 4.6202397947	-2.7487471387	 0.104471
H	-2.7167710144	 4.63169476	-1.3537860456	 0.103547
H	 0.9410465521	 4.258527378	 0.139032439	 0.103547
65.7567	158.8984	163.2836	208.0349	239.462	283.96	393.4216	413.6227	545.1127	583.6096	639.7189	771.2422	775.7747	808.1815	841.0123	857.9382	869.2485	909.7217	931.8522	934.2788	972.1721	992.578	1033.2334	1090.6262	1121.3331	1124.304	1147.6598	1167.0308	1178.7084	1186.8807	1236.0489	1292.3889	1322.7824	1337.1472	1397.5267	1406.7015	1424.3604	1487.5948	1490.7737	1501.0966	1514.6477	3019.4208	3037.1769	3040.6841	3106.9172	3109.7411	3114.1754	3118.5705	3123.2361	3125.4908	3143.1182
CC(C)C12OC3C1OC23	CC(C)[C@@]12O[C@H]3[C@@H]1O[C@@H]23	
InChI=1S/C7H10O2/c1-3(2)7-5-4(9-7)6(7)8-5/h3-6H,1-2H3	InChI=1S/C7H10O2/c1-3(2)7-5-4(9-7)6(7)8-5/h3-6H,1-2H3/t4-,5-,6+,7+
