19
gdb 4169	2.5161423	1.7347873	1.3626547	2.2037	74.28	-0.23795	0.06928	0.30723	1008.3488	0.158004	-422.517035	-422.509374	-422.508429	-422.548748	30.814	
O	 0.5182057613	 0.6030617346	 0.2509884619	-0.442765
C	-0.797499915	 0.7093144315	 0.7499664845	 0.149062
C	-1.0410255926	 0.1191519993	 2.183358562	-0.267126
C	-1.5451100673	 1.4142358071	 2.8468067858	-0.009498
O	-2.4792446835	 1.9107094671	 1.8268979893	-0.299703
C	-1.2628109249	 2.1587771297	 1.0537881029	-0.058507
C	-0.556517703	 2.4821353163	 2.3704715871	 0.427963
C	-0.2816126683	 3.8110673007	 2.9753297671	-0.358911
C	 0.853618909	 2.8219473313	 2.7474819948	-0.377228
H	 1.1119374849	 0.9740687419	 0.9124210831	 0.283782
H	-1.4409700721	 0.2459726374	-0.000146121	 0.096154
H	-1.8007222217	-0.6646573206	 2.2013422861	 0.111936
H	-0.1176943247	-0.2725624491	 2.6208678578	 0.097271
H	-1.953232315	 1.3855621341	 3.8573329174	 0.081697
H	-1.3730561558	 2.8630756154	 0.2295328271	 0.082428
H	-0.3223101598	 4.6889156265	 2.3388153063	 0.122101
H	-0.5993985161	 3.9869908125	 3.9978883205	 0.12017
H	 1.5679983888	 3.0559905193	 1.9636818866	 0.120966
H	 1.2893010158	 2.3390276247	 3.6168732507	 0.120208
142.5553	182.2456	228.9852	279.476	347.1607	380.1298	439.4981	486.8928	565.6754	623.5088	715.2049	778.6011	825.9578	837.6987	869.1977	905.6848	930.3077	938.7006	955.0715	966.3517	983.2293	1023.3112	1044.9468	1065.7747	1083.1373	1086.7679	1127.6698	1186.2671	1193.5706	1210.6299	1228.5873	1240.2807	1268.9123	1297.8658	1305.7142	1314.0504	1425.4818	1431.8773	1462.7278	1484.7327	1514.8587	3062.0938	3097.793	3118.7713	3119.1877	3122.5619	3128.3069	3130.264	3198.3999	3215.0926	3811.5369
OC1CC2OC1C21CC1	O[C@H]1C[C@@H]2O[C@H]1C12CC1	
InChI=1S/C7H10O2/c8-4-3-5-7(1-2-7)6(4)9-5/h4-6,8H,1-3H2	InChI=1S/C7H10O2/c8-4-3-5-7(1-2-7)6(4)9-5/h4-6,8H,1-3H2/t4-,5-,6+/m0/s1
