19
gdb 2839	2.9760305	1.4443431	1.1271918	2.5306	74.52	-0.23784	0.06435	0.30219	1109.3101	0.156092	-422.511397	-422.502995	-422.502051	-422.543618	33.259	
C	 1.0887668148	-0.5308946779	-1.0894828239	-0.430329
C	 0.9408125175	 0.1218168287	 0.2802738911	-0.051443
C	 1.8370536195	-0.4982742663	 1.3958943091	-0.111551
C	 2.9566461582	 0.5766232935	 1.0689181576	-0.206946
C	 2.1217629345	 1.5107847603	 1.951135056	-0.163614
C	 1.4820331026	 0.3239743752	 2.6692479505	 0.153332
O	 2.1543866946	-0.0741714199	 3.842684778	-0.447719
C	 1.8134419915	 1.3659128581	 0.466905491	 0.401825
O	 1.8510087217	 2.4944363775	-0.3243557295	-0.467584
H	 0.6040338771	-1.5119749635	-1.1130850203	 0.120467
H	 0.6268785702	 0.0816336252	-1.8723886841	 0.114024
H	 2.1451610689	-0.672932615	-1.3471170241	 0.112573
H	-0.1213770149	 0.2276213317	 0.5386859115	 0.066174
H	 1.9821627048	-1.5754051262	 1.460965093	 0.073271
H	 4.0146166873	 0.5391815963	 0.8554143001	 0.093806
H	 2.407376355	 2.4743674945	 2.3550407512	 0.095453
H	 0.4224169648	 0.380060334	 2.9409363603	 0.081878
H	 3.1011386439	-0.0217432758	 3.6628503703	 0.277654
H	 2.1421997779	 2.2350775895	-1.2056016978	 0.288728
180.9342	207.8242	211.1846	245.3303	260.3583	315.6843	357.2518	393.5508	426.0093	462.3383	563.553	633.0888	766.2053	799.5388	830.6362	839.4859	875.6444	903.0296	926.4991	949.0398	955.1825	1017.8995	1038.2504	1069.3902	1094.4028	1105.728	1121.1839	1141.1104	1169.439	1222.0062	1223.5041	1260.0897	1282.4218	1298.4194	1313.9391	1386.9094	1405.4129	1434.6015	1436.0718	1497.1581	1504.3637	3014.5015	3022.6374	3055.835	3086.5488	3098.7232	3132.7581	3196.2165	3225.2281	3779.0912	3795.24
CC1C2C3C(C2O)C13O	C[C@H]1[C@H]2[C@@H]3[C@H]([C@@H]2O)[C@]13O	
InChI=1S/C7H10O2/c1-2-3-4-5(6(3)8)7(2,4)9/h2-6,8-9H,1H3	InChI=1S/C7H10O2/c1-2-3-4-5(6(3)8)7(2,4)9/h2-6,8-9H,1H3/t2-,3-,4+,5+,6+,7-/m0/s1
