19
gdb 566	3.2972393	1.7297783	1.7221589	1.7795	72.83	-0.23027	0.08647	0.31674	894.9243	0.161343	-422.574821	-422.568487	-422.567543	-422.605138	26.684	
C	 1.4061352886	 0.2575712851	 1.3627375267	-0.220395
C	 0.9939126964	 0.1589771502	-0.1435631006	-0.237262
C	 1.2235004801	 1.5870102472	-0.6695479788	-0.057838
C	 0.2044495628	 2.6017265592	-0.1041421803	 0.0636
C	 0.9271259621	 3.9295732589	-0.3159244694	-0.077816
O	 2.2864146589	 3.6013140968	 0.0378479251	-0.288723
C	 2.3122936897	 2.1964075141	 0.2430994458	 0.106824
C	 1.5702947448	 1.7679455614	 1.5301522818	 0.081601
O	 0.2582559745	 2.3502200225	 1.3168878061	-0.301696
H	 0.642412338	-0.1305020946	 2.0396156662	 0.110779
H	 2.3428402673	-0.2738181487	 1.5650028042	 0.0958
H	 1.6118200703	-0.5610954592	-0.6867547919	 0.101837
H	-0.0469895491	-0.1535522729	-0.264267161	 0.107959
H	 1.3954361198	 1.6812351344	-1.7421636537	 0.074309
H	-0.8289556513	 2.5478636196	-0.4488675644	 0.079115
H	 0.8838206164	 4.2928919826	-1.3528073328	 0.090061
H	 0.5469019126	 4.7032722542	 0.3578695918	 0.111351
H	 3.3355651787	 1.8330821898	 0.1454064015	 0.082914
H	 1.9720825492	 2.1253115694	 2.4788470338	 0.077579
212.587	258.0882	330.9229	368.2827	446.3341	551.3375	635.4804	736.0345	756.2001	792.6907	852.1622	861.4449	891.5117	908.5204	928.1303	954.682	960.1785	971.6924	973.0166	1018.0291	1039.3421	1049.731	1086.301	1095.5996	1142.5023	1181.8337	1194.7693	1224.3882	1239.605	1264.8968	1272.1618	1284.8401	1305.6407	1307.2222	1329.7878	1350.1136	1356.0134	1393.6083	1476.1432	1502.2081	1507.8922	3000.1664	3044.4418	3059.6645	3080.808	3093.4581	3110.6289	3112.0705	3115.5076	3116.4748	3125.6181
C1CC2C3COC2C1O3	C1C[C@H]2[C@@H]3CO[C@H]2[C@H]1O3	
InChI=1S/C7H10O2/c1-2-5-7-4(1)6(9-5)3-8-7/h4-7H,1-3H2	InChI=1S/C7H10O2/c1-2-5-7-4(1)6(9-5)3-8-7/h4-7H,1-3H2/t4-,5-,6-,7+/m0/s1
