19
gdb 3463	3.4341357	1.4164234	1.2412666	2.3652	75.46	-0.23052	-0.00411	0.22641	1063.176	0.157114	-422.554049	-422.545937	-422.544993	-422.586025	32.246	
C	-4.9032460344	 1.5442340161	 0.6717222841	-0.491172
C	-3.4590318567	 1.1156421002	 0.7470833532	 0.384383
C	-2.4415871094	 1.5248528382	-0.3551141073	-0.289331
C	-1.9310213702	 0.0912380287	-0.1075233256	 0.049471
O	-3.2549405496	-0.2889960011	 0.3550109564	-0.323611
C	-0.9711411201	 0.0040871327	 1.0951217925	 0.089463
O	 0.3332413881	 0.4811024627	 0.7784028144	-0.435516
C	-1.5904415336	 0.7485859296	 2.2613806677	-0.130613
C	-2.7883316452	 1.3099000505	 2.0988468405	-0.085941
H	-5.5042919974	 0.998977672	 1.4070849432	 0.131798
H	-4.9954798528	 2.615072858	 0.8829609451	 0.120349
H	-5.3109810261	 1.3461325595	-0.3226170105	 0.125432
H	-2.9136718323	 1.613418354	-1.3357673268	 0.107247
H	-1.7890790353	 2.3798638198	-0.1647987917	 0.087408
H	-1.5843575336	-0.5053578081	-0.9544539076	 0.080866
H	-0.8295316971	-1.0525370935	 1.3519763181	 0.102895
H	 0.27718266	 1.4383136349	 0.6830903303	 0.28024
H	-1.0200666025	 0.8156938366	 3.183196681	 0.101875
H	-3.2865332618	 1.883408379	 2.8747393531	 0.094756
132.7466	208.0994	228.813	286.5977	300.8199	329.9386	402.6304	445.7289	470.4417	482.5176	624.2843	666.3309	698.7207	746.1529	833.8082	852.2878	903.97	927.8502	931.1624	980.3198	991.6603	1013.9025	1041.0368	1072.0194	1098.3652	1126.3626	1152.2802	1221.6898	1238.0654	1242.942	1268.0188	1290.4787	1320.0366	1359.7431	1389.5039	1408.6605	1416.6028	1478.6247	1485.5339	1494.3222	1689.3666	3036.0161	3042.4011	3063.714	3088.552	3104.1914	3122.202	3126.7698	3161.8384	3185.3725	3803.2942
CC12CC(O1)C(O)C=C2	C[C@]12C[C@H](O1)[C@@H](O)C=C2	
InChI=1S/C7H10O2/c1-7-3-2-5(8)6(4-7)9-7/h2-3,5-6,8H,4H2,1H3	InChI=1S/C7H10O2/c1-7-3-2-5(8)6(4-7)9-7/h2-3,5-6,8H,4H2,1H3/t5-,6-,7-/m0/s1
