19
gdb 952	4.2617144	0.9032408	0.7816045	3.7248	78.85	-0.24123	-0.01811	0.22311999999999999	1441.7447	0.156586	-422.570485	-422.561675	-422.560731	-422.605199	31.737	
O	 1.2551526468	-0.532741094	 0.1415382211	-0.243647
C	 0.173298214	-0.00897202	 0.0534949783	 0.151557
C	-0.4525464887	 0.8319896389	 1.1476561708	-0.291782
C	-1.0188190406	 2.1626719819	 0.6251013233	 0.071979
O	-2.0221469369	 1.828443795	-0.3223921219	-0.268152
C	-2.8351693981	 2.9322788127	-0.6922211681	-0.077959
C	-3.6549858802	 3.4287622379	 0.4998089348	-0.256762
C	-2.7611776778	 3.573792283	 1.7029381533	-0.072932
C	-1.551469708	 3.020883336	 1.7449434879	-0.066066
H	-0.449665184	-0.117446189	-0.8588641153	 0.097366
H	-1.2872445213	 0.2642645172	 1.5803276065	 0.131399
H	 0.294791107	 1.0020488711	 1.9272693002	 0.118624
H	-0.203378414	 2.7108192744	 0.1145172032	 0.084273
H	-2.2087709972	 3.7509489512	-1.0814411252	 0.095261
H	-3.4746646011	 2.5796266072	-1.5057287269	 0.109903
H	-4.1243020873	 4.3894823534	 0.2529083854	 0.107557
H	-4.4760319293	 2.7314549943	 0.7149152173	 0.118535
H	-3.1250291972	 4.1608031026	 2.5419750026	 0.09494
H	-0.8936324461	 3.1636079562	 2.5981096929	 0.095906
43.963	70.0684	101.6911	180.4051	277.9938	299.7876	385.8566	413.3551	495.6775	530.8714	578.6074	680.4027	782.0443	808.127	848.6936	890.9177	929.5639	973.9975	999.3223	1020.114	1043.4334	1078.9873	1096.5814	1116.994	1122.6804	1207.7002	1223.6946	1240.0858	1276.6095	1299.3563	1348.4501	1358.5492	1368.3433	1399.283	1420.1634	1428.175	1446.5772	1469.4714	1500.9278	1722.7871	1829.2852	2911.5075	2920.896	2979.8927	3016.6435	3031.0894	3051.7125	3092.4327	3109.1715	3152.979	3175.6418
O=CCC1OCCC=C1	O=CC[C@H]1OCCC=C1	
InChI=1S/C7H10O2/c8-5-4-7-3-1-2-6-9-7/h1,3,5,7H,2,4,6H2	InChI=1S/C7H10O2/c8-5-4-7-3-1-2-6-9-7/h1,3,5,7H,2,4,6H2/t7-/m0/s1
