19
gdb 1610	3.4515832	1.0425707	0.9970527	3.0235	75.83	-0.24028	-0.02053	0.21975	1262.7424	0.154711	-422.550617	-422.541664	-422.54072	-422.584756	33.981	
O	-2.7943594829	 0.0342784715	-1.2045854602	-0.477214
C	-2.0438359983	-0.0365143309	-0.0079928411	 0.367483
C	-0.8921851868	-1.1062614485	-0.0077476896	-0.413631
C	 0.0957451224	 0.0378670183	 0.2657825275	 0.41482
O	 1.2433812483	 0.076318183	 0.6025712485	-0.29121
C	-0.9793593772	 1.1040835611	 0.0258330456	-0.383283
C	-2.9148203442	-0.084382072	 1.2326355023	-0.01005
C	-4.2488332917	-0.7875419001	 1.2394961714	-0.29595
C	-4.1837820679	 0.7201343903	 1.3105301856	-0.267322
H	-3.2500061079	-0.8058831406	-1.3235507023	 0.282583
H	-0.9310377677	-1.9073935324	 0.7349198991	 0.125617
H	-0.7385433902	-1.538691109	-1.0020952048	 0.130223
H	-1.0854181316	 1.8771036685	 0.7905188794	 0.130029
H	-0.8744726977	 1.5776673859	-0.9552858568	 0.142513
H	-2.3395521743	-0.1635172734	 2.1519136191	 0.088365
H	-4.6185912287	-1.223607238	 0.3169095225	 0.09859
H	-4.5293721181	-1.3421829389	 2.1277160769	 0.117181
H	-4.4737654229	 1.2632939604	 0.4184930061	 0.128027
H	-4.4332202627	 1.2070720347	 2.2463123307	 0.113228
42.0471	75.4764	204.3171	248.5758	288.8486	330.6336	362.4306	392.0618	424.025	447.6171	546.4443	649.8089	668.1576	715.9911	790.359	815.211	826.5377	912.1815	922.3715	949.3226	974.0659	1007.6313	1057.0066	1065.8302	1083.5784	1087.0513	1115.3956	1141.8519	1146.2997	1184.3243	1197.0868	1226.8905	1244.9103	1295.5472	1336.7525	1413.6397	1415.0266	1435.921	1460.0916	1504.812	1894.2729	3052.4446	3063.4991	3115.7783	3124.3016	3129.9779	3135.9821	3142.309	3210.1267	3232.5976	3809.2461
OC1(CC(=O)C1)C1CC1	OC1(CC(=O)C1)C1CC1	
InChI=1S/C7H10O2/c8-6-3-7(9,4-6)5-1-2-5/h5,9H,1-4H2	InChI=1S/C7H10O2/c8-6-3-7(9,4-6)5-1-2-5/h5,9H,1-4H2
