19
gdb 1262	2.5530432	1.4348896	1.1278157	2.5265	75.56	-0.23925	0.00948	0.24872999999999998	1135.4321	0.155961	-422.532777	-422.523868	-422.522924	-422.566535	33.279	
C	-1.6732419263	-2.0539536035	 0.9534445506	-0.420881
C	-0.6824800194	-2.1467459701	-0.2078366801	-0.016487
O	-1.1580515167	-2.9871945569	-1.2576986701	-0.424686
C	-0.2983756176	-0.7831952605	-0.7268489516	 0.201752
C	 0.7717705096	-0.4266013491	-1.8193392297	-0.275938
C	 0.2034743204	 0.9760143767	-1.4152266947	-0.176533
C	-1.2067303672	 0.2927963364	-1.4389780105	-0.284523
C	 0.27812536	 0.4367811355	 0.0187725597	 0.43181
O	 0.59406847	 0.7659909121	 1.1210551679	-0.338983
H	-1.916301598	-3.0539314135	 1.3214470043	 0.125704
H	-1.2521414	-1.463458119	 1.7729159021	 0.145826
H	-2.6043892002	-1.5698174991	 0.6335780137	 0.107138
H	 0.2315271564	-2.6411096519	 0.1437877943	 0.101228
H	-2.0161420537	-2.64709989	-1.5346988241	 0.277554
H	 1.817710705	-0.6368097838	-1.5875211206	 0.11315
H	 0.5032810006	-0.7515760325	-2.8266150382	 0.114409
H	 0.475615338	 1.9497764459	-1.8147119894	 0.097329
H	-2.0047253152	 0.7583870113	-0.857257076	 0.113942
H	-1.5420668454	 0.003566162	-2.4382688475	 0.10819
54.2043	126.907	184.6048	198.5698	256.9479	282.0628	309.4477	351.9775	482.0872	518.8269	570.8356	632.6083	741.9198	784.9864	792.1801	815.7765	907.8655	919.8149	927.549	985.5322	1004.7616	1033.1265	1041.3908	1074.4267	1080.2124	1100.5662	1142.5078	1157.0486	1186.9861	1197.983	1228.4451	1293.8637	1321.4719	1376.9457	1403.331	1417.4675	1493.143	1494.1089	1496.5512	1533.2717	1906.7846	3026.557	3039.9875	3059.2237	3067.2183	3099.5752	3126.4782	3132.101	3139.2288	3153.878	3799.8192
CC(O)C12CC(C1)C2=O	C[C@@H](O)[C@@]12C[C@@H](C1)C2=O	
InChI=1S/C7H10O2/c1-4(8)7-2-5(3-7)6(7)9/h4-5,8H,2-3H2,1H3	InChI=1S/C7H10O2/c1-4(8)7-2-5(3-7)6(7)9/h4-5,8H,2-3H2,1H3/t4-,5-,7+/m1/s1
