19
gdb 2027	2.2092026	2.0656886	1.3750801	2.1099	73.91	-0.22574	0.06825	0.29399	993.7531	0.156068	-422.519726	-422.51149	-422.510546	-422.551734	32.897	
C	 0.0150883049	-0.1266229729	 0.0233046938	-0.479396
C	 1.5246248427	-0.0891355873	 0.0719584456	 0.227788
C	 2.2956118346	 0.9006938522	-0.7868211276	-0.379786
C	 2.4114343351	-0.5808122885	-1.0442064074	 0.071819
O	 3.5201737257	-1.276177208	-0.5183737894	-0.26054
C	 3.3963414061	-1.3827341305	 0.8762041092	 0.063066
C	 3.5776859093	-0.1446990161	 1.7378626278	-0.395847
C	 2.1936220252	-0.6225016327	 1.3452971663	 0.296965
O	 1.3596864639	-1.1736623157	 2.3181875028	-0.457586
H	-0.4247578281	 0.6191346176	 0.6962767092	 0.109555
H	-0.3418150675	 0.0953265279	-0.9867937519	 0.113889
H	-0.3675524842	-1.1072042554	 0.3176712783	 0.13564
H	 1.7103208027	 1.4714565625	-1.5017513702	 0.109385
H	 3.1479134981	 1.4377869194	-0.3890973912	 0.116205
H	 2.047363893	-1.0130136943	-1.9706734879	 0.098865
H	 3.680974537	-2.3529977369	 1.2679819213	 0.110432
H	 3.8583083145	-0.3452131142	 2.7673112642	 0.115063
H	 4.0033124473	 0.7574225853	 1.3167956596	 0.119278
H	 1.0630133194	-0.4607405723	 2.8946112675	 0.285206
139.1676	190.0132	247.5922	282.8843	304.7891	325.7588	373.0077	426.8052	462.4492	491.0524	590.6544	615.1331	698.9868	799.7201	812.2076	849.5969	886.4585	909.3448	946.2691	967.7614	988.6538	1003.6595	1026.0357	1032.7616	1069.1799	1088.5078	1104.5055	1126.6307	1168.4799	1194.6657	1237.8568	1283.0971	1309.732	1331.7481	1388.5731	1398.407	1417.4537	1469.7217	1486.7096	1489.8034	1501.3157	3029.5381	3091.1416	3119.3428	3129.0841	3136.035	3161.3304	3174.9977	3218.1179	3230.6621	3793.5318
CC12CC1OC1CC21O	C[C@]12C[C@H]1O[C@H]1C[C@@]21O	
InChI=1S/C7H10O2/c1-6-2-4(6)9-5-3-7(5,6)8/h4-5,8H,2-3H2,1H3	InChI=1S/C7H10O2/c1-6-2-4(6)9-5-3-7(5,6)8/h4-5,8H,2-3H2,1H3/t4-,5+,6+,7+/m1/s1
