19
gdb 1015	2.872485	0.9346717	0.8796979	2.0318	81.68	-0.23705	0.03152	0.26857000000000003	1449.3909	0.154355	-422.52553	-422.515207	-422.514262	-422.564298	36.445	
C	 1.5802772762	 0.3318632078	-0.0558876393	-0.50281
C	 0.1338410774	 0.173251776	-0.0285164904	 0.102615
C	-1.0638016423	 0.0348640758	-0.0125909351	-0.035644
C	-2.5037179882	-0.1237862639	 0.0498084847	 0.19598
O	-3.1830435846	 1.1335739476	-0.0807034807	-0.480185
C	-3.2010260807	-1.1531052332	-0.883938875	-0.25269
C	-4.1114072518	-1.5932329982	 0.2933438997	-0.276582
C	-3.1253720198	-0.9019024083	 1.2780949951	 0.12552
O	-3.6250010633	-0.1113858174	 2.3118744632	-0.433605
H	 1.9928494748	 0.4134215299	 0.9556861781	 0.15225
H	 2.0607974781	-0.5236995765	-0.5430432755	 0.153232
H	 1.8703393164	 1.2323280344	-0.6083254717	 0.151744
H	-2.6089505681	 1.8030941362	 0.3067477293	 0.289091
H	-3.6816803616	-0.7068914409	-1.7557490618	 0.116773
H	-2.508355556	-1.9316262796	-1.2080662237	 0.113323
H	-5.0760670258	-1.0792631276	 0.2827053961	 0.108489
H	-4.2831708989	-2.6624368183	 0.4309269481	 0.101091
H	-2.4085281313	-1.6038676211	 1.7108427423	 0.093617
H	-4.0529678004	 0.6372946673	 1.8733029767	 0.277788
2.0966	76.163	91.0709	128.4079	203.2638	257.7413	276.8861	311.9833	356.8658	390.1248	485.6282	492.113	533.8729	565.2145	618.9232	716.1984	775.6096	888.7595	921.0298	956.1042	965.7096	1006.2591	1051.9	1053.7866	1081.2901	1127.5797	1150.2605	1182.5833	1220.4364	1232.2394	1254.995	1274.0927	1334.1445	1381.4271	1413.7516	1439.5165	1467.8772	1475.8484	1477.8747	1488.7527	2359.3565	3028.3164	3068.234	3080.703	3087.117	3089.9791	3090.6691	3122.024	3143.5026	3743.854	3815.5696
CC#CC1(O)CCC1O	CC#C[C@@]1(O)CC[C@@H]1O	
InChI=1S/C7H10O2/c1-2-4-7(9)5-3-6(7)8/h6,8-9H,3,5H2,1H3	InChI=1S/C7H10O2/c1-2-4-7(9)5-3-6(7)8/h6,8-9H,3,5H2,1H3/t6-,7+/m0/s1
