19
gdb 4142	2.9140862	1.7090221	1.3775033	1.2341	74.07	-0.24046	0.05877	0.29923	979.6809	0.158951	-422.496869	-422.489742	-422.488797	-422.527877	29.605	
O	 0.6299585855	 0.1077144316	 0.9996761171	-0.433055
C	-0.7368014462	 0.4701780597	 0.9204212223	 0.030039
C	-1.3654554625	 0.4618827543	 2.374271524	-0.22659
C	-1.8032321312	 1.959943634	 2.5500065042	-0.071546
C	-0.5509697451	 2.6532106672	 1.9716327978	-0.293896
C	-1.0574718648	 1.9354373125	 0.6691046749	 0.444632
O	-1.2259205898	 2.7398659771	-0.4976224477	-0.367794
C	-2.4295428174	 3.3007388097	 0.1370987796	-0.164012
C	-2.4934497859	 2.1274831682	 1.1671472596	-0.077402
H	 1.0083494643	 0.1845438905	 0.1176390382	 0.286154
H	-1.2800702833	-0.1919026894	 0.2330659928	 0.071755
H	-2.2052397755	-0.2333732885	 2.4511394545	 0.101653
H	-0.5992957866	 0.1725478414	 3.0974687416	 0.118241
H	-2.2434656807	 2.2238144167	 3.512452786	 0.064067
H	-0.6235867434	 3.7377755958	 1.9037783372	 0.102825
H	 0.4222602905	 2.3544585641	 2.3621018055	 0.108968
H	-2.2491481873	 4.309120005	 0.5211803264	 0.113452
H	-3.2613014645	 3.3198444513	-0.5710767385	 0.115697
H	-3.2543716361	 1.3898020588	 0.9011536944	 0.076814
179.5902	248.6671	298.5775	330.4854	366.4983	451.3499	470.5165	498.2127	568.7086	684.5529	755.3025	778.7745	820.2973	850.075	874.7483	915.3773	929.3215	939.5723	984.8961	1014.9164	1040.4645	1052.9234	1079.7208	1089.1174	1098.1394	1123.0144	1156.9664	1180.388	1205.9983	1212.5385	1245.2856	1259.5382	1271.4712	1302.394	1321.0307	1345.9794	1358.0326	1408.2158	1478.3054	1499.2597	1520.3101	3013.0087	3048.705	3064.6484	3073.9958	3090.7439	3104.1753	3109.2352	3121.132	3156.0904	3814.0933
OC1CC2CC11OCC21	O[C@H]1C[C@H]2C[C@]31OC[C@H]23	
InChI=1S/C7H10O2/c8-6-1-4-2-7(6)5(4)3-9-7/h4-6,8H,1-3H2	InChI=1S/C7H10O2/c8-6-1-4-2-7(6)5(4)3-9-7/h4-6,8H,1-3H2/t4-,5+,6-,7-/m0/s1
