19
gdb 3279	2.9546352	1.3784083	1.163958	2.1839	74.59	-0.22458	0.07486	0.29944	1126.4346	0.156155	-422.518363	-422.51009	-422.509145	-422.550582	32.638	
C	 0.0295687409	 0.0913708075	 0.0921884886	-0.418809
C	 1.5419663327	 0.0419612525	 0.0623304111	-0.065273
C	 2.2194782928	-0.9456054782	-0.8522920979	 0.09298
O	 3.5292098691	-0.67856383	-1.3064399077	-0.262159
C	 4.4474126149	-0.8549354084	-0.2572260346	 0.057889
C	 4.4939235031	 0.1636785508	 0.8689574531	-0.39413
C	 3.7161219236	-1.1286225013	 1.0229955752	 0.359853
O	 4.1716754109	-2.1153104451	 1.8959443405	-0.468889
C	 2.2451851477	-1.1756660446	 0.6384970754	-0.16833
H	-0.3390629687	 0.4315003493	 1.0661212606	 0.1197
H	-0.3581684757	 0.7731118313	-0.672449314	 0.122294
H	-0.4023068486	-0.8977110129	-0.0950460566	 0.116747
H	 2.0300256093	 1.0038485172	 0.182802356	 0.088649
H	 1.6372297972	-1.5297747402	-1.5582951934	 0.097091
H	 5.3547245084	-1.3713878754	-0.5504238289	 0.11011
H	 5.4349553947	 0.2046497648	 1.4088049527	 0.114656
H	 3.9857057274	 1.1145267256	 0.764460944	 0.120319
H	 4.0267036849	-1.8039614456	 2.7961865187	 0.284809
H	 1.6635495052	-1.9556054372	 1.1162278271	 0.092492
170.0769	187.5552	212.7316	234.8994	281.6297	310.1056	370.348	414.7768	462.7832	475.7635	607.4946	706.4173	758.71	813.491	839.3413	858.0865	892.9723	919.8935	961.2644	992.6399	1006.9615	1013.1682	1035.8729	1058.2868	1072.7882	1093.8564	1126.3295	1133.0905	1169.4892	1200.3316	1220.2544	1257.4429	1292.2969	1310.0757	1341.1519	1401.1304	1415.4972	1431.7763	1479.4166	1494.4076	1500.6262	3027.0194	3091.6265	3094.6129	3132.1626	3153.2024	3159.7611	3175.0679	3180.388	3226.2304	3794.5477
CC1C2OC3CC3(O)C12	C[C@@H]1[C@H]2O[C@H]3C[C@@]3(O)[C@@H]12	
InChI=1S/C7H10O2/c1-3-5-6(3)9-4-2-7(4,5)8/h3-6,8H,2H2,1H3	InChI=1S/C7H10O2/c1-3-5-6(3)9-4-2-7(4,5)8/h3-6,8H,2H2,1H3/t3-,4-,5-,6+,7-/m0/s1
