19
gdb 4393	4.2864909	0.9871465	0.8474366	2.9948	78.71	-0.2442	-0.03039	0.21381	1365.048	0.155874	-422.571095	-422.562092	-422.561147	-422.605768	32.549	
C	 1.3815295713	-0.7671823712	-1.1411556322	-0.401875
C	 1.2700177685	 0.1195298875	 0.1066951454	-0.039422
C	 1.720070858	-0.6328094165	 1.3643228637	-0.082411
O	 1.8111927389	 0.2289103473	 2.4887339516	-0.274376
C	 2.7971135573	 1.2284470716	 2.3483243762	 0.002306
C	 2.5160975119	 2.2775805161	 3.4255167724	 0.132228
O	 3.2078362146	 3.2429170337	 3.6078847219	-0.246942
C	 2.8103617642	 1.8688128441	 0.9829964551	-0.101754
C	 2.0895738195	 1.3809114241	-0.0227051428	-0.060424
H	 0.7774253013	-1.6745523219	-1.0366242781	 0.117553
H	 1.032344825	-0.2341821354	-2.0310090821	 0.120382
H	 2.4196104724	-1.0689556327	-1.3182303271	 0.12221
H	 0.2135076972	 0.3980269074	 0.2340602434	 0.09383
H	 1.0044010066	-1.4126827099	 1.6393427602	 0.110245
H	 2.6931438744	-1.1159032817	 1.1754677816	 0.091774
H	 3.8022336838	 0.8197170314	 2.5693532727	 0.105443
H	 1.6047216467	 2.0626909939	 4.0242147128	 0.100052
H	 3.4252684929	 2.7579313346	 0.8876182765	 0.117311
H	 2.0934258455	 1.8794013175	-0.9896047512	 0.093871
37.2622	65.3646	166.1177	212.7175	229.5256	298.2433	320.155	392.469	412.6716	528.997	564.6202	579.5277	729.1699	767.1887	828.8446	865.6237	934.3435	965.5257	994.46	1011.9851	1047.8783	1074.717	1100.041	1115.5755	1135.2051	1169.0952	1219.7638	1266.8757	1290.0347	1314.1352	1328.1809	1353.134	1378.4458	1396.0928	1405.409	1426.8729	1494.7304	1499.4112	1501.0338	1717.3664	1839.6365	2908.0438	2917.4255	2970.33	2997.4471	3031.1217	3087.4214	3101.181	3104.4782	3148.3085	3190.5073
CC1COC(C=O)C=C1	C[C@H]1CO[C@H](C=O)C=C1	
InChI=1S/C7H10O2/c1-6-2-3-7(4-8)9-5-6/h2-4,6-7H,5H2,1H3	InChI=1S/C7H10O2/c1-6-2-3-7(4-8)9-5-6/h2-4,6-7H,5H2,1H3/t6-,7+/m1/s1
