19
gdb 1055	6.2029737	0.5053668	0.4819424	2.21	83.02	-0.24526	0.03735	0.28261000000000003	2269.1008	0.153477	-422.482847	-422.47222	-422.471276	-422.521375	34.996	
C	 1.5671746034	 0.0027187208	-0.0158040374	-0.498926
C	 0.1125413644	-0.0233048358	-0.0426575941	 0.139098
C	-1.0901337126	-0.0499547447	-0.0566372366	 0.002818
C	-2.5449836174	-0.0608659585	-0.0947635716	-0.205297
O	-3.0535066114	-0.9856708065	 0.851459431	-0.246651
C	-4.4621439713	-1.0567785331	 0.8286315162	-0.063094
C	-4.9048755766	-2.0560669145	 1.8606479979	 0.082245
C	-6.2499537879	-2.0001056269	 2.4435191377	-0.182446
O	-5.1108891892	-1.5722080853	 3.1879783805	-0.224656
H	 1.9535634304	-0.6356329649	 0.7862331527	 0.154732
H	 1.992132666	-0.3563772051	-0.9594926879	 0.148071
H	 1.9450834404	 1.0163195248	 0.1570234865	 0.14921
H	-2.9354642511	 0.9500565253	 0.115310962	 0.115544
H	-2.8932431311	-0.3257605405	-1.1089833085	 0.110918
H	-4.9159972897	-0.077294928	 1.0521064997	 0.095842
H	-4.8170470654	-1.3718258087	-0.1694100498	 0.088713
H	-4.3963443146	-3.018848149	 1.8068235479	 0.103811
H	-6.9364348651	-1.2088022736	 2.1429474973	 0.112684
H	-6.7254231915	-2.9169615058	 2.7885703267	 0.117384
24.031	38.4798	65.586	81.1945	131.0295	170.7689	209.7388	298.1938	316.7516	376.8264	405.1771	453.0183	549.5442	780.7812	817.3604	872.9913	950.9618	989.6902	1023.2546	1033.7194	1051.4738	1058.4991	1103.4989	1131.3584	1154.3134	1161.4545	1174.9439	1182.0545	1252.9754	1268.6467	1292.4212	1359.161	1413.2891	1418.1102	1468.3732	1476.6511	1478.7813	1491.4647	1512.4627	1532.7524	2381.3479	2939.5589	2947.676	2961.9761	2989.3902	3028.835	3080.8763	3089.6335	3091.7617	3117.3376	3166.5016
CC#CCOCC1CO1	CC#CCOC[C@@H]1CO1	
InChI=1S/C7H10O2/c1-2-3-4-8-5-7-6-9-7/h7H,4-6H2,1H3	InChI=1S/C7H10O2/c1-2-3-4-8-5-7-6-9-7/h7H,4-6H2,1H3/t7-/m1/s1
