19
gdb 4832	3.8783536	1.2553006	1.1262732	2.2469	75.64	-0.2465	0.06085	0.30735	1124.3149	0.156854	-422.487403	-422.479389	-422.478445	-422.519614	31.691	
O	 1.5094697704	 0.2482745455	-0.6527305276	-0.436323
C	 0.2335896636	 0.1340570869	-0.017626501	-0.169096
C	-0.8029616386	 0.4276939272	-1.0902032521	 0.462791
O	-0.6011561679	-0.4328377696	-2.1878210534	-0.504464
C	-2.2756416194	 0.572160333	-0.6838078822	-0.107867
C	-2.0732390414	 2.0412896306	-0.1654499392	-0.057029
C	-3.2474408506	 2.5748524111	-1.0082439627	-0.273292
C	-2.5817361753	 1.51391497	-1.9042795878	-0.040996
C	-1.1397690986	 1.9044150951	-1.4198326067	-0.106793
H	 2.1727966969	-0.1534461961	-0.0853383572	 0.294082
H	 0.0776384961	-0.88610753	 0.3629966968	 0.094491
H	 0.1463647932	 0.8358910027	 0.8225625765	 0.093732
H	 0.3560058156	-0.4752011876	-2.3112739636	 0.283642
H	-2.9467372378	-0.1794875503	-0.2636697343	 0.065921
H	-1.7674381324	 2.3334770924	 0.8400004769	 0.06738
H	-4.256147326	 2.3528055556	-0.6442675443	 0.089948
H	-3.1807522646	 3.6156774851	-1.3416172917	 0.090611
H	-2.8499303476	 1.185644672	-2.9065682554	 0.08371
H	-0.5046856357	 2.6844443366	-1.8422592311	 0.069551
102.7094	175.376	221.8008	258.3163	312.628	356.1566	395.754	472.214	508.5858	562.3965	685.727	751.3543	818.0261	844.2002	851.0002	879.4	918.3545	926.1793	965.6358	1000.1333	1011.1174	1030.5935	1061.6936	1067.5512	1084.4805	1137.265	1144.1499	1152.9152	1154.0694	1165.9053	1194.4644	1200.0403	1244.0412	1246.21	1264.9568	1303.9593	1309.9689	1417.2802	1455.3953	1506.9389	1513.3278	2990.9818	3034.3709	3035.7255	3090.2883	3091.9308	3098.7922	3108.3774	3136.4103	3768.5481	3843.2669
OCC1(O)C2C3CC2C13	OC[C@@]1(O)[C@H]2[C@@H]3C[C@H]2[C@H]13	
InChI=1S/C7H10O2/c8-2-7(9)5-3-1-4(5)6(3)7/h3-6,8-9H,1-2H2	InChI=1S/C7H10O2/c8-2-7(9)5-3-1-4(5)6(3)7/h3-6,8-9H,1-2H2/t3-,4+,5-,6+,7-
