19
gdb 5683	3.6922801	0.9207521	0.8584939	2.5832	77.5	-0.25493	0.03559	0.29052	1391.7764	0.154372	-422.511901	-422.501982	-422.501037	-422.546819	36.698	
O	 5.7701695927	-1.7420228416	 2.2003232262	-0.429289
C	 5.4054608335	-0.5086736359	 2.7967024721	-0.074865
C	 4.5432087596	 0.3361262604	 1.8765992564	-0.093924
C	 3.3350401456	 1.0798933269	 2.4297802715	-0.353341
C	 3.1593868012	-0.1451337521	 1.5689853086	 0.413463
O	 2.8185575783	-1.3567797398	 2.1921790987	-0.476488
C	 2.5969285716	-0.0151045457	 0.1573888065	-0.405046
C	 1.1397621766	-0.1217000896	 0.1593555658	 0.274599
C	-0.054795624	-0.2441775355	 0.2278643235	-0.437218
H	 4.9446991575	-2.2262654429	 2.0789475937	 0.292595
H	 4.8814973121	-0.6683995854	 3.7491256663	 0.091639
H	 6.3405407835	 0.0154938346	 3.0200831716	 0.106154
H	 5.0769489913	 0.8036823884	 1.0534017908	 0.091856
H	 3.133907153	 0.9652162096	 3.4896409503	 0.118086
H	 3.0815392474	 2.0519121349	 2.0203730173	 0.113573
H	 1.8548650202	-1.413685414	 2.2145418674	 0.291447
H	 2.9066693781	 0.9411470556	-0.2789342402	 0.13319
H	 3.0220133244	-0.8071613564	-0.4721622739	 0.141451
H	-1.1127994226	-0.3332166117	 0.2551386478	 0.202118
56.9972	95.4352	115.9997	152.4898	227.4802	325.098	349.1501	355.9573	385.6104	403.9249	457.1494	467.8592	494.3651	624.5722	628.7744	661.2798	752.5969	819.7988	883.352	903.6053	944.8711	957.7392	980.1577	1039.7447	1051.8235	1069.3007	1089.2912	1148.7353	1195.088	1212.3523	1264.1887	1297.941	1312.438	1347.6531	1399.1538	1423.4764	1439.7063	1460.9241	1491.3388	1505.315	2232.0911	3007.3793	3027.8296	3070.785	3073.2881	3130.5067	3144.7659	3219.9599	3503.8053	3769.2884	3792.8904
OCC1CC1(O)CC#C	OC[C@@H]1C[C@@]1(O)CC#C	
InChI=1S/C7H10O2/c1-2-3-7(9)4-6(7)5-8/h1,6,8-9H,3-5H2	InChI=1S/C7H10O2/c1-2-3-7(9)4-6(7)5-8/h1,6,8-9H,3-5H2/t6-,7-/m0/s1
