19
gdb 2317	2.5902414	1.9842535	1.654119	1.2675	73.97	-0.24632	0.06219	0.30851	908.9191	0.158057	-422.478484	-422.471299	-422.470355	-422.50939	29.812	
C	-0.020107066	-0.2445067742	 0.4543356125	-0.478445
C	 1.3684238279	 0.1293205972	-0.0281944999	 0.263941
C	 2.2028820764	 0.8933433342	 1.060752114	-0.195682
O	 3.0173749903	-0.3019888867	 1.3489950547	-0.3473
C	 2.5987593596	-0.8097553091	 0.0943104808	 0.37748
C	 3.1987375819	-0.1257184073	-1.1973891611	-0.29369
C	 1.7119758242	-0.0876804412	-1.5251989423	 0.002926
O	 1.4280823093	-1.5358976258	-1.6254298157	-0.294409
C	 2.1020055619	-2.1272170902	-0.4660209618	-0.159763
H	 0.0148133191	-0.696186099	 1.4528332194	 0.123139
H	-0.6528987143	 0.6482980903	 0.5227655803	 0.114996
H	-0.4968021692	-0.9510596424	-0.2277519168	 0.140818
H	 2.8242074376	 1.7352518876	 0.7441141322	 0.115524
H	 1.6192498283	 1.1753164656	 1.9400130038	 0.118304
H	 3.6642576075	 0.8361733605	-0.9934927926	 0.109328
H	 3.8206001443	-0.7333093658	-1.8555694644	 0.10475
H	 1.2490871844	 0.39277308	-2.3865063865	 0.077264
H	 1.3757243662	-2.6394587092	 0.172363543	 0.111988
H	 2.8677145505	-2.8318649646	-0.8043921096	 0.10883
211.1768	233.068	270.9885	354.5231	362.4463	409.5773	502.9895	506.0207	544.618	622.4859	722.9642	785.3746	799.9096	838.5109	868.304	889.4088	911.5008	932.6914	960.0856	970.5553	983.0605	1056.3241	1082.1345	1104.5416	1145.6924	1158.1804	1170.651	1192.0847	1213.0489	1225.0039	1262.6387	1281.5403	1295.5949	1322.1075	1359.4901	1402.3666	1484.3564	1490.3719	1503.706	1522.2284	1527.6422	3025.5715	3041.9246	3055.494	3079.632	3090.4129	3095.4838	3114.3332	3125.6007	3131.0076	3167.34
CC12COC11CC2OC1	C[C@@]12CO[C@@]31C[C@H]2OC3	
InChI=1S/C7H10O2/c1-6-3-9-7(6)2-5(6)8-4-7/h5H,2-4H2,1H3	InChI=1S/C7H10O2/c1-6-3-9-7(6)2-5(6)8-4-7/h5H,2-4H2,1H3/t5-,6+,7+/m1/s1
