19
gdb 4934	2.0741944	1.603191	1.1808699	2.919	77.43	-0.23212	-0.034	0.19812	1133.6297	0.154747	-422.572462	-422.563083	-422.562139	-422.607163	33.47	
C	 1.0865070692	 1.1043784991	 0.4359807242	-0.402093
C	 0.8967021061	-0.3557662182	 0.026056673	-0.197856
C	 1.786745594	-0.7933526984	-1.148708235	 0.242049
O	 3.1748478289	-0.673278612	-0.8143267134	-0.309242
C	 3.8689876507	 0.1134158402	-1.7836728753	-0.132056
C	 2.8159958215	 0.5254809088	-2.7723305503	-0.096009
C	 1.6391236718	 0.0268269593	-2.4127002193	-0.118929
C	 1.5171902986	-2.263690199	-1.5088705104	 0.133377
O	 0.4371017409	-2.7907723224	-1.4740309468	-0.257286
H	 0.4511776202	 1.3475490793	 1.2926061672	 0.115246
H	 2.1251790186	 1.2928064155	 0.7219979601	 0.127344
H	 0.8302539446	 1.7903693319	-0.3773172179	 0.115761
H	 1.1216713187	-1.0134353995	 0.873535049	 0.110271
H	-0.1414915211	-0.560680319	-0.2538795808	 0.119135
H	 4.3469893912	 0.9745687055	-1.2927892114	 0.112891
H	 4.670020399	-0.4827260923	-2.2462267949	 0.112908
H	 3.0217310852	 1.149338742	-3.6329684618	 0.11611
H	 0.6898901213	 0.1390598554	-2.91973648	 0.122289
H	 2.4367570007	-2.8006668861	-1.8332845263	 0.08609
64.8878	84.0739	101.8902	181.6069	207.0964	231.429	288.4681	335.6196	400.6501	460.5964	564.3039	682.4997	739.3153	770.9417	782.2027	829.5703	911.8939	947.4619	962.0598	966.7626	1021.6245	1034.556	1048.0748	1070.2838	1112.9416	1134.5658	1169.9045	1198.4542	1206.6055	1299.3338	1340.7395	1365.7638	1381.0514	1388.4866	1408.2279	1476.7176	1495.2407	1507.8657	1519.9868	1681.8305	1829.6863	2886.1291	2985.2229	3004.8075	3042.0852	3044.7488	3086.8409	3110.3628	3119.0734	3211.1613	3236.6079
CCC1(OCC=C1)C=O	CC[C@@]1(OCC=C1)C=O	
InChI=1S/C7H10O2/c1-2-7(6-8)4-3-5-9-7/h3-4,6H,2,5H2,1H3	InChI=1S/C7H10O2/c1-2-7(6-8)4-3-5-9-7/h3-4,6H,2,5H2,1H3/t7-/m0/s1
