19
gdb 5774	3.8323715	1.2728739	1.2071567	1.5381	74.83	-0.24505	0.	0.24505	1111.351	0.158147	-422.555768	-422.548097	-422.547153	-422.587879	30.081	
C	 1.3720700229	-0.1858870413	 1.0966832464	-0.384183
C	 0.9520314308	 0.2990810767	-0.2932042807	-0.192419
C	 1.6373119928	-0.4656291903	-1.4213446067	 0.151001
O	 1.3296947799	-1.8711457493	-1.3409578984	-0.294618
C	 0.6482928087	-2.1544050388	-2.5851240884	 0.136973
O	-0.082409425	-0.9760610436	-2.8365509135	-0.232732
C	 1.0782385604	-0.1223233155	-2.8477137208	-0.04576
C	 1.99078189	-0.8353612886	-3.836726072	-0.098111
C	 1.7142477508	-2.1306283957	-3.6804032351	-0.083898
H	 1.1408874723	-1.2473530148	 1.2167686865	 0.13566
H	 2.4489884518	-0.0571097301	 1.2541572396	 0.109965
H	 0.851321514	 0.3714633776	 1.8811267423	 0.109943
H	-0.1306196934	 0.1947941123	-0.4211699132	 0.113687
H	 1.1923679279	 1.3647403506	-0.4076835463	 0.08783
H	 2.7257808564	-0.334845971	-1.3755009079	 0.074975
H	 0.0073723721	-3.0243924455	-2.4603381266	 0.094931
H	 0.8082772621	 0.9165371802	-3.0254457535	 0.090698
H	 2.773607516	-0.3674471812	-4.4170478535	 0.111794
H	 2.2044444593	-2.9962006117	-4.1024495082	 0.114265
98.9096	153.19	191.3152	258.2253	354.0514	416.8219	430.0859	556.9162	657.5073	717.5586	734.5161	781.2406	824.2622	847.1536	873.4121	883.4386	898.5056	915.8101	933.7811	945.4081	965.0137	1004.5011	1057.8236	1079.0365	1100.8352	1145.5369	1150.6475	1232.7229	1252.5784	1274.3501	1289.7782	1295.9862	1331.6352	1337.683	1360.571	1398.4206	1409.6159	1480.7071	1497.9225	1509.6242	1634.8424	3019.7735	3026.8451	3035.7182	3077.1636	3102.0774	3124.3838	3148.5441	3157.0004	3223.6486	3249.9374
CCC1OC2OC1C=C2	CC[C@H]1O[C@H]2O[C@@H]1C=C2	
InChI=1S/C7H10O2/c1-2-5-6-3-4-7(8-5)9-6/h3-7H,2H2,1H3	InChI=1S/C7H10O2/c1-2-5-6-3-4-7(8-5)9-6/h3-7H,2H2,1H3/t5-,6-,7+/m1/s1
