19
gdb 3825	2.1780782	1.8216339	1.1803442	4.2826	75.06	-0.26529	0.01047	0.27576	1097.4876	0.156115	-422.582691	-422.574028	-422.573083	-422.615809	32.631	
C	-0.6185739794	-1.4306975917	-2.6083453044	-0.410259
C	-1.519486968	-1.5252143912	-1.3856217209	 0.025638
C	-2.6664828888	-0.4765832857	-1.2087412734	-0.303563
C	-2.1171598198	-0.1139335188	 0.1915290994	 0.45203
C	-3.0130090169	 0.0270018792	 1.3885664115	-0.482154
O	-1.1587967695	 1.0040379187	 0.0803123368	-0.287279
C	-0.0894702692	 0.1446074271	-0.0302870551	 0.453075
O	 1.0600353306	 0.4347903784	-0.1338321968	-0.337689
C	-0.941014553	-1.115624225	 0.0145913222	-0.305162
H	 0.2073309472	-2.1469745278	-2.5485428083	 0.126324
H	-1.1861625092	-1.6464350205	-3.5198455869	 0.11815
H	-0.1835126942	-0.4317571993	-2.7118109107	 0.138072
H	-1.9265980171	-2.5370149104	-1.3052848041	 0.087393
H	-2.6498043092	 0.3654498138	-1.9042805325	 0.118736
H	-3.6688993098	-0.9108328995	-1.1991239718	 0.108368
H	-3.6434948432	-0.8603995466	 1.5001252346	 0.125709
H	-2.4263713576	 0.1568462517	 2.3026272327	 0.13407
H	-3.6683846991	 0.8972052266	 1.275398829	 0.138167
H	-0.6508113738	-1.8958240887	 0.7162064487	 0.100379
84.5589	135.4747	215.8974	220.8788	227.5993	295.415	369.3266	388.358	409.3124	503.7321	604.1348	637.3632	715.4178	797.7309	840.7661	866.5383	882.7229	908.0646	926.7538	971.0214	1001.4041	1038.4585	1095.0106	1107.4352	1139.6682	1159.6	1204.0193	1217.8858	1238.8048	1247.9013	1307.5989	1330.5624	1363.8022	1416.4045	1419.0027	1470.8263	1481.9927	1490.3353	1493.8201	1496.7957	1925.1522	3033.927	3037.5745	3058.7052	3068.5793	3101.3196	3107.3259	3109.6508	3117.6153	3125.9297	3133.8397
CC1CC2(C)OC(=O)C12	C[C@@H]1C[C@]2(C)OC(=O)[C@H]12	
InChI=1S/C7H10O2/c1-4-3-7(2)5(4)6(8)9-7/h4-5H,3H2,1-2H3	InChI=1S/C7H10O2/c1-4-3-7(2)5(4)6(8)9-7/h4-5H,3H2,1-2H3/t4-,5+,7+/m1/s1
