19
gdb 5298	2.7480869	1.7477035	1.2856492	2.7338	74.37	-0.22305	0.07546	0.29851	1025.2554	0.157192	-422.489242	-422.481402	-422.480458	-422.521759	30.162	
C	 1.4183925618	-0.1534800149	-0.0739991866	-0.259863
O	 0.022073924	 0.0421462498	 0.0391914158	-0.296211
C	-0.380227405	 0.7532584758	 1.1513509584	 0.468763
C	-0.0386494938	 2.2426972085	 1.265141383	-0.311048
C	-0.7828698663	 2.5941298166	 2.5855082503	-0.25385
C	-1.3818799205	 1.2343513449	 2.9332814183	-0.037835
C	-1.8380396929	 0.5057585425	 1.6378401168	-0.007013
O	-1.4737364028	-0.7987216774	 2.2050313689	-0.319716
C	-0.3786027082	 0.0996360047	 2.5881894109	-0.024172
H	 1.8274522486	-0.6657318919	 0.8081288366	 0.111744
H	 1.57865147	-0.7825143106	-0.9520623131	 0.132894
H	 1.9606925707	 0.7921602079	-0.2140911958	 0.109954
H	 1.0387281627	 2.4193031735	 1.3318701153	 0.103327
H	-0.4108441613	 2.7996492733	 0.400061535	 0.1098
H	-0.1068818471	 2.956493813	 3.365714803	 0.105346
H	-1.5533106542	 3.3571910283	 2.4408717559	 0.107872
H	-1.995257502	 1.1075283516	 3.8231858541	 0.083553
H	-2.7706374138	 0.5810206839	 1.0775261264	 0.090088
H	 0.4382239804	-0.3113882296	 3.1829447068	 0.086368
63.8037	164.2921	184.292	250.3256	335.1709	338.9622	443.5492	521.0641	655.7856	677.3423	696.8064	744.6332	821.9358	826.152	902.329	903.466	912.8552	944.9444	1012.3107	1030.5347	1041.3568	1080.9322	1090.8051	1137.731	1167.2342	1173.3096	1179.7869	1189.3594	1219.8787	1232.4083	1249.1731	1251.1229	1276.6328	1288.8327	1338.3262	1367.9873	1483.7568	1487.8969	1491.7246	1505.2056	1511.6341	2992.802	3043.7674	3049.9769	3059.2333	3083.7206	3103.3153	3107.5816	3115.1447	3123.5116	3147.0557
COC12CCC3C1OC23	CO[C@@]12CC[C@H]3[C@@H]1O[C@@H]23	
InChI=1S/C7H10O2/c1-8-7-3-2-4-5(7)9-6(4)7/h4-6H,2-3H2,1H3	InChI=1S/C7H10O2/c1-8-7-3-2-4-5(7)9-6(4)7/h4-6H,2-3H2,1H3/t4-,5-,6+,7-
