19
gdb 1841	2.3613725	1.5426382	1.2510463	2.9212	75.71	-0.23916	-0.03026	0.2089	1082.3535	0.156791	-422.550622	-422.542359	-422.541415	-422.583556	31.383	
C	 1.4175865167	 1.3682005131	-3.3779783226	-0.501687
C	 0.5271270864	 0.5112106064	-2.5135806186	 0.260358
C	-0.2241497203	-0.7625282817	-3.0283684769	-0.270531
C	-0.3357378708	-1.0235831832	-1.5126443528	 0.074135
O	-1.1743490106	 0.0447860012	-1.0415895556	-0.276851
C	-0.6277401993	 1.1782935766	-1.7510951066	-0.117234
C	 1.1028463572	-0.4451413888	-1.3781953953	-0.117486
C	 1.5597453245	 0.1092165843	-0.0612760971	 0.125965
O	 2.7125735285	 0.1110938027	 0.300381838	-0.262442
H	 1.9195261853	 2.1421945231	-2.7872106809	 0.131339
H	 2.190153053	 0.7674523272	-3.8669561741	 0.127821
H	 0.8358379472	 1.8686143304	-4.1606039265	 0.124245
H	-1.158410728	-0.6196936955	-3.5777434259	 0.103068
H	 0.4349667153	-1.4607639563	-3.5468737273	 0.107569
H	-0.6523500806	-1.9647480367	-1.0671216508	 0.090382
H	-1.3816576388	 1.605715486	-2.4232271047	 0.105749
H	-0.3087039237	 1.9519004034	-1.0437462904	 0.106269
H	 1.8766127046	-1.0953091314	-1.7905614805	 0.095039
H	 0.7567235635	 0.5223776193	 0.5849500284	 0.094294
64.9712	155.6494	200.1002	243.9186	292.1881	302.6036	407.0984	415.4517	526.9441	549.3772	592.2165	683.6713	788.9352	857.011	878.9113	913.4547	939.4476	956.484	972.6034	1004.0953	1029.0991	1048.2781	1085.625	1117.0025	1136.8477	1167.6752	1195.8133	1218.012	1230.0255	1242.0662	1269.3797	1294.3239	1331.4692	1384.1367	1416.6816	1430.8503	1488.4634	1492.8907	1494.0123	1533.7339	1811.5959	2909.9548	3024.2579	3030.4666	3063.9725	3066.3882	3093.8654	3103.9582	3106.7758	3134.8523	3145.199
CC12CC(OC1)C2C=O	C[C@]12C[C@H](OC1)[C@@H]2C=O	
InChI=1S/C7H10O2/c1-7-2-6(9-4-7)5(7)3-8/h3,5-6H,2,4H2,1H3	InChI=1S/C7H10O2/c1-7-2-6(9-4-7)5(7)3-8/h3,5-6H,2,4H2,1H3/t5-,6-,7-/m0/s1
