19
gdb 3389	2.9981527	1.3457125	1.0929797	2.1687	75.73	-0.22778	0.07517	0.30295	1147.3667	0.156721	-422.523938	-422.515652	-422.514708	-422.556568	32.054	
O	 0.3654812828	-0.3197707224	 0.206654871	-0.441242
C	-0.6168377015	 0.5506845413	 0.6868790179	 0.14279
C	-1.477486251	 0.1785762676	 1.8635180784	-0.133123
C	-2.8184125716	 0.882218864	 1.9814280246	-0.109411
O	-2.5488176608	 2.2616019931	 1.7224374445	-0.296621
C	-1.2352835796	 2.5466227816	 2.1609042373	 0.472648
C	-0.7524127485	 3.9370281121	 1.9182650098	-0.334543
C	-1.0501942929	 3.4704369931	 3.3369044458	-0.339682
C	-0.4360195609	 1.287735898	 1.9902204558	-0.213576
H	 0.7413688403	-0.8042411346	 0.9487110823	 0.282549
H	-1.0745336482	 1.0819016129	-0.1418580508	 0.120881
H	-1.342580251	-0.7886216907	 2.3366238343	 0.086173
H	-3.5655398882	 0.5594910082	 1.2491634005	 0.110592
H	-3.2336248334	 0.7414826663	 2.9916810869	 0.094856
H	 0.281680011	 4.078626254	 1.6236772245	 0.11724
H	-1.4540645762	 4.6275890965	 1.4641219104	 0.12507
H	-0.2188257413	 3.3017658349	 4.0139442616	 0.107956
H	-1.9515067633	 3.8526280491	 3.8029412768	 0.120111
H	 0.4793073142	 1.1561966149	 2.5571380483	 0.087332
117.4072	153.2881	168.7543	248.6731	283.3952	322.1199	364.6551	419.833	477.0787	555.662	707.1505	765.1049	796.8945	846.328	852.1675	897.6911	905.2268	939.0001	954.7218	980.3612	995.9927	1040.9188	1045.1539	1069.3119	1073.1216	1096.5645	1114.1519	1116.7565	1158.968	1188.489	1222.2794	1250.2019	1260.948	1284.98	1350.0704	1382.3073	1396.459	1450.8287	1458.6932	1500.8688	1516.9281	2981.0279	3071.4485	3127.426	3135.9284	3163.5186	3165.5751	3174.5391	3215.0612	3229.813	3818.1648
OC1C2COC3(CC3)C12	O[C@H]1[C@@H]2COC3(CC3)[C@H]12	
InChI=1S/C7H10O2/c8-6-4-3-9-7(1-2-7)5(4)6/h4-6,8H,1-3H2	InChI=1S/C7H10O2/c8-6-4-3-9-7(1-2-7)5(4)6/h4-6,8H,1-3H2/t4-,5+,6+/m1/s1
