19
gdb 456	5.6598613	0.804736	0.7686789	1.9726	76.68	-0.26223	0.07027	0.3325	1485.4208	0.156062	-422.49561	-422.487202	-422.486258	-422.529398	31.303	
C	 2.7201476604	-4.6718743428	-1.0395084376	-0.185558
O	 2.7055557139	-4.0384264276	-2.3196220951	-0.239018
C	 2.7099983708	-3.2076524313	-1.1549389899	 0.084065
C	 1.4793247843	-2.3878577523	-0.9017428757	 0.009559
C	 1.3645740972	-1.6717582547	 0.4829609133	-0.345416
C	 0.8656807812	-0.4379659672	-0.2714107203	 0.468414
C	-0.3232682606	 0.3738587128	-0.0100986143	-0.267304
O	 1.0034783014	 0.8973100715	 0.1655557596	-0.270835
C	 1.3735232173	-0.9943908001	-1.6021264794	-0.33571
H	 1.8036906035	-5.1941289748	-0.7663146086	 0.11144
H	 3.6427269581	-5.1905793322	-0.7823553653	 0.115698
H	 3.6548115082	-2.6826590036	-0.9928898392	 0.089492
H	 0.5937985885	-2.9946392309	-1.1087462612	 0.080724
H	 0.711299058	-2.1180768754	 1.2358715213	 0.108952
H	 2.3481642515	-1.488814977	 0.9290464395	 0.11464
H	-0.884681043	 0.7986005777	-0.8416251398	 0.116613
H	-0.8909189212	 0.2275945819	 0.9083765899	 0.115021
H	 0.7270027141	-0.9130015723	-2.4780628753	 0.113276
H	 2.3605796763	-0.5892160316	-1.849030362	 0.115947
58.6786	67.7371	164.3076	275.425	310.6213	314.2249	351.1217	402.5545	494.4456	570.7407	717.4821	819.5641	839.9862	860.1858	878.0639	886.4819	908.1232	951.1758	975.7088	1000.5258	1045.7534	1063.8707	1101.9637	1126.1328	1150.267	1156.3345	1169.4234	1188.0992	1194.9504	1219.7	1224.2346	1251.6319	1266.1331	1294.0147	1323.7184	1432.5343	1457.6186	1466.8031	1493.1404	1529.184	1539.3639	3049.5979	3055.5238	3069.1267	3077.4804	3079.7675	3083.6843	3112.1511	3118.3403	3164.4147	3166.2164
C1OC1C1CC2(CO2)C1	C1O[C@H]1[C@H]1C[C@]2(CO2)C1	
InChI=1S/C7H10O2/c1-5(6-3-8-6)2-7(1)4-9-7/h5-6H,1-4H2	InChI=1S/C7H10O2/c1-5(6-3-8-6)2-7(1)4-9-7/h5-6H,1-4H2/t5-,6-,7+/m1/s1
