19
gdb 1818	2.7928058	1.519356	1.1805245	1.9583	74.48	-0.24068	-0.01993	0.22075	1070.3422	0.1574	-422.588831	-422.580878	-422.579934	-422.621283	31.59	
O	-3.219520988	-2.2035111844	 0.0011493604	-0.485835
C	-2.4439694431	-1.0332664875	 0.0473276582	 0.417168
C	-2.7867807735	 0.0054131775	-1.0431384817	-0.260724
C	-2.3744873894	 1.087639641	-0.0036386229	-0.032778
C	-2.7633562542	 0.0669555841	 1.1048828781	-0.289512
C	-0.8590529768	 1.2936707007	-0.0262674475	-0.311662
C	-0.0909282889	-0.0331405394	 0.0274462439	 0.390199
O	 1.1144290935	-0.0747431599	 0.0584416741	-0.313426
C	-0.9389975264	-1.3145895914	 0.0397516464	-0.382754
H	-2.8932238528	-2.8153677301	 0.6703247021	 0.275322
H	-2.2458720303	-0.0439157414	-1.9934091876	 0.094738
H	-3.8624527724	 0.0134027435	-1.2322904889	 0.112835
H	-2.9110573212	 2.0369884471	-0.0255886881	 0.074962
H	-2.1971279285	 0.0749730596	 2.0423813461	 0.088997
H	-3.8342699267	 0.0882394758	 1.318645863	 0.108845
H	-0.5376683073	 1.8223569115	-0.9322777509	 0.130682
H	-0.5189086316	 1.9030427813	 0.8197575888	 0.129744
H	-0.6658706014	-1.9136609191	-0.8373924335	 0.135733
H	-0.6403891612	-1.8957118291	 0.9231271999	 0.117465
52.2729	235.6874	257.7759	305.3613	374.2931	394.627	414.9815	430.1135	492.1132	504.1308	570.291	655.434	769.9044	774.2114	859.7191	865.7223	897.3947	898.1228	950.1037	984.6606	1023.6154	1035.0402	1074.0582	1084.8561	1146.3235	1167.301	1181.5415	1206.0039	1219.5916	1229.0379	1258.0443	1285.3336	1312.8674	1331.8662	1361.2769	1388.4698	1445.7819	1447.9983	1477.8696	1511.3374	1819.5341	3020.0531	3033.4898	3043.606	3052.7055	3067.8579	3070.9568	3096.6215	3114.9701	3119.8171	3799.4857
OC12CC(C1)CC(=O)C2	O[C@@]12C[C@@H](C1)CC(=O)C2	
InChI=1S/C7H10O2/c8-6-1-5-2-7(9,3-5)4-6/h5,9H,1-4H2	InChI=1S/C7H10O2/c8-6-1-5-2-7(9,3-5)4-6/h5,9H,1-4H2/t5-,7-
