19
gdb 2881	2.422393	1.9379369	1.790499	2.2487	72.63	-0.24181	0.07692	0.31873	898.9179	0.16067	-422.568447	-422.561525	-422.560581	-422.59938	28.592	
O	-0.7635714778	 0.4619229904	 0.8612209802	-0.453457
C	-1.8017833118	-0.2451165384	 0.2207288861	 0.153825
C	-2.6294067199	 0.5478295243	-0.7860107884	-0.098343
C	-4.0372809388	-0.0234501426	-0.7619194633	-0.069484
C	-4.0735534365	-1.1144387918	 0.3049720046	-0.245935
C	-2.8993716931	-0.7073656045	 1.2060042799	 0.040316
O	-3.2234374004	 0.4217661204	 2.0307107072	-0.296491
C	-3.8560338668	 1.497192093	 1.3238198639	-0.106971
C	-3.7651718779	 1.3423611114	-0.1828819482	-0.056135
H	-1.1775954654	 0.9017185185	 1.6163050553	 0.284794
H	-1.3387086503	-1.1057844055	-0.2768912799	 0.080914
H	-2.1675117447	 0.8918409844	-1.703625912	 0.085716
H	-4.6297591241	-0.1222155777	-1.6640444983	 0.083185
H	-5.0151320623	-1.1607012229	 0.8622183387	 0.107237
H	-3.8922313582	-2.1033701248	-0.1311256156	 0.105371
H	-2.5667019563	-1.4831850347	 1.8972812696	 0.084925
H	-4.9107171542	 1.5519477463	 1.6326810282	 0.103194
H	-3.3737897005	 2.4275921597	 1.6491428765	 0.107631
H	-4.116878201	 2.2023577544	-0.7442216746	 0.089706
135.2309	233.5162	293.7971	392.9673	433.1294	461.7021	519.5666	560.4018	636.9465	667.5471	777.8675	800.1374	816.0199	845.3734	884.7846	924.6192	934.1618	978.8988	1017.5347	1038.7183	1048.4794	1075.7345	1090.1008	1102.9035	1112.4744	1119.4709	1162.5976	1202.9895	1242.816	1254.7904	1263.7867	1311.8513	1326.6591	1339.0816	1348.0862	1366.6208	1404.0936	1431.3895	1450.3082	1489.0295	1524.5515	2987.4878	3033.6383	3035.5253	3040.9613	3079.9418	3105.7176	3156.7448	3173.2525	3186.5988	3750.2108
OC1C2C3CC1OCC23	O[C@@H]1[C@H]2[C@H]3C[C@@H]1OC[C@@H]23	
InChI=1S/C7H10O2/c8-7-5-1-3-4(2-9-5)6(3)7/h3-8H,1-2H2	InChI=1S/C7H10O2/c8-7-5-1-3-4(2-9-5)6(3)7/h3-8H,1-2H2/t3-,4+,5-,6-,7-/m0/s1
