19
gdb 4844	2.4281858	1.7087603	1.2065226	3.6923	75.95	-0.23746	0.01724	0.2547	1077.7302	0.155049	-422.51351	-422.504561	-422.503616	-422.54709	33.328	
C	 1.3057724367	-0.1708644806	-0.1415416004	-0.254852
O	-0.0755115358	 0.0098905414	 0.1038530119	-0.29044
C	-0.4102919455	 0.7519149868	 1.2593971353	 0.464494
C	-0.0469680093	 2.2210592436	 1.086555239	-0.481533
C	-0.1284606742	 0.0171389308	 2.6310347877	-0.245857
C	-1.3829965314	 0.7693993842	 3.194322174	-0.267988
C	-1.841352128	 0.3551214322	 1.7545622913	-0.230401
C	-1.1812216025	-0.9909386168	 2.121648798	 0.463425
O	-1.4062081678	-2.158449934	 2.1184293269	-0.326086
H	 1.8239748166	-0.5913291691	 0.7316137226	 0.11303
H	 1.3849412399	-0.8793296596	-0.9688752338	 0.136747
H	 1.8070270441	 0.7624220362	-0.4319812874	 0.110809
H	-0.4154925728	 2.8575284983	 1.8913748507	 0.126705
H	 1.0381623434	 2.3514471101	 1.038962262	 0.126326
H	-0.4699844576	 2.5815569464	 0.1442575903	 0.135133
H	 0.8224801681	-0.1535528766	 3.1315249351	 0.08949
H	-1.902028436	 0.2919487287	 4.0256879281	 0.123439
H	-1.2602225198	 1.8361586629	 3.3700546081	 0.113679
H	-2.7898949979	 0.5576050451	 1.2622767604	 0.09388
68.6198	142.4783	164.8834	172.2901	210.7379	290.3334	367.293	408.2655	458.7118	470.7264	523.734	631.6393	702.6248	769.2771	777.1579	805.5197	876.953	913.9253	938.5954	1015.1244	1039.037	1049.6174	1087.7741	1098.1036	1114.7156	1142.4221	1157.6277	1180.4665	1191.9538	1201.814	1220.4205	1237.5178	1286.4443	1412.7045	1474.2112	1483.6296	1488.0644	1502.6963	1507.8658	1527.3489	1929.6738	2995.1869	3046.3965	3053.4914	3095.9283	3111.8711	3122.3461	3139.5839	3141.9468	3150.5547	3166.7724
COC1(C)C2CC1C2=O	CO[C@]1(C)[C@H]2C[C@@H]1C2=O	
InChI=1S/C7H10O2/c1-7(9-2)4-3-5(7)6(4)8/h4-5H,3H2,1-2H3	InChI=1S/C7H10O2/c1-7(9-2)4-3-5(7)6(4)8/h4-5H,3H2,1-2H3/t4-,5+,7+
