19
gdb 6034	3.2456486	0.9933723	0.8071011	1.6606	77.39	-0.23997	-0.02008	0.21988999999999997	1414.108	0.156058	-422.585255	-422.575979	-422.575035	-422.620268	33.265	
O	-0.2666504953	 1.2340249419	 1.1123480666	-0.424444
C	 0.0942183953	 0.3038788313	 0.1002111348	-0.084843
C	-0.2209485311	 0.9538723149	-1.2427946974	-0.177778
C	 0.0359894336	 0.0323546095	-2.4528167787	-0.160754
C	-0.4674276032	 0.573554007	-3.767398616	-0.076576
C	 0.4799544083	 0.6523354562	-4.7028325612	-0.082828
C	 1.8151596421	 0.1668646068	-4.2099088472	-0.362772
C	 1.535150014	-0.1949771741	-2.7423694345	 0.39117
O	 2.3559045288	-0.5786387121	-1.9483732011	-0.309426
H	 0.0553986005	 0.8983022918	 1.9535831082	 0.286097
H	 1.1576764205	 0.0397356339	 0.1473545755	 0.120489
H	-0.4825798423	-0.6321175797	 0.197350331	 0.0782
H	-1.2763427633	 1.2517762133	-1.242068965	 0.10785
H	 0.3629077088	 1.8760433681	-1.3421243359	 0.109357
H	-0.4139079415	-0.949161899	-2.233642302	 0.105569
H	-1.5021090585	 0.8687391828	-3.9038164748	 0.10224
H	 0.3271129297	 1.0159818842	-5.7123790403	 0.102649
H	 2.1865532027	-0.7183119188	-4.7435293947	 0.137738
H	 2.616573771	 0.9140501118	-4.2706983072	 0.138063
45.6988	86.5275	110.1328	156.5005	231.3297	244.0383	301.3729	370.9956	445.8112	491.8991	605.7908	630.8864	717.1463	736.6868	775.0775	817.5202	938.4834	972.6536	981.1273	992.4625	1013.3027	1043.707	1079.6887	1090.1295	1133.1598	1143.957	1161.5575	1206.2165	1227.816	1275.8684	1287.1158	1298.1079	1323.4184	1346.7664	1382.1664	1441.759	1459.5339	1492.7349	1532.4729	1682.2754	1839.9136	2953.661	2982.4347	3025.4442	3032.905	3048.5605	3054.0404	3079.7298	3183.7304	3208.091	3834.0772
OCCC1C=CCC1=O	OCC[C@H]1C=CCC1=O	
InChI=1S/C7H10O2/c8-5-4-6-2-1-3-7(6)9/h1-2,6,8H,3-5H2	InChI=1S/C7H10O2/c8-5-4-6-2-1-3-7(6)9/h1-2,6,8H,3-5H2/t6-/m1/s1
