19
gdb 4221	3.1619464	1.314812	1.0894982	1.4408	75.51	-0.22769	0.0639	0.29159	1150.7778	0.156208	-422.501736	-422.493544	-422.4926	-422.534517	31.852	
O	 0.4764119891	-0.1613254964	 0.5550105822	-0.436642
C	-0.7869304038	 0.3791726668	 0.8591816516	 0.158184
C	-1.2415856566	 0.3163612744	 2.3529875982	-0.287023
C	-1.4579252647	 1.8437404924	 2.3488468018	 0.113964
O	-2.777766958	 2.2346255848	 1.901443367	-0.324568
C	-2.2927316504	 2.457350061	 0.5702341526	 0.483401
C	-3.1573829775	 2.2660139987	-0.6301268572	-0.335857
C	-2.7033985429	 3.6608343807	-0.2115303388	-0.350437
C	-0.9031068878	 1.9391850394	 0.8974235176	-0.249111
H	 1.1157290428	 0.1852305222	 1.1868599997	 0.276999
H	-1.4799467149	-0.0832351394	 0.152154071	 0.098591
H	-2.1196695992	-0.2870772131	 2.5923593949	 0.115751
H	-0.4123820925	 0.0131612129	 3.0025786448	 0.094677
H	-1.1257675687	 2.4348639122	 3.2054147264	 0.079636
H	-2.724493248	 1.8225499188	-1.521245561	 0.1193
H	-4.1958262018	 2.0078596793	-0.452518212	 0.125935
H	-1.9589087622	 4.1680979016	-0.816829507	 0.1148
H	-3.4446865869	 4.3102655873	 0.2417053398	 0.124859
H	-0.0325122458	 2.5134840164	 0.5800263085	 0.077543
73.4438	129.7799	210.9975	278.9695	311.3689	371.3865	376.4927	425.0117	488.499	553.6074	739.067	757.4423	815.9664	821.8541	862.4657	871.8295	904.9733	934.7035	946.6411	979.0655	1002.8385	1013.2448	1036.7365	1046.5605	1066.8164	1118.2611	1121.3669	1162.1812	1185.6205	1197.6585	1204.4962	1236.6476	1259.2481	1274.7222	1320.0569	1333.2559	1390.436	1430.9311	1446.8502	1455.2037	1498.4589	3043.3077	3078.6191	3083.5179	3112.6443	3118.5048	3126.5246	3129.2436	3210.3147	3224.3817	3800.8897
OC1CC2OC3(CC3)C12	O[C@H]1C[C@@H]2OC3(CC3)[C@H]12	
InChI=1S/C7H10O2/c8-4-3-5-6(4)7(9-5)1-2-7/h4-6,8H,1-3H2	InChI=1S/C7H10O2/c8-4-3-5-6(4)7(9-5)1-2-7/h4-6,8H,1-3H2/t4-,5-,6+/m0/s1
