19
gdb 1746	2.2131536	1.8625009	1.8109856	2.457	73.35	-0.23963	0.0602	0.29983	930.4422	0.158392	-422.542444	-422.534845	-422.533901	-422.574396	29.925	
O	 0.3505952095	 0.2537792901	 0.0248115493	-0.487436
C	-0.4806311897	 0.8949112495	 0.9319521289	 0.344525
C	-1.309040719	 0.1001038526	 2.007153036	-0.099712
C	-2.6164271351	 0.6626211968	 1.3522766936	-0.241445
C	-1.7715742869	 1.6370934227	 0.5144634999	 0.076079
O	-1.3695927463	 2.7919524808	 1.2895325243	-0.321116
C	-0.0958630901	 2.1961188918	 1.6709383568	 0.066908
C	-0.0108895044	 1.8939215645	 3.1603403614	-0.231588
C	-0.9481573573	 0.6730743848	 3.3994762903	-0.228255
H	 0.9345183493	-0.3410474661	 0.5080858501	 0.281937
H	-1.2210299238	-0.9869572142	 1.9526946233	 0.06832
H	-3.1105817235	-0.0852744706	 0.7248123106	 0.102622
H	-3.3506910273	 1.1199123451	 2.0205862199	 0.103108
H	-2.0633162867	 1.8946732999	-0.505486605	 0.079558
H	 0.7440512286	 2.7731471538	 1.2687197947	 0.073456
H	 1.0270312617	 1.6427726908	 3.4118328421	 0.094535
H	-0.2843488822	 2.7657799461	 3.761252722	 0.113305
H	-0.451269996	-0.0780735314	 4.0207667209	 0.096052
H	-1.8539805507	 0.9684011527	 3.9363032611	 0.109147
82.0959	169.4275	229.639	282.4611	364.8797	397.4048	405.608	588.8125	631.0359	661.8105	700.9576	787.8699	803.5652	848.122	880.3038	893.8807	945.2113	969.192	980.9904	1006.8037	1034.807	1065.1887	1083.3853	1122.7761	1133.1785	1145.1972	1184.9751	1189.8584	1220.8706	1257.278	1260.2358	1286.9637	1292.2139	1312.1296	1330.9635	1339.926	1357.9085	1410.8343	1462.174	1473.6597	1503.0867	3030.2664	3049.7948	3050.8179	3055.2317	3078.5699	3087.4262	3094.0574	3100.2363	3112.2038	3800.0666
OC12C3CC1OC2CC3	O[C@]12[C@@H]3C[C@H]1O[C@H]2CC3	
InChI=1S/C7H10O2/c8-7-4-1-2-5(7)9-6(7)3-4/h4-6,8H,1-3H2	InChI=1S/C7H10O2/c8-7-4-1-2-5(7)9-6(7)3-4/h4-6,8H,1-3H2/t4-,5-,6+,7-/m0/s1
