19
gdb 612	2.1932016	2.1100367	1.8237585	1.9718	74.14	-0.25019	-0.00807	0.24212000000000003	900.0912	0.160859	-422.563075	-422.556072	-422.555128	-422.594279	28.422	
C	-0.3562426034	 1.8374996996	 0.9004962455	-0.20604
C	-1.4669338417	 1.1909154147	 0.0347490964	-0.206031
C	-1.3232506511	-0.3417844016	-0.0319095728	 0.073839
O	-0.222778896	-0.6730493259	-0.9058565264	-0.274088
C	 1.035224788	-0.8152022236	-0.2955777766	 0.030739
O	 1.4750452171	 0.3164497761	 0.41219325	-0.274122
C	 0.6118709294	 0.7834228742	 1.4711811483	 0.073867
C	-0.1879941828	-0.3317273855	 2.1131438889	-0.092049
C	-1.1452634887	-0.8878427216	 1.3699740787	-0.091808
H	 0.2328635338	 2.5490346441	 0.3154904199	 0.110058
H	-0.7951991179	 2.3901109302	 1.7379677502	 0.097231
H	-2.456241778	 1.4262444741	 0.4413165758	 0.097244
H	-1.4380714843	 1.5725190324	-0.9895131131	 0.110179
H	-2.2023735874	-0.7751623525	-0.5162252374	 0.077008
H	 1.0427031125	-1.6984148563	 0.3578723869	 0.085032
H	 1.7497144368	-0.9562999472	-1.1100504529	 0.113757
H	 1.2861266421	 1.2521030968	 2.192971372	 0.076985
H	 0.0400426032	-0.6568369432	 3.1227326609	 0.099082
H	-1.7654923115	-1.7058550646	 1.7208894756	 0.099115
89.1024	292.9099	316.2701	335.4487	356.9865	451.1699	533.8692	546.1995	658.9328	709.4383	743.5255	771.2212	798.3133	828.9743	918.8856	929.5179	953.964	969.6532	990.0321	1009.9695	1063.0675	1076.145	1082.7184	1119.594	1158.5471	1180.0221	1206.8373	1268.8674	1269.293	1306.1641	1332.8493	1344.7883	1373.0208	1376.7001	1385.8153	1401.8968	1444.9946	1468.7727	1490.0247	1513.7308	1688.6663	3003.164	3040.0062	3051.2046	3070.5782	3074.2654	3085.0254	3103.4053	3104.2446	3171.611	3194.6143
C1CC2OCOC1C=C2	C1C[C@H]2OCO[C@@H]1C=C2	
InChI=1S/C7H10O2/c1-2-7-4-3-6(1)8-5-9-7/h1-2,6-7H,3-5H2	InChI=1S/C7H10O2/c1-2-7-4-3-6(1)8-5-9-7/h1-2,6-7H,3-5H2/t6-,7+
