19
gdb 5542	2.653093	1.2265499	1.0054951	2.2683	76.91	-0.23707	-0.00611	0.23096	1247.5999	0.155366	-422.550997	-422.541555	-422.540611	-422.585452	34.102	
C	-0.997312256	-2.3848038087	 0.8955804303	-0.496013
C	-1.0206199335	-1.0939138528	 0.1286143024	 0.220171
C	-1.8826333683	-0.8749395087	-1.111474648	-0.335963
C	-2.0661505445	 0.066297893	 0.021781833	-0.086115
C	-0.9587970941	 1.1312818116	-0.0262686711	-0.120949
C	-0.9121032932	 2.1084939882	 1.1359299497	-0.092746
O	-2.0229613848	 2.9850324843	 1.0091312478	-0.427472
C	 0.0425361631	-0.0422401688	 0.1744240855	 0.346566
O	 1.1924431847	-0.0614128143	 0.5232085864	-0.331238
H	-0.3347861925	-3.1130174896	 0.4154246844	 0.136157
H	-0.6338675978	-2.2298444994	 1.916275534	 0.131349
H	-1.9960842856	-2.8291396232	 0.9501031184	 0.121074
H	-1.4407835222	-0.5311907418	-2.0434579966	 0.119507
H	-2.6434157555	-1.6391119145	-1.2395404094	 0.122418
H	-2.985965634	 0.1613119691	 0.5832710951	 0.112464
H	-0.8957328772	 1.6815488703	-0.9712349674	 0.096355
H	-0.9463028875	 1.5562070302	 2.089004769	 0.08873
H	 0.0435027151	 2.651614078	 1.106464047	 0.107548
H	-1.9933362964	 3.6125906873	 1.7376158996	 0.288158
69.453	110.1796	142.6749	155.4861	215.2624	256.9579	270.4942	316.315	360.5109	469.5686	519.1454	573.7443	708.8468	724.2112	800.8003	842.2956	883.9626	942.3457	965.8261	977.4757	1017.2212	1057.2528	1075.4802	1085.4984	1095.5744	1111.5861	1143.8511	1181.2821	1239.5803	1252.0837	1272.5884	1291.259	1354.6082	1376.1979	1416.0244	1458.2128	1481.4122	1496.0067	1499.281	1518.1416	1858.3469	2971.4436	3015.5653	3033.2835	3054.3704	3096.9427	3106.9329	3110.4943	3195.7245	3212.2801	3824.2209
CC12CC1C(CO)C2=O	C[C@@]12C[C@@H]1[C@@H](CO)C2=O	
InChI=1S/C7H10O2/c1-7-2-5(7)4(3-8)6(7)9/h4-5,8H,2-3H2,1H3	InChI=1S/C7H10O2/c1-7-2-5(7)4(3-8)6(7)9/h4-5,8H,2-3H2,1H3/t4-,5-,7-/m1/s1
