19
gdb 608	3.1994655	1.5793846	1.2166723	2.263	76.49	-0.24793	0.01605	0.26398	1046.004	0.159858	-422.573084	-422.565646	-422.564702	-422.605198	28.749	
C	-0.3134122686	 0.3687864063	-1.2825034013	-0.073567
C	 0.0149845094	-0.0922691536	 0.1459233025	-0.249757
C	 0.8929909814	 1.0675834165	 0.6698195897	-0.080274
C	 1.858937028	 0.7420731743	 1.773926884	-0.0887
C	 3.1610220847	 0.6068986573	 1.5339178409	-0.073221
C	 3.7197988039	 0.7168365563	 0.1412077291	-0.122098
O	 2.7240448207	 0.6249099116	-0.8604421003	-0.265419
C	 1.6135700834	 1.4802897634	-0.6212580129	 0.219899
O	 0.7048381376	 1.3116636664	-1.6581569674	-0.260661
H	-0.320786174	-0.4569021781	-2.0013576535	 0.111311
H	-1.2834033651	 0.8787096619	-1.337278073	 0.100892
H	-0.8800993627	-0.2635147536	 0.7478998608	 0.102656
H	 0.6028362972	-1.0129548025	 0.1303159312	 0.120308
H	 0.2423481099	 1.8964153163	 0.9788073535	 0.08303
H	 1.4644685029	 0.6412404237	 2.7815086469	 0.091864
H	 3.8686563687	 0.4139547799	 2.3356638441	 0.094375
H	 4.294377979	 1.6567436898	 0.0387644842	 0.099513
H	 4.4223290526	-0.1007162946	-0.0566190528	 0.120119
H	 1.9528795009	 2.5274574086	-0.6219510856	 0.069728
79.22	144.627	203.5912	274.3362	396.4569	450.4181	477.2169	540.5081	622.3001	714.4489	748.3116	832.874	852.7847	894.1071	911.5713	934.0363	956.279	993.3644	995.7804	1041.5201	1049.5897	1073.2754	1108.8088	1115.9567	1152.5766	1202.3389	1210.3191	1223.6004	1267.9566	1295.1479	1313.3833	1327.0144	1363.1877	1371.4933	1405.0885	1407.5418	1415.3858	1486.801	1490.2996	1528.3153	1721.1182	2930.7844	2989.6931	3020.7939	3023.8835	3056.5049	3066.0635	3075.5253	3123.1948	3153.0836	3176.8315
C1CC2C=CCOC2O1	C1C[C@H]2C=CCO[C@H]2O1	
InChI=1S/C7H10O2/c1-2-6-3-5-9-7(6)8-4-1/h1-2,6-7H,3-5H2	InChI=1S/C7H10O2/c1-2-6-3-5-9-7(6)8-4-1/h1-2,6-7H,3-5H2/t6-,7+/m1/s1
