19
gdb 3576	2.1932108	1.658643	1.042032	4.2132	77.58	-0.25689	-0.00258	0.25431	1173.5962	0.157659	-422.599319	-422.59084	-422.589896	-422.632452	32.016	
C	-1.6901478065	-2.8827361539	-1.5904742206	-0.405972
C	-1.5460290482	-1.3996748266	-1.2675825839	 0.073968
O	-0.7309691309	-1.3516935066	-0.0738834295	-0.227997
C	-0.2466522321	-0.1877841306	 0.4215952131	 0.411651
O	 0.4640243966	-0.219418051	 1.3901493199	-0.323854
C	-0.6658464789	 1.1019923307	-0.2640118489	-0.347433
C	-2.1449388341	 1.443256428	-0.0092274422	-0.255893
C	-3.1418541647	 0.4580863358	-0.5518107933	-0.06068
C	-2.8952136437	-0.7329801838	-1.094239936	-0.049983
H	-2.2343663756	-3.394056631	-0.7912084645	 0.136678
H	-2.2402699469	-3.0122280532	-2.5271176343	 0.120145
H	-0.7066986355	-3.3464792951	-1.6925951031	 0.131868
H	-0.986429828	-0.9213470473	-2.0826234289	 0.098797
H	-0.0287986408	 1.8867493532	 0.1461387609	 0.130102
H	-0.479347975	 1.0482025747	-1.3416711337	 0.122525
H	-2.3092064457	 1.566560786	 1.0705108863	 0.134021
H	-2.3548804194	 2.4285110811	-0.4458257568	 0.118493
H	-4.1803645685	 0.7753804984	-0.476810887	 0.097811
H	-3.7380468521	-1.3202558688	-1.4505982373	 0.095752
75.6662	130.0906	197.5013	247.0418	278.4101	330.0826	362.6148	378.9574	489.5624	520.1687	589.07	659.6281	730.7577	754.3676	796.8697	847.3245	888.9863	940.0372	998.3609	1005.1563	1034.4322	1049.5687	1070.6728	1109.0835	1151.4425	1172.653	1221.6655	1260.6172	1290.1297	1334.7132	1350.4308	1365.1022	1388.1442	1409.6539	1429.3434	1474.0853	1486.3927	1489.0127	1498.2251	1732.5435	1839.9331	3008.3346	3012.9761	3036.6397	3047.7856	3060.6512	3122.3631	3126.2016	3134.4789	3138.6083	3163.2068
CC1OC(=O)CCC=C1	C[C@@H]1OC(=O)CCC=C1	
InChI=1S/C7H10O2/c1-6-4-2-3-5-7(8)9-6/h2,4,6H,3,5H2,1H3	InChI=1S/C7H10O2/c1-6-4-2-3-5-7(8)9-6/h2,4,6H,3,5H2,1H3/t6-/m0/s1
