19
gdb 827	3.9123807	0.8004111	0.7052122	2.7409	78.08	-0.25204	-0.02104	0.23099999999999998	1566.6887	0.156076	-422.526948	-422.517979	-422.517035	-422.56213	31.621	
O	 0.7570783147	-1.1769016172	 0.184229422	-0.265963
C	 0.4071553551	-0.0548005081	-0.0837340391	 0.164556
C	 0.1347365589	 1.0096997061	 0.9053990432	-0.109113
C	-0.9390104619	 2.0412796471	 0.5832691223	-0.308841
C	 0.4953113421	 2.4481942141	 0.5338738476	-0.019603
C	 1.0967381017	 3.3487198638	 1.5763573149	-0.042891
C	 1.2051204365	 4.8594046359	 1.249520491	-0.086136
O	 2.6268702029	 4.8539273455	 1.4788737208	-0.268801
C	 2.6402702922	 3.4251414057	 1.6691334542	-0.085437
H	 0.262716004	 0.2679779099	-1.1438978003	 0.062753
H	 0.2571777666	 0.7108699895	 1.940908691	 0.107946
H	-1.4775856444	 1.9282762619	-0.351918883	 0.127567
H	-1.5483952695	 2.3750741254	 1.4158018504	 0.129494
H	 0.9174254398	 2.5708407482	-0.4621123501	 0.098493
H	 0.627112171	 3.1650292853	 2.5465439428	 0.082485
H	 0.9548218985	 5.1202843291	 0.2117793973	 0.098641
H	 0.6799232362	 5.5454650039	 1.9241501675	 0.105391
H	 3.1707921786	 2.9058799605	 0.8591408055	 0.101792
H	 3.0899531869	 3.1402162837	 2.627063332	 0.107665
50.3256	62.6699	97.2748	151.3223	210.2619	305.9976	318.7756	370.4486	437.2821	528.4537	726.1691	835.8295	862.1216	869.363	892.8478	924.0731	940.7798	998.4197	1033.6927	1041.1429	1045.7781	1063.0633	1078.17	1102.3076	1129.1274	1158.8917	1161.3109	1181.5063	1218.8074	1230.1141	1257.4895	1286.1531	1309.404	1335.9406	1383.072	1432.8609	1450.7216	1487.6092	1511.7626	1537.6261	1823.4605	2833.7115	2999.1411	3010.5113	3050.5439	3056.637	3075.3381	3124.0332	3133.4677	3177.7557	3220.841
O=CC1CC1C1COC1	O=C[C@@H]1C[C@H]1C1COC1	
InChI=1S/C7H10O2/c8-2-5-1-7(5)6-3-9-4-6/h2,5-7H,1,3-4H2	InChI=1S/C7H10O2/c8-2-5-1-7(5)6-3-9-4-6/h2,5-7H,1,3-4H2/t5-,7+/m0/s1
