19
gdb 2748	2.6871128	1.5996832	1.4808363	1.4957	74.13	-0.22786	0.06603	0.29389	993.3965	0.158552	-422.518036	-422.510321	-422.509377	-422.549678	30.568	
O	 0.457477915	 0.6905373484	-0.6191555015	-0.430134
C	-0.3531084745	 0.4064350667	 0.4811973878	 0.044497
C	-1.7211392321	-0.1349738831	 0.2364931032	 0.17616
C	-1.7580220864	-1.1018111234	-0.9637941941	-0.278399
C	-0.6675904115	-1.9826587236	-0.2785356815	-0.275165
C	-0.6351648736	-1.0079755039	 0.9168058357	 0.130216
C	-1.1187866294	-1.216476758	 2.3316831899	-0.154661
O	-2.1182345217	-0.2041337548	 2.5433233431	-0.262061
C	-2.7669731538	 0.1055973391	 1.2976642721	-0.156586
H	 1.371215675	 0.5243434144	-0.3644305214	 0.288161
H	-0.2924885619	 1.1240911896	 1.2998796291	 0.100524
H	-2.7201197861	-1.6111688824	-1.0530291922	 0.10188
H	-1.4965108058	-0.6606036871	-1.9272494653	 0.116536
H	-1.0348713689	-2.9713093632	 0.0057869657	 0.1036
H	 0.2751519162	-2.100630919	-0.8185802855	 0.098523
H	-1.5419845334	-2.2285364525	 2.4392168077	 0.089987
H	-0.3726070631	-1.0712075626	 3.1203839017	 0.105796
H	-3.6355798562	-0.54969554	 1.1236734514	 0.090409
H	-3.124755728	 1.1361837154	 1.391011524	 0.110717
195.8758	197.9723	235.4784	249.8159	304.2331	314.7178	371.2298	495.1129	550.3593	656.8781	692.6404	749.2775	767.2305	796.1324	830.9887	901.8676	953.4927	954.8747	983.0847	1019.3516	1033.1319	1050.3148	1095.0732	1150.5942	1174.1567	1207.5472	1226.3126	1232.0593	1244.1643	1259.9292	1265.7591	1296.6016	1306.8074	1315.1609	1352.7595	1390.4686	1464.5876	1468.9975	1496.5724	1509.6639	1519.7394	2969.876	2977.1883	3058.9305	3059.8074	3067.2618	3069.7085	3103.0405	3106.5516	3127.2138	3807.0048	195.8767	197.9721	235.4786	249.8163	304.2338	314.7181	371.2301	495.1129	550.3595	656.8778	692.6403	749.2775	767.2306	796.133	830.9887	901.8671	953.4926	954.8747	983.0845	1019.3514	1033.132	1050.3147	1095.073	1150.5942	1174.1566	1207.5467	1226.3125	1232.059	1244.164	1259.929	1265.7587	1296.6013	1306.8072	1315.1607	1352.7593	1390.4682	1464.5874	1468.9969	1496.572	1509.6635	1519.7389	2969.8759	2977.1882	3058.9306	3059.8074	3067.2618	3069.7086	3103.0405	3106.5517	3127.2139	3807.0052
OC1C23CCC12COC3	O[C@H]1[C@@]23CC[C@@]12COC3	
InChI=1S/C7H10O2/c8-5-6-1-2-7(5,6)4-9-3-6/h5,8H,1-4H2	InChI=1S/C7H10O2/c8-5-6-1-2-7(5,6)4-9-3-6/h5,8H,1-4H2/t5-,6-,7+
