19
gdb 2714	2.3675525	1.620552	1.3681943	2.2143	74.92	-0.1908	0.05569	0.24649	1044.6901	0.154994	-422.482575	-422.473726	-422.472782	-422.515172	34.615	
C	-1.7062855741	-1.3807921751	-0.5962746412	-0.512817
C	-1.9989828269	-0.2114771607	 0.2945670542	 0.212019
C	-3.3051749583	-0.1193405289	 1.1439914469	-0.108513
C	-3.2929903921	 0.8750635341	 2.2799346945	-0.31155
C	-3.4165907762	 1.369475163	 0.8632502903	-0.106981
C	-2.1050611353	 1.3010425588	 0.0565090214	 0.384556
O	-1.9501014853	 2.0925929887	-1.0582025304	-0.470721
C	-0.9267020782	 0.7489589723	 0.8084856217	-0.084645
O	 0.2167007356	 0.8514629821	-0.0097450152	-0.446233
H	-1.4946382628	-2.2898095356	-0.017149976	 0.114869
H	-2.5564753385	-1.6010392428	-1.2518662555	 0.127195
H	-0.8447777956	-1.1776484859	-1.2393323134	 0.115136
H	-4.0835927003	-0.8668781557	 1.0515862913	 0.09049
H	-4.2224169143	 0.9103911608	 2.8421773721	 0.112003
H	-2.420705834	 1.0646418149	 2.8943204992	 0.116125
H	-4.2729253237	 1.9217081464	 0.4994032449	 0.0994
H	-1.0152844145	 2.0339031903	-1.3003339978	 0.294445
H	-0.7096981511	 0.9141636394	 1.8635642263	 0.079655
H	 0.7342024356	 0.0437693239	 0.0723037868	 0.295568
149.033	180.8093	208.7834	260.1775	269.0023	282.7937	295.4028	373.2888	406.2735	459.2915	524.6379	551.6615	639.4656	697.3889	742.2104	776.6925	842.3194	871.3908	896.5098	948.7445	969.575	1005.4046	1037.2057	1062.8353	1084.6374	1087.0093	1096.7247	1137.1469	1177.9569	1207.0986	1228.1508	1265.9379	1296.3647	1317.1639	1366.096	1408.4239	1420.0714	1462.1356	1491.0221	1499.2836	1501.7072	3010.4393	3068.6851	3084.2366	3101.4656	3128.6503	3180.8419	3200.0087	3207.8188	3752.8178	3809.7827
CC12C3CC3C1(O)C2O	C[C@]12[C@H]3C[C@H]3[C@@]1(O)[C@@H]2O	
InChI=1S/C7H10O2/c1-6-3-2-4(3)7(6,9)5(6)8/h3-5,8-9H,2H2,1H3	InChI=1S/C7H10O2/c1-6-3-2-4(3)7(6,9)5(6)8/h3-5,8-9H,2H2,1H3/t3-,4+,5+,6+,7+/m0/s1
