19
gdb 3926	3.5193402	1.3948158	1.2222286	2.6463	75.09	-0.23475	0.07098	0.30573	1055.236	0.158267	-422.498002	-422.490681	-422.489737	-422.529282	30.105	
O	 0.3075618611	-0.1393044559	 0.3933394148	-0.423228
C	-0.9050596087	 0.4256954017	 0.8164834727	 0.074024
C	-2.0770429141	 0.2178249228	-0.2206787421	-0.377503
C	-2.5368073329	 1.6043690453	 0.2307401588	 0.433717
C	-3.3896401204	 1.8576351829	 1.4919112164	-0.272115
C	-2.9658133077	 3.2766275145	 1.0935621311	 0.067424
C	-1.4304386858	 3.24512362	 1.4533594727	-0.309194
C	-1.1181940848	 1.972456549	 0.6259850931	-0.018722
O	-3.0718071871	 2.8486614194	-0.3219967637	-0.354755
H	 0.9810171736	 0.0651412067	 1.0503623068	 0.283909
H	-1.1932689861	 0.0700604606	 1.8144749706	 0.074151
H	-1.653162581	 0.2086659044	-1.2279001052	 0.13098
H	-2.7533322281	-0.628318534	-0.0870397772	 0.105975
H	-4.4454112783	 1.6658166231	 1.2967439649	 0.108969
H	-3.0766367325	 1.4538866013	 2.4589064571	 0.092501
H	-3.5451865278	 4.172948594	 1.3121564471	 0.082104
H	-0.8829278572	 4.118390944	 1.0931326662	 0.106904
H	-1.2934517418	 3.1730171578	 2.5363230096	 0.102489
H	-0.5623763105	 2.2255473823	-0.2817329336	 0.09237
155.6193	246.757	277.2712	307.7873	352.2668	402.5053	475.3537	523.6329	565.8618	669.232	693.2083	778.7853	788.7704	835.4307	858.575	880.5076	905.4952	949.4217	983.6262	1000.2688	1019.3963	1054.8264	1067.9163	1093.5816	1134.8565	1158.5902	1179.1273	1194.2115	1208.4595	1221.0159	1226.1959	1253.5264	1265.8666	1287.7051	1294.4856	1321.0759	1375.0885	1428.3963	1478.7467	1483.2458	1495.4406	3011.4863	3057.7344	3063.9152	3065.4404	3074.0678	3116.3402	3131.2433	3135.6272	3139.319	3813.2784
OC1CC23CC(CC12)O3	O[C@@H]1C[C@@]23C[C@@H](C[C@@H]12)O3	
InChI=1S/C7H10O2/c8-6-3-7-2-4(9-7)1-5(6)7/h4-6,8H,1-3H2	InChI=1S/C7H10O2/c8-6-3-7-2-4(9-7)1-5(6)7/h4-6,8H,1-3H2/t4-,5+,6-,7+/m1/s1
