19
gdb 2135	3.7191788	1.4329641	1.2948493	1.9749	75.14	-0.24417	0.06907	0.31324	1015.2428	0.158423	-422.50115	-422.493907	-422.492962	-422.532168	30.128	
O	 0.4122365572	 0.5275258667	 0.7130489232	-0.47742
C	-0.7478632083	 1.016141534	 0.1266445125	 0.412945
C	-0.6551405021	 1.6591429502	-1.2678884014	-0.274935
C	-1.9999777537	 2.2884072331	-0.8261414626	 0.279027
C	-2.9992062024	 2.7002327574	-1.9166573254	-0.218874
O	-3.3862853607	 1.2881419091	-2.0448153264	-0.315939
C	-2.9078841039	 1.0776955746	-0.6836392052	 0.160326
C	-1.9345171842	 0.0196008888	-0.1285659618	-0.347749
C	-1.4070085422	 2.4078852212	 0.5931483846	-0.403142
H	 0.181322417	 0.1118292811	 1.550662945	 0.281845
H	 0.1409312821	 2.4045681466	-1.3333772793	 0.10067
H	-0.6496193098	 1.0006219628	-2.1389963015	 0.105598
H	-3.8469134365	 3.307745966	-1.573176743	 0.10293
H	-2.6010649282	 3.1007323275	-2.853045625	 0.112415
H	-3.7500936873	 1.241988602	 0.0033458475	 0.069756
H	-2.3180511443	-0.4631706037	 0.7760283935	 0.089102
H	-1.6321352362	-0.7557688769	-0.8364554503	 0.123463
H	-0.6224542017	 3.1544956852	 0.731137339	 0.108264
H	-2.1062352347	 2.4143760745	 1.4343111566	 0.091718
205.4191	254.1508	281.1554	317.6725	384.9528	426.1378	437.7698	515.4178	550.6183	606.3351	656.3669	739.4065	799.0166	840.8462	868.1554	903.9588	930.3125	951.301	958.9732	1004.1418	1015.2584	1068.5328	1091.2291	1093.8554	1107.0652	1144.0966	1158.4125	1167.6001	1200.1827	1224.0257	1228.0419	1261.9884	1292.4253	1303.3689	1340.2896	1386.0175	1397.5445	1481.6779	1488.1992	1509.9227	1528.006	2992.106	3016.4983	3051.9142	3055.2816	3067.299	3093.1893	3111.2457	3125.5858	3130.6234	3806.471
OC12CC3(COC3C1)C2	O[C@@]12C[C@]3(CO[C@H]3C1)C2	
InChI=1S/C7H10O2/c8-7-1-5-6(2-7,3-7)4-9-5/h5,8H,1-4H2	InChI=1S/C7H10O2/c8-7-1-5-6(2-7,3-7)4-9-5/h5,8H,1-4H2/t5-,6-,7-/m0/s1
