19
gdb 881	3.012786	1.352851	1.0471046	3.0362	75.08	-0.24607	-0.02471	0.22136	1156.9371	0.157512	-422.555115	-422.546801	-422.545857	-422.589293	30.736	
O	 1.2000978682	-0.6645740475	 0.0243974203	-0.254465
C	 0.2398912895	 0.0594042547	 0.0213108833	 0.144426
C	 0.2197181264	 1.422665005	-0.657845467	 0.006963
O	-0.9958309141	 2.0488179316	-0.29767829	-0.263555
C	-1.1021382188	 3.3490941826	-0.8639766582	-0.071105
C	-1.304721112	 3.29223792	-2.3819961519	-0.232134
C	-0.3934908661	 2.2559930301	-3.0406030409	-0.042322
C	-0.7838985008	 0.7973007807	-2.9924497034	-0.288939
C	 0.3751446553	 1.2876928245	-2.165181536	-0.027235
H	-0.7207624963	-0.2145894547	 0.5106845104	 0.091895
H	 1.074256914	 2.001092198	-0.2633463944	 0.092064
H	-1.9487178616	 3.8319961911	-0.3686048583	 0.109873
H	-0.1940988501	 3.9247398796	-0.6217158457	 0.092652
H	-2.3528819619	 3.0618340179	-2.6036316184	 0.110179
H	-1.107191013	 4.285877203	-2.798415592	 0.103335
H	 0.110242083	 2.5850264472	-3.943576293	 0.090511
H	-1.7072609136	 0.5567734108	-2.474995531	 0.120397
H	-0.5692980565	 0.1702819432	-3.8502579295	 0.11409
H	 1.3726695683	 0.9946009121	-2.4735822046	 0.103369
23.8272	92.941	173.5243	220.2532	287.3925	354.8376	408.6794	472.7245	536.0834	578.7152	690.5814	750.0689	791.0159	840.6607	860.7718	917.1228	943.6114	976.9481	997.6836	1067.6105	1073.9957	1081.8224	1097.2811	1111.205	1130.8851	1145.4959	1162.5794	1225.1256	1259.6152	1283.3163	1312.3633	1333.6894	1354.2763	1369.4919	1394.5043	1409.4159	1421.0246	1479.1116	1493.272	1501.7226	1839.8948	2895.0503	2946.4894	2975.1901	3035.7529	3074.9216	3092.2594	3131.6836	3154.9128	3173.0091	3219.9688
O=CC1OCCC2CC12	O=C[C@@H]1OCC[C@@H]2C[C@H]12	
InChI=1S/C7H10O2/c8-4-7-6-3-5(6)1-2-9-7/h4-7H,1-3H2	InChI=1S/C7H10O2/c8-4-7-6-3-5(6)1-2-9-7/h4-7H,1-3H2/t5-,6+,7+/m1/s1
