19
gdb 461	4.3875673	1.0066616	0.9127652	2.4255	74.57	-0.26125	0.09287	0.35412	1288.491	0.157877	-422.528932	-422.521092	-422.520148	-422.561797	29.803	
C	-0.8270003811	-2.0079423331	-4.064069102	-0.182643
O	 0.576334393	-1.8489483373	-4.2783780493	-0.241851
C	 0.0951704589	-1.8523643023	-2.9318435922	 0.07395
C	 0.221482085	-0.5651227489	-2.1593792727	 0.005147
C	-0.6674676411	-0.528175194	-0.885502995	-0.271009
C	 0.0757145654	 0.3965416068	 0.0566907514	 0.051136
O	 0.517254252	 1.6125681797	-0.5641288665	-0.25816
C	 1.462023938	 0.5430693811	-0.4023889558	 0.045871
C	 1.6640886246	-0.283716397	-1.6549278059	-0.259546
H	-1.4441883151	-1.1645502489	-4.3719225308	 0.113508
H	-1.2301634638	-2.9901719852	-4.3070915979	 0.113604
H	 0.3632856188	-2.7540690959	-2.3745834522	 0.087038
H	-0.0758992735	 0.2557377575	-2.8161349048	 0.096728
H	-1.6861476747	-0.1926447154	-1.1017819676	 0.113387
H	-0.7403201456	-1.5219794645	-0.4230948032	 0.10079
H	-0.2167019207	 0.4847150733	 1.1000955487	 0.093673
H	 2.2890977481	 0.7517777129	 0.2716314523	 0.093901
H	 2.2726355202	 0.2172588765	-2.4125722407	 0.122736
H	 2.1772493615	-1.2165707252	-1.3855172358	 0.101739
78.9935	95.9525	174.3433	304.7231	331.5794	340.2444	438.2697	466.467	661.2399	664.9788	820.6405	825.854	861.0108	862.4147	894.7979	907.6863	917.8941	960.8487	985.448	1023.6515	1067.4642	1078.6291	1091.3337	1109.4085	1150.1623	1162.7746	1178.06	1179.4975	1228.8773	1258.5183	1280.6359	1295.6978	1301.3025	1317.5238	1344.2408	1348.217	1442.3186	1450.0442	1476.9215	1488.9167	1530.3724	3023.3058	3028.0359	3068.0898	3078.1711	3081.5893	3088.8428	3099.9961	3140.6049	3153.2942	3166.7933
C1OC1C1CC2OC2C1	C1O[C@H]1[C@H]1C[C@@H]2O[C@@H]2C1	
InChI=1S/C7H10O2/c1-4(7-3-8-7)2-6-5(1)9-6/h4-7H,1-3H2	InChI=1S/C7H10O2/c1-4(7-3-8-7)2-6-5(1)9-6/h4-7H,1-3H2/t4-,5-,6+,7-/m1/s1
