19
gdb 3945	3.4350609	1.3272038	1.2671439	1.8811	73.87	-0.22359	0.06303	0.28662	1062.09	0.157953	-422.513828	-422.506132	-422.505188	-422.545587	30.856	
O	 0.2151354108	-0.1174384717	 0.4920347235	-0.427781
C	-1.0249811	 0.469621847	 0.840158674	 0.117634
C	-2.1633057732	-0.2455188391	 0.0496539413	-0.302774
C	-3.2273429921	 0.8136448713	-0.1222313275	 0.156338
C	-3.6891230301	 1.6427032433	 1.0661213395	-0.378647
C	-2.60318838	 2.1575578608	 0.178636863	 0.398191
C	-1.1381708752	 1.9897166868	 0.4728087474	-0.3385
O	-3.1329105761	 2.7808860449	-1.0024274012	-0.329537
C	-3.687893028	 1.494657713	-1.4148631276	-0.141945
H	 0.8848822046	 0.1971563974	 1.1068679376	 0.284999
H	-1.2023485101	 0.3489762689	 1.919828852	 0.072237
H	-1.7573074014	-0.5325069598	-0.9270710944	 0.117031
H	-2.4838841153	-1.1619856107	 0.55409157	 0.104637
H	-4.6592459749	 2.1277716708	 1.0253305692	 0.118939
H	-3.4051882962	 1.2762860582	 2.0471020118	 0.117586
H	-0.5685903401	 2.1654367063	-0.4456434659	 0.123129
H	-0.7339724092	 2.6369129309	 1.258476105	 0.096577
H	-4.7652826404	 1.5583259172	-1.608721239	 0.104513
H	-3.1747249632	 1.1184690244	-2.3078989188	 0.107371
111.7969	219.3563	269.8993	318.3399	323.8941	375.9366	403.1951	465.0562	543.0944	547.9316	646.1584	752.2754	807.9931	836.8144	844.9714	891.1322	921.7064	950.023	975.4491	994.6471	1004.851	1037.737	1051.9822	1073.7326	1081.3567	1150.7777	1187.3908	1206.6263	1235.5147	1265.9664	1278.2795	1279.5993	1324.1127	1340.2226	1365.5109	1384.6215	1433.7569	1472.7506	1483.9039	1494.9326	1514.0472	2975.4009	3016.8218	3041.2601	3045.1979	3067.1045	3087.9707	3094.3337	3125.273	3216.1603	3823.7735
OC1CC23CC2(C1)OC3	O[C@@H]1C[C@@]23C[C@]2(C1)OC3	
InChI=1S/C7H10O2/c8-5-1-6-3-7(6,2-5)9-4-6/h5,8H,1-4H2	InChI=1S/C7H10O2/c8-5-1-6-3-7(6,2-5)9-4-6/h5,8H,1-4H2/t5-,6+,7+/m1/s1
