19
gdb 3514	2.2729831	1.8047402	1.0977937	1.0259	76.61	-0.23923	0.0185	0.25773	1103.6731	0.157751	-422.536076	-422.528067	-422.527123	-422.568243	31.649	
O	-1.4774969991	 4.472354653	 0.8843146024	-0.445032
C	-0.684224141	 3.401750046	 0.3767384493	 0.062081
C	 0.2550953493	 4.0069999217	-0.6411912123	-0.062066
C	 1.0510014671	 3.3366353988	-1.4714978767	-0.057269
C	 1.2225191378	 1.8449385064	-1.5991445516	-0.133379
O	 0.5413797043	 1.0551743284	-0.6349297378	-0.247244
C	-0.8462632904	 1.1019952738	-0.7822112969	 0.118039
C	-1.6614259522	 0.9561197099	 0.4649497303	-0.349822
C	-1.5536255783	 2.3043434527	-0.2267066509	-0.082467
H	-2.0653200725	 4.1037149933	 1.5514367073	 0.281521
H	-0.0838528123	 2.9668441227	 1.1906994766	 0.08756
H	 0.2625964168	 5.0935046201	-0.6494423107	 0.102639
H	 1.6833983109	 3.9014126819	-2.1552551595	 0.0905
H	 0.9336738492	 1.5302652237	-2.618466087	 0.099216
H	 2.2843920427	 1.5912001487	-1.4891874684	 0.119145
H	-1.2145132325	 0.6519813799	-1.7055183826	 0.084536
H	-2.5919026099	 0.4023286767	 0.4086219735	 0.114618
H	-1.1090594634	 0.8287610273	 1.3905598481	 0.124188
H	-2.4154712365	 2.6834262251	-0.7681545529	 0.093235
106.0945	204.7774	260.3798	286.8125	310.1677	363.4027	389.7032	397.3242	446.6237	529.1745	652.2351	699.3048	769.0406	796.224	842.7886	868.481	899.4465	957.9656	996.9582	1007.0146	1031.4888	1061.4266	1068.65	1083.8161	1107.4171	1130.3221	1139.9838	1174.1966	1215.0799	1232.8661	1257.618	1298.5933	1308.7625	1362.0052	1388.4638	1401.7583	1419.9785	1428.1138	1476.2262	1486.7661	1736.1796	2942.9021	2971.2171	3042.6493	3086.562	3130.9849	3135.1255	3154.2312	3173.4633	3220.6351	3819.2177
OC1C=CCOC2CC12	O[C@@H]1C=CCO[C@H]2C[C@@H]12	
InChI=1S/C7H10O2/c8-6-2-1-3-9-7-4-5(6)7/h1-2,5-8H,3-4H2	InChI=1S/C7H10O2/c8-6-2-1-3-9-7-4-5(6)7/h1-2,5-8H,3-4H2/t5-,6+,7-/m0/s1
