19
gdb 2191	2.6254188	1.9468075	1.4505185	1.3427	73.37	-0.24168	0.06548	0.30716	946.9676	0.158392	-422.544726	-422.537292	-422.536348	-422.576624	29.783	
O	 0.5668943182	 0.0194227122	 0.5190907739	-0.492614
C	-0.7163184409	 0.5421182406	 0.782145336	 0.424623
C	-1.4747517046	-0.118496425	 1.985857241	-0.308749
C	-2.6602279607	-0.4132915954	 1.0493687807	 0.122337
O	-3.5126010038	 0.7406344934	 0.8631730297	-0.322194
C	-2.7959670152	 1.1509446176	-0.3370650632	 0.125361
C	-2.0287340859	 2.4556784104	-0.139712767	-0.225584
C	-0.7891038665	 2.0920719321	 0.721359525	-0.287518
C	-1.8102063567	-0.0176511636	-0.1827947968	-0.157038
H	 1.1613891055	 0.3214270931	 1.2146420185	 0.275408
H	-0.9639153901	-1.0414478032	 2.2779802827	 0.102542
H	-1.6865395218	 0.4918181401	 2.8680218682	 0.097125
H	-3.2319000339	-1.3350694742	 1.174863865	 0.076519
H	-3.4668715705	 1.1559993982	-1.2028258644	 0.071857
H	-1.7196088838	 2.8406058516	-1.1180147756	 0.102126
H	-2.6678933046	 3.2137571953	 0.3214078137	 0.11208
H	 0.1289125912	 2.4638453837	 0.2572785143	 0.101848
H	-0.8479378601	 2.5239125681	 1.7247672731	 0.100338
H	-1.5122732159	-0.6609198349	-1.0065143948	 0.081533
57.7895	248.3079	267.9906	313.1024	353.3622	399.7278	426.6684	561.0173	637.8702	668.151	772.594	782.0151	829.9424	856.2493	863.6256	901.4549	931.6198	939.466	973.5093	985.1163	993.242	1043.9364	1055.1264	1097.2181	1125.9897	1167.2357	1180.0331	1199.8027	1220.7894	1238.5837	1254.2398	1275.2446	1280.8952	1304.7327	1313.8406	1339.978	1356.6394	1386.5473	1452.7637	1470.9645	1496.6723	3037.677	3046.1303	3049.2587	3056.4192	3085.9465	3086.9427	3104.3679	3112.3067	3153.5029	3799.3715
OC12CC3OC(CC1)C23	O[C@@]12C[C@H]3O[C@@H](CC1)[C@@H]23	
InChI=1S/C7H10O2/c8-7-2-1-4-6(7)5(3-7)9-4/h4-6,8H,1-3H2	InChI=1S/C7H10O2/c8-7-2-1-4-6(7)5(3-7)9-4/h4-6,8H,1-3H2/t4-,5+,6+,7+/m0/s1
