19
gdb 2864	2.4695123	1.6750718	1.4053236	2.4052	74.52	-0.23247	0.08148	0.31395	1026.4216	0.15566	-422.513151	-422.504568	-422.503624	-422.545714	33.115	
C	-3.8970996671	-0.3294431321	 2.0501284965	-0.52777
C	-2.604822369	 0.27591995	 1.6089613932	 0.241314
C	-2.129129561	 1.6558848699	 1.3199903184	 0.035651
O	-0.9531525117	 1.5863313646	 2.1378623448	-0.345747
C	-1.1008514067	 0.1243147032	 2.0732299867	 0.300962
C	-0.5160635281	-0.6013133014	 3.2424865976	-0.516518
C	-0.7115815745	-0.1461513731	 0.5890195635	 0.161046
O	 0.5254069803	 0.3399190642	 0.1579297138	-0.453388
C	-2.0053592918	 0.5862769176	 0.2294417031	-0.243891
H	-4.0843083341	-0.1460823993	 3.1140031305	 0.128844
H	-4.7333721171	 0.0980040652	 1.4868660248	 0.128533
H	-3.912021478	-1.4129959948	 1.887684348	 0.125653
H	-2.6415996861	 2.6032265812	 1.2155835499	 0.108397
H	-0.6990327908	-1.6767979802	 3.1555783562	 0.125031
H	 0.5669720242	-0.44151072	 3.272929249	 0.140797
H	-0.9447711227	-0.2458194644	 4.1837033013	 0.130467
H	-0.7665824082	-1.209704008	 0.3422804332	 0.088267
H	 0.6029853928	 1.2162249855	 0.5607112659	 0.283211
H	-2.5125978806	 0.651500402	-0.7249890363	 0.089141
159.16	175.6367	186.8852	193.2877	226.5354	290.8222	317.8522	407.3266	514.8601	543.2074	600.1644	642.0858	710.0622	756.7396	778.6827	818.5001	870.234	874.783	916.3924	965.87	986.0847	1006.413	1023.8103	1093.6692	1094.9353	1118.6844	1143.7201	1177.9611	1183.7927	1249.423	1270.3542	1310.8381	1333.0491	1411.9025	1413.4072	1443.6254	1461.4091	1479.7044	1486.4293	1489.8477	1497.1161	3025.2078	3038.2153	3085.9564	3087.928	3095.8147	3109.3794	3116.7743	3196.3893	3209.2504	3749.1061
CC12C3OC1(C)C(O)C23	C[C@@]12[C@H]3O[C@]1(C)[C@H](O)[C@@H]23	
InChI=1S/C7H10O2/c1-6-3-4(8)7(6,2)9-5(3)6/h3-5,8H,1-2H3	InChI=1S/C7H10O2/c1-6-3-4(8)7(6,2)9-5(3)6/h3-5,8H,1-2H3/t3-,4-,5+,6-,7-/m1/s1
