19
gdb 1381	2.6968877	0.811216	0.6735528	2.0298	78.59	-0.26466	0.00778	0.27244	1656.089	0.153862	-422.556172	-422.545783	-422.544839	-422.592719	36.165	
C	-1.5800207243	 2.5259769871	-1.8594747785	-0.402874
C	-1.1056328337	 1.8108894789	-0.6029793339	 0.122666
C	-2.1886511038	 1.582655254	 0.455055215	-0.194607
C	-2.7039328417	 2.8929564186	 1.0864021192	-0.368363
C	-3.6738006249	 2.6524801723	 2.147646232	 0.291434
C	-4.4734662199	 2.4298663753	 3.0166209537	-0.426207
O	-0.6171272546	 0.5118513891	-1.0458510674	-0.221246
C	 0.3686050459	-0.044327395	-0.3308955371	 0.179214
O	 0.8934336513	 0.4164552427	 0.6465350172	-0.308082
H	-2.4184662218	 1.9925629887	-2.3181293434	 0.129809
H	-1.9025831511	 3.5443830189	-1.6269981786	 0.127563
H	-0.7697567849	 2.5873069563	-2.5905596934	 0.129654
H	-0.2613234177	 2.3397455004	-0.1501939751	 0.113007
H	-3.0246802791	 1.0340420778	 0.0077322537	 0.115564
H	-1.7715737202	 0.9548134184	 1.2469852838	 0.135055
H	-1.8553448462	 3.461215345	 1.4901471262	 0.137972
H	-3.162028982	 3.5296975761	 0.3199571091	 0.13336
H	-5.1783070298	 2.2446577528	 3.7887123549	 0.195888
H	 0.6329652786	-1.0095792673	-0.7908535274	 0.110194
44.6801	68.5133	93.9567	114.4759	198.5912	228.4472	246.5147	277.8451	344.4316	399.4597	416.9514	443.6275	549.1179	619.8976	640.2982	770.9938	784.8842	845.5782	914.9966	958.2593	959.5508	1034.3679	1045.4052	1081.7088	1135.3398	1157.9132	1210.4837	1233.2927	1284.3029	1314.353	1365.8553	1379.1822	1400.4809	1408.9098	1418.7372	1473.3359	1489.1835	1490.596	1503.949	1815.0559	2241.4659	3019.3525	3025.2971	3046.3409	3051.2227	3055.2684	3071.0852	3109.735	3122.0668	3125.391	3507.492
CC(CCC#C)OC=O	C[C@@H](CCC#C)OC=O	
InChI=1S/C7H10O2/c1-3-4-5-7(2)9-6-8/h1,6-7H,4-5H2,2H3	InChI=1S/C7H10O2/c1-3-4-5-7(2)9-6-8/h1,6-7H,4-5H2,2H3/t7-/m0/s1
