19
gdb 5527	4.4389068	1.1300729	1.0930747	3.2077	73.83	-0.2459	0.06971	0.31561	1178.4935	0.15729	-422.495442	-422.487783	-422.486839	-422.52767	29.91	
C	 3.9582044962	-0.5326810635	-3.4175826795	-0.383736
C	 3.0202295135	-1.5676820618	-2.7860176674	-0.212281
C	 2.1367253927	-0.9779106438	-1.6947742236	 0.024576
C	 0.8886764283	-0.1543597998	-2.1641861707	 0.00696
O	 0.1919583838	-1.4079851701	-2.3792743567	-0.263725
C	 0.9345637765	-1.85703336	-1.2163764423	-0.004098
C	 0.344050299	-0.9656101699	-0.0850493309	 0.021416
O	-0.8985314293	-0.3548659903	-0.4342780484	-0.225771
C	 0.3107703615	 0.312697244	-0.7963155121	 0.024921
H	 4.6184518925	-0.0823206025	-2.6678197474	 0.113945
H	 4.5899806423	-0.9904515356	-4.1845448797	 0.117805
H	 3.3962839564	 0.2781941651	-3.8934073256	 0.117556
H	 2.383783953	-2.0192489632	-3.5536944634	 0.118482
H	 3.6164963902	-2.3811858003	-2.3524535966	 0.095732
H	 2.7371158228	-0.5173144031	-0.8998203839	 0.066573
H	 0.8816007003	 0.5212662518	-3.0187368123	 0.086512
H	 0.9789373801	-2.9390781853	-1.0955103053	 0.085098
H	 0.559175929	-1.1114358869	 0.9674204405	 0.105049
H	 0.4961867513	 1.2919849151	-0.3698620149	 0.104986
89.0749	148.9145	187.7839	272.1844	338.8238	416.8595	446.5404	513.3293	694.8104	721.8601	766.9645	818.1545	828.9032	871.0212	882.4412	897.5239	910.124	914.7077	954.7944	965.5689	989.9039	1062.5973	1066.3537	1077.1923	1093.2284	1146.4383	1163.7481	1203.4305	1216.9937	1244.9596	1263.1441	1267.5058	1291.2072	1304.4249	1344.6686	1381.6013	1409.2732	1415.7924	1488.7449	1499.9564	1506.0188	3022.927	3028.2678	3031.4854	3076.0817	3100.7016	3106.3234	3126.6029	3129.9977	3176.2911	3188.9724
CCC1C2OC1C1OC21	CC[C@H]1[C@H]2O[C@@H]1[C@@H]1O[C@H]21	
InChI=1S/C7H10O2/c1-2-3-4-6-7(9-6)5(3)8-4/h3-7H,2H2,1H3	InChI=1S/C7H10O2/c1-2-3-4-6-7(9-6)5(3)8-4/h3-7H,2H2,1H3/t3-,4+,5-,6+,7-
