19
gdb 1151	2.900847	1.102492	0.9221555	4.9715	76.94	-0.24461	-0.02209	0.22252	1323.4363	0.153514	-422.576837	-422.566931	-422.565987	-422.612502	34.915	
C	 0.747804534	 4.8288178456	 0.5160469323	-0.476547
C	 0.9440573205	 3.3895560712	 0.9507931698	 0.392405
O	 0.4244225253	 2.9397808327	 1.9460699813	-0.285354
C	 1.8251947448	 2.5209398178	 0.0517422299	-0.44108
C	 2.229445968	 1.2150183678	 0.6972219755	 0.29115
C	 3.5356085315	 0.543748673	 0.2720628108	-0.309343
C	 3.4350618134	 1.175012625	 1.619130864	-0.275609
C	 1.1257678795	 0.2685506642	 1.0397092309	 0.117723
O	 1.2822838922	-0.7535220988	 1.6638842009	-0.282824
H	 1.6919645771	 5.3767460019	 0.6199893009	 0.144429
H	 0.4649001074	 4.8833352723	-0.5407801719	 0.137992
H	-0.0144171151	 5.305102799	 1.1335145684	 0.148004
H	 1.2596266033	 2.3444942168	-0.8765703116	 0.131462
H	 2.7056301184	 3.0967673476	-0.2569550885	 0.119092
H	 3.5179279834	-0.538810967	 0.2206220336	 0.140125
H	 4.1153498867	 1.0375136959	-0.5005026058	 0.11534
H	 3.3453151517	 0.51852745	 2.476484103	 0.145893
H	 3.9508075268	 2.1123850221	 1.7967926706	 0.113354
H	 0.1262029812	 0.5513786729	 0.6467746657	 0.07379
45.8003	73.8858	110.2086	124.5749	185.539	245.5806	299.4607	320.8454	332.831	388.3265	470.878	555.4688	667.846	758.4101	792.2785	800.2362	842.0606	847.2791	939.3606	949.4662	989.3209	1005.3755	1048.7253	1065.4689	1072.5714	1100.9712	1176.9922	1201.9889	1207.0583	1297.7834	1333.1169	1370.8778	1385.4602	1438.4474	1447.3813	1455.1327	1463.2891	1476.3902	1486.384	1809.3761	1811.7913	2904.0225	3001.0676	3035.7068	3060.0278	3096.3866	3135.3063	3139.1138	3154.0092	3224.3336	3238.8779
CC(=O)CC1(CC1)C=O	CC(=O)CC1(CC1)C=O	
InChI=1S/C7H10O2/c1-6(9)4-7(5-8)2-3-7/h5H,2-4H2,1H3	InChI=1S/C7H10O2/c1-6(9)4-7(5-8)2-3-7/h5H,2-4H2,1H3
