19
gdb 5255	3.5593998	1.2501371	1.1737889	1.5306	74.12	-0.24159	0.06855	0.31013999999999997	1109.4516	0.158453	-422.528799	-422.52102	-422.520076	-422.56113	30.25	
O	 1.3383272738	 0.6854160371	-0.0708788683	-0.412908
C	 0.270225242	-0.1015341599	 0.4418849888	-0.18167
C	-0.8883101519	 0.7274919621	 0.9086403363	 0.310777
C	-1.8428299353	 1.5207012162	 0.0076602027	-0.302039
C	-2.9092533778	 1.4230879475	 1.1462142631	 0.085428
O	-2.9017757747	 2.572228411	 1.9791866105	-0.262208
C	-1.5919712225	 2.6548173153	 2.5513669295	-0.104025
C	-0.9674946981	 1.2800413285	 2.3331553906	-0.133432
C	-2.0343932444	 0.3486335257	 1.8406320153	-0.146176
H	 1.5925645577	 1.3071196493	 0.6192368915	 0.280758
H	-0.0369486053	-0.7476624105	-0.388536629	 0.110206
H	 0.6102612563	-0.7604895708	 1.258346814	 0.083418
H	-1.560379594	 2.5292458959	-0.3094171063	 0.100365
H	-2.1290653586	 0.9329878614	-0.8698824087	 0.101154
H	-3.9387623077	 1.2011009573	 0.8702673219	 0.085454
H	-1.019046589	 3.4619722084	 2.0741190503	 0.097112
H	-1.6893222202	 2.8911219314	 3.6174889814	 0.106823
H	-0.2330002868	 0.9113964587	 3.0410050857	 0.089783
H	-2.3192217336	-0.5949164144	 2.2861989707	 0.09118
88.7221	130.7869	234.2572	271.6427	325.1223	380.4554	417.6448	451.3483	642.8398	700.1563	723.6954	754.3298	845.8859	871.2512	897.7718	899.515	940.4567	945.1965	987.4982	999.8256	1025.335	1036.7374	1057.0763	1077.5018	1111.3995	1153.418	1163.5482	1198.576	1218.9554	1225.8226	1235.9009	1280.1754	1298.7269	1330.8358	1364.4679	1378.7168	1416.9491	1436.506	1491.3356	1500.804	1525.2746	2963.8107	3003.1948	3045.8436	3050.8537	3059.8183	3098.3618	3134.0467	3175.931	3205.6841	3809.1286
OCC12CC3OCC1C23	OC[C@]12C[C@@H]3OC[C@H]1[C@H]23	
InChI=1S/C7H10O2/c8-3-7-1-5-6(7)4(7)2-9-5/h4-6,8H,1-3H2	InChI=1S/C7H10O2/c8-3-7-1-5-6(7)4(7)2-9-5/h4-6,8H,1-3H2/t4-,5-,6-,7+/m0/s1
