19
gdb 1608	2.9689425	1.1803841	1.0327714	3.7229	75.45	-0.24131	-0.01647	0.22483999999999998	1211.2283	0.154678	-422.544497	-422.535597	-422.534653	-422.578247	33.27	
C	-2.9185266872	-0.0350110209	-1.3540034059	-0.452697
C	-2.1172151582	 0.0033403106	-0.0513658675	 0.287216
C	-0.9754968348	-1.0764818128	-0.0163441103	-0.38784
C	 0.0159918704	 0.0510409368	-0.333224103	 0.405732
O	 1.1390718417	 0.0762322908	-0.7442157323	-0.291926
C	-1.0298768844	 1.1297643931	-0.0292621363	-0.397182
C	-3.0456959172	-0.0402232084	 1.1400569235	 0.02271
C	-3.5366501441	 1.1614181111	 1.8240224017	-0.185557
O	-2.5107881659	 0.3487576234	 2.4060671544	-0.240684
H	-3.5455014399	-0.9321544387	-1.4062104422	 0.121117
H	-3.5720800575	 0.8393494145	-1.4413830645	 0.122069
H	-2.2527801698	-0.0454345784	-2.223300543	 0.126417
H	-0.806132911	-1.4770952276	 0.9890386953	 0.142591
H	-1.0266197334	-1.9037865631	-0.7288056783	 0.124267
H	-0.8813821315	 1.5243756802	 0.9817690979	 0.148352
H	-1.1184836311	 1.9548984281	-0.7400720821	 0.121104
H	-3.6721879164	-0.934189968	 1.186722164	 0.095099
H	-3.2121211806	 2.1437662165	 1.483928749	 0.117629
H	-4.4950113991	 1.1408425529	 2.3399758795	 0.121585
67.3604	95.3093	190.8893	220.5705	245.6315	302.6528	331.6857	412.1263	424.3987	507.8335	515.6371	604.1593	697.1935	732.8803	844.2877	867.7167	880.8884	889.7005	945.2041	965.2098	998.9941	1053.8518	1081.8067	1095.5933	1129.0147	1156.9779	1168.0529	1173.6404	1196.1407	1214.6034	1258.1147	1286.9935	1314.48	1410.3667	1421.8734	1432.4634	1445.2076	1493.1577	1498.6114	1528.1525	1895.6568	3027.1114	3050.5902	3055.5622	3081.2012	3088.2902	3095.6358	3100.537	3114.6792	3118.3142	3174.8352
CC1(CC(=O)C1)C1CO1	CC1(CC(=O)C1)[C@@H]1CO1	
InChI=1S/C7H10O2/c1-7(6-4-9-6)2-5(8)3-7/h6H,2-4H2,1H3	InChI=1S/C7H10O2/c1-7(6-4-9-6)2-5(8)3-7/h6H,2-4H2,1H3/t6-/m0/s1
