19
gdb 1613	2.6086238	1.3720611	1.0588532	0.9982	78.42	-0.2556	-0.05685	0.19874999999999998	1168.5786	0.15322	-422.571911	-422.561981	-422.561037	-422.606164	35.785	
C	 0.0611225884	 0.3579922092	-0.3089883766	-0.501121
C	 1.013664663	 0.0924182433	 0.8416395761	 0.188254
C	 2.3323366364	 0.8070661357	 0.9410278351	-0.343251
C	 2.384651632	-0.6596874453	 0.6164664052	 0.188241
C	 2.9054476552	-1.6687335892	 1.6226448212	-0.501124
C	 2.6937045481	-1.0241861418	-0.8015497262	 0.109151
O	 2.6684660377	-0.2727407668	-1.7472882616	-0.263471
C	 0.3156298242	-0.2134099617	 2.1293958784	 0.10915
O	 0.8080434203	-0.1607074544	 3.2314313747	-0.263477
H	-0.5567543549	 1.234306283	-0.0829740986	 0.127283
H	 0.596760391	 0.5539008428	-1.2366826329	 0.167198
H	-0.6134688089	-0.4901731266	-0.4720261679	 0.121905
H	 2.5788917472	 1.488003004	 0.1334276396	 0.140375
H	 2.6491510644	 1.0966184626	 1.9372548453	 0.140367
H	 2.6454596073	-1.3895652011	 2.6426400304	 0.167229
H	 2.5062208621	-2.670250977	 1.4261278728	 0.121899
H	 3.997576941	-1.7281603042	 1.5555433699	 0.127274
H	 2.9768525575	-2.091844022	-0.9362953437	 0.082056
H	-0.7525902423	-0.4975790007	 2.0014122891	 0.082063
113.8349	142.644	159.3352	177.8983	184.9007	240.5486	241.4504	283.7539	307.638	366.1161	401.1679	431.5387	571.7718	612.149	686.0972	724.442	851.5597	931.6005	942.5094	954.3794	1001.791	1014.1763	1046.4177	1088.45	1110.4575	1121.1991	1190.123	1231.6426	1293.578	1357.5812	1415.3344	1418.778	1432.0658	1434.7948	1463.9155	1491.3734	1497.2282	1506.5623	1507.9946	1797.2639	1809.4164	2883.1488	2885.9425	3032.9548	3033.7894	3087.9772	3088.2379	3133.1869	3159.8281	3159.8918	3232.0736
CC1(CC1(C)C=O)C=O	C[C@@]1(C[C@]1(C)C=O)C=O	
InChI=1S/C7H10O2/c1-6(4-8)3-7(6,2)5-9/h4-5H,3H2,1-2H3	InChI=1S/C7H10O2/c1-6(4-8)3-7(6,2)5-9/h4-5H,3H2,1-2H3/t6-,7-/m1/s1
