19
gdb 6048	3.946145	0.6680198	0.5956699	2.0372	78.73	-0.25888	0.0452	0.30408	1859.6535	0.153417	-422.484141	-422.473923	-422.472979	-422.520524	35.467	
C	 1.5696440365	 0.0565743184	 0.1266396512	-0.22468
O	 0.1849651843	 0.2087687771	-0.0754910338	-0.232434
C	-0.5687786044	-0.0478842806	 1.0868970796	-0.080901
C	-2.0251584738	 0.1325430468	 0.7613824336	 0.053019
O	-2.5633790159	 1.4580772107	 0.8800296104	-0.252818
C	-3.0118171748	 0.4614994829	 1.7937158481	 0.058869
C	-4.4707116655	 0.0493934856	 1.6705815975	-0.38138
C	-4.7531976417	-1.1894478615	 2.3859265834	 0.298158
C	-4.9546473485	-2.2094333005	 2.9883231932	-0.453209
H	 1.8266926658	-0.9672230624	 0.4431906904	 0.103208
H	 2.0632953658	 0.2667234165	-0.8249722659	 0.13059
H	 1.951028313	 0.7558569379	 0.88740488	 0.106792
H	-0.3969811611	-1.0805030908	 1.4404312426	 0.092914
H	-0.2873097283	 0.6366348836	 1.9036900486	 0.095644
H	-2.3620007451	-0.4070953357	-0.1243599214	 0.101688
H	-2.6631368497	 0.59525702	 2.8188660672	 0.101247
H	-5.1004051473	 0.8584914433	 2.0629141762	 0.142414
H	-4.7217838771	-0.0521225942	 0.6084826779	 0.141158
H	-5.1464802122	-3.1113804572	 3.5147272713	 0.19972
45.5941	78.5364	92.4288	117.9466	148.514	236.7075	269.4066	324.7855	347.638	364.1709	441.2862	502.6955	549.6436	626.5108	652.682	806.9553	871.0856	954.5738	964.0064	982.3633	1017.5023	1065.4438	1090.5254	1124.8742	1161.7883	1169.9089	1189.0035	1223.7979	1230.232	1266.8015	1278.5499	1322.59	1350.9555	1417.515	1469.1804	1477.2813	1486.8374	1496.0088	1507.5127	1521.3934	2241.6071	2945.7188	2969.5983	2991.2438	3013.3868	3026.7113	3065.4033	3102.2849	3114.6632	3117.6011	3506.6249
COCC1OC1CC#C	COC[C@@H]1O[C@H]1CC#C	
InChI=1S/C7H10O2/c1-3-4-6-7(9-6)5-8-2/h1,6-7H,4-5H2,2H3	InChI=1S/C7H10O2/c1-3-4-6-7(9-6)5-8-2/h1,6-7H,4-5H2,2H3/t6-,7-/m0/s1
