19
gdb 4080	3.7040165	1.2928543	1.0865983	0.9501	73.66	-0.25668	0.07373	0.33041000000000004	1117.7143	0.158375	-422.541866	-422.534257	-422.533313	-422.573999	30.021	
O	-0.004037625	-0.2586929514	 0.2860971315	-0.431939
C	-0.9865579937	 0.5162367842	 0.9241033042	 0.168768
C	-1.1850004066	 0.3925665246	 2.4584941675	-0.297468
C	-1.3152838888	 1.9366829811	 2.5401645806	-0.055817
C	-2.7186325394	 2.5009102246	 2.4528355215	 0.030382
O	-2.7136141353	 3.9217215182	 2.277738992	-0.258225
C	-2.9488306803	 3.1014342216	 1.1257430823	 0.048413
C	-1.7127341802	 2.954671406	 0.2469774397	-0.268983
C	-0.7708732886	 2.0574228466	 1.0728621982	-0.047441
H	 0.8339338963	-0.1103733254	 0.7372873885	 0.276877
H	-1.9141446315	 0.305059376	 0.3817519596	 0.089018
H	-2.0224510446	-0.2160523018	 2.8114099125	 0.100967
H	-0.2725642969	 0.0408785101	 2.9511755915	 0.09563
H	-0.7532727887	 2.4260306535	 3.338762037	 0.083995
H	-3.5212853193	 2.1086667327	 3.075305356	 0.092012
H	-3.939313635	 3.1988858454	 0.6868636579	 0.093329
H	-1.95869793	 2.4945241936	-0.7167043036	 0.104735
H	-1.2863692105	 3.9418742593	 0.0413018818	 0.113586
H	 0.2856294582	 2.3261441013	 0.9911337416	 0.062161
72.9426	203.2417	235.4326	290.0487	361.3791	372.4443	408.0587	487.0151	615.16	717.4208	738.4214	798.475	829.2129	857.9759	870.7962	900.7649	931.6086	943.5841	993.1095	1010.7094	1036.682	1051.5558	1079.0497	1092.9965	1138.9582	1150.0386	1167.1262	1194.4956	1241.1297	1248.9512	1253.3817	1261.5672	1284.5467	1302.1228	1325.8294	1350.4605	1361.2285	1423.0736	1439.1386	1478.5206	1480.5792	3039.834	3044.9716	3054.6696	3071.4333	3081.9644	3086.8567	3100.15	3123.8057	3142.0466	3803.7948
OC1CC2C3OC3CC12	O[C@H]1C[C@@H]2[C@H]3O[C@H]3C[C@H]12	
InChI=1S/C7H10O2/c8-5-1-4-3(5)2-6-7(4)9-6/h3-8H,1-2H2	InChI=1S/C7H10O2/c8-5-1-4-3(5)2-6-7(4)9-6/h3-8H,1-2H2/t3-,4-,5-,6-,7+/m0/s1
