19
gdb 5764	2.3104318	1.725938	1.1588055	2.6906	75.67	-0.23796	-0.02145	0.21651	1097.6992	0.155947	-422.534392	-422.525794	-422.52485	-422.568169	31.835	
C	 1.6055495965	-0.0377893373	 0.0597355923	-0.25114
O	 0.2026742981	 0.1171296429	-0.0620893561	-0.232849
C	-0.3926422513	 0.7062370798	 1.0566995272	 0.140318
C	-1.9085555352	 0.9588250241	 0.8728778207	-0.267572
C	-1.7035037395	 2.4774861062	 1.1093452952	-0.027943
C	-1.4373227241	 3.2981181187	-0.1841868668	-0.355887
C	 0.0674208707	 3.0203842631	-0.0090561945	 0.441539
O	 1.0463334988	 3.3305424482	-0.6249527494	-0.309108
C	-0.15113458	 2.2449536393	 1.2927289374	-0.222836
H	 1.865037599	-0.6374513256	 0.9458119996	 0.101762
H	 1.9479850518	-0.561366013	-0.8354154396	 0.13025
H	 2.1141117392	 0.9330702245	 0.1208857777	 0.134398
H	-0.1553369273	 0.1356077744	 1.9673900738	 0.072951
H	-2.2750974888	 0.6869497193	-0.1201197176	 0.113832
H	-2.5266462682	 0.4612645694	 1.6229060779	 0.107277
H	-2.3144367788	 2.9562974125	 1.8722107603	 0.077384
H	-1.8917256768	 2.9422173901	-1.113467679	 0.129432
H	-1.6526884742	 4.3674673222	-0.0806378108	 0.131942
H	 0.4434637302	 2.537665391	 2.1589481417	 0.086252
47.5392	103.6844	149.6447	209.5107	249.3148	346.2751	396.8315	424.0297	455.2788	573.9113	588.7944	703.0739	758.4915	806.9775	849.3695	904.4737	915.4961	954.3109	1020.9022	1028.3996	1045.1753	1061.8074	1089.8838	1124.797	1143.3941	1175.1567	1182.7064	1198.573	1218.3717	1232.7127	1250.8984	1278.2604	1297.0128	1315.0672	1379.4921	1429.1118	1475.3569	1482.783	1492.9482	1507.9382	1880.7971	2977.2812	2986.7396	3047.5955	3054.7899	3067.5953	3101.5913	3107.6768	3119.1978	3123.8874	3132.0503
COC1CC2CC(=O)C12	CO[C@@H]1C[C@@H]2CC(=O)[C@H]12	
InChI=1S/C7H10O2/c1-9-6-3-4-2-5(8)7(4)6/h4,6-7H,2-3H2,1H3	InChI=1S/C7H10O2/c1-9-6-3-4-2-5(8)7(4)6/h4,6-7H,2-3H2,1H3/t4-,6+,7+/m0/s1
