19
gdb 2964	3.2011536	1.12457	0.9973613	2.607	76.72	-0.24892	-0.03813	0.21079	1255.5187	0.155165	-422.541731	-422.532835	-422.531891	-422.575077	33.63	
C	 2.3322641697	 1.5472413168	 0.1221064282	-0.421372
C	 1.5710730939	 0.248645485	 0.2890688998	-0.018049
C	 1.7803862651	-0.8306490265	-0.7310050871	-0.047379
C	 0.8326787625	-2.0067454086	-0.4631170125	-0.314136
C	 1.4907803561	-2.206156926	 0.9583068385	 0.325614
O	 2.2318266453	-3.3899986775	 1.0358705172	-0.483874
C	 0.574193687	-2.1096453354	 2.15565043	 0.109369
O	 0.5174582963	-2.9851531782	 2.9884479496	-0.279025
C	 2.3761318693	-0.971461143	 0.6713226045	-0.115543
H	 2.4645579197	 2.05688456	 1.0822902745	 0.122417
H	 3.3271618627	 1.3694394942	-0.2995666333	 0.121134
H	 1.8021800773	 2.2296425654	-0.5506643366	 0.122004
H	 0.5693505049	 0.3760719594	 0.6977729611	 0.076387
H	 2.2888364435	-0.6388690532	-1.6680794322	 0.09012
H	-0.2404933105	-1.790384209	-0.5123651526	 0.095129
H	 1.0542664771	-2.8981936987	-1.0507955901	 0.132548
H	 1.9207336348	-3.8375435891	 1.8395468817	 0.290999
H	-0.046120107	-1.196889197	 2.2393256599	 0.096558
H	 3.4068151021	-0.9056086184	 0.9991563694	 0.0971
85.5638	142.8599	191.1947	231.0173	243.2209	311.8615	321.1721	383.1294	416.2235	448.1449	503.8364	514.1995	766.5572	791.0474	829.5178	849.1179	868.7722	894.7104	967.388	985.7509	999.6162	1013.2841	1054.6409	1069.181	1091.7626	1118.7526	1144.7852	1157.7146	1212.8085	1219.1384	1245.9299	1281.0885	1313.4222	1390.2747	1418.149	1424.0807	1445.8054	1471.0782	1494.5756	1502.7777	1800.0036	2953.0931	3030.8221	3039.4409	3092.8106	3096.3264	3110.4988	3133.3237	3180.1326	3191.0226	3677.0604
CC1C2CC(O)(C=O)C12	C[C@H]1[C@@H]2C[C@](O)(C=O)[C@H]12	
InChI=1S/C7H10O2/c1-4-5-2-7(9,3-8)6(4)5/h3-6,9H,2H2,1H3	InChI=1S/C7H10O2/c1-4-5-2-7(9,3-8)6(4)5/h3-6,9H,2H2,1H3/t4-,5-,6+,7-/m0/s1
