19
gdb 3471	2.796949	1.4296864	1.0722125	1.3999	78.18	-0.22878	0.00844	0.23722000000000001	1144.1564	0.156712	-422.556068	-422.547398	-422.546454	-422.589222	33.554	
O	-0.5159261193	 2.8947763322	 1.7654150468	-0.439493
C	-1.2950854723	 1.9940911592	 0.9876858417	 0.054463
C	-2.593841952	 2.5454699773	 0.4465598662	-0.160504
C	-2.8044833905	 2.1434519001	-0.8093207459	-0.133229
C	-1.6932023797	 1.2988138044	-1.3165463994	 0.320906
C	-1.9513890526	-0.0543589251	-1.9500224012	-0.301921
C	-1.417436356	 1.0785799806	-2.7830581695	-0.323213
C	-0.5724360478	 1.4970736218	-0.293908033	 0.022175
O	 0.2038966286	 0.3292414825	-0.1306794393	-0.440749
H	-0.4339073859	 3.7118610745	 1.2603562893	 0.274392
H	-1.4728266178	 1.1391931058	 1.6535274709	 0.101983
H	-3.2650586648	 3.1450067745	 1.0506339641	 0.099877
H	-3.6827914776	 2.3642986877	-1.4073707292	 0.100641
H	-1.2697933796	-0.8508849096	-1.6776996292	 0.139904
H	-2.9836886058	-0.3573318201	-2.088720421	 0.109461
H	-0.376896447	 1.0322500906	-3.088588177	 0.118392
H	-2.0775093277	 1.5512051869	-3.5035320426	 0.107436
H	 0.0652644309	 2.3317902999	-0.6366544179	 0.058605
H	 0.8961618269	 0.5299771065	 0.5078634763	 0.290874
54.8765	182.6638	235.208	250.4837	285.3751	331.1403	337.5697	359.4591	440.7895	474.7903	564.946	600.6729	684.8822	767.9441	783.5018	806.2964	894.0015	933.578	942.1674	957.9019	973.3845	995.7991	1050.5259	1067.5768	1075.9861	1082.9299	1128.6148	1139.3392	1194.7659	1223.7254	1246.4452	1258.1204	1293.2329	1316.0208	1337.5854	1401.9318	1419.8603	1436.4345	1459.2418	1495.5945	1664.8683	2934.0683	3026.5602	3122.5296	3139.2419	3178.0723	3206.4271	3207.0532	3235.2813	3792.8358	3815.322
OC1C=CC2(CC2)C1O	O[C@H]1C=CC2(CC2)[C@@H]1O	
InChI=1S/C7H10O2/c8-5-1-2-7(3-4-7)6(5)9/h1-2,5-6,8-9H,3-4H2	InChI=1S/C7H10O2/c8-5-1-2-7(3-4-7)6(5)9/h1-2,5-6,8-9H,3-4H2/t5-,6+/m0/s1
