19
gdb 2460	2.90236	1.8273071	1.463782	2.4116	73.96	-0.21806	0.08494	0.303	959.5515	0.158607	-422.546883	-422.539487	-422.538543	-422.578387	29.301	
C	 0.0411847489	 0.1559188929	 0.2492088299	-0.478557
C	 1.443173769	 0.0391462138	-0.2766344585	 0.422867
O	 1.9945356137	 1.2607972721	-0.7152555138	-0.293175
C	 3.3452346827	 1.3402972886	-0.2612002457	-0.081329
C	 3.8215204037	-0.112810517	-0.0991024399	-0.086416
C	 4.1246726274	-0.7765258327	-1.4533791031	-0.073314
O	 2.8537421393	-1.0702624645	-2.0375828479	-0.254407
C	 1.9212159707	-1.2138938336	-1.0001658012	 0.028691
C	 2.5225127724	-0.8272332982	 0.3296758962	-0.219811
H	 0.007649208	 0.7924862196	 1.1397550883	 0.122122
H	-0.6142861526	 0.5958054561	-0.5091752732	 0.134354
H	-0.357014276	-0.8281928913	 0.5141963779	 0.116934
H	 3.9188802621	 1.9079653571	-1.0007739968	 0.107042
H	 3.3921825412	 1.8725155681	 0.7014563561	 0.090302
H	 4.6423641708	-0.2132199121	 0.6136740708	 0.080464
H	 4.6720011225	-0.1275908505	-2.1441284319	 0.108469
H	 4.7002778625	-1.7038781968	-1.311411578	 0.091781
H	 1.2487225821	-2.0578453342	-1.1215248816	 0.093784
H	 2.4360666315	-1.3902077773	 1.2507276424	 0.090199
141.5955	199.5476	208.9309	264.3724	313.7914	385.457	517.1363	596.2883	614.5966	735.5699	756.439	785.5619	829.4582	844.4248	872.8797	930.2427	951.8638	966.5634	978.3697	1012.2899	1044.5779	1061.7119	1087.9213	1112.3231	1118.1407	1149.4732	1194.7896	1215.0536	1227.7496	1235.2668	1280.9133	1283.2294	1315.7462	1370.6239	1392.0769	1412.0239	1426.7697	1478.4541	1499.2035	1507.9148	1522.9634	2983.8041	2987.4319	3033.6541	3075.2544	3083.1383	3098.5987	3100.6005	3111.1633	3152.8445	3183.2055
CC12OCC3COC1C23	C[C@]12OC[C@@H]3CO[C@H]1[C@H]23	
InChI=1S/C7H10O2/c1-7-5-4(3-9-7)2-8-6(5)7/h4-6H,2-3H2,1H3	InChI=1S/C7H10O2/c1-7-5-4(3-9-7)2-8-6(5)7/h4-6H,2-3H2,1H3/t4-,5+,6-,7+/m0/s1
