19
gdb 1196	2.3257659	1.3968794	0.9553955	0.5876	76.97	-0.25043	0.04306	0.29349	1243.5942	0.154352	-422.503749	-422.493853	-422.492909	-422.53899	35.648	
C	-4.2817606074	-0.494840858	 0.2463249911	-0.397868
C	-3.1804045548	-0.5292081276	-0.8325058595	-0.197872
C	-3.7436792432	-0.575082425	-2.1793582714	 0.338154
C	-4.2316695358	-0.6398707837	-3.2759454644	-0.467375
C	-2.2447638894	-1.7284485353	-0.5944547576	 0.099016
O	-1.6158569576	-1.6589301501	 0.7056656049	-0.288095
C	-0.3083023323	-1.4416652739	 0.1336368081	-0.116531
C	-0.8484702994	-1.715225439	-1.2879002997	 0.079961
O	-0.5623982694	-0.8233387317	-2.3249429518	-0.415383
H	-3.8216233538	-0.4889166739	 1.2369227961	 0.139883
H	-4.9045691883	 0.3957084545	 0.1326197041	 0.124041
H	-4.926449585	-1.3747859527	 0.162557799	 0.127215
H	-2.5861650498	 0.3908962601	-0.7256685388	 0.087378
H	-4.6466872508	-0.6878278324	-4.2521867672	 0.197881
H	-2.8171974095	-2.657047428	-0.7093376197	 0.088268
H	 0.0468664951	-0.4115324622	 0.2819290072	 0.094316
H	 0.4379352256	-2.1371720758	 0.5323673699	 0.111804
H	-0.57048433	-2.7021621905	-1.6626130862	 0.107869
H	-0.846201724	 0.0610983352	-2.0717413542	 0.287339
41.7966	91.9219	122.9371	192.1924	213.1421	238.6472	255.8797	290.1009	389.9612	429.7863	464.1454	525.9263	597.4434	634.714	648.6879	732.6779	828.6522	874.3162	910.9337	969.9395	1019.0693	1026.32	1045.4779	1076.1015	1089.8068	1140.3471	1152.6398	1172.6547	1246.4319	1267.76	1282.6705	1309.8161	1333.0854	1343.9158	1381.76	1402.9442	1446.2699	1494.8122	1498.7505	1519.7808	2235.5203	2986.4749	2999.6582	3033.6102	3048.3779	3066.3016	3100.7899	3122.302	3137.9514	3505.0937	3816.0367
CC(C#C)C1OCC1O	C[C@H](C#C)[C@@H]1OC[C@@H]1O	
InChI=1S/C7H10O2/c1-3-5(2)7-6(8)4-9-7/h1,5-8H,4H2,2H3	InChI=1S/C7H10O2/c1-3-5(2)7-6(8)4-9-7/h1,5-8H,4H2,2H3/t5-,6+,7+/m1/s1
