19
gdb 3668	2.535323	1.5538144	1.1518159	3.4816	75.74	-0.2405	0.06661	0.30711	1121.1634	0.154723	-422.462978	-422.454356	-422.453412	-422.495917	32.695	
C	 2.7395315249	-0.6993734743	 4.517865826	-0.418218
C	 3.2439474056	-0.9988931773	 3.1304799453	-0.082687
O	 3.1495591077	-2.3816210606	 2.6932925417	-0.30414
C	 2.3747224537	-1.4242405878	 2.0398605394	 0.556379
C	 0.8731129235	-1.5045323752	 1.707847207	-0.092157
O	 1.246579772	-2.3496350083	 0.5456018985	-0.311255
C	 2.2231520906	-1.2308122913	 0.521729349	-0.095727
C	 1.0339917765	-0.2590553028	 0.7850811576	 0.042298
C	 1.2123477608	 1.1543766606	 1.3125012179	-0.444132
H	 1.7813721343	-1.1930370319	 4.6985982072	 0.128823
H	 3.4544759236	-1.0493300215	 5.2695039517	 0.134523
H	 2.6100806023	 0.3798447963	 4.6556177033	 0.124457
H	 4.1948101659	-0.5324741857	 2.8661708343	 0.096841
H	 0.026308077	-1.8254624505	 2.3141780513	 0.098668
H	 2.9717204798	-1.2287705471	-0.270346654	 0.09963
H	 0.3201724911	-0.3134513052	-0.0400443258	 0.090802
H	 1.9226124487	 1.209662255	 2.1406008536	 0.124773
H	 1.5716635332	 1.8162519714	 0.5173856739	 0.125832
H	 0.2554918786	 1.5554254461	 1.6631257623	 0.125289
128.7613	142.3087	177.8346	193.1393	231.0461	307.2334	323.2862	413.3235	453.4955	528.0375	612.2513	665.8654	755.262	794.9228	808.5515	816.6764	875.7437	918.1276	984.8355	1009.8334	1023.376	1058.7739	1086.747	1111.2288	1115.8245	1125.5034	1142.0031	1158.8993	1189.3959	1232.9176	1245.787	1256.1145	1349.8105	1382.727	1409.5796	1412.5946	1476.3673	1491.1276	1496.2549	1498.1048	1553.648	3036.486	3039.6827	3091.1368	3091.2465	3097.84	3100.7318	3123.7949	3126.0039	3127.1709	3130.3033
CC1OC11C2OC1C2C	C[C@H]1O[C@]21[C@@H]1O[C@H]2[C@@H]1C	
InChI=1S/C7H10O2/c1-3-5-7(4(2)9-7)6(3)8-5/h3-6H,1-2H3	InChI=1S/C7H10O2/c1-3-5-7(4(2)9-7)6(3)8-5/h3-6H,1-2H3/t3-,4-,5-,6+,7-/m1/s1
