19
gdb 5177	3.8491065	1.2066618	1.1183256	1.599	75.5	-0.23623	0.07345	0.30968	1149.2568	0.155871	-422.495683	-422.487282	-422.486337	-422.528352	32.595	
C	 1.1493868088	-0.2829267357	-0.2572861602	-0.2588
O	 0.8795169179	 0.9079553852	 0.4646509785	-0.283225
C	-0.0674505943	 0.7497951772	 1.4455081265	 0.461974
C	-1.5817672494	 0.6160853215	 1.266263611	-0.344249
C	-1.6568906737	 0.9420476456	 2.7762934617	 0.392341
O	-2.8235473627	 1.5361213057	 3.2170816762	-0.470888
C	-1.0243252516	-0.29001807	 3.4794884961	-0.298258
C	 0.2839517172	 0.1580292294	 2.8282903098	-0.137021
C	-0.1919162677	 1.5915267986	 2.6754891928	-0.263454
H	 1.5063239437	-1.0819372502	 0.4070137467	 0.110679
H	 0.2591561568	-0.6435038097	-0.7910932233	 0.11453
H	 1.926909532	-0.0441223204	-0.9860551488	 0.127161
H	-1.9780462785	 1.4447632558	 0.6736059725	 0.111499
H	-2.0155354854	-0.3346293849	 0.9366032898	 0.088497
H	-2.7666016955	 1.6470102403	 4.1723906476	 0.280878
H	-0.9886470537	-0.1553861619	 4.5673888151	 0.087912
H	-1.4409309409	-1.2761227205	 3.242557635	 0.091557
H	 1.292829842	-0.1660939442	 3.0471471848	 0.090356
H	 0.2428440952	 2.5394115182	 2.9563637982	 0.098512
89.8887	162.0931	172.1863	274.6415	309.2823	341.0809	381.3694	435.8956	457.2076	478.5566	604.9013	634.3553	730.1063	746.4064	821.8012	888.2288	914.9923	929.6288	950.4068	968.9798	1003.2893	1034.3416	1070.3514	1088.0655	1110.9261	1121.1739	1137.0206	1180.0553	1186.4184	1200.8471	1224.8449	1241.8408	1288.0561	1328.3092	1394.3631	1401.737	1481.3462	1486.9858	1495.2409	1506.7447	1515.2874	2995.0289	3019.3192	3037.1107	3049.7949	3072.4172	3109.8228	3123.3443	3204.0212	3229.4555	3803.7135
COC12CC3(O)CC1C23	CO[C@@]12C[C@@]3(O)C[C@@H]1[C@@H]23	
InChI=1S/C7H10O2/c1-9-7-3-6(8)2-4(7)5(6)7/h4-5,8H,2-3H2,1H3	InChI=1S/C7H10O2/c1-9-7-3-6(8)2-4(7)5(6)7/h4-5,8H,2-3H2,1H3/t4-,5-,6+,7+/m1/s1
