19
gdb 2089	2.9719032	1.6915398	1.4423636	2.3228	74.69	-0.23649	0.07291	0.3094	975.845	0.157022	-422.531286	-422.523603	-422.522659	-422.56266	31.416	
C	-0.1171848515	-0.0492530431	-0.1637726856	-0.49439
C	 1.373526496	 0.0097219087	 0.0036000225	 0.413125
C	 2.1397764951	-0.6051261889	 1.2081313512	-0.344102
C	 3.2652365666	 0.2853512936	 0.6712106064	 0.387172
O	 4.4798113932	 0.5467973599	 1.2817069869	-0.481948
C	 3.3409367956	 0.0363479256	-0.8925604802	 0.051997
C	 3.0242137925	 1.5315657054	-1.1249890813	-0.253216
C	 2.2148224743	 1.3538231606	 0.167024163	-0.179957
O	 2.0715100405	-0.5900463796	-1.1103624891	-0.300228
H	-0.6219064895	 0.3842247481	 0.7043728365	 0.116562
H	-0.4269073833	 0.5005550216	-1.0576136007	 0.12772
H	-0.4473956545	-1.0876374412	-0.2712720259	 0.130132
H	 1.7671941306	-0.2325709758	 2.1685623034	 0.087409
H	 2.2536960178	-1.6922005955	 1.2242875815	 0.101214
H	 4.3123692611	 0.886454559	 2.1671767879	 0.28392
H	 4.1514226488	-0.5065392792	-1.3760585142	 0.082052
H	 3.8921685373	 2.1727982794	-0.9539386904	 0.109423
H	 2.520442841	 1.7882954338	-2.0597713718	 0.096838
H	 1.8002585084	 2.1567243875	 0.77572727	 0.066278
198.3489	232.2633	239.9676	269.604	332.7447	366.0844	437.6123	490.6417	537.9169	587.5121	606.6881	667.9521	723.4907	823.1859	851.9863	882.3496	905.2495	918.6076	968.3326	987.6559	994.3704	1023.232	1040.1394	1083.2385	1100.4186	1125.6576	1154.9244	1158.3762	1183.7015	1193.8589	1234.6843	1252.3969	1294.1139	1321.3192	1339.9503	1384.6924	1419.925	1475.7132	1480.5485	1484.8706	1492.6309	3038.6046	3043.7096	3064.3809	3108.212	3110.17	3116.9917	3124.2289	3128.302	3138.1612	3806.1202
CC12CC3(O)C(CC13)O2	C[C@]12C[C@@]3(O)[C@H](C[C@@H]13)O2	
InChI=1S/C7H10O2/c1-6-3-7(8)4(6)2-5(7)9-6/h4-5,8H,2-3H2,1H3	InChI=1S/C7H10O2/c1-6-3-7(8)4(6)2-5(7)9-6/h4-5,8H,2-3H2,1H3/t4-,5-,6-,7-/m0/s1
