19
gdb 3688	2.6752853	1.2600432	1.0971394	3.0627	77.36	-0.23944	-0.03876	0.20067999999999997	1212.6421	0.154305	-422.54671	-422.537289	-422.536345	-422.581264	34.078	
C	 0.1113018321	-3.0011226331	-1.2399516797	-0.428054
C	-1.0610251051	-2.4030943341	-0.5095322497	-0.012351
O	-0.9234666829	-2.218036294	 0.9001302731	-0.278058
C	-1.0176670463	-1.0550434493	 0.0997635334	 0.326338
C	-2.0948851065	 0.03827903	 0.1981633245	-0.368532
C	-1.0068002446	 1.1232709635	-0.1087508703	-0.09969
C	-1.1105019048	 1.8802422831	-1.4317002667	-0.399863
C	 0.0617603169	 0.0039370564	-0.0711960544	 0.333095
O	 1.2570556095	-0.01389103	-0.1517110084	-0.31272
H	 1.0416954455	-2.5239112185	-0.9256324418	 0.159984
H	 0.1751768461	-4.0752405578	-1.0368584134	 0.131328
H	-0.0070599504	-2.8697297428	-2.3207370005	 0.122359
H	-2.0503840493	-2.7583346337	-0.8056977661	 0.098716
H	-2.8993699061	-0.033200722	-0.5375581851	 0.112222
H	-2.5287420475	 0.1172813453	 1.1971945875	 0.124551
H	-0.8606249521	 1.8262585371	 0.7183591425	 0.108812
H	-1.2693763099	 1.193822642	-2.2704579589	 0.119421
H	-1.9460497117	 2.5866942528	-1.4132669138	 0.124502
H	-0.191460123	 2.440822925	-1.6262041623	 0.137941
39.6996	136.0244	183.3221	199.5209	203.292	213.479	259.6861	334.5864	358.0208	451.6149	495.2865	586.0694	709.2868	727.0981	782.1041	833.6854	852.3857	910.2524	940.5934	967.3456	1038.9729	1065.6706	1076.4555	1115.6989	1119.5311	1144.7921	1171.3744	1185.9115	1227.7586	1250.461	1318.4252	1347.9274	1406.8595	1409.4353	1455.5918	1479.2386	1490.0345	1495.7697	1497.1258	1503.1399	1877.8907	3034.3508	3039.3674	3054.342	3071.187	3088.6236	3102.436	3102.8305	3113.813	3125.1479	3142.1777
CC1OC11CC(C)C1=O	C[C@H]1O[C@@]21C[C@H](C)C2=O	
InChI=1S/C7H10O2/c1-4-3-7(6(4)8)5(2)9-7/h4-5H,3H2,1-2H3	InChI=1S/C7H10O2/c1-4-3-7(6(4)8)5(2)9-7/h4-5H,3H2,1-2H3/t4-,5+,7+/m0/s1
