19
gdb 4636	4.2989771	0.6168344	0.5627869	3.1934	82.05	-0.25264	-0.03173	0.22090999999999997	1960.9485	0.153127	-422.540779	-422.529798	-422.528854	-422.579379	36.92	
C	 3.4198917368	 2.2239753107	-0.6632967704	-0.367936
C	 2.4920555946	 2.1450939085	 0.5628109394	-0.315178
C	 1.9634941256	 0.8045443154	 0.7989922228	 0.155606
C	 1.5086978783	-0.2947634454	 0.9970112355	-0.044721
C	 1.021151071	-1.6551010822	 1.1920031927	-0.362676
C	 1.5899846617	-2.6012312226	 0.1121773079	 0.046156
O	 2.9998239945	-2.6310044592	 0.0948426935	-0.437967
C	 1.1231121115	-4.0334133629	 0.3284473723	 0.14946
O	 0.0126089181	-4.329214633	 0.6849223243	-0.247543
H	 4.2866936832	 1.5684752412	-0.5395476752	 0.124409
H	 2.8921994053	 1.9197683331	-1.5713101722	 0.129528
H	 3.7818420443	 3.2468366665	-0.8015843687	 0.119815
H	 3.0338206028	 2.484663946	 1.4547362446	 0.132554
H	 1.6560521638	 2.8442025495	 0.4337146314	 0.133897
H	 1.3223351626	-2.0276801002	 2.1787940545	 0.138129
H	-0.0720662604	-1.7040762225	 1.1538273726	 0.149184
H	 1.1875480289	-2.2834484176	-0.8669620443	 0.103521
H	 3.3004866973	-1.7144705958	 0.0659095202	 0.292347
H	 1.9057824802	-4.7935338693	 0.1157429292	 0.101415
18.7087	50.3657	59.7877	82.5037	161.6074	185.8102	217.9993	268.0811	348.5019	371.2648	393.3903	419.4615	458.4044	543.5227	607.7745	749.7715	786.3097	827.5628	893.0832	966.2585	1027.3467	1064.4854	1080.1552	1105.255	1129.3476	1160.2354	1217.7648	1249.2297	1286.7098	1300.3745	1348.9038	1351.6993	1393.0887	1409.5368	1429.8559	1464.1308	1475.9661	1495.9855	1505.5703	1836.9861	2359.2088	2908.1345	2941.5363	3022.5843	3035.5876	3044.3364	3050.432	3083.3147	3117.8442	3122.3749	3782.8465
CCC#CCC(O)C=O	CCC#CC[C@@H](O)C=O	
InChI=1S/C7H10O2/c1-2-3-4-5-7(9)6-8/h6-7,9H,2,5H2,1H3	InChI=1S/C7H10O2/c1-2-3-4-5-7(9)6-8/h6-7,9H,2,5H2,1H3/t7-/m1/s1
