19
gdb 5164	3.2534111	1.3539828	1.1122617	1.5685	77.54	-0.23583	0.00725	0.24308000000000002	1140.9717	0.156376	-422.520418	-422.511878	-422.510933	-422.553479	32.096	
C	 1.4233825516	 0.1038450961	-0.1350673661	-0.249181
O	 0.0501463474	-0.0995831135	 0.1395520937	-0.282375
C	-0.4160902934	 0.5772798367	 1.276041883	 0.363433
C	-0.6342095971	 2.0774188175	 1.1440060913	-0.361949
C	-1.8050458934	 1.120057995	 1.1571479654	 0.024749
O	-2.6234500432	 1.1273353567	 2.2903325994	-0.262285
C	-2.4867160005	-0.004227541	 3.1393561214	-0.120335
C	-1.0490336912	-0.3457212639	 3.4438618687	-0.074803
C	-0.0777598787	-0.0430095755	 2.5863526346	-0.140382
H	 2.0718845122	-0.3140866323	 0.6477246932	 0.109766
H	 1.6364533874	-0.4126361867	-1.0738791906	 0.128243
H	 1.6610648702	 1.17079267	-0.2494330718	 0.109146
H	-0.4981120338	 2.6938028393	 2.0250575482	 0.123078
H	-0.3724870816	 2.5359495853	 0.1962976777	 0.115201
H	-2.327556924	 0.9394778857	 0.220001835	 0.101559
H	-3.0240696203	 0.2538556574	 4.0575420849	 0.11722
H	-2.9953693266	-0.8830894553	 2.7055691977	 0.106852
H	-0.8428856959	-0.8447209733	 4.3864973657	 0.09843
H	 0.962423511	-0.2689971183	 2.8020914886	 0.093632
97.73	130.9034	165.5931	185.2734	255.6556	328.095	373.7323	428.8562	479.6472	514.4968	585.8005	680.1408	716.4777	806.5084	878.8464	905.9776	920.9642	967.2382	986.3919	998.5655	1021.2437	1042.3118	1056.9159	1082.7943	1117.343	1177.4021	1181.1643	1191.0649	1211.2252	1239.3271	1267.8485	1311.6643	1371.0136	1409.2002	1417.456	1461.128	1477.3067	1489.4481	1493.8207	1507.7224	1713.3487	2952.5627	2992.1061	3043.0562	3070.9663	3118.1688	3126.9916	3134.6138	3158.4896	3180.6309	3232.7917
COC12CC1OCC=C2	CO[C@@]12C[C@@H]1OCC=C2	
InChI=1S/C7H10O2/c1-8-7-3-2-4-9-6(7)5-7/h2-3,6H,4-5H2,1H3	InChI=1S/C7H10O2/c1-8-7-3-2-4-9-6(7)5-7/h2-3,6H,4-5H2,1H3/t6-,7-/m0/s1
