19
gdb 4508	2.7052501	1.7849101	1.546514	2.3731	73.76	-0.23473	0.00257	0.23729999999999998	941.1057	0.160086	-422.576678	-422.569565	-422.568621	-422.6077	29.491	
O	-0.6634886016	 0.8501435565	 0.8202672441	-0.447973
C	-1.9352975463	 0.3209590822	 0.4779903428	 0.150943
C	-2.9773871093	 0.5291863977	 1.6052917841	-0.235465
C	-3.5679968405	 1.9616351059	 1.6319451134	-0.217603
C	-3.799651099	 2.4749837034	 0.1952239293	 0.038926
O	-2.5345036245	 2.4030935233	-0.4852757646	-0.274647
C	-2.4225753134	 1.0089657618	-0.8203207203	-0.000843
C	-3.8449760544	 0.6362509412	-1.1949060274	-0.089398
C	-4.6586337365	 1.5078096039	-0.6064165874	-0.081019
H	-0.7411933726	 1.8058288277	 0.7020293804	 0.283848
H	-1.7820517167	-0.7517974113	 0.3153322662	 0.077694
H	-3.7857838557	-0.1959484656	 1.4716002899	 0.10076
H	-2.4959587369	 0.2990976683	 2.5599381377	 0.106846
H	-4.4979855767	 1.9795030367	 2.2116611009	 0.096978
H	-2.8733752031	 2.6529975623	 2.1215295949	 0.107224
H	-4.1389162231	 3.5144212801	 0.1792478085	 0.081619
H	-1.679252259	 0.9038759385	-1.6152806452	 0.085967
H	-4.1125378792	-0.2306323145	-1.7843122256	 0.108517
H	-5.7407239114	 1.508179882	-0.6025054817	 0.107626
153.9256	230.1889	305.6537	365.3247	393.8784	462.4703	478.6983	496.9808	607.4263	700.6516	719.23	760.6777	801.6704	829.7575	863.9451	878.175	912.9459	943.6473	960.6776	989.7936	1006.2112	1024.5102	1040.092	1083.3714	1091.2524	1133.3516	1183.0175	1203.6946	1252.0649	1286.0266	1299.3308	1316.8671	1326.9274	1344.327	1362.8829	1373.4237	1386.3633	1432.0447	1474.6845	1485.6929	1665.2051	3035.4467	3045.0406	3059.4745	3073.133	3075.9819	3079.8311	3099.9578	3211.0368	3236.1273	3767.6399
OC1CCC2OC1C=C2	O[C@H]1CC[C@H]2O[C@@H]1C=C2	
InChI=1S/C7H10O2/c8-6-3-1-5-2-4-7(6)9-5/h2,4-8H,1,3H2	InChI=1S/C7H10O2/c8-6-3-1-5-2-4-7(6)9-5/h2,4-8H,1,3H2/t5-,6+,7-/m1/s1
