19
gdb 3361	3.8296783	1.1495961	1.0801395	3.0435	75.96	-0.24024	-0.0292	0.21104	1175.5597	0.157316	-422.546507	-422.538318	-422.537374	-422.579439	30.882	
C	-0.1731722795	 0.0131535386	 0.015233965	-0.444631
C	 1.3408062949	-0.0728191906	 0.1037539433	 0.034281
C	 2.1983616398	-0.8297645985	-0.9747416751	-0.103775
C	 1.563817276	-2.2206245693	-0.9141146733	-0.099229
O	 1.4683770024	-2.3897791106	 0.521000721	-0.275485
C	 2.0075129089	-1.1455068928	 1.0044114308	 0.066562
C	 3.2983165503	-0.9505252913	 0.1541493876	-0.089479
C	 4.3333908708	-2.0369994022	 0.125432762	 0.126521
O	 5.5193997008	-1.8242005374	 0.0430775464	-0.260487
H	-0.571697254	 0.5757670611	 0.8659080346	 0.121921
H	-0.4877865297	 0.5311549575	-0.8973327435	 0.119488
H	-0.6370204414	-0.9758504131	 0.0301606155	 0.137574
H	 1.7795025479	 0.9106589774	 0.2898780863	 0.084319
H	 2.4275596585	-0.4092065124	-1.9528509523	 0.084074
H	 0.5684186875	-2.2621973655	-1.3684877157	 0.109043
H	 2.1790547401	-3.0151989212	-1.3481570651	 0.109668
H	 1.99124741	-1.1400463824	 2.0931959568	 0.088406
H	 3.7878231784	 0.0091918859	 0.3243069581	 0.097658
H	 3.9438105883	-3.0734420931	 0.2050697476	 0.093573
69.6566	153.6103	172.3542	231.2354	264.9467	321.9228	407.4362	435.1031	512.832	631.8193	700.5983	752.6862	788.8651	855.0149	880.2881	920.9833	947.4218	971.5086	990.369	1032.5114	1044.1416	1069.7558	1083.7182	1107.5892	1124.5103	1166.0995	1183.5304	1196.8648	1199.3451	1237.374	1283.7704	1293.8971	1323.1969	1367.7345	1398.4093	1413.4546	1438.4455	1491.1115	1502.8908	1538.9534	1814.5952	2913.9181	3037.1376	3041.5892	3077.1988	3078.1498	3096.8168	3112.3452	3126.5939	3132.4159	3139.961
CC1C2COC1C2C=O	C[C@@H]1[C@@H]2CO[C@H]1[C@H]2C=O	
InChI=1S/C7H10O2/c1-4-6-3-9-7(4)5(6)2-8/h2,4-7H,3H2,1H3	InChI=1S/C7H10O2/c1-4-6-3-9-7(4)5(6)2-8/h2,4-7H,3H2,1H3/t4-,5+,6+,7-/m1/s1
