19
gdb 5796	4.1697443	1.0872504	0.9390857	1.6188	79.53	-0.22899	0.00489	0.23388	1279.5528	0.156674	-422.50831	-422.499863	-422.498919	-422.541775	31.084	
C	 0.0356504241	 1.2007048034	-0.1936445985	-0.239403
O	-0.3204077317	-0.0526790494	 0.35040666	-0.237366
C	 0.5852089618	-0.5199073792	 1.3020253584	 0.065698
C	 1.9387646927	-1.2132777038	 0.8402269509	-0.303312
C	 1.6854494771	-2.2977704696	 1.9502214597	 0.094167
O	 1.6876281301	-3.6888338722	 1.6958807369	-0.280345
C	 0.3248819676	-4.1528914489	 1.7757544313	-0.106965
C	-0.5382890896	-2.9026935311	 1.7016508745	-0.22528
C	 0.2557499878	-1.8593649462	 1.9023301775	 0.174268
H	 0.9898787896	 1.155709911	-0.7388203138	 0.112283
H	-0.7555445844	 1.4862575275	-0.8903322187	 0.13089
H	 0.1191149229	 1.9724915428	 0.587288705	 0.107353
H	 0.7983456729	 0.2577173454	 2.0533031691	 0.075953
H	 1.8145057286	-1.6405426743	-0.1565156602	 0.123082
H	 2.8568590134	-0.6248647214	 0.9068950941	 0.099039
H	 2.2541758418	-2.0765872955	 2.8632644312	 0.078705
H	 0.1283625559	-4.8236242481	 0.928873314	 0.113154
H	 0.1848180968	-4.7384826579	 2.6985228187	 0.104851
H	-1.5682890673	-2.9102470725	 1.3709199299	 0.113229
76.5219	111.3386	135.762	187.9864	254.0914	322.5136	361.1611	436.7088	473.8317	671.9852	700.7715	740.3504	801.6623	816.0736	871.1951	921.4253	950.4996	980.9831	996.2226	1028.1082	1035.4794	1082.1265	1110.454	1126.3628	1160.8409	1174.4448	1183.4667	1195.8151	1238.9684	1240.5822	1259.0282	1289.2306	1344.5726	1373.5278	1402.2764	1461.1743	1483.0921	1488.371	1508.5773	1517.0163	1734.038	2967.6042	2974.0033	2979.6936	3010.2332	3028.2539	3029.0376	3065.2005	3120.6976	3143.3085	3224.1198
COC1CC2OCC=C12	CO[C@@H]1C[C@@H]2OC[CH][C]12	
InChI=1S/C7H10O2/c1-8-6-4-7-5(6)2-3-9-7/h2,6-7H,3-4H2,1H3	InChI=1S/C7H10O2/c1-8-6-4-7-5(6)2-3-9-7/h2,6-7H,3-4H2,1H3/t6-,7+/m1/s1
