19
gdb 5237	2.5737159	1.5197404	1.2674043	1.4422	75.51	-0.2269	0.0712	0.2981	1083.3753	0.156133	-422.485471	-422.476914	-422.47597	-422.518473	32.476	
C	 1.2836801068	-0.3138578435	-0.1569079116	-0.256807
O	 0.9486986703	 0.8241505606	 0.6219752155	-0.290458
C	-0.0553878494	 0.6033743379	 1.5299585646	 0.348991
C	-1.5603622404	 0.5326724307	 1.2810802459	-0.299756
C	-1.7087520756	 0.7031441026	 2.8233866061	-0.138147
C	-1.133425861	-0.6162481718	 3.4135613479	-0.225673
C	 0.2164471914	-0.1443481058	 2.8838179812	-0.184494
C	-0.221165773	 1.2985319052	 2.84907522	 0.31031
O	 0.3583817431	 2.3932319126	 3.4287398612	-0.452839
H	 1.6118081941	-1.1483596251	 0.4772690284	 0.113428
H	 0.4344311446	-0.6503258065	-0.7673135686	 0.113622
H	 2.100860536	-0.0177573734	-0.8183471236	 0.127148
H	-1.9121813717	 1.4119298334	 0.7330957671	 0.096806
H	-1.9908128728	-0.3753934743	 0.8440849889	 0.088959
H	-2.5982046032	 1.1706668194	 3.2393854746	 0.074359
H	-1.1585242118	-0.624009424	 4.5070175446	 0.104039
H	-1.5534818853	-1.5531425801	 3.0297164268	 0.085996
H	 1.2133326737	-0.5145069105	 3.0876209064	 0.090602
H	 0.2501105742	 3.1476775527	 2.8382683545	 0.293913
90.0065	134.4055	174.6024	214.6449	288.3754	304.7745	368.9006	408.157	432.3561	559.1292	584.53	663.649	727.6098	761.8386	839.8404	902.9937	923.7979	949.2513	978.1837	992.8767	1014.6874	1059.2709	1069.1728	1113.2416	1114.3804	1143.0254	1170.3849	1180.4693	1198.3215	1216.0719	1229.9872	1265.3686	1282.4121	1293.9804	1371.2708	1473.5857	1486.4474	1487.148	1495.8799	1505.8049	1526.5106	2997.6643	3028.7131	3036.2148	3053.74	3091.771	3094.6221	3122.4886	3142.2886	3199.4514	3785.4784
COC12CC3CC1C23O	CO[C@@]12C[C@H]3C[C@@H]1[C@@]23O	
InChI=1S/C7H10O2/c1-9-6-3-4-2-5(6)7(4,6)8/h4-5,8H,2-3H2,1H3	InChI=1S/C7H10O2/c1-9-6-3-4-2-5(6)7(4,6)8/h4-5,8H,2-3H2,1H3/t4-,5+,6+,7-/m1/s1
