19
gdb 5898	2.1305713	0.9368312	0.6839903	2.8175	79.52	-0.24649	-0.02332	0.22316999999999998	1637.205	0.152874	-422.521547	-422.510755	-422.509811	-422.558998	36.637	
C	 1.2156096239	-0.4500673172	 0.6674197273	-0.231667
O	-0.1272266183	-0.2538483461	 1.0534846558	-0.229117
C	-0.6257722395	 1.0096380081	 0.6909842357	-0.15409
C	-2.0904431292	 1.175639975	 1.1038120754	 0.324166
O	-2.6235194225	 2.2484497822	 0.9445364585	-0.297659
C	-2.813260678	-0.0201642093	 1.6981279271	-0.270122
C	-2.4239033949	-0.2269329581	 3.1869024943	-0.355746
C	-3.1363235658	-1.3454323966	 3.7890128406	 0.295055
C	-3.735712238	-2.2726653207	 4.2639258729	-0.43655
H	 1.8849506398	 0.2840668234	 1.1410555404	 0.112637
H	 1.5029680883	-1.453527935	 0.9884255916	 0.135935
H	 1.3366423563	-0.3737831955	-0.4239194443	 0.112674
H	-0.0471337628	 1.8256054802	 1.1533412318	 0.122848
H	-0.5727820105	 1.1639421539	-0.4006569031	 0.12352
H	-3.8860528979	 0.1664199787	 1.6181313305	 0.128757
H	-2.5551578082	-0.9255989326	 1.1428959595	 0.13284
H	-1.3441398441	-0.3964771556	 3.2497776563	 0.150189
H	-2.6407093745	 0.6913325366	 3.746553585	 0.140906
H	-4.2599364941	-3.0888767914	 4.6953121248	 0.195421
46.5533	53.7495	92.1166	95.7101	135.1667	173.0858	226.4205	231.2498	337.9186	361.5387	442.5262	489.924	551.2621	589.5907	616.5928	639.9064	781.8319	816.4372	916.1313	984.0769	1004.6239	1024.8689	1051.6601	1143.2354	1170.4428	1185.3138	1229.9964	1242.1576	1253.3481	1280.0614	1313.5353	1356.2564	1381.6228	1465.4872	1466.8068	1484.4958	1485.7284	1488.9005	1514.1062	1813.833	2239.9976	2961.3903	2980.4637	2997.4968	3028.2493	3033.5116	3071.0861	3081.9846	3123.7758	3134.5412	3507.4206
COCC(=O)CCC#C	COCC(=O)CCC#C	
InChI=1S/C7H10O2/c1-3-4-5-7(8)6-9-2/h1H,4-6H2,2H3	InChI=1S/C7H10O2/c1-3-4-5-7(8)6-9-2/h1H,4-6H2,2H3
