19
gdb 4938	2.2901545	1.5027489	1.219769	1.1553	76.56	-0.25792	0.03916	0.29708	1135.2954	0.155016	-422.526175	-422.516639	-422.515695	-422.561119	34.294	
C	 2.9098912258	 1.2590639124	-1.255222367	-0.392879
C	 1.9777724424	 0.6334320558	-0.2167286711	-0.231974
C	 1.5264397613	-0.7809784275	-0.572514746	 0.229673
O	 0.7453203067	-1.297520202	 0.4926251862	-0.26825
C	 0.9115771812	-2.7125730024	 0.4857541002	-0.11067
C	 2.1785770847	-2.9454718103	-0.377722738	-0.115646
O	 2.654102598	-1.6330462351	-0.6513426746	-0.256072
C	 0.7529100051	-0.8338505557	-1.8369491512	 0.367808
C	 0.1199539168	-0.8871177934	-2.8575170363	-0.487149
H	 3.2097709196	 2.2625488295	-0.9403660143	 0.113364
H	 3.8123953578	 0.6551840519	-1.3805255703	 0.135094
H	 2.4186392257	 1.3422720634	-2.2290226676	 0.128614
H	 2.4715356976	 0.5559630724	 0.7567172557	 0.111118
H	 1.0775305933	 1.2414307131	-0.0830097009	 0.116987
H	 1.0306905629	-3.0415400388	 1.5217358896	 0.11762
H	 0.0338776402	-3.2080904059	 0.053962841	 0.111265
H	 2.9698604743	-3.4876146918	 0.1449497786	 0.119405
H	 1.9353810894	-3.4739420599	-1.3078000648	 0.112383
H	-0.4398676028	-0.9298874357	-3.7594644594	 0.199308
42.4789	95.2195	121.9503	169.4263	195.3182	206.6648	263.4468	393.3048	416.9382	527.153	571.1411	642.1757	652.9937	660.0578	738.8634	773.5884	805.8773	849.0904	940.3916	946.5721	967.0782	1001.4988	1067.4527	1071.338	1118.7678	1162.294	1184.4831	1216.6226	1236.998	1246.0159	1300.2309	1359.549	1370.828	1380.9965	1410.8555	1474.1109	1496.9963	1509.9751	1514.6579	1528.9162	2225.8096	3023.9394	3035.6566	3047.3919	3055.2373	3083.6713	3097.5153	3107.2543	3117.0071	3128.4301	3498.0386
CCC1(OCCO1)C#C	CCC1(OCCO1)C#C	
InChI=1S/C7H10O2/c1-3-7(4-2)8-5-6-9-7/h1H,4-6H2,2H3	InChI=1S/C7H10O2/c1-3-7(4-2)8-5-6-9-7/h1H,4-6H2,2H3
