19
gdb 4457	3.0469003	1.5391828	1.2674226	2.3249	75.12	-0.24285	0.06504	0.30789	1035.7704	0.158487	-422.487546	-422.480108	-422.479164	-422.519376	29.904	
O	 0.2261786637	-0.1417240466	 0.2401218537	-0.435209
C	-0.9249454798	 0.393934135	 0.868642664	 0.011451
C	-2.1219202795	 0.2342731967	-0.1456640278	-0.092329
O	-2.9975315604	 1.3846815129	-0.0488637122	-0.323201
C	-2.4186876205	 2.192918699	 0.9192724241	 0.436519
C	-2.5858899245	 2.0416426433	 2.4722013918	-0.289714
C	-1.3079696308	 2.8803977517	 2.2319253908	-0.113243
C	-2.1355525502	 3.6995410278	 1.1593024576	-0.291331
C	-0.9285797026	 1.9167840484	 1.046984893	-0.041575
H	 0.9492360233	-0.117001969	 0.8743034745	 0.284699
H	-1.1443205231	-0.153990929	 1.7926192597	 0.077944
H	-1.7112879838	 0.1798259654	-1.1598104951	 0.121453
H	-2.7043662446	-0.6706518721	 0.0506789413	 0.111263
H	-3.4317866631	 2.5652354975	 2.9234872864	 0.092441
H	-2.4612934589	 1.0486331212	 2.9055635588	 0.094481
H	-0.6525792591	 3.3095710982	 2.9869344627	 0.082312
H	-2.9493842192	 4.3140113232	 1.5520511705	 0.097586
H	-1.5581033728	 4.2184559853	 0.3907424695	 0.10051
H	-0.3101402742	 2.3715124511	 0.2655543667	 0.075944
76.0171	218.4866	263.119	312.6239	359.6919	447.0224	477.6405	539.2525	581.0673	595.4504	717.7876	760.6436	813.5651	879.8382	896.7276	947.876	949.2902	966.9973	990.0263	999.2158	1008.7761	1052.8163	1094.86	1105.2753	1123.4291	1126.3364	1160.2495	1164.2234	1193.175	1205.5201	1215.8292	1239.6166	1254.0873	1262.8512	1298.7319	1367.8945	1375.9418	1433.6162	1499.7831	1509.9873	1542.7415	3020.9783	3043.0397	3052.9541	3059.0299	3070.4863	3094.9448	3130.529	3136.0504	3137.4922	3825.0527
OC1COC23CC(C2)C13	O[C@@H]1CO[C@]23C[C@H](C2)[C@@H]13	
InChI=1S/C7H10O2/c8-5-3-9-7-1-4(2-7)6(5)7/h4-6,8H,1-3H2	InChI=1S/C7H10O2/c8-5-3-9-7-1-4(2-7)6(5)7/h4-6,8H,1-3H2/t4-,5-,6+,7-/m1/s1
