19
gdb 2189	2.7608444	1.9651665	1.4692712	1.9475	73.86	-0.24266	0.07421	0.31687	945.629	0.15793	-422.537359	-422.529919	-422.528975	-422.569016	29.495	
C	-0.0411785347	-0.3684912582	 0.0723743907	-0.472789
C	 1.4041376895	 0.0497444365	-0.0932081915	 0.412359
C	 2.0355340961	-0.2890434789	-1.4447863647	-0.106465
O	 3.4439986952	-0.3991872001	-1.2489720257	-0.274491
C	 3.7741062231	-0.2824213268	 0.1258261891	 0.104511
C	 4.0101979074	 1.1765383173	 0.6362806649	-0.259327
C	 2.5867288727	 1.1741771831	 1.2277495755	 0.107007
O	 1.5848928052	 1.4645784972	 0.2276418093	-0.347381
C	 2.4627588598	-0.3485712328	 0.9574746035	-0.188876
H	-0.4037662492	-0.105123096	 1.0692966494	 0.12677
H	-0.6716917697	 0.1448357438	-0.6616217087	 0.130502
H	-0.1557249824	-1.4478604833	-0.07073819	 0.118868
H	 1.6482696895	-1.240953691	-1.8345661414	 0.092094
H	 1.8223333242	 0.5008954985	-2.1746238098	 0.11279
H	 4.5710456325	-0.9951167738	 0.3491399636	 0.081915
H	 4.77483027	 1.2044471833	 1.4196985056	 0.098431
H	 4.2251248172	 1.9330300704	-0.1210122759	 0.112124
H	 2.3863855495	 1.6826431153	 2.1728897263	 0.077629
H	 2.2757383742	-1.1380212347	 1.6815095699	 0.074328
93.1321	210.5855	242.8956	279.3508	370.4912	374.12	424.8026	561.3563	660.4186	676.4485	776.5129	808.1764	847.3081	864.5209	888.2448	912.1313	932.9676	962.8864	976.2553	978.9415	1011.8541	1037.1645	1092.7859	1136.6031	1156.836	1161.064	1168.7721	1217.3325	1228.0671	1235.9178	1260.2866	1277.3209	1298.2177	1322.7163	1352.7738	1399.6548	1407.8152	1451.7769	1481.8339	1493.1326	1505.8229	3002.8899	3036.4596	3050.4619	3057.8587	3082.8939	3089.0637	3105.0372	3119.8659	3124.3361	3142.0643
CC12COC3CC(O1)C23	C[C@@]12CO[C@H]3C[C@@H](O1)[C@@H]23	
InChI=1S/C7H10O2/c1-7-3-8-4-2-5(9-7)6(4)7/h4-6H,2-3H2,1H3	InChI=1S/C7H10O2/c1-7-3-8-4-2-5(9-7)6(4)7/h4-6H,2-3H2,1H3/t4-,5+,6-,7-/m0/s1
