19
gdb 2876	3.3728291	1.5177353	1.434268	1.787	73.31	-0.23347	0.09527	0.32874000000000003	1007.8233	0.157851	-422.560323	-422.552672	-422.551728	-422.591955	30.36	
C	 0.9457200221	 1.169137692	-0.0981016354	-0.412987
C	 0.974189985	-0.355169629	-0.0658774441	 0.005513
C	 1.7487222484	-0.9810097204	 1.0901316863	-0.223555
C	 3.1754848557	-1.1078737331	 0.5550290204	-0.005495
O	 3.1911188656	-0.6159701728	-0.7730673686	-0.251677
C	 1.8747943304	-1.0186245476	-1.1401656459	 0.129026
O	 1.8162433932	-2.3992398848	-0.8101320793	-0.28058
C	 2.2612111623	-2.3094852496	 0.5399351358	 0.410536
C	 2.4190154608	-3.6070047909	 1.2610132018	-0.502739
H	 0.3989263377	 1.5688417731	 0.7616805335	 0.115088
H	 1.9600000499	 1.5757873189	-0.0784196797	 0.133378
H	 0.44874249	 1.5339044398	-1.003839905	 0.113033
H	-0.0344845797	-0.7734254455	-0.1402164626	 0.083336
H	 1.5164627105	-0.8192156467	 2.1338415258	 0.091579
H	 4.0976970663	-0.9906964358	 1.1050636659	 0.109925
H	 1.6900470759	-0.8505258963	-2.1980576327	 0.095001
H	 2.8244090565	-3.4372684964	 2.2625450518	 0.123748
H	 1.457115422	-4.1193814738	 1.3656829947	 0.131042
H	 3.1034721372	-4.267973941	 0.7200631072	 0.135827
176.8346	200.4305	211.4691	225.3737	273.7651	329.6933	503.7343	576.1955	613.5581	644.1661	721.0514	730.8602	791.6709	849.7203	870.2097	887.5941	913.3964	936.3928	947.113	1006.5577	1021.3503	1029.4724	1058.6331	1087.0989	1098.7977	1122.2214	1131.0348	1184.7695	1213.3646	1234.042	1281.4598	1294.2297	1338.58	1371.4603	1407.7435	1409.4545	1450.097	1478.2002	1497.037	1501.3789	1502.7789	3035.8108	3037.7796	3064.9401	3096.951	3103.4522	3116.1071	3124.6203	3170.5836	3210.9826	3230.953
CC1C2C3OC1OC23C	C[C@@H]1[C@@H]2[C@@H]3O[C@H]1O[C@]23C	
InChI=1S/C7H10O2/c1-3-4-5-7(4,2)9-6(3)8-5/h3-6H,1-2H3	InChI=1S/C7H10O2/c1-3-4-5-7(4,2)9-6(3)8-5/h3-6H,1-2H3/t3-,4-,5+,6+,7-/m1/s1
