19
gdb 4261	2.580622	1.5632287	1.1116761	1.686	75.08	-0.24013	-0.02254	0.21759	1124.2041	0.157383	-422.5794	-422.571228	-422.570284	-422.612303	30.911	
C	-0.8709269527	-3.1739009011	-1.6312930141	-0.405468
C	-0.8814571654	-1.6712441375	-1.4262875934	 0.146744
O	-2.2120990617	-1.1049231262	-1.5219068526	-0.313428
C	-2.2171045064	-0.743556697	-0.1197590217	 0.122511
C	-2.2896050395	 0.7724706555	 0.1011297203	-0.23865
C	-0.87314523	 1.2887449132	-0.2033830212	-0.325591
C	 0.0551353703	 0.1216163399	 0.1583734317	 0.399987
O	 1.2117907051	 0.2052411638	 0.4819669138	-0.320591
C	-0.7430284224	-1.173882531	 0.0415737932	-0.200586
H	-1.5227235504	-3.6733423114	-0.9080666545	 0.121736
H	-1.2246420324	-3.4159824101	-2.638277403	 0.130543
H	 0.1449416585	-3.5673696449	-1.5181421642	 0.124667
H	-0.201761766	-1.1880494554	-2.1406190941	 0.087523
H	-2.9835131458	-1.2979419498	 0.4314273787	 0.079086
H	-3.0654044977	 1.22299553	-0.5230677008	 0.119113
H	-2.548942203	 0.9655884904	 1.1490604798	 0.107522
H	-0.7514717431	 1.4869848042	-1.275928734	 0.140767
H	-0.5850296485	 2.1957973291	 0.3304695292	 0.127793
H	-0.4488567889	-1.9182532317	 0.7804649169	 0.096323
81.9318	124.6286	180.5778	239.4818	255.3376	341.6047	437.4244	445.2632	526.6289	607.5639	677.1374	760.6886	802.7548	825.9911	859.1081	891.097	916.1142	943.2071	976.5185	1017.4082	1038.2243	1073.3302	1096.3142	1114.0403	1156.2913	1166.2991	1195.8209	1211.1911	1241.4466	1277.9558	1291.2145	1323.4459	1341.8014	1357.4834	1394.8328	1406.7433	1453.0715	1477.9727	1484.6463	1491.4236	1842.7498	3014.3123	3034.9893	3036.8028	3041.9447	3055.8789	3103.3517	3109.8014	3115.1706	3122.5315	3125.2692
CC1OC2CCC(=O)C12	C[C@H]1O[C@@H]2CCC(=O)[C@H]12	
InChI=1S/C7H10O2/c1-4-7-5(8)2-3-6(7)9-4/h4,6-7H,2-3H2,1H3	InChI=1S/C7H10O2/c1-4-7-5(8)2-3-6(7)9-4/h4,6-7H,2-3H2,1H3/t4-,6-,7+/m1/s1
