19
gdb 4886	2.0704678	1.7982706	1.1581196	3.1152	75.66	-0.23849	-0.024	0.21449000000000001	1095.5763	0.156684	-422.506719	-422.498202	-422.497258	-422.540024	32.054	
O	 0.5202450981	 1.1117899875	 0.7182949044	-0.414896
C	-0.0929199867	-0.0539221152	 0.1831327037	-0.17593
C	-1.1794797631	-0.6128157621	 1.120273015	 0.253224
C	-2.3376428583	 0.3618081145	 1.057685392	 0.080591
O	-3.4967147084	 0.0706747988	 0.8864183132	-0.26171
C	-1.4979513118	-2.1473125081	 1.1626894212	-0.092193
C	-0.1172217999	-2.3736367995	 1.853694608	-0.24131
C	-0.7377267759	-1.1308967894	 2.5545838199	-0.102033
C	-2.0670023846	-1.9375086362	 2.6014218151	-0.228174
H	 0.9871059537	 0.8551097075	 1.5201479169	 0.28798
H	-0.5491634185	 0.2661064242	-0.7606491359	 0.12216
H	 0.6508649837	-0.8161854918	-0.074940973	 0.105761
H	-2.0214174849	 1.4248947901	 1.1362437005	 0.095396
H	-1.9434362806	-2.7345686847	 0.3599654152	 0.084428
H	-0.0458210248	-3.2692864503	 2.4753670732	 0.099573
H	 0.7918413091	-2.2456640838	 1.2665702242	 0.093651
H	-0.301377065	-0.5298199189	 3.3553540908	 0.074434
H	-2.0515706318	-2.8190638651	 3.2464607635	 0.092124
H	-3.0008469902	-1.3890754276	 2.694012912	 0.126923
81.6854	103.0149	159.6089	206.5582	306.4475	321.4436	369.6092	403.1653	457.7197	586.6591	629.6514	710.049	801.5294	803.2526	867.7421	895.6588	898.5189	942.5635	1000.3796	1015.0637	1018.8745	1044.9616	1073.196	1079.0377	1094.0684	1112.4285	1157.8032	1179.4446	1184.1136	1195.2026	1233.2192	1239.5356	1249.949	1292.105	1378.37	1413.3967	1421.3243	1498.2994	1523.1803	1554.697	1813.2429	2898.4348	3031.4121	3065.9619	3073.3861	3074.4981	3089.0762	3118.638	3137.4104	3174.1842	3815.3763
OCC1(C=O)C2CC1C2	OC[C@@]1(C=O)[C@H]2C[C@@H]1C2	
InChI=1S/C7H10O2/c8-3-7(4-9)5-1-6(7)2-5/h3,5-6,9H,1-2,4H2	InChI=1S/C7H10O2/c8-3-7(4-9)5-1-6(7)2-5/h3,5-6,9H,1-2,4H2/t5-,6+,7-
