19
gdb 4359	2.4237224	1.4194182	1.0149755	2.4292	79.95	-0.23908	-0.05311	0.18597	1200.4563	0.157028	-422.602324	-422.593393	-422.592449	-422.635821	33.424	
C	 1.2375348504	 0.4697607694	-0.6037007554	-0.482125
C	-0.1495383521	 0.0562370954	-0.2106642208	 0.289253
C	-1.1977678806	 0.8976789261	-0.2292900919	-0.254813
C	-2.5818232129	 0.5033846947	 0.1072329743	 0.380908
O	-3.4845065835	 1.3169002213	 0.1337075328	-0.33147
C	-2.8184784647	-0.9785782697	 0.3715037855	-0.330745
C	-1.5888886703	-1.6597149556	 0.9815907537	-0.243184
C	-0.3246213393	-1.408572083	 0.1536849705	 0.048613
O	-0.2683871084	-2.205921996	-1.035314839	-0.43509
H	 1.9223990599	 0.3823057891	 0.2495307982	 0.136399
H	 1.619686215	-0.2024599666	-1.3802559614	 0.15027
H	 1.2727070168	 1.4974562563	-0.9717829439	 0.129647
H	-1.0742574419	 1.9413305439	-0.5074061444	 0.101426
H	-3.7063752623	-1.0808185353	 0.9997149784	 0.126947
H	-3.0694102122	-1.4440498959	-0.592881855	 0.117232
H	-1.4219564879	-1.2687003813	 1.9926389321	 0.109461
H	-1.7415937431	-2.739340599	 1.071126851	 0.112318
H	 0.5474701782	-1.7379386414	 0.7299556245	 0.091554
H	-0.9282048311	-1.8657822425	-1.649733349	 0.283399
75.6128	148.9469	187.4773	202.0371	248.4977	295.5433	327.418	381.7983	426.2891	488.157	521.8376	557.8532	631.7021	669.8278	766.9056	831.952	885.8	914.6047	970.4277	975.3604	1025.6834	1061.1758	1072.663	1087.1554	1163.7333	1167.4463	1211.6337	1259.3195	1265.4818	1326.5023	1346.699	1369.2303	1392.8109	1403.6047	1422.4288	1465.366	1474.3497	1480.9024	1484.6486	1690.9341	1775.1024	3012.6843	3024.4014	3034.2081	3049.9715	3080.2303	3089.6287	3104.8488	3126.1381	3166.1649	3805.4285
CC1=CC(=O)CCC1O	CC1=CC(=O)CC[C@H]1O	
InChI=1S/C7H10O2/c1-5-4-6(8)2-3-7(5)9/h4,7,9H,2-3H2,1H3	InChI=1S/C7H10O2/c1-5-4-6(8)2-3-7(5)9/h4,7,9H,2-3H2,1H3/t7-/m1/s1
