19
gdb 4259	2.6695468	1.537131	1.1074578	4.346	74.62	-0.25874	0.01228	0.27102000000000004	1124.8996	0.158403	-422.595955	-422.587903	-422.586959	-422.628871	30.333	
C	-1.4535094221	-3.3034286493	-1.3495914361	-0.409717
C	-1.4516873958	-1.7796446622	-1.3340769468	 0.030663
C	-2.8145599578	-1.1264958254	-0.9428770035	-0.254617
C	-2.2364772658	-0.7486422348	 0.4534852773	-0.03022
C	-2.1081969008	 0.739973481	 0.7816941149	-0.102344
O	-0.9284045297	 1.2045291806	 0.1034162014	-0.224864
C	-0.135701759	 0.1728810406	-0.308234878	 0.437497
O	 0.9282559157	 0.3576271768	-0.824989819	-0.346616
C	-0.8293841864	-1.1551339497	-0.0442675587	-0.189836
H	-1.8801475253	-3.7117957047	-0.4259716957	 0.11345
H	-2.0490669526	-3.6820955489	-2.187228667	 0.119642
H	-0.4371738636	-3.6976979375	-1.4524112133	 0.125935
H	-1.0089346282	-1.4017904892	-2.2597573409	 0.095228
H	-3.074185957	-0.2538468018	-1.5490509986	 0.110241
H	-3.6712575583	-1.8045947205	-0.931499073	 0.104667
H	-2.6535120368	-1.3196481588	 1.2831010005	 0.083959
H	-2.9537184031	 1.3375157929	 0.4282745229	 0.121587
H	-1.9785646021	 0.9176980679	 1.8556856574	 0.115252
H	-0.1890576212	-1.8036441973	 0.5569005763	 0.100094
67.0975	143.4527	175.4344	250.0265	255.7984	332.3197	395.7508	482.6931	617.8114	684.5478	712.6977	740.7584	816.2457	843.4832	867.8561	908.5929	927.6532	941.6322	991.9641	1012.3816	1059.1752	1086.9057	1097.1349	1137.2221	1166.9425	1175.6049	1206.9402	1223.451	1249.3164	1272.2265	1273.6673	1286.3706	1330.9191	1370.3099	1400.339	1410.0012	1482.5013	1494.3765	1497.2136	1519.1148	1873.9124	3025.2795	3034.3599	3055.568	3065.8714	3087.6587	3093.0386	3095.4136	3100.5471	3104.3307	3117.1278
CC1CC2COC(=O)C12	C[C@H]1C[C@@H]2COC(=O)[C@H]12	
InChI=1S/C7H10O2/c1-4-2-5-3-9-7(8)6(4)5/h4-6H,2-3H2,1H3	InChI=1S/C7H10O2/c1-4-2-5-3-9-7(8)6(4)5/h4-6H,2-3H2,1H3/t4-,5+,6+/m0/s1
