19
gdb 4211	2.6949417	1.5845763	1.1238921	4.1729	74.92	-0.25583	0.01128	0.26711	1107.886	0.157999	-422.585643	-422.577507	-422.576563	-422.618246	31.302	
C	 0.0407934792	-2.5384405166	 0.047217716	-0.392449
C	-0.827365461	-1.2850124929	-0.0848287436	-0.160732
C	-1.6737585883	-1.2898876232	-1.3717542387	-0.222889
C	-2.4037327453	 0.0169989408	-1.5905125889	-0.06938
C	-3.0425368151	 0.7609917852	-0.4286693615	-0.326092
C	-1.7545966983	 1.2450935177	-1.0343642626	 0.127216
O	-0.5273272651	 1.158601824	-0.3393536451	-0.230659
C	 0.0226466655	-0.0223240063	 0.0501582204	 0.424558
O	 1.1294215553	-0.0100544423	 0.5168728576	-0.32366
H	 0.6130885701	-2.5183135805	 0.9755920418	 0.140613
H	-0.5863105656	-3.435216943	 0.0350101048	 0.108508
H	 0.7539802138	-2.6071399492	-0.7798126246	 0.126685
H	-1.5151161116	-1.2580790999	 0.7720858542	 0.114252
H	-1.0123547909	-1.4717551336	-2.2290332157	 0.113145
H	-2.3754557061	-2.1312639364	-1.3364336719	 0.110292
H	-2.8876201575	 0.1189975867	-2.5571801625	 0.097522
H	-3.9373915105	 1.3425179687	-0.6201488878	 0.121382
H	-3.0050880824	 0.3175177908	 0.5594834641	 0.126139
H	-1.7591183762	 2.16996034	-1.5985842659	 0.115549
85.0007	143.823	206.5372	287.1428	303.048	338.4415	378.8697	442.7552	507.916	564.5873	638.649	706.672	744.8945	788.1285	822.9847	888.6883	910.1724	952.6358	1002.4198	1022.4222	1045.5429	1071.9439	1091.1136	1122.7117	1129.3501	1150.9082	1174.5272	1195.3747	1235.1373	1254.7912	1314.7736	1347.78	1373.3232	1392.5739	1413.3463	1420.1343	1485.4556	1489.6946	1496.6691	1503.196	1836.9336	3012.7862	3022.7302	3046.0902	3059.8771	3111.8733	3141.3098	3143.3583	3151.1926	3183.5766	3227.3361
CC1CC2CC2OC1=O	C[C@@H]1C[C@H]2C[C@H]2OC1=O	
InChI=1S/C7H10O2/c1-4-2-5-3-6(5)9-7(4)8/h4-6H,2-3H2,1H3	InChI=1S/C7H10O2/c1-4-2-5-3-6(5)9-7(4)8/h4-6H,2-3H2,1H3/t4-,5+,6-/m1/s1
