19
gdb 1924	4.146754	0.9455651	0.8967082	2.555	76.26	-0.25399	0.07733	0.33132	1341.4026	0.156059	-422.500132	-422.491617	-422.490672	-422.53359	32.251	
O	-0.7698432381	-0.0098975815	-0.0076684819	-0.462406
C	-2.1056668345	 0.312706011	 0.1503848219	 0.410013
C	-3.1902721251	-0.7235084719	 0.2069723263	-0.353853
C	-3.1962777365	 0.2973651635	-0.9115719713	-0.111627
C	-3.7510299005	 1.6316453052	-0.385295202	 0.002554
C	-2.6033757297	 1.6597889445	 0.6868162533	-0.331393
C	-3.6816072101	 2.7696472357	-1.3646859074	 0.082775
C	-4.5820473754	 3.9263779856	-1.2868299019	-0.18941
O	-4.7800147007	 2.9095566068	-2.2708817283	-0.243188
H	-0.4808415297	-0.4999858969	 0.7698320343	 0.285663
H	-2.8712942827	-1.7150193916	-0.099118362	 0.114124
H	-3.9579155863	-0.7084658657	 0.9788093955	 0.102002
H	-3.1531286823	 0.0013347906	-1.9524338255	 0.100849
H	-4.7667621076	 1.567675855	 0.019908507	 0.072176
H	-1.8868894643	 2.4610014148	 0.485414108	 0.110952
H	-2.9006247094	 1.7033123288	 1.7398457574	 0.091267
H	-2.7050541006	 2.9177668814	-1.8314497163	 0.095386
H	-5.3348054882	 3.9672243691	-0.5000768361	 0.110611
H	-4.2598203584	 4.8938967357	-1.669593641	 0.113506
69.533	92.7538	176.2686	246.3405	311.2455	340.7457	382.1367	395.0158	443.1794	487.3155	636.5292	746.7831	799.8761	843.6482	866.169	890.3278	904.1567	937.8682	957.788	999.7231	1027.5944	1033.583	1046.922	1079.6712	1098.9955	1116.4277	1155.265	1170.0766	1196.2891	1220.0427	1231.7005	1250.4826	1278.3712	1289.6892	1295.5023	1329.5223	1400.5833	1453.6961	1477.1534	1503.2597	1531.4079	3039.813	3048.4112	3079.1735	3085.672	3096.3445	3102.5075	3165.4335	3190.379	3200.1301	3795.5126
OC12CC1C(C2)C1CO1	O[C@]12C[C@H]1[C@@H](C2)[C@@H]1CO1	
InChI=1S/C7H10O2/c8-7-1-4(5(7)2-7)6-3-9-6/h4-6,8H,1-3H2	InChI=1S/C7H10O2/c8-7-1-4(5(7)2-7)6-3-9-6/h4-6,8H,1-3H2/t4-,5+,6+,7-/m1/s1
