19
gdb 592	2.8737055	2.0097401	1.7535559	1.8352	72.76	-0.243	0.08304	0.32604	868.0521	0.161604	-422.584643	-422.578395	-422.577451	-422.614999	26.391	
C	 1.4156333724	-0.1251887584	 0.7337548833	-0.091788
O	 1.7160405035	 1.1118262747	 1.3840583277	-0.274112
C	 0.6628528106	 2.0330431094	 1.1228582774	 0.11888
C	 0.8386010061	 2.7806615055	-0.239626768	-0.244564
C	-0.1810346165	 2.0475865235	-1.1255413748	 0.096082
C	-1.4005915495	 1.9508316537	-0.1974022269	-0.237737
C	-0.6143904598	 1.1842950021	 0.8729566664	-0.085697
C	 0.0678862936	 0.0714193417	 0.0439207992	 0.089189
O	 0.227948516	 0.6739957153	-1.2578216569	-0.294658
H	 2.1955020872	-0.3746828424	 0.0054963057	 0.110216
H	 1.3649631872	-0.9254093715	 1.4848074045	 0.094735
H	 0.6080933798	 2.7112544251	 1.9766334069	 0.078859
H	 0.5897310071	 3.8438514887	-0.1551745142	 0.094408
H	 1.8643668295	 2.6893328917	-0.6019715375	 0.114294
H	-0.3311246296	 2.4504943078	-2.1270450607	 0.075737
H	-1.7716392755	 2.9217258251	 0.1416003174	 0.100471
H	-2.2215519321	 1.3754725761	-0.6323239789	 0.106097
H	-1.1373796649	 0.8442643549	 1.7659168599	 0.073518
H	-0.497301195	-0.859486203	-0.0631596703	 0.076071
138.5225	326.4565	374.8703	445.5791	446.4161	577.9294	584.7317	743.2346	796.2087	801.8894	824.7368	850.3023	889.2631	910.8234	928.7724	944.0716	972.4301	979.4642	982.1074	1000.7655	1033.4132	1047.2249	1080.375	1106.6196	1139.637	1181.7264	1189.1522	1215.7699	1233.2427	1274.365	1284.869	1286.8393	1315.6588	1323.4589	1332.7718	1356.1578	1366.7444	1392.2998	1470.6694	1495.3559	1509.472	3009.7017	3049.8267	3061.5861	3064.2108	3065.5101	3090.7493	3117.6342	3120.7693	3123.153	3129.3139
C1OC2CC3CC2C1O3	C1O[C@H]2C[C@@H]3C[C@H]2[C@H]1O3	
InChI=1S/C7H10O2/c1-4-2-6-5(1)7(9-4)3-8-6/h4-7H,1-3H2	InChI=1S/C7H10O2/c1-4-2-6-5(1)7(9-4)3-8-6/h4-7H,1-3H2/t4-,5+,6-,7-/m0/s1
