19
gdb 5176	4.0787032	1.1934926	1.1266173	0.8555	75.35	-0.21415	0.0823	0.29645	1162.5626	0.154885	-422.480894	-422.472264	-422.47132	-422.513962	32.65	
C	 1.6075270287	-0.0146539836	 0.0948573676	-0.258296
O	 0.1913723957	-0.1012718924	 0.1591754452	-0.280772
C	-0.3611189222	 0.7003009979	 1.1235437494	 0.387707
C	-0.5489207237	 2.2199481625	 1.1230249531	-0.341403
C	-1.5088652867	 1.9497076537	 2.3192681755	 0.418737
C	-2.5548774771	 2.9148163977	 2.7802855061	-0.50129
O	-0.5982223246	 1.4987483397	 3.3788682526	-0.32806
C	-0.4388224371	 0.3051057143	 2.617451396	 0.018424
C	-1.6887506251	 0.4604018808	 1.8130279143	-0.281062
H	 2.0688724246	-0.2891172046	 1.0530308683	 0.114454
H	 1.9333384216	-0.7131765368	-0.6785359821	 0.128948
H	 1.9371980598	 0.9978012263	-0.1751963117	 0.117418
H	 0.3025001072	 2.8765040301	 1.3283599042	 0.096823
H	-1.0941176037	 2.5481552256	 0.2340053459	 0.105162
H	-3.1517226453	 2.4813371978	 3.5875844819	 0.132681
H	-2.0817868228	 3.8290646846	 3.1548049228	 0.133558
H	-3.220449767	 3.1845195538	 1.9549631529	 0.124061
H	 0.038079148	-0.5611030398	 3.0567311609	 0.108795
H	-2.5375132205	-0.1742158578	 1.5994356468	 0.104114
81.7358	156.1911	166.3867	196.0925	265.7458	271.272	387.526	419.7137	471.8333	524.1388	598.1507	649.5274	756.3053	781.7281	819.4017	829.4311	870.5179	940.0104	961.8085	984.2861	1019.5118	1032.1876	1058.4965	1101.4585	1115.6124	1141.085	1150.7857	1177.7495	1182.0615	1218.703	1238.8239	1304.4695	1343.3533	1395.8517	1418.3893	1477.031	1477.9906	1486.2905	1489.1768	1500.1182	1506.1599	2998.9154	3038.0024	3046.1042	3054.9467	3108.2258	3112.4198	3120.4592	3126.6048	3204.1978	3217.1792
COC12CC3(C)OC1C23	CO[C@]12C[C@]3(C)O[C@H]1[C@H]23	
InChI=1S/C7H10O2/c1-6-3-7(8-2)4(6)5(7)9-6/h4-5H,3H2,1-2H3	InChI=1S/C7H10O2/c1-6-3-7(8-2)4(6)5(7)9-6/h4-5H,3H2,1-2H3/t4-,5-,6-,7-/m0/s1
