19
gdb 4182	2.946505	1.602527	1.3542201	1.2421	74.46	-0.24107	0.01579	0.25686	1003.4467	0.159706	-422.578997	-422.571578	-422.570634	-422.610957	29.752	
O	 0.18244644	 0.2896396073	 0.0524265355	-0.43937
C	-0.8306570553	-0.1233268391	 0.9557430622	 0.152896
C	-0.9806091303	 0.8454411136	 2.167817317	-0.263167
C	-2.4637026414	 1.2725197637	 2.0712929025	 0.0356
O	-2.7288071348	 1.2128500353	 0.662623152	-0.267712
C	-2.2375339094	-0.0838677381	 0.3017666288	 0.030578
C	-3.2157219468	-1.1613035701	 0.8032534011	-0.273747
C	-3.6934410621	-0.8499983956	 2.199506463	-0.060488
C	-3.3515968382	 0.287349041	 2.8008629468	-0.060119
H	-0.0620881875	 1.1669686428	-0.2647729763	 0.280379
H	-0.5456199838	-1.1333487203	 1.2597270891	 0.088929
H	-0.734694778	 0.3743882089	 3.1215324959	 0.10789
H	-0.3071329459	 1.6957501168	 2.0243682688	 0.100719
H	-2.6458740991	 2.2998861122	 2.3942839683	 0.081519
H	-2.1441842899	-0.1190401363	-0.7862358916	 0.081241
H	-4.075105364	-1.2248833426	 0.1221840802	 0.115229
H	-2.7333660753	-2.1475193387	 0.7705343889	 0.108317
H	-4.334800646	-1.5773832377	 2.6900086017	 0.091594
H	-3.6642585225	 0.5219561168	 3.8139566165	 0.089711
56.0269	239.904	268.3326	334.9271	389.707	414.6979	463.8476	504.8918	577.2639	663.5517	713.3338	774.5551	823.3714	845.7342	875.5748	900.3557	909.7062	964.202	989.5995	990.5784	1023.9611	1033.9974	1052.9602	1070.0689	1084.1722	1161.2475	1180.778	1194.4095	1238.7872	1272.1715	1281.6811	1297.0679	1325.804	1342.3237	1358.2045	1390.126	1409.0731	1435.8477	1469.4088	1487.1909	1715.5821	3012.8927	3040.0657	3058.2728	3084.2883	3085.6159	3090.9405	3118.3193	3155.1293	3180.7722	3790.3272
OC1CC2OC1CC=C2	O[C@H]1C[C@H]2O[C@@H]1CC=C2	
InChI=1S/C7H10O2/c8-6-4-5-2-1-3-7(6)9-5/h1-2,5-8H,3-4H2	InChI=1S/C7H10O2/c8-6-4-5-2-1-3-7(6)9-5/h1-2,5-8H,3-4H2/t5-,6-,7+/m0/s1
