19
gdb 882	3.1559441	1.1879366	0.9029531	2.8166	77.81	-0.24253	-0.02792	0.21461	1272.6611	0.156782	-422.564829	-422.556195	-422.55525	-422.598599	31.728	
O	 0.7034464667	 0.1728729931	 0.7816235638	-0.248455
C	 0.0700324125	-0.2255332306	-0.1599061332	 0.146029
C	-0.4638060965	 0.6651700119	-1.2788816649	 0.01853
C	-0.8906282563	 2.0395059225	-0.7529778305	-0.247655
C	-1.2409479823	 3.0564890899	-1.8104536837	-0.075663
C	-1.9779939226	 2.861626418	-2.9049177933	-0.054134
C	-2.6408638645	 1.5770227717	-3.3444708557	-0.2536
C	-1.794478567	 0.3063007746	-3.2318990466	-0.071421
O	-1.4933307252	-0.0746369877	-1.9004270313	-0.261223
H	-0.1727501097	-1.3007326524	-0.3063237373	 0.094963
H	 0.3747712109	 0.8030622175	-1.9879724312	 0.095629
H	-1.7452936285	 1.8909696854	-0.0772868646	 0.122184
H	-0.0723143235	 2.4076002837	-0.1272472286	 0.127986
H	-0.8723236392	 4.0631106063	-1.6256687093	 0.09111
H	-2.1626900526	 3.7229446923	-3.5431830441	 0.089433
H	-3.5647731463	 1.4213374057	-2.7685802681	 0.122767
H	-2.951103551	 1.6706604054	-4.3920081947	 0.103875
H	-2.3503505956	-0.5358965455	-3.6568323888	 0.106984
H	-0.8625154593	 0.4247964381	-3.8072879579	 0.092664
71.6618	96.2432	129.0638	200.8335	301.9651	314.613	352.2044	423.5629	460.7757	514.8734	608.2515	696.7825	715.2726	789.9824	841.6793	877.2884	941.0871	971.0517	1000.7373	1031.4708	1060.6124	1066.5078	1090.4191	1106.1119	1157.9769	1229.6489	1239.3979	1254.6532	1293.3977	1316.4935	1352.7181	1372.4545	1377.591	1391.6669	1416.4663	1432.3896	1462.9584	1467.1022	1491.9342	1726.4177	1838.3559	2903.0863	2928.1873	2979.8159	3008.5559	3013.1405	3058.7843	3074.1117	3091.0178	3136.8162	3160.6196
O=CC1CC=CCCO1	O=C[C@@H]1CC=CCCO1	
InChI=1S/C7H10O2/c8-6-7-4-2-1-3-5-9-7/h1-2,6-7H,3-5H2	InChI=1S/C7H10O2/c8-6-7-4-2-1-3-5-9-7/h1-2,6-7H,3-5H2/t7-/m0/s1
