19
gdb 698	3.5955827	1.2144189	1.0531576	4.5671	75.63	-0.25667	0.01521	0.27188	1171.7487	0.158276	-422.588416	-422.580302	-422.579358	-422.62131	30.934	
O	 0.8808762666	 0.0161329674	-0.8683594581	-0.323793
C	-0.0923079805	 0.007117282	-0.1648294905	 0.406685
C	-0.8824902356	-1.2662287349	 0.1205794224	-0.328222
C	-1.7861298381	-1.2175065452	 1.3581511871	-0.30601
C	-2.5219530857	 0.1036775933	 1.3584559214	 0.34917
C	-3.8077798439	 0.2395723745	 0.5788005478	-0.300802
C	-3.8249572331	 0.2760205261	 2.0892301573	-0.332317
C	-1.5477743361	 1.2511036734	 1.3697601027	-0.127538
O	-0.5541895119	 1.1836405965	 0.3285893083	-0.229421
H	-1.4962771142	-1.4295428981	-0.7745632728	 0.14105
H	-0.1615635357	-2.0859007861	 0.1548853031	 0.13484
H	-2.4811681131	-2.0633687725	 1.3560081235	 0.103313
H	-1.1825538156	-1.304187711	 2.2714082016	 0.108065
H	-3.9915236139	 1.1644709047	 0.0424930769	 0.121597
H	-4.1997444648	-0.644490393	 0.086619953	 0.117057
H	-4.0230573875	 1.2263706613	 2.5746180895	 0.117532
H	-4.2232746594	-0.5825358785	 2.6193937336	 0.118392
H	-2.0511711061	 2.2113580841	 1.2273640847	 0.116757
H	-1.0152965814	 1.2881432663	 2.3301422286	 0.113644
67.7059	128.4128	173.4086	263.0035	327.9193	362.0014	432.1018	444.1322	516.0456	578.3533	668.4897	749.7436	765.1322	783.8532	860.5862	915.7862	929.5585	962.3472	986.8711	1018.3886	1024.1575	1054.9787	1077.3427	1079.3237	1090.8763	1174.0871	1185.2417	1197.2122	1249.5884	1260.2581	1333.7586	1342.42	1362.7192	1391.2549	1434.4035	1459.9459	1468.3072	1493.4743	1504.0435	1515.5771	1841.2089	3011.9064	3021.2473	3039.5405	3073.7622	3087.7391	3111.5411	3127.6616	3131.4705	3205.8675	3219.7161
O=C1CCC2(CC2)CO1	O=C1CCC2(CC2)CO1	
InChI=1S/C7H10O2/c8-6-1-2-7(3-4-7)5-9-6/h1-5H2	InChI=1S/C7H10O2/c8-6-1-2-7(3-4-7)5-9-6/h1-5H2
