19
gdb 4167	3.4322813	1.3750607	1.3001274	2.6447	75.39	-0.23578	0.08145	0.31723	1062.2226	0.157306	-422.513892	-422.506177	-422.505233	-422.54571	30.502	
C	-0.0597928179	-0.0970936232	-0.0165132491	-0.417803
C	 1.4477520008	 0.0625902207	 0.0708507631	 0.161838
O	 2.1028133848	-0.5279432246	-1.0907197553	-0.299521
C	 3.0803468503	-1.3903810123	-0.4912784751	-0.006873
C	 2.2722700352	-2.1353908019	 0.6040765604	-0.251422
C	 2.1859743499	-0.6904426508	 1.1994469871	-0.201079
C	 3.6230883272	-0.5419135434	 0.6641977674	 0.538789
C	 4.9123815481	-0.4895783371	 1.3352460958	-0.306113
O	 4.388177639	 0.631259289	 0.5875794997	-0.292909
H	-0.5464438367	 0.4345489461	 0.8082622956	 0.113676
H	-0.4234091733	 0.3286523683	-0.956445037	 0.131156
H	-0.3640561382	-1.14663545	 0.018590271	 0.117657
H	 1.7037129081	 1.1296934068	 0.1038769582	 0.091373
H	 3.6860288967	-1.8702539524	-1.2571758046	 0.086632
H	 1.3500964265	-2.616722377	 0.2786327475	 0.10901
H	 2.8752196288	-2.8072335367	 1.2168181685	 0.106619
H	 1.9051623918	-0.4771391789	 2.2292965594	 0.078733
H	 4.9608865286	-0.3445031014	 2.4136267992	 0.119198
H	 5.7828240802	-0.9715268213	 0.8922090982	 0.121038
141.1204	194.8858	212.3914	243.9847	297.6628	372.5095	434.8509	507.7122	574.9526	630.9363	690.4118	798.1608	821.7437	838.6306	866.9962	891.7919	915.1567	957.7299	992.0089	1015.8993	1046.9308	1055.6798	1079.2659	1100.1198	1115.7511	1132.2028	1137.8125	1157.2725	1168.2845	1217.4462	1235.4416	1262.5576	1279.6309	1335.7236	1395.0461	1411.7166	1455.227	1482.7242	1489.4349	1496.956	1552.2136	3019.364	3039.4075	3082.8461	3085.8442	3109.0067	3120.4249	3137.3018	3149.87	3152.7265	3168.838
CC1OC2CC1C21CO1	C[C@@H]1O[C@@H]2C[C@H]1[C@]12CO1	
InChI=1S/C7H10O2/c1-4-5-2-6(9-4)7(5)3-8-7/h4-6H,2-3H2,1H3	InChI=1S/C7H10O2/c1-4-5-2-6(9-4)7(5)3-8-7/h4-6H,2-3H2,1H3/t4-,5+,6+,7-/m0/s1
