19
gdb 3706	3.3037023	1.0844596	0.989529	1.8706	76.44	-0.22796	0.07386	0.30182	1253.7228	0.155332	-422.497601	-422.488697	-422.487753	-422.530935	33.859	
O	-3.8995003496	 3.3828917791	-0.4020695893	-0.421451
C	-4.2339686719	 2.3947709883	 0.5298807303	 0.023339
C	-3.6202602624	 2.4315661909	 1.9132769151	-0.396102
C	-3.1552573442	 1.4288235563	 0.8823478614	 0.359267
C	-3.2705366511	-0.1114301948	 0.8839980582	-0.33327
C	-1.8975868195	-0.1773388705	 0.2007183334	-0.109583
C	-0.8532923345	 0.5348140187	 1.0132211918	 0.151175
O	 0.4834196198	 0.452286874	 0.6064767074	-0.443927
C	-1.8050533262	 1.3714070455	 0.2055208832	-0.196187
H	-4.3087879683	 4.2080092045	-0.1214410037	 0.28854
H	-5.2490812864	 2.0034168314	 0.4391788527	 0.082469
H	-2.9518602165	 3.2583887033	 2.1332656838	 0.11517
H	-4.2168258126	 2.0854715711	 2.7517111581	 0.109917
H	-3.34211137	-0.600498407	 1.8623011718	 0.097349
H	-4.0865288202	-0.4687201903	 0.2492880553	 0.108683
H	-1.6110580688	-0.8763840123	-0.5768797371	 0.084359
H	-0.8990318751	 0.5362554641	 2.1003358537	 0.100485
H	 0.5173586249	 0.5256719924	-0.3533188552	 0.283505
H	-1.4633640374	 2.0556849355	-0.5625272508	 0.096261
108.8475	136.4697	160.278	191.9583	269.6683	285.7865	324.2076	410.0298	435.2228	443.2735	541.517	572.9609	768.7944	795.0512	829.1432	859.448	883.9467	916.8791	920.0104	984.5454	1004.9068	1014.8338	1029.101	1077.4707	1083.8443	1101.4213	1110.7314	1135.3357	1165.0694	1169.2856	1198.517	1246.6455	1253.4391	1287.1154	1299.2365	1331.4834	1365.1461	1422.6161	1447.3664	1487.5752	1492.2732	3032.2899	3078.9509	3088.4458	3119.8748	3129.4128	3171.6043	3183.6564	3210.5093	3805.9935	3810.9862
OC1CC11CC2C(O)C12	O[C@@H]1C[C@]21C[C@@H]1[C@@H](O)[C@H]21	
InChI=1S/C7H10O2/c8-4-2-7(4)1-3-5(7)6(3)9/h3-6,8-9H,1-2H2	InChI=1S/C7H10O2/c8-4-2-7(4)1-3-5(7)6(3)9/h3-6,8-9H,1-2H2/t3-,4+,5+,6+,7-/m0/s1
