19
gdb 3994	3.1384213	1.2333144	0.9799973	2.683	76.14	-0.24673	-0.02814	0.21859	1212.5803	0.155797	-422.546674	-422.537762	-422.536818	-422.58048	32.976	
C	-4.1994269443	-0.9329736205	-1.2352450324	-0.410452
C	-2.8065939436	-0.3172363922	-1.3028318225	 0.029358
C	-1.6570840117	-1.3624232867	-1.4639682535	-0.263283
C	-1.2184364407	-1.1473969581	 0.020905901	-0.148676
C	-2.2184910625	 0.0907524593	 0.0690873306	-0.066047
C	-0.9991372981	 1.0758740326	-0.0261636806	 0.044037
O	-0.8907278377	 2.1048539263	 0.9169921667	-0.443881
C	-0.1115467041	-0.1453509044	 0.2773821361	 0.352491
O	 0.9203490721	-0.1893836858	 0.8933807404	-0.324378
H	-4.2419804127	-1.7386806094	-0.4933138308	 0.117182
H	-4.9485551294	-0.1840046154	-0.9571203592	 0.121128
H	-4.4874841645	-1.3557720459	-2.203949876	 0.11803
H	-2.7965661481	 0.4901702421	-2.0437267758	 0.07461
H	-2.0000378005	-2.3788348176	-1.6694705191	 0.115093
H	-0.8921135343	-1.1071109689	-2.2015176999	 0.111725
H	-1.2500630521	-2.0153335905	 0.6792462109	 0.094346
H	-2.8758089674	 0.2836877187	 0.9164442546	 0.087895
H	-0.8917264735	 1.4770444971	-1.0442494871	 0.094073
H	-0.107916167	 1.9101942092	 1.4495057164	 0.296745
55.0338	137.0646	177.8518	209.0436	242.1442	261.3133	327.2996	364.8691	392.982	437.4399	636.7674	717.1836	760.1601	795.1115	828.4532	851.8222	893.7411	926.0192	935.0356	969.3591	1028.8511	1062.2782	1076.1868	1086.7379	1136.7083	1150.6859	1182.8563	1195.8923	1233.582	1242.7717	1253.144	1277.0715	1283.5465	1352.7594	1364.8412	1395.0251	1410.8877	1481.6822	1494.9978	1498.2493	1852.9394	2996.5781	3024.5776	3034.8513	3063.3052	3092.8992	3097.3337	3110.0431	3119.2958	3125.5302	3755.5163	55.0343	137.065	177.8518	209.0436	242.1436	261.3129	327.2996	364.8691	392.982	437.4401	636.7674	717.1838	760.1599	795.1117	828.4532	851.822	893.7411	926.0191	935.0355	969.3591	1028.8512	1062.278	1076.1866	1086.7377	1136.708	1150.6858	1182.8559	1195.8919	1233.5816	1242.7713	1253.1437	1277.0713	1283.5459	1352.7591	1364.8411	1395.0249	1410.8877	1481.6816	1494.9978	1498.2492	1852.939	2996.5781	3024.5776	3034.8513	3063.3053	3092.8993	3097.3337	3110.0431	3119.2958	3125.5302	3755.516
CC1CC2C1C(O)C2=O	C[C@@H]1C[C@@H]2[C@H]1[C@@H](O)C2=O	
InChI=1S/C7H10O2/c1-3-2-4-5(3)7(9)6(4)8/h3-5,7,9H,2H2,1H3	InChI=1S/C7H10O2/c1-3-2-4-5(3)7(9)6(4)8/h3-5,7,9H,2H2,1H3/t3-,4-,5+,7-/m1/s1
