19
gdb 3741	1.9342917	1.6641907	1.0818328	3.3844	76.4	-0.24774	-0.02492	0.22282	1176.7792	0.154375	-422.537141	-422.527794	-422.52685	-422.572783	33.299	
C	 2.4480701392	-0.0794426571	-1.4625024064	-0.430243
C	 1.5999780576	 0.1866353588	-0.2468123441	-0.009482
O	 2.0618012397	 1.2103059087	 0.6560371264	-0.281623
C	 2.0436320348	-0.1331836202	 1.112782183	 0.415114
C	 1.2807897372	-0.5764175287	 2.3624698308	-0.319881
C	 2.5651654783	-1.3191809699	 2.8402758251	-0.250428
C	 3.3306928484	-0.8796806084	 1.5507808734	-0.182043
C	 4.5158225972	 0.0328677473	 1.7422635039	 0.178393
O	 5.4824084378	 0.0480567754	 1.0243304077	-0.257094
H	 2.1502630721	-1.021539969	-1.935984681	 0.121458
H	 2.3217648421	 0.7203393232	-2.1992501942	 0.133329
H	 3.5065622671	-0.1373646364	-1.1966315806	 0.14878
H	 0.5220753193	 0.2217840567	-0.4182796767	 0.092066
H	 0.9712749503	 0.2601171958	 2.9939549995	 0.122997
H	 0.4124719987	-1.213260403	 2.1752390508	 0.112607
H	 2.9951732456	-0.9191495712	 3.7623484069	 0.113094
H	 2.4661201084	-2.4000130231	 2.9469875052	 0.117045
H	 3.6197117809	-1.68883954	 0.876086934	 0.096746
H	 4.4306425153	 0.729326691	 2.6079197863	 0.079167
21.3141	58.0868	153.3457	185.6375	203.3118	227.2166	303.3513	414.9999	440.8839	484.5577	499.3768	565.0467	739.2343	781.6693	809.5995	874.7561	899.6096	946.2892	952.1219	1011.0711	1031.7227	1044.3494	1114.8406	1118.9198	1146.9214	1149.351	1184.6786	1221.2443	1232.8736	1248.9402	1270.4798	1298.371	1342.9273	1412.8776	1428.7609	1466.1311	1469.1836	1487.371	1494.6503	1517.4418	1825.149	2868.3182	3037.2773	3062.4659	3069.0241	3087.2324	3087.956	3101.783	3111.3126	3130.2248	3132.388
CC1OC11CCC1C=O	C[C@@H]1O[C@]21CC[C@@H]2C=O	
InChI=1S/C7H10O2/c1-5-7(9-5)3-2-6(7)4-8/h4-6H,2-3H2,1H3	InChI=1S/C7H10O2/c1-5-7(9-5)3-2-6(7)4-8/h4-6H,2-3H2,1H3/t5-,6+,7-/m0/s1
