19
gdb 4434	2.3124815	1.50202	1.3419188	3.2397	75.58	-0.2272	-0.03307	0.19413000000000002	1085.7968	0.155511	-422.544617	-422.535722	-422.534778	-422.578714	32.491	
C	 0.2173074207	 2.1516076445	 1.9034262514	-0.422894
C	-0.9680364553	 2.159737858	 0.9500786077	-0.101355
C	-0.9206169901	 3.1143491478	-0.262666663	-0.085655
O	-1.1823745975	 2.0281774142	-1.1785346148	-0.312025
C	-1.0867073943	 1.0534371558	-0.1421280642	 0.350311
C	-2.1298714266	-0.0936147367	-0.0607210837	-0.316605
C	-0.9953311906	-1.1333545819	 0.1807090257	-0.347769
C	 0.011427175	-0.0388085872	-0.2233257502	 0.347163
O	 1.1593714331	-0.0355355307	-0.5597613349	-0.302091
H	 0.1396764079	 1.3379895932	 2.6327620073	 0.118986
H	 1.1597456604	 2.0303545997	 1.3616882002	 0.146982
H	 0.2631512533	 3.0913506564	 2.4641131611	 0.119856
H	-1.9078777545	 2.2500883584	 1.5030583383	 0.087383
H	-1.6915348255	 3.8906018795	-0.3181472467	 0.105227
H	 0.0630016656	 3.5652928265	-0.4434739946	 0.110145
H	-2.8862792602	 0.0044695748	 0.7201863938	 0.106796
H	-2.6236630516	-0.2303115803	-1.0256425835	 0.128354
H	-0.8779832793	-1.4334854028	 1.2269719252	 0.13167
H	-0.9872432607	-2.0315288193	-0.440609805	 0.135521
57.2943	78.871	135.0413	223.3063	237.5241	263.3167	340.6694	389.897	480.0641	521.3213	586.3225	701.3751	736.167	755.8149	851.1848	896.7074	917.2768	928.8242	956.4411	1019.3525	1023.7086	1059.4574	1080.7035	1129.8609	1153.1143	1155.6737	1181.5634	1192.239	1209.6021	1225.3408	1266.2671	1281.3253	1339.8094	1376.9351	1415.6105	1442.2761	1477.6412	1496.7422	1499.2915	1523.5675	1885.2416	3020.269	3033.3369	3054.9927	3060.867	3073.3971	3074.8684	3095.8444	3116.283	3117.488	3132.9331
CC1COC11CCC1=O	C[C@H]1CO[C@@]21CCC2=O	
InChI=1S/C7H10O2/c1-5-4-9-7(5)3-2-6(7)8/h5H,2-4H2,1H3	InChI=1S/C7H10O2/c1-5-4-9-7(5)3-2-6(7)8/h5H,2-4H2,1H3/t5-,7+/m0/s1
