19
gdb 667	2.5006701	1.7625794	1.5708385	4.2994	73.27	-0.25831	0.01579	0.2741	957.9358	0.161242	-422.629584	-422.622605	-422.62166	-422.660712	28.281	
O	 1.1799612163	 0.0258485397	 0.2447969962	-0.350193
C	-0.0082215556	-0.0406975608	 0.1278560325	 0.437488
O	-0.8128229113	 1.0666698131	 0.1511515136	-0.238508
C	-2.200230851	 0.6538660601	 0.0266349422	 0.102066
C	-2.1004515962	-0.6555571994	-0.767325415	-0.235811
C	-0.9038257655	-1.2720153782	-0.0327473749	-0.149799
C	-1.3564413634	-1.7482063583	 1.3699904921	-0.215062
C	-1.894181644	-0.5766427132	 2.2207896202	-0.209747
C	-2.7872057814	 0.3963587748	 1.4209314494	-0.209249
H	-2.7215355295	 1.458061037	-0.4956008411	 0.090661
H	-3.010507673	-1.2579561897	-0.7119183292	 0.105084
H	-1.8721839276	-0.4574166803	-1.8187460975	 0.112423
H	-0.3791588467	-2.0605591951	-0.5723801488	 0.095744
H	-2.1313440126	-2.5116489448	 1.2307223296	 0.101778
H	-0.5223815128	-2.2282927998	 1.8909491691	 0.118589
H	-2.4375472165	-0.9596840407	 3.0898356146	 0.10044
H	-1.0423688699	-0.0137182425	 2.617317855	 0.131077
H	-3.79759852	-0.0108157552	 1.2915496492	 0.10153
H	-2.8904902893	 1.3396302032	 1.9662940128	 0.111489
137.405	227.154	256.9334	354.5152	410.5856	456.0122	496.9264	561.1604	677.4148	730.7521	758.3246	808.3513	821.4291	852.5361	888.6507	895.5089	918.1113	986.5452	1011.0893	1038.2228	1057.4157	1060.9687	1098.8592	1122.9412	1149.0917	1188.1677	1212.3392	1258.0195	1291.8008	1301.2098	1328.1266	1346.2153	1358.9122	1375.7735	1384.4767	1394.7592	1481.0892	1486.1038	1497.2257	1507.1701	1886.218	3032.8574	3033.9971	3046.8499	3057.7614	3078.849	3082.8085	3093.6873	3099.1411	3110.0053	3115.1072
O=C1OC2CC1CCC2	O=C1O[C@H]2C[C@@H]1CCC2	
InChI=1S/C7H10O2/c8-7-5-2-1-3-6(4-5)9-7/h5-6H,1-4H2	InChI=1S/C7H10O2/c8-7-5-2-1-3-6(4-5)9-7/h5-6H,1-4H2/t5-,6+/m0/s1
