19
gdb 1023	3.1650247	0.7875695	0.6942795	1.4817	82.17	-0.23225	0.05223	0.28448	1668.4472	0.154436	-422.525141	-422.514725	-422.513781	-422.562281	36.495	
C	 1.565400988	 0.2034792201	 0.4018810052	-0.498849
C	 0.1263484494	 0.1238461705	 0.1947016875	 0.109394
C	-1.0658515963	 0.0691166729	 0.024823546	 0.02212
C	-2.491922558	-0.0318593392	-0.1948124366	-0.21389
C	-3.1105032828	 0.4337653773	-1.5547025657	-0.26337
C	-4.0992004002	-0.7443274348	-1.4552030792	 0.116171
O	-4.4165072031	-1.3591257153	-2.6774413326	-0.434904
C	-3.121710154	-1.4389557572	-0.4878560806	 0.090378
O	-3.7265329447	-2.1613175868	 0.5511723953	-0.436822
H	 1.8063588408	 0.7163833012	 1.3397917532	 0.146491
H	 2.0198976469	-0.7928562895	 0.444551526	 0.14454
H	 2.0547670865	 0.7533589843	-0.4098924021	 0.147883
H	-3.0482609092	 0.4191958813	 0.6345386988	 0.101977
H	-3.5157450694	 1.4444520644	-1.6053989369	 0.110391
H	-2.4124638775	 0.2752647501	-2.3795747085	 0.123373
H	-5.0001151528	-0.4511480945	-0.8958702209	 0.07733
H	-5.0465053765	-2.0658450452	-2.5027388925	 0.28666
H	-2.4091121349	-2.0454152834	-1.0635147481	 0.081834
H	-3.0351274422	-2.5658422463	 1.0852791717	 0.289294
16.5874	64.8401	86.4589	157.7484	232.6278	258.8	277.9618	300.7101	305.7047	357.0495	400.0153	451.2772	501.1169	535.0445	578.6156	776.4589	849.6533	907.5527	929.4345	1018.033	1050.9425	1052.0117	1059.607	1080.699	1118.5908	1141.0603	1195.6908	1200.1537	1216.4967	1232.5185	1252.6786	1293.2418	1316.9741	1366.6	1415.434	1416.083	1452.4573	1478.8679	1479.1889	1496.1731	2364.8713	2995.4161	3017.4954	3024.2222	3046.826	3082.5194	3083.0316	3084.6048	3143.9894	3814.1364	3815.5711
CC#CC1CC(O)C1O	CC#C[C@H]1C[C@@H](O)[C@@H]1O	
InChI=1S/C7H10O2/c1-2-3-5-4-6(8)7(5)9/h5-9H,4H2,1H3	InChI=1S/C7H10O2/c1-2-3-5-4-6(8)7(5)9/h5-9H,4H2,1H3/t5-,6+,7+/m0/s1
