19
gdb 2012	3.4743619	1.307397	1.1226238	4.5043	75.27	-0.26064	0.01504	0.27568	1127.9184	0.157769	-422.593064	-422.584823	-422.583879	-422.625652	31.578	
C	-3.2256121993	 0.1558845313	 2.8369536444	-0.470292
C	-2.4615766688	 0.1126440253	 1.5316929482	 0.306473
C	-3.1336374773	-0.4003266073	 0.2812149298	-0.336981
C	-2.0270843181	-1.1990492312	 0.9379052403	-0.069413
C	-0.6432633195	-1.2391673626	 0.3202894595	-0.361146
C	-0.2345134952	 0.0531429648	-0.3713619667	 0.399813
O	 0.4753294945	 0.0961070484	-1.3376709153	-0.324319
O	-0.7267568569	 1.2121889952	 0.1398315331	-0.225016
C	-1.4401752438	 1.2241789809	 1.3832919522	-0.132687
H	-3.9092741874	-0.6943511171	 2.9154362607	 0.123168
H	-2.5488043582	 0.1194311732	 3.698973874	 0.119798
H	-3.8226881311	 1.0716190175	 2.9200965854	 0.123357
H	-4.1471266929	-0.773757823	 0.3783131561	 0.113547
H	-2.9290944823	 0.0918736604	-0.6637238388	 0.134628
H	-2.3203378209	-2.1083273803	 1.4546029865	 0.089802
H	 0.1038934299	-1.4403628077	 1.1011784449	 0.133162
H	-0.5382095305	-2.0337545312	-0.4227406145	 0.14021
H	-0.7170357067	 1.1762776875	 2.2105923163	 0.110409
H	-1.9171061456	 2.208551026	 1.4192281839	 0.125488
86.9014	182.674	202.9944	227.1159	290.2825	343.5905	371.7399	435.8166	486.1044	532.2305	604.3249	687.7072	742.4624	768.0652	829.8424	891.7587	908.7482	943.5611	980.9114	1031.3415	1056.3447	1069.4148	1082.7696	1102.7756	1120.9186	1151.0631	1192.9149	1239.3528	1251.0802	1289.3366	1333.2491	1338.3613	1410.2753	1421.8703	1435.0255	1466.5171	1490.9154	1497.1265	1505.3605	1518.307	1850.6368	2999.9145	3019.2195	3023.3291	3076.5579	3081.6337	3098.2551	3106.5553	3134.4839	3147.4861	3219.6208
CC12CC1CC(=O)OC2	C[C@]12C[C@H]1CC(=O)OC2	
InChI=1S/C7H10O2/c1-7-3-5(7)2-6(8)9-4-7/h5H,2-4H2,1H3	InChI=1S/C7H10O2/c1-7-3-5(7)2-6(8)9-4-7/h5H,2-4H2,1H3/t5-,7-/m1/s1
