19
gdb 4958	2.6556855	1.571282	1.2684415	2.097	73.79	-0.23362	0.07462	0.30824	1063.6133	0.156814	-422.500524	-422.492352	-422.491407	-422.533176	31.631	
C	 1.4320747863	 1.070519835	 0.0096513341	-0.377768
C	 1.17078924	-0.4433384071	-0.0055667283	-0.319494
C	 1.8378308151	-1.1276807562	-1.1638504159	 0.262175
C	 1.2359077758	-1.234354149	-2.5700588101	 0.038761
O	 2.3070770761	-1.3662956131	-3.5186141717	-0.311248
C	 2.9151198192	-2.2839023772	-2.5549592871	 0.003874
C	 1.5484681672	-2.4856123195	-1.8215048615	-0.218228
C	 3.3425853476	-1.3172310469	-1.4204986975	 0.120516
O	 4.1408783302	-0.2238390351	-1.769997696	-0.444599
H	 0.9882396373	 1.5365940786	 0.8944362846	 0.109438
H	 2.5055652465	 1.2782470639	 0.0095317795	 0.140971
H	 1.003233316	 1.5504042215	-0.8762456021	 0.114444
H	 1.5286939148	-0.8887166766	 0.9321114245	 0.102941
H	 0.0901515226	-0.6355467575	-0.0375013493	 0.097108
H	 0.3057027624	-0.7819553144	-2.8878466221	 0.11194
H	 3.5734997274	-3.0193742826	-3.0114449237	 0.088486
H	 0.9704871607	-3.3452744758	-1.5148848697	 0.104264
H	 3.8218768142	-1.8441195638	-0.5908609325	 0.090771
H	 3.8002079105	 0.0729462258	-2.6257257152	 0.285647
85.8864	137.0894	203.1699	225.1711	281.164	358.6079	376.9428	521.2558	546.2589	617.8808	689.7184	761.0671	784.8648	793.2281	823.5208	835.3668	895.5944	924.3161	948.6533	958.9591	983.1739	988.6826	1031.1989	1080.8168	1102.3144	1120.9111	1146.8397	1162.9335	1198.658	1226.1544	1265.2527	1283.1145	1300.6514	1329.3824	1356.9245	1411.7952	1424.3711	1440.3658	1485.3012	1498.1596	1510.3822	3012.4938	3038.6135	3042.7885	3086.9811	3106.204	3122.0183	3151.0242	3205.5251	3223.5169	3747.8384
CCC12C3OC(C13)C2O	CC[C@]12[C@H]3O[C@H]([C@@H]13)[C@H]2O	
InChI=1S/C7H10O2/c1-2-7-3-4(5(7)8)9-6(3)7/h3-6,8H,2H2,1H3	InChI=1S/C7H10O2/c1-2-7-3-4(5(7)8)9-6(3)7/h3-6,8H,2H2,1H3/t3-,4-,5-,6+,7+/m1/s1
