19
gdb 3985	3.4288309	1.2687942	1.0450566	2.6266	78.18	-0.236	-0.033	0.20299999999999999	1175.8487	0.155652	-422.545354	-422.536662	-422.535718	-422.578263	33.064	
C	 2.304330581	-0.9424525402	-1.1551034611	-0.403165
C	 1.7768275472	-0.1034303501	 0.0028483719	-0.046464
C	 2.5476428562	 1.2471382786	 0.2301806289	-0.258765
C	 3.0367641814	 0.7269931803	 1.5849708878	-0.13336
C	 1.7921247093	 0.4489044399	 2.4578703491	-0.211321
C	 2.051487201	 0.0122098213	 3.8316793196	 0.131969
O	 2.9218487636	-0.7837358099	 4.1486167721	-0.315161
C	 2.2765654647	-0.5527565222	 1.3789042097	 0.454392
O	 2.5567808251	-1.8573408112	 1.6571595171	-0.463616
H	 1.8683247575	-1.9453299936	-1.1421022354	 0.131861
H	 2.0570502725	-0.4711764599	-2.1120098392	 0.11252
H	 3.3921260466	-1.0535437221	-1.0993433547	 0.121643
H	 0.6877577719	-0.0079907856	-0.0680716216	 0.073682
H	 3.3610942385	 1.3716889458	-0.4887163284	 0.112808
H	 1.9492866001	 2.1634801734	 0.2518347259	 0.099936
H	 3.9880122718	 0.9200678582	 2.0662256139	 0.107332
H	 0.9027424183	 1.0588119281	 2.3119509514	 0.086973
H	 1.3820713587	 0.4373844077	 4.6074279052	 0.093401
H	 2.9437095347	-1.8736491585	 2.5511019481	 0.305337
122.2955	145.8839	190.6333	229.8233	242.4783	267.9182	348.0931	391.8085	432.6341	461.2124	597.5292	658.5866	701.3865	740.0204	814.882	846.9033	877.9464	940.5726	947.4806	978.5723	1013.0819	1023.8497	1070.7759	1079.3227	1087.6586	1123.1984	1146.8368	1198.4389	1221.3396	1253.5072	1272.9222	1331.8944	1355.1074	1397.8813	1410.2932	1425.2373	1447.223	1489.9671	1492.8211	1499.0359	1752.5529	2920.2069	3035.3907	3039.4066	3050.1476	3103.6261	3107.3346	3115.2908	3124.1205	3188.1463	3622.3781
CC1CC2C(C=O)C12O	C[C@@H]1C[C@H]2[C@H](C=O)[C@@]12O	
InChI=1S/C7H10O2/c1-4-2-5-6(3-8)7(4,5)9/h3-6,9H,2H2,1H3	InChI=1S/C7H10O2/c1-4-2-5-6(3-8)7(4,5)9/h3-6,9H,2H2,1H3/t4-,5+,6+,7-/m1/s1
