19
gdb 5602	2.4327443	1.4485685	0.9959039	3.7768	76.47	-0.23863	-0.02817	0.21046	1216.8321	0.155834	-422.524419	-422.515577	-422.514633	-422.558734	31.892	
C	 1.4934131401	 0.1671484307	-0.0725603623	-0.237216
O	 0.0924656401	 0.0275981116	 0.0491346376	-0.237201
C	-0.4201452589	 0.5677828663	 1.229122686	 0.016637
C	-0.3384955798	-0.3017158367	 2.5351327747	-0.066372
C	-0.191583488	 0.5124682047	 3.8414418651	-0.228274
C	-1.7353289499	 0.7210567425	 3.885320596	-0.236898
C	-1.910306493	-0.2501154825	 2.6680465247	-0.154941
C	-1.9693578771	 0.4365473662	 1.3057076064	 0.384223
O	-2.8417363052	 0.6614450842	 0.5203916797	-0.292269
H	 2.0319341492	-0.3672528394	 0.72370617	 0.10899
H	 1.7757545902	-0.2593837479	-1.0376327132	 0.13466
H	 1.7941667441	 1.2256750701	-0.0448831569	 0.109762
H	-0.0615859803	 1.6005818356	 1.3832830663	 0.080482
H	 0.2105955098	-1.2348874342	 2.4136780815	 0.083469
H	 0.171333584	-0.0873110748	 4.6795218633	 0.108126
H	 0.4246399602	 1.4146032928	 3.7771149048	 0.099997
H	-2.2156694627	 0.3598192159	 4.7961265392	 0.118023
H	-2.0799541075	 1.7425903368	 3.7053240935	 0.115072
H	-2.5600115452	-1.113305822	 2.8145046236	 0.093727
49.6798	96.1396	147.0361	183.2353	188.3985	281.5882	309.517	401.8841	455.3221	605.3245	686.3083	756.4764	783.4077	832.5545	837.7655	871.8569	926.661	957.1895	985.8696	1015.245	1048.0583	1084.1942	1090.4698	1149.7128	1168.9995	1180.2639	1193.195	1215.5014	1223.3274	1244.7926	1245.5789	1265.4007	1281.0536	1289.0934	1372.5697	1478.4834	1478.94	1487.2987	1495.1342	1506.4551	1890.7175	2948.7999	2980.6837	3030.7344	3050.836	3067.6124	3097.7551	3110.5511	3119.6589	3121.4591	3127.7602
COC1C2CCC2C1=O	CO[C@@H]1[C@H]2CC[C@H]2C1=O	
InChI=1S/C7H10O2/c1-9-7-5-3-2-4(5)6(7)8/h4-5,7H,2-3H2,1H3	InChI=1S/C7H10O2/c1-9-7-5-3-2-4(5)6(7)8/h4-5,7H,2-3H2,1H3/t4-,5+,7-/m1/s1
