19
gdb 3278	2.8370475	1.4427395	1.1033527	0.5217	74.23	-0.23622	0.07397	0.31019	1125.7197	0.156277	-422.541011	-422.53249	-422.531546	-422.573753	32.609	
C	-2.177379047	 3.7043465467	 0.6813310222	-0.482931
C	-2.2830866275	 2.4191973	 1.4561400416	 0.411851
O	-3.2236076405	 2.4077204531	 2.5498076511	-0.303324
C	-3.4490114522	 1.5160633263	 1.4511272497	-0.015476
C	-3.043586697	 0.0769884133	 1.7479271207	-0.265766
C	-1.5262544853	 0.1480060804	 1.9318745843	-0.107355
C	-0.6948554173	 0.5416588347	 0.7394218319	 0.144746
O	 0.6239894866	 0.108076714	 0.5843404852	-0.437364
C	-1.0619638271	 1.5931411466	 1.7565159515	-0.190554
H	-1.5819064596	 4.4385737719	 1.2349835302	 0.127624
H	-1.6865505539	 3.5357495963	-0.2826576664	 0.126476
H	-3.1668322566	 4.133596372	 0.5059912837	 0.128438
H	-4.3396024354	 1.7244399694	 0.8616923058	 0.089035
H	-3.5451472612	-0.2776635262	 2.6545907688	 0.114878
H	-3.333957382	-0.5902681207	 0.9273401563	 0.102499
H	-1.0574116886	-0.4834210437	 2.6799263034	 0.0825
H	-1.1766761618	 0.5749949594	-0.234348257	 0.104118
H	 1.0203468747	 0.0051291732	 1.4554001919	 0.284435
H	-0.2763283583	 2.0143731531	 2.3777998251	 0.086169
140.363	146.6263	179.8511	209.6803	263.7278	303.3413	355.3486	411.8345	439.3628	472.9197	576.1495	728.5525	737.5935	829.3169	850.7957	868.2297	920.3073	924.1949	960.8148	981.5296	1028.0164	1033.0748	1051.5266	1081.5999	1101.0451	1119.7568	1124.9402	1171.9575	1217.9282	1236.2827	1271.0887	1293.1873	1315.2933	1335.296	1378.2822	1410.932	1440.6131	1460.8142	1481.8467	1486.952	1496.6034	3032.0352	3037.0604	3074.7113	3099.4738	3124.5247	3133.8643	3144.0492	3146.7789	3163.0685	3820.8325
CC12OC1CC1C(O)C21	C[C@@]12O[C@@H]1C[C@H]1[C@H](O)[C@@H]21	
InChI=1S/C7H10O2/c1-7-4(9-7)2-3-5(7)6(3)8/h3-6,8H,2H2,1H3	InChI=1S/C7H10O2/c1-7-4(9-7)2-3-5(7)6(3)8/h3-6,8H,2H2,1H3/t3-,4-,5+,6+,7-/m1/s1
