19
gdb 2363	2.8561827	1.6885791	1.307568	0.897	74.15	-0.24404	0.06358	0.30762	1009.6015	0.157593	-422.512048	-422.50432	-422.503376	-422.544126	30.365	
O	 0.1255622151	 0.2023527588	 0.0968924036	-0.476086
C	-0.7929350597	 0.6514571353	 1.0421888854	 0.416259
C	-1.1094044555	 2.152002006	 0.8944041189	-0.267977
C	-2.6341086515	 1.8620663542	 1.0193412923	-0.232911
C	-2.3629033305	 0.3372023458	 1.0959525432	-0.137631
C	-2.1801703791	-0.1572079885	 2.5312557767	 0.125188
O	-1.8774651496	-1.5683722542	 2.5846884099	-0.29447
C	-0.4632349544	-1.3107200887	 2.7069861668	-0.10443
C	-0.6551890373	 0.1993576004	 2.5205492051	-0.148424
H	 0.2054189359	-0.7551582427	 0.1670374768	 0.282463
H	-0.6619653307	 2.8161703281	 1.6392954017	 0.095764
H	-0.8265339895	 2.5009502448	-0.1009387653	 0.115924
H	-3.1198606761	 2.2816489293	 1.9056023861	 0.098418
H	-3.2125070672	 2.1643934259	 0.1445803536	 0.109519
H	-2.8941079332	-0.3254022298	 0.4123418233	 0.076203
H	-2.8973783664	 0.1482999567	 3.2988826949	 0.075503
H	-0.0864825081	-1.5947465901	 3.69820803	 0.105711
H	 0.1313356106	-1.8494618926	 1.9542658228	 0.084995
H	-0.1444893728	 0.8681948812	 3.2140330141	 0.075982
84.2335	177.8643	244.3168	273.375	328.4328	368.981	406.7761	470.7772	592.9199	658.855	742.4584	781.6342	831.1378	873.388	890.5825	914.9252	955.5466	959.3476	992.5204	1014.6508	1028.0524	1032.7576	1073.8992	1097.7452	1116.933	1136.4875	1155.2911	1185.816	1217.8519	1222.9837	1252.5702	1263.1481	1267.1965	1273.1075	1311.1207	1319.5033	1363.2139	1374.856	1475.381	1495.2635	1532.0224	2987.5269	3029.9232	3053.0297	3059.9196	3063.8858	3102.7566	3103.7961	3114.4039	3124.8883	3802.1333
OC12CCC1C1OCC21	O[C@@]12CC[C@@H]1[C@H]1OC[C@@H]21	
InChI=1S/C7H10O2/c8-7-2-1-4(7)6-5(7)3-9-6/h4-6,8H,1-3H2	InChI=1S/C7H10O2/c8-7-2-1-4(7)6-5(7)3-9-6/h4-6,8H,1-3H2/t4-,5-,6-,7+/m1/s1
