19
gdb 1466	3.320842	1.243154	1.168438	0.9506	75.96	-0.24592	0.07308	0.319	1131.4266	0.155216	-422.505427	-422.496863	-422.495919	-422.538016	33.44	
C	-0.0417695996	-0.4473948909	-0.2042779641	-0.466187
C	 1.3356823038	 0.1040530516	 0.0863342643	 0.407734
O	 1.7878849577	-0.1817764996	 1.3895672672	-0.473427
C	 1.8442125577	 1.4449779935	-0.3372342685	-0.089845
C	 1.3302856823	 1.8551844987	-1.724181296	-0.351409
C	 1.977289069	 0.5705224788	-2.2836361364	 0.448494
C	 2.5996642083	 0.364193882	-3.5896275318	-0.266672
O	 1.3778853183	-0.3003779589	-3.2361231988	-0.278955
C	 2.4689727682	 0.150195108	-0.9237094141	-0.228585
H	-0.7709659261	-0.0342902257	 0.5001472161	 0.122831
H	-0.3702998524	-0.2357089485	-1.2230442172	 0.144728
H	-0.0403144075	-1.5382855546	-0.0884724774	 0.109451
H	 1.8540482437	-1.1397589459	 1.471063692	 0.280971
H	 2.2838769778	 2.1111051794	 0.3932252594	 0.100727
H	 0.2474053301	 1.9487639711	-1.845057644	 0.111435
H	 1.8089060321	 2.7611819674	-2.1043571905	 0.113235
H	 2.5114807712	 1.1319051681	-4.3582179117	 0.112801
H	 3.4718591487	-0.2829919583	-3.6801937781	 0.114083
H	 3.4227771767	-0.3115070164	-0.6971971504	 0.088589
105.9687	199.617	202.5373	242.174	304.0834	312.4112	365.5675	407.5349	424.4907	459.7006	502.3507	599.7864	679.8742	788.7501	829.3319	844.4015	889.7927	906.7603	932.9748	963.1269	987.311	1006.2953	1026.3299	1075.3963	1093.8902	1112.9145	1126.296	1163.4779	1173.7736	1188.8206	1237.1326	1250.6547	1277.5646	1308.7774	1415.5009	1427.1141	1449.3852	1479.2491	1497.5885	1502.357	1536.6387	3029.7183	3057.6958	3073.6827	3090.292	3107.7821	3141.3507	3158.8036	3182.3974	3206.5594	3795.4068
CC1(O)C2CC3(CO3)C12	C[C@]1(O)[C@@H]2C[C@@]3(CO3)[C@H]12	
InChI=1S/C7H10O2/c1-6(8)4-2-7(3-9-7)5(4)6/h4-5,8H,2-3H2,1H3	InChI=1S/C7H10O2/c1-6(8)4-2-7(3-9-7)5(4)6/h4-5,8H,2-3H2,1H3/t4-,5+,6+,7-/m1/s1
