19
gdb 4745	2.2301493	1.2656414	0.9986601	2.8694	77.62	-0.24564	-0.02671	0.21892999999999999	1266.1688	0.151475	-422.520374	-422.509517	-422.508573	-422.556549	38.027	
C	 1.6083719811	-0.3284091988	 0.0283718832	-0.250551
O	 0.2351045037	-0.0049670262	-0.0499693879	-0.27885
C	-0.3741098629	 0.5946352698	 1.0917466116	 0.250229
C	-0.1050698571	-0.1340957933	 2.4049468248	-0.440071
C	 0.0376099193	 2.1017999713	 1.1469077512	-0.409822
C	-0.586387726	 2.8626867405	 2.218470692	 0.317426
C	-1.1083612534	 3.4871889293	 3.102402682	-0.441075
C	-1.8647084609	 0.5310443287	 0.7301609832	 0.158457
O	-2.7576718501	 0.3699421587	 1.5158282546	-0.244609
H	 1.814214167	-1.0910355313	 0.7899169231	 0.119524
H	 1.882502668	-0.7295296865	-0.9501780316	 0.135721
H	 2.2409541467	 0.547015461	 0.2308462416	 0.110108
H	-0.2858053227	-1.2058150536	 2.2852036388	 0.129339
H	 0.9212438702	 0.0175146033	 2.7498401708	 0.115073
H	-0.7874349644	 0.2442995289	 3.16717876	 0.159932
H	 1.1281210112	 2.1504086575	 1.2509774038	 0.135991
H	-0.1997672632	 2.5501895556	 0.174255185	 0.139901
H	-1.5750234806	 4.0369796977	 3.8818338162	 0.200984
H	-2.0440016461	 0.6559489176	-0.3602932125	 0.092291
63.7703	67.6044	95.1087	137.4799	194.3807	223.9893	246.7997	281.3708	313.564	343.1123	351.2501	390.9587	445.3527	526.4031	596.6913	633.2336	650.3627	766.9675	858.7895	890.1076	958.435	981.5558	1014.7865	1092.8214	1142.135	1166.0744	1176.2921	1183.184	1222.0564	1310.1645	1322.7092	1392.4228	1413.0924	1467.9697	1475.8825	1487.0741	1489.5116	1501.7254	1510.5974	1847.7459	2240.7705	2899.5141	3001.1896	3027.4325	3051.9045	3058.6481	3063.369	3117.9768	3123.7974	3151.2847	3505.7759
COC(C)(CC#C)C=O	CO[C@@](C)(CC#C)C=O	
InChI=1S/C7H10O2/c1-4-5-7(2,6-8)9-3/h1,6H,5H2,2-3H3	InChI=1S/C7H10O2/c1-4-5-7(2,6-8)9-3/h1,6H,5H2,2-3H3/t7-/m0/s1
