19
gdb 5178	3.4459965	1.2334348	1.0656207	2.0342	75.64	-0.24398	0.07354	0.31752	1164.3107	0.156461	-422.512293	-422.503861	-422.502916	-422.545024	32.809	
O	 0.9989204707	 1.015188997	 0.3050851421	-0.42141
C	 0.1545889029	-0.0719816391	-0.0627595278	-0.21265
C	-0.9671009045	 0.4582201879	-0.8920149384	 0.380623
C	-0.8450703045	 1.2832379098	-2.1748182694	-0.354189
C	-2.3497168024	 1.6031697866	-1.9796706828	 0.392616
O	-2.9495959657	 2.718680461	-2.5312198096	-0.475259
C	-3.058374159	 0.24884073	-2.1927434795	-0.27062
C	-2.3604296882	-0.1955322525	-0.9071117448	-0.124671
C	-2.1829444765	 1.2239735277	-0.4278232929	-0.210377
H	 1.7887345912	 0.6513123179	 0.7159960087	 0.285966
H	 0.7191718296	-0.8266559075	-0.6346176643	 0.088385
H	-0.2545618188	-0.5774207946	 0.8276417715	 0.084707
H	-0.2150345425	 2.1604062198	-1.9956567099	 0.10108
H	-0.5490251064	 0.791469816	-3.1097960071	 0.084902
H	-2.3607320212	 3.4715522775	-2.4121592585	 0.281751
H	-4.1366409686	 0.3473765658	-2.0418159867	 0.106736
H	-2.8558792136	-0.2832356087	-3.1295073451	 0.087702
H	-2.5734108856	-1.07120671	-0.3072283979	 0.082878
H	-2.4144586669	 1.7139478355	 0.5067617224	 0.091832
92.5446	137.8245	228.465	266.4128	303.3829	325.1348	353.9951	407.4498	462.5677	500.6581	591.9782	659.8025	740.5552	758.3909	830.2245	876.9601	906.4751	914.2988	954.7812	961.0348	989.1107	1045.6942	1055.3778	1063.3386	1079.9738	1115.6782	1125.2877	1135.5139	1185.3685	1205.3734	1234.3561	1245.8513	1264.7533	1308.7184	1342.0332	1386.1873	1409.9893	1472.0867	1491.8059	1510.3495	1513.9023	2957.1342	2983.8304	3021.4514	3034.8466	3088.5741	3104.2008	3193.3507	3224.5456	3807.1054	3827.3831
OCC12CC3(O)CC1C23	OC[C@@]12C[C@@]3(O)C[C@@H]1[C@@H]23	
InChI=1S/C7H10O2/c8-3-6-2-7(9)1-4(6)5(6)7/h4-5,8-9H,1-3H2	InChI=1S/C7H10O2/c8-3-6-2-7(9)1-4(6)5(6)7/h4-5,8-9H,1-3H2/t4-,5+,6+,7+/m1/s1
