19
gdb 696	3.8708471	0.9122685	0.7903469	1.1309	76.75	-0.25338	-0.03143	0.22194999999999998	1450.8031	0.15561	-422.531871	-422.522964	-422.52202	-422.566624	32.124	
O	 1.312938578	-0.1277426059	 0.0164145347	-0.273559
C	 0.1209825995	-0.0993404239	-0.0078833472	 0.331961
C	-1.0176119321	-1.1262642673	-0.0365155452	-0.189857
O	-1.9728471295	-0.0490500662	 0.0278336693	-0.288093
C	-0.958892088	 0.9929564095	 0.0180334446	 0.019687
C	-0.9938584831	 1.9172212673	 1.2298582286	-0.231435
C	-2.1879141717	 2.8485894826	 1.2312823417	 0.025457
C	-3.5354602904	 2.3547728365	 1.6928693398	-0.241332
C	-2.76665193	 3.3432058027	 2.5333354124	-0.28226
H	-1.089272982	-1.7117332267	-0.9624741266	 0.132269
H	-1.0703086651	-1.8036558571	 0.8251713589	 0.133604
H	-1.0019489056	 1.5739086176	-0.9153950004	 0.104821
H	-0.99468529	 1.304827427	 2.139804829	 0.100954
H	-0.0578814567	 2.4915510921	 1.2331880198	 0.118051
H	-2.1968586114	 3.5573322137	 0.4064028043	 0.083096
H	-4.4179796995	 2.7013111097	 1.1669985368	 0.111558
H	-3.5982740918	 1.3281479947	 2.0347588971	 0.121803
H	-3.1210182471	 4.3668835366	 2.5815031869	 0.11241
H	-2.3164661134	 2.9877772972	 3.4546570053	 0.110866
56.8772	71.8585	112.6232	126.288	219.7088	326.9962	348.6623	408.0436	511.6908	547.2402	692.0483	768.5104	795.1067	817.5381	837.8655	862.6422	903.8655	955.5558	993.5162	1010.5809	1023.258	1056.6179	1075.0515	1087.4187	1093.7485	1134.596	1137.2612	1157.1977	1195.9375	1227.6629	1236.6555	1262.7731	1287.3154	1329.0463	1361.8578	1419.6898	1465.812	1473.6249	1482.0473	1509.5691	1921.4044	2999.1451	3016.6735	3021.8304	3061.9868	3065.5305	3130.4504	3132.6909	3142.8135	3210.7366	3229.0962
O=C1COC1CC1CC1	O=C1CO[C@H]1CC1CC1	
InChI=1S/C7H10O2/c8-6-4-9-7(6)3-5-1-2-5/h5,7H,1-4H2	InChI=1S/C7H10O2/c8-6-4-9-7(6)3-5-1-2-5/h5,7H,1-4H2/t7-/m0/s1
