19
gdb 3820	2.4852599	1.6623634	1.2801527	0.925	74.32	-0.24526	0.06753	0.31279	1053.686	0.155604	-422.498591	-422.490329	-422.489385	-422.530932	32.45	
C	 2.2390377497	 1.6306224755	-0.4612828764	-0.417406
C	 1.7723114904	 0.2420286569	-0.0439204477	 0.046611
C	 2.6620394217	-0.4767737173	 1.0281369737	-0.316325
C	 2.9589124197	-1.6176351946	 0.0130901273	 0.378574
O	 4.2788678137	-1.9426514548	-0.3072516277	-0.477439
C	 1.95228098	-2.8120495288	-0.0346847458	-0.063844
O	 0.650660163	-2.3101926029	 0.2731732389	-0.23539
C	 1.1506980379	-2.1285407525	-1.0628990751	 0.011621
C	 2.0932762541	-0.8996034172	-1.0616196018	-0.116324
H	 2.1368185635	 2.3444587124	 0.3636629282	 0.113892
H	 3.2924487093	 1.6207093209	-0.7639736969	 0.117043
H	 1.6527719953	 2.0083089322	-1.3066267318	 0.112521
H	 0.7177009979	 0.2603944618	 0.2383824352	 0.084641
H	 3.5718513927	 0.082709851	 1.2655080708	 0.096924
H	 2.1579503006	-0.7695804084	 1.9511246829	 0.102635
H	 4.6701125532	-2.3950108068	 0.4493816119	 0.279671
H	 2.1469747057	-3.864178234	 0.1509532343	 0.100034
H	 0.53599024	-2.5192084869	-1.8661499108	 0.103751
H	 2.5301070615	-0.6352716765	-2.0248903392	 0.07881
97.8581	231.1101	244.5005	262.0608	275.6134	294.4077	357.0329	369.813	482.0434	537.5103	622.0688	701.3018	796.6131	801.6275	844.0812	863.2774	876.8389	892.6182	947.2306	966.3919	998.3243	1023.7414	1038.8682	1055.7406	1106.5472	1119.2266	1147.8744	1179.1962	1208.3333	1227.1984	1240.3705	1257.3159	1281.1682	1300.9305	1344.1954	1355.5291	1392.1559	1409.8694	1460.9467	1495.9665	1498.6138	3021.8953	3056.2534	3077.0332	3091.0403	3097.3307	3118.0494	3122.3889	3158.4982	3181.2314	3784.2676
CC1CC2(O)C3OC3C12	C[C@@H]1C[C@@]2(O)[C@H]3O[C@H]3[C@@H]12	
InChI=1S/C7H10O2/c1-3-2-7(8)4(3)5-6(7)9-5/h3-6,8H,2H2,1H3	InChI=1S/C7H10O2/c1-3-2-7(8)4(3)5-6(7)9-5/h3-6,8H,2H2,1H3/t3-,4-,5+,6+,7+/m1/s1
