19
gdb 3919	3.234391	1.2895066	1.1183263	1.8798	76.95	-0.23261	0.07235	0.30496	1129.724	0.156512	-422.454378	-422.446341	-422.445397	-422.486285	32.467	
O	 0.5911485664	 0.3298526454	 0.6828986915	-0.428161
C	-0.6640910402	-0.1762733382	 1.0585254215	 0.078496
C	-1.7778497459	 0.143941237	-0.0061456854	-0.340257
C	-2.7013644258	 0.4476956744	 1.1892595496	 0.278581
C	-3.1331192732	-0.7116731604	 2.1542801803	-0.31966
C	-2.705303409	 0.4686684516	 3.0496966287	 0.369777
O	-2.8020491908	 0.582329281	 4.4254123974	-0.464315
C	-3.5307600164	 1.4147769919	 2.0766845489	-0.338879
C	-1.4790275816	 0.7091093815	 2.0931884082	-0.147007
H	 1.2148536034	 0.1468816641	 1.3935278797	 0.282339
H	-0.6075496806	-1.2443618436	 1.2970107225	 0.07374
H	-1.4874856154	 1.0413292208	-0.5589359023	 0.12271
H	-2.0722917669	-0.6431568877	-0.7048565951	 0.101681
H	-4.1971621861	-0.963418959	 2.1502737996	 0.090666
H	-2.5153919208	-1.6113722395	 2.1807001093	 0.087492
H	-2.3177961493	-0.149221708	 4.823595683	 0.278555
H	-4.61810083	 1.2955421679	 2.1103835319	 0.095188
H	-3.2333422274	 2.4655690313	 2.0618944819	 0.102339
H	-1.0980885003	 1.7348908494	 2.0559195588	 0.076715
173.1109	203.6653	236.1617	268.8364	294.305	386.6405	394.3875	425.299	507.4784	544.3581	582.0609	620.2795	685.8855	771.0529	798.5853	879.4255	888.1932	942.2111	958.5113	996.6781	1008.2265	1017.702	1066.9121	1076.9176	1086.0456	1127.7456	1142.3541	1149.9848	1168.2709	1201.2599	1228.8835	1232.8687	1242.6302	1261.5821	1289.5635	1342.9722	1347.6789	1422.9975	1476.7521	1495.674	1540.0327	3023.6476	3046.5698	3056.7881	3058.2423	3063.3548	3120.5609	3123.496	3126.0236	3806.6106	3809.168
OC1CC23CC(O)(C2)C13	O[C@@H]1C[C@]23C[C@](O)(C2)[C@@H]13	
InChI=1S/C7H10O2/c8-4-1-6-2-7(9,3-6)5(4)6/h4-5,8-9H,1-3H2	InChI=1S/C7H10O2/c8-4-1-6-2-7(9,3-6)5(4)6/h4-5,8-9H,1-3H2/t4-,5+,6-,7-/m1/s1
