19
gdb 886	2.6571217	1.3145896	1.0672383	3.338	77.97	-0.24044	-0.03213	0.20831	1175.7997	0.157437	-422.558143	-422.549478	-422.548534	-422.592713	31.499	
O	 1.3467827415	-0.2385687544	 0.0446416026	-0.246993
C	 0.1643155568	-0.0180994478	 0.0781737504	 0.16736
C	-0.5358571811	 0.7324880961	 1.2105044066	-0.14553
C	-1.2105792669	 2.0265840375	 0.706879866	-0.098848
O	-2.0506522427	 1.8970238018	-0.4194409258	-0.256038
C	-3.1096820956	 0.9509341768	-0.3752947135	-0.056335
C	-3.6912664838	 0.6331716221	 1.0045793699	-0.283813
C	-2.8060521137	-0.2127349105	 1.8889045694	-0.053411
C	-1.4734862611	-0.1910105408	 1.9557665198	-0.080883
H	-0.5109714202	-0.3734111734	-0.7296448977	 0.087616
H	 0.2641674564	 1.0347947488	 1.8973610066	 0.102318
H	-1.745049235	 2.4778856388	 1.5562727339	 0.101629
H	-0.436683051	 2.7346834296	 0.3947703677	 0.121226
H	-3.8958065552	 1.36754702	-1.0145349271	 0.11019
H	-2.7797342063	 0.0059827324	-0.834965775	 0.094591
H	-3.9839866235	 1.5622380332	 1.5132209669	 0.12631
H	-4.6287810476	 0.0909561031	 0.8336715765	 0.112093
H	-3.328228015	-0.9173839339	 2.5326382824	 0.096449
H	-0.9804560961	-0.8938947794	 2.6235104304	 0.102069
22.7392	94.3965	168.2069	206.4418	265.4302	316.1807	354.2143	413.9512	474.853	501.2721	617.172	731.8543	769.171	789.0865	849.1735	883.6065	969.9131	972.0989	995.6597	1012.3677	1040.7322	1083.8624	1095.1567	1116.8464	1170.6337	1232.8236	1242.8922	1256.7122	1305.5745	1328.1598	1336.8921	1370.5412	1395.055	1421.4184	1430.0632	1432.1158	1467.1835	1507.2786	1514.6256	1716.6707	1826.6472	2901.6086	2977.687	2992.0217	3018.3238	3040.1389	3056.2039	3062.9393	3079.7658	3139.3696	3162.8348
O=CC1COCCC=C1	O=C[C@H]1COCCC=C1	
InChI=1S/C7H10O2/c8-5-7-3-1-2-4-9-6-7/h1,3,5,7H,2,4,6H2	InChI=1S/C7H10O2/c8-5-7-3-1-2-4-9-6-7/h1,3,5,7H,2,4,6H2/t7-/m0/s1
