19
gdb 3422	2.6617646	1.6707856	1.5917224	0.8803	74.43	-0.24204	0.00578	0.24782	951.264	0.159996	-422.569384	-422.562207	-422.561263	-422.600382	29.551	
O	 0.6907158656	 0.4698849611	 0.1801454539	-0.458508
C	-0.660415029	 0.8533771619	 0.3124612857	 0.15441
C	-1.5726568837	-0.2373546799	 0.9212678839	-0.109531
C	-2.9154305339	 0.4464646582	 1.281028869	-0.081649
O	-3.5682877818	 0.9749798468	 0.1365594601	-0.243191
C	-2.7400880762	 1.7527763862	-0.7146021982	-0.08165
C	-1.4009948494	 1.0415023946	-1.0324098744	-0.109528
C	-1.6737697404	-0.4115995781	-1.4049857004	-0.082424
C	-1.7717082916	-1.1411745355	-0.2904323255	-0.082431
H	 0.7012608088	-0.3380108526	-0.3477085086	 0.27495
H	-0.645097077	 1.7684749678	 0.912820718	 0.078334
H	-1.1401218398	-0.7179891564	 1.8030957906	 0.072182
H	-3.6209813937	-0.2661407476	 1.7188251923	 0.109802
H	-2.728401283	 1.2398119465	 2.0245151978	 0.089825
H	-3.3274085962	 1.9209511315	-1.6223723519	 0.109802
H	-2.527648049	 2.7354915739	-0.2604081999	 0.089825
H	-0.8267145784	 1.6168515942	-1.7637721748	 0.072182
H	-1.8405566982	-0.7583998672	-2.4178286299	 0.098799
H	-2.0328613932	-2.1909409253	-0.2293691677	 0.0988
208.4877	260.4928	280.3888	320.4587	375.3906	392.0848	422.3296	441.8523	632.9272	665.7755	754.1998	789.1821	833.8852	857.9243	872.1278	875.0978	928.8032	960.8604	979.1806	982.7957	1018.4378	1043.4924	1078.6601	1112.0522	1123.0622	1140.6599	1198.4136	1245.4516	1252.8855	1260.9599	1275.1209	1302.3345	1308.1231	1338.432	1344.2203	1395.1932	1408.0649	1446.4103	1498.0575	1506.2698	1653.5179	2959.4389	2964.8649	3064.1171	3073.8291	3077.185	3079.6455	3082.2747	3190.5037	3215.3957	3779.3226
OC1C2COCC1C=C2	O[C@@H]1[C@H]2COC[C@@H]1C=C2	
InChI=1S/C7H10O2/c8-7-5-1-2-6(7)4-9-3-5/h1-2,5-8H,3-4H2	InChI=1S/C7H10O2/c8-7-5-1-2-6(7)4-9-3-5/h1-2,5-8H,3-4H2/t5-,6+,7-
