19
gdb 2793	2.8328704	1.3388079	1.0795281	3.1171	75.6	-0.22363	0.06935	0.29298	1178.7478	0.153549	-422.487327	-422.478109	-422.477165	-422.52049	35.086	
C	-3.3883744924	-0.8162321417	 3.3787515832	-0.505527
C	-2.4375396659	 0.10444658	 2.689271166	 0.345052
O	-2.9763228189	 1.2074636173	 1.9277631684	-0.331631
C	-1.9737373382	 1.476224273	 2.9324252528	 0.345097
C	-2.2635379705	 2.5105111441	 3.9684724091	-0.505534
C	-0.5739404714	 1.147965915	 2.3237001237	-0.21635
C	-0.6698901339	 0.6063047654	 0.9188317436	 0.155124
O	 0.5125248701	 0.3286092982	 0.2294922904	-0.445357
C	-1.0595378164	-0.2885647549	 2.0693203459	-0.216329
H	-3.8568627287	-1.4973651036	 2.6588939007	 0.134759
H	-2.8664123734	-1.4240377201	 4.125291977	 0.124959
H	-4.1797853949	-0.2497108028	 3.876272423	 0.133187
H	-1.5649210652	 2.4247731561	 4.8073862345	 0.124959
H	-2.161468817	 3.5176055867	 3.5478068133	 0.13476
H	-3.2833359889	 2.4011209874	 4.3464307458	 0.133185
H	 0.3656880028	 1.476417986	 2.7520747255	 0.086566
H	-1.4203601382	 0.9808592242	 0.2361896072	 0.13325
H	 1.1672105976	-0.0031276296	 0.8531420025	 0.283259
H	-0.5459508766	-1.2204468206	 2.2745349772	 0.086572
172.1252	182.6842	187.2854	203.0959	207.9293	230.1771	271.3376	338.9681	382.9947	413.7232	540.0761	561.2006	574.8666	726.1072	728.0651	802.472	848.0362	853.706	873.9458	906.1424	944.2316	982.2084	1081.1059	1087.1555	1100.9918	1113.4501	1128.6769	1139.1454	1162.896	1226.4001	1239.5931	1281.0655	1325.5788	1407.8781	1407.9695	1426.514	1472.3678	1474.5834	1485.9646	1491.3503	1535.4059	3031.1926	3032.8222	3092.8332	3093.473	3120.3569	3122.7617	3176.7462	3187.3981	3212.8317	3808.8932
CC12OC1(C)C1C(O)C21	C[C@@]12O[C@]1(C)[C@@H]1[C@@H](O)[C@H]21	
InChI=1S/C7H10O2/c1-6-3-4(5(3)8)7(6,2)9-6/h3-5,8H,1-2H3	InChI=1S/C7H10O2/c1-6-3-4(5(3)8)7(6,2)9-6/h3-5,8H,1-2H3/t3-,4+,5+,6+,7-
