19
gdb 2672	2.5782219	1.443763	1.0669035	2.4943	75.42	-0.24128	-0.02507	0.21620999999999999	1149.7663	0.155532	-422.550969	-422.542147	-422.541203	-422.584666	33.164	
C	-0.6482027386	-1.7372707689	-2.5908103561	-0.416387
C	-1.5014350949	-1.6264584023	-1.3362971816	-0.011727
C	-2.6325202466	-0.5538233971	-1.257770304	 0.142699
O	-3.9590721318	-0.9996037692	-1.3906469589	-0.433405
C	-2.1375220712	-0.1149560853	 0.1565960062	-0.090552
C	-1.220360117	 1.135776412	 0.1413396206	-0.358188
C	-0.0316585446	 0.2006184186	-0.1669995426	 0.412467
O	 1.1247556621	 0.3857237262	-0.4141030595	-0.301117
C	-0.891880705	-1.0649244178	-0.0102614977	-0.184782
H	 0.1482316691	-2.4783336843	-2.4676824285	 0.124484
H	-1.2631203015	-2.040800416	-3.4448405299	 0.123219
H	-0.1718756292	-0.7834461181	-2.8379608587	 0.129024
H	-1.9529970051	-2.60059577	-1.1081238835	 0.07284
H	-2.5219834072	 0.2413211657	-2.0030507754	 0.08939
H	-4.098761596	-1.7216353365	-0.7684407838	 0.2783
H	-2.8600512189	-0.2103959632	 0.966646817	 0.073483
H	-1.4363862695	 1.9281569975	-0.5816985465	 0.12644
H	-1.0942322511	 1.5936038076	 1.1291873519	 0.13347
H	-0.5384552729	-1.7881714289	 0.7267066809	 0.090344
49.6664	119.5503	203.5766	233.9308	255.3284	300.8979	363.0113	372.4215	432.9315	469.9674	567.3972	590.1567	701.2056	801.9048	827.9949	846.0112	880.6433	912.7475	969.9349	980.7401	1023.9204	1071.4891	1084.0104	1115.655	1118.6372	1127.6837	1133.5712	1182.2191	1205.6561	1221.409	1247.1188	1261.8582	1286.0548	1320.513	1371.7162	1412.3813	1430.5759	1440.4991	1492.9856	1495.0191	1882.9862	3016.571	3033.9621	3043.804	3053.3087	3096.4641	3099.7457	3101.6125	3107.7117	3119.5639	3803.5029
CC1C(O)C2CC(=O)C12	C[C@@H]1[C@@H](O)[C@@H]2CC(=O)[C@H]12	
InChI=1S/C7H10O2/c1-3-6-4(7(3)9)2-5(6)8/h3-4,6-7,9H,2H2,1H3	InChI=1S/C7H10O2/c1-3-6-4(7(3)9)2-5(6)8/h3-4,6-7,9H,2H2,1H3/t3-,4+,6+,7+/m0/s1
