19
gdb 5258	2.7013332	1.4588397	1.1053192	2.8229	76.19	-0.22477	0.01738	0.24215	1123.9205	0.157217	-422.55432	-422.545745	-422.544801	-422.587321	32.986	
O	 1.0633651258	 0.4695759757	-0.638503524	-0.429917
C	 0.0222433756	 0.4973723087	 0.3271608085	-0.154581
C	-1.3446918029	 0.6389755514	-0.3073396249	 0.293226
C	-1.8429848838	 2.0143822299	-0.7628413722	-0.331391
C	-3.3410035875	 1.9436658951	-0.5498846665	-0.085565
C	-3.7201447151	 0.7962184887	 0.0212645002	-0.078223
C	-2.5683035453	-0.1262396106	 0.2158597164	-0.202407
C	-1.8707897376	-0.5395463895	-1.072580573	 0.053647
O	-1.0191496019	-1.6527768011	-1.0820194746	-0.433382
H	 0.9263916511	-0.3377935073	-1.1478273109	 0.292469
H	 0.0497181799	-0.3984435288	 0.9616012196	 0.091238
H	 0.2244662644	 1.3626488367	 0.9680646459	 0.101363
H	-1.3905171672	 2.8180300168	-0.1641843352	 0.107616
H	-1.577485043	 2.2260351362	-1.8058176661	 0.116139
H	-4.0077383851	 2.749080962	-0.8365972776	 0.094706
H	-4.738323447	 0.5300093562	 0.2816289332	 0.095401
H	-2.4998714894	-0.7914452176	 1.0707607087	 0.088908
H	-2.4104431644	-0.3616309998	-2.0037152318	 0.087865
H	-1.5548533764	-2.4510892428	-1.1308933256	 0.292889
73.2935	147.7471	221.8642	253.4409	288.1138	310.7995	373.7985	403.1045	434.0981	471.741	506.3954	711.9995	732.9714	752.4741	794.8818	878.2504	914.7241	949.8882	956.4997	973.8575	994.7081	998.4792	1029.6688	1059.6263	1073.7465	1130.6003	1141.5067	1164.1916	1194.7801	1229.7261	1265.9236	1278.3265	1301.0472	1351.9635	1371.2332	1394.364	1428.7488	1445.041	1479.9727	1495.4819	1663.4608	3005.5611	3010.5785	3048.1203	3068.2338	3089.9897	3163.3787	3185.4444	3209.7275	3798.4384	3810.6776
OCC12CC=CC1C2O	OC[C@]12CC=C[C@H]1[C@@H]2O	
InChI=1S/C7H10O2/c8-4-7-3-1-2-5(7)6(7)9/h1-2,5-6,8-9H,3-4H2	InChI=1S/C7H10O2/c8-4-7-3-1-2-5(7)6(7)9/h1-2,5-6,8-9H,3-4H2/t5-,6-,7+/m0/s1
