19
gdb 4647	4.6773961	0.5182792	0.4872881	1.8045	82.24	-0.25067	0.00527	0.25594	2191.923	0.154908	-422.556305	-422.545686	-422.544741	-422.595539	35.273	
C	-0.1666596951	-0.0276885452	 0.1156464338	-0.363917
C	 1.3726535786	-0.0358389179	 0.0852704572	-0.313907
C	 1.9496101995	 1.2949724632	-0.077091854	 0.111942
C	 2.3963440668	 2.4070640392	-0.1984607299	 0.012337
C	 2.9590448814	 3.7382073057	-0.3880409613	-0.355802
C	 3.5179857121	 3.9099063941	-1.807827412	-0.064669
O	 4.1677031253	 5.1901370392	-1.954408463	-0.201492
C	 3.3774048308	 6.2300935315	-2.2569888029	 0.179728
O	 2.1866743263	 6.2001982207	-2.4067060101	-0.303883
H	-0.5353059762	 0.5825494835	 0.9445152893	 0.129092
H	-0.5712191728	 0.3854238178	-0.8122399252	 0.129215
H	-0.5512089597	-1.044660115	 0.2377619664	 0.114207
H	 1.755448749	-0.4876815724	 1.0094777353	 0.12902
H	 1.7194111673	-0.6835913478	-0.7302503105	 0.128367
H	 2.1937618834	 4.5041337049	-0.2193170484	 0.151675
H	 3.7643163378	 3.9227411377	 0.3337126047	 0.134183
H	 4.2949335104	 3.1716212216	-2.0108770631	 0.128206
H	 2.7194746644	 3.820628608	-2.5464789164	 0.143173
H	 4.0044649108	 7.1300769813	-2.3518757099	 0.112525
8.3796	42.5173	72.9391	85.9608	140.8655	205.2916	228.3652	283.9977	331.645	343.9546	421.2873	483.6807	520.8628	743.3775	754.1984	785.0214	812.8634	943.5832	966.3916	1037.6578	1050.7869	1078.0108	1090.8932	1106.1427	1166.2272	1190.7981	1255.7753	1286.1274	1313.304	1327.0247	1351.3862	1405.9235	1408.8972	1414.4188	1474.9401	1477.3459	1489.5227	1494.6036	1505.5728	1819.8296	2368.7227	3018.767	3030.3884	3030.9619	3044.2053	3045.5379	3070.9434	3085.6091	3117.526	3123.9813	3147.1877	8.3833	42.5178	72.9399	85.9611	140.8657	205.292	228.3653	283.998	331.6451	343.9552	421.2874	483.681	520.8631	743.3776	754.1985	785.0214	812.8634	943.5837	966.3916	1037.658	1050.7873	1078.0108	1090.8931	1106.1427	1166.2273	1190.7985	1255.775	1286.1274	1313.3039	1327.0242	1351.3862	1405.9238	1408.8972	1414.4188	1474.9401	1477.3456	1489.5223	1494.6036	1505.5727	1819.8299	2368.7228	3018.7669	3030.3884	3030.9621	3044.2053	3045.5379	3070.9434	3085.6091	3117.526	3123.9813	3147.1878
CCC#CCCOC=O	CCC#CCCOC=O	
InChI=1S/C7H10O2/c1-2-3-4-5-6-9-7-8/h7H,2,5-6H2,1H3	InChI=1S/C7H10O2/c1-2-3-4-5-6-9-7-8/h7H,2,5-6H2,1H3
