19
gdb 2655	2.1513922	1.563547	1.1170328	3.333	78.04	-0.23474	-0.02562	0.20912	1160.2881	0.155142	-422.552084	-422.5429	-422.541956	-422.585913	34.029	
C	-2.3523702385	 2.992114476	 1.3366036211	-0.41277
C	-1.1070537663	 2.5055742082	 0.6309818766	-0.127012
C	-1.0408901602	 2.4326928797	-0.854565795	 0.083925
O	 0.110599196	 2.7160117636	-1.5707238211	-0.430773
C	-1.1215156601	 1.1322244652	-0.0483693069	 0.157443
C	-2.1185057403	-0.0397937749	-0.0252252983	-0.34028
C	-0.9028737088	-1.032083053	-0.0343904958	-0.337889
C	 0.025057059	 0.193416948	-0.0845624175	 0.368573
O	 1.2155269168	 0.3674679212	-0.2024246836	-0.355833
H	-2.4585615679	 2.5338527254	 2.3256145809	 0.124344
H	-2.3184486096	 4.0782694748	 1.470926808	 0.131436
H	-3.2537133091	 2.7550531561	 0.762223048	 0.12112
H	-0.1636499998	 2.7295214205	 1.1260705993	 0.104806
H	-1.9310924791	 2.7136056298	-1.4120445467	 0.111512
H	 0.8377510755	 2.1935526066	-1.1967039687	 0.304354
H	-2.7385688877	-0.0979120162	 0.8722905883	 0.112269
H	-2.7621643568	-0.1159227323	-0.9043395226	 0.114877
H	-0.7866957262	-1.632906125	 0.8719888519	 0.134658
H	-0.8231521869	-1.6925647538	-0.901964008	 0.13524
87.9847	110.103	165.2098	187.9827	222.246	249.5469	294.3245	406.6022	460.1644	473.7213	512.1134	548.9843	629.4251	723.4698	753.4891	765.3084	878.4367	919.0056	947.584	1008.8618	1023.3428	1055.0177	1086.1864	1096.9836	1119.5759	1129.2756	1160.6131	1179.9526	1206.1483	1227.5259	1251.937	1296.8742	1319.2881	1408.9067	1416.9092	1438.3073	1469.4811	1491.6451	1492.7403	1501.5086	1831.0801	3031.5891	3063.0584	3069.0117	3096.1515	3101.2424	3109.02	3124.9205	3129.8247	3148.0294	3687.8664
CC1C(O)C11CCC1=O	C[C@@H]1[C@@H](O)[C@@]21CCC2=O	
InChI=1S/C7H10O2/c1-4-6(9)7(4)3-2-5(7)8/h4,6,9H,2-3H2,1H3	InChI=1S/C7H10O2/c1-4-6(9)7(4)3-2-5(7)8/h4,6,9H,2-3H2,1H3/t4-,6-,7-/m1/s1
