19
gdb 5694	3.2934369	1.2084341	1.0316117	2.1293	75.89	-0.25808	0.04993	0.30801	1200.3642	0.156871	-422.48062	-422.472397	-422.471453	-422.513826	31.335	
O	 1.6521567808	-0.2710878055	 0.7809747232	-0.412005
C	 0.6658518605	 0.5178637107	 0.1331965332	-0.098063
C	-0.2289372967	 1.2168247079	 1.1330579252	-0.150905
O	-1.4697951447	 1.7609350275	 0.6003848893	-0.324144
C	-1.5335405393	 0.6904452467	 1.5080317256	 0.567841
C	-2.3690443186	 0.6040446861	 2.7939390004	-0.146564
C	-1.930843655	-0.8924141276	 2.842100761	-0.222641
C	-2.2940288513	-0.6375408397	 1.3453771077	-0.156527
C	-3.5433644944	 0.1432866128	 1.8694095655	-0.22519
H	 1.1983814492	-0.9764219319	 1.253850915	 0.286
H	 1.2142466876	 1.2582335047	-0.4582973392	 0.120492
H	 0.0461446472	-0.0684198139	-0.560434282	 0.097261
H	 0.287916182	 1.8828228527	 1.8253356464	 0.100757
H	-2.4070784452	 1.3138647712	 3.6194058213	 0.083657
H	-0.8822574426	-1.095721575	 3.0784329228	 0.087395
H	-2.6024900075	-1.5639468184	 3.3811435023	 0.101133
H	-2.2530091134	-1.3463964026	 0.5186274416	 0.081467
H	-3.9668293054	 0.8956560751	 1.2020951971	 0.115832
H	-4.3170898733	-0.4628724806	 2.3474197638	 0.094203
56.2457	127.4936	171.8406	215.8762	326.1447	364.975	410.0057	473.0722	506.8517	612.765	620.1757	785.401	796.8265	857.4377	893.2268	904.1948	925.0323	965.4455	997.2361	1018.2335	1043.2475	1063.5322	1075.2333	1079.1746	1086.1947	1105.4292	1123.7454	1150.7584	1184.2738	1193.5483	1208.2144	1233.4141	1240.6481	1250.9499	1330.2006	1374.3934	1415.1561	1492.2207	1504.7376	1514.7605	1558.9803	3005.2623	3050.8732	3062.5536	3078.1828	3108.8876	3118.3449	3121.8507	3126.505	3136.946	3811.9608
OCC1OC11C2CC1C2	OC[C@H]1O[C@@]21[C@@H]1C[C@H]2C1	
InChI=1S/C7H10O2/c8-3-6-7(9-6)4-1-5(7)2-4/h4-6,8H,1-3H2	InChI=1S/C7H10O2/c8-3-6-7(9-6)4-1-5(7)2-4/h4-6,8H,1-3H2/t4-,5+,6-,7-/m1/s1
