19
gdb 4494	2.7078591	1.5056907	1.2007855	4.216	73.93	-0.26731	0.01289	0.2802	1088.6321	0.158721	-422.610666	-422.602793	-422.601849	-422.643004	30.261	
C	-1.6879961534	-3.219832397	 1.1292212504	-0.406134
C	-0.999046276	-1.8729329807	 1.382953573	 0.012738
C	-1.8488834446	-0.9210592696	 2.265855424	-0.237735
C	-2.7829487063	-0.1855372394	 1.2799069058	-0.228847
C	-1.9434574719	-0.0134659896	 0.0221096578	 0.125903
O	-0.9378431377	 1.0563713742	 0.1656465061	-0.264743
C	 0.0935249193	 0.1510545436	 0.1909744754	 0.452429
O	 1.2565636474	 0.3782412661	 0.2914276721	-0.3328
C	-0.815876683	-1.0742866191	 0.0739431731	-0.230131
H	-1.8395067382	-3.7598753915	 2.0691616091	 0.120457
H	-2.6689042813	-3.0922560431	 0.6577494088	 0.116475
H	-1.0847385574	-3.8534355404	 0.4711487687	 0.120921
H	-0.0240674562	-2.0599344728	 1.844303786	 0.097986
H	-2.3962689849	-1.4562241741	 3.0460674917	 0.101673
H	-1.1979692485	-0.1972803862	 2.7665879804	 0.123153
H	-3.656566395	-0.8007222208	 1.0357485101	 0.10972
H	-3.1513268926	 0.7710350774	 1.659492294	 0.12083
H	-2.4980778074	 0.1299025842	-0.9054572786	 0.095103
H	-0.6277829223	-1.6891840812	-0.8071083078	 0.103003
111.3277	152.0284	193.1538	232.7337	302.3484	360.6258	387.303	495.1456	614.3595	665.793	688.9997	795.8986	807.1853	840.0486	860.3206	896.6216	922.9566	964.4764	971.7052	1023.0498	1023.8975	1042.5862	1099.9653	1111.7836	1135.6974	1191.2978	1194.747	1202.824	1257.3754	1285.8878	1318.4936	1330.3151	1342.4732	1363.6999	1373.2566	1413.0506	1474.0297	1493.0998	1499.859	1501.9953	1931.4537	3030.9646	3047.7632	3051.2068	3061.9244	3098.0504	3099.596	3104.9815	3107.0838	3109.0615	3118.4128
CC1CCC2OC(=O)C12	C[C@@H]1CC[C@H]2OC(=O)[C@@H]12	
InChI=1S/C7H10O2/c1-4-2-3-5-6(4)7(8)9-5/h4-6H,2-3H2,1H3	InChI=1S/C7H10O2/c1-4-2-3-5-6(4)7(8)9-5/h4-6H,2-3H2,1H3/t4-,5-,6+/m1/s1
