19
gdb 4177	2.5838792	1.6335939	1.4749493	4.3679	73.74	-0.25833	0.01732	0.27565	998.8475	0.159784	-422.621586	-422.614172	-422.613228	-422.653244	29.445	
C	-2.4300647796	 0.9123446295	 2.4269658775	-0.415375
C	-2.5912696301	-0.0548112363	 1.2556957316	 0.031254
C	-1.6557691596	-1.3104570872	 1.304464629	-0.249371
C	-0.9261778166	-1.2642916104	-0.0737461767	-0.157717
C	-2.0328729227	-0.7145004348	-0.9957722573	-0.24754
C	-2.2177658083	 0.5343209202	-0.1237352421	 0.094584
O	-0.8606453708	 1.0511610843	-0.0355873987	-0.244773
C	-0.0237663639	-0.0372890819	-0.0015348856	 0.447072
O	 1.1631252542	 0.0572562022	 0.1022480215	-0.351032
H	-2.664621146	 0.4153260956	 3.373495488	 0.116979
H	-1.4063760776	 1.2919107345	 2.4852111683	 0.141557
H	-3.1014666459	 1.7717377662	 2.3259086143	 0.115254
H	-3.6373018826	-0.3778227429	 1.2032594312	 0.079585
H	-0.9502749051	-1.2719102547	 2.138724115	 0.122844
H	-2.2260026763	-2.2386260439	 1.3955621664	 0.108407
H	-0.3955769772	-2.1691037101	-0.3603291461	 0.093864
H	-1.691151736	-0.4811210845	-2.0070897689	 0.118511
H	-2.9235234057	-1.3460460012	-1.0413836708	 0.108151
H	-2.85493629	 1.3365766454	-0.4937929766	 0.087748
112.055	197.7485	240.6192	270.6607	375.3869	433.4963	468.716	504.6997	570.8111	732.0734	743.518	772.9079	833.8186	847.7309	878.5194	918.5408	942.193	961.5291	965.5655	980.8714	1018.0409	1054.2002	1076.233	1089.7299	1145.5664	1172.3287	1201.0866	1206.3898	1248.0593	1284.6326	1304.5908	1313.6429	1328.5113	1364.1363	1373.8006	1414.4778	1491.1157	1497.0513	1501.8168	1505.625	1893.8398	3035.5032	3038.602	3061.4478	3067.984	3100.4872	3107.0829	3121.3632	3123.8705	3131.4803	3151.9008
CC1CC2CC1OC2=O	C[C@@H]1C[C@H]2C[C@@H]1OC2=O	
InChI=1S/C7H10O2/c1-4-2-5-3-6(4)9-7(5)8/h4-6H,2-3H2,1H3	InChI=1S/C7H10O2/c1-4-2-5-3-6(4)9-7(5)8/h4-6H,2-3H2,1H3/t4-,5+,6+/m1/s1
