19
gdb 4161	3.6200052	1.5043462	1.3780256	2.9307	72.78	-0.2512	0.08868	0.33987999999999996	996.6623	0.1591	-422.549784	-422.542712	-422.541768	-422.580958	28.752	
C	 1.3020442832	 1.3939022574	 0.0072015395	-0.417306
C	 1.9656189375	 0.0182080326	-0.0572397443	 0.041716
C	 1.5375746987	-0.9274348416	 1.1191825232	-0.245419
C	 0.8766283069	-2.0994747626	 0.3489864834	 0.021982
O	 0.2897506102	-1.437305053	-0.7739379113	-0.24176
C	 1.4781185228	-0.8207717147	-1.2750945409	 0.006784
C	 2.4416616362	-2.0097003327	-1.3979664553	 0.029221
O	 1.7959690909	-3.2581184948	-1.6508860529	-0.241954
C	 2.0312292053	-2.8822354345	-0.2949496067	 0.034755
H	 1.5642849867	 1.916090157	 0.9331924459	 0.114049
H	 1.611154498	 2.0260708258	-0.8322186964	 0.11217
H	 0.2126573405	 1.291469137	-0.0265838467	 0.131819
H	 3.054540659	 0.1371961576	-0.0833273626	 0.071541
H	 2.3825109589	-1.2498669396	 1.7346217633	 0.099767
H	 0.8110799953	-0.4370774688	 1.7721721338	 0.107115
H	 0.1170061526	-2.6718568642	 0.8802590939	 0.086922
H	 1.2500312658	-0.2631000271	-2.1836220121	 0.083363
H	 3.4623152975	-1.8945166834	-1.749039133	 0.102742
H	 2.7054780742	-3.5020701106	 0.287763399	 0.102494
128.0581	244.2209	265.4437	315.1869	361.5162	438.8527	475.109	625.5324	664.312	781.6432	796.8783	833.6234	858.2249	876.9835	894.1258	911.6934	947.4326	953.2807	960.7182	981.4672	1018.4407	1030.4417	1064.2379	1073.7159	1110.1158	1123.2855	1201.7107	1221.5062	1239.0704	1246.8087	1269.9648	1293.3142	1296.1954	1318.3571	1342.7934	1367.605	1404.8864	1419.406	1490.5733	1496.0342	1504.1348	3030.202	3039.3752	3058.9687	3096.5497	3104.2616	3109.3296	3121.1	3128.9453	3161.4925	3174.4428
CC1CC2OC1C1OC21	C[C@H]1C[C@H]2O[C@@H]1[C@@H]1O[C@H]21	
InChI=1S/C7H10O2/c1-3-2-4-6-7(9-6)5(3)8-4/h3-7H,2H2,1H3	InChI=1S/C7H10O2/c1-3-2-4-6-7(9-6)5(3)8-4/h3-7H,2H2,1H3/t3-,4+,5-,6+,7-/m0/s1
