19
gdb 1087	3.2162351	1.3457032	1.2174996	2.0937	75.02	-0.2431	-0.01833	0.22477000000000003	1099.3881	0.156598	-422.563636	-422.555213	-422.554269	-422.597542	31.54	
C	-0.3081225936	-0.0011560032	-5.7667072666	-0.480079
C	 0.6764870688	-0.6905537936	-4.8513822734	 0.256654
O	 1.1690870481	-1.7717594389	-5.0861381658	-0.313681
C	 1.0437035098	 0.0304178469	-3.5790071518	 0.344945
C	 0.5723099644	-0.4510254454	-2.1814165209	-0.257036
C	 0.7896458287	 1.0565335535	-1.9371555694	 0.066848
C	 2.320257838	 1.228729999	-2.033203421	-0.222958
C	 2.5311679653	 0.4009506702	-3.3403245481	-0.250876
O	 0.3673511803	 1.3032017968	-3.3179294877	-0.334014
H	-0.4769943587	-0.6090158516	-6.6560626084	 0.136366
H	-1.2495019717	 0.1744285986	-5.2356468919	 0.150953
H	 0.0695552997	 0.9892030041	-6.0441856414	 0.150254
H	-0.4835695214	-0.7230704064	-2.1787845382	 0.113586
H	 1.1809790094	-1.1815934353	-1.6447849296	 0.107921
H	 0.2329645114	 1.6291737802	-1.1959675357	 0.083029
H	 2.5961028349	 2.2783029652	-2.1510901265	 0.111624
H	 2.8490080081	 0.8218062815	-1.1674214586	 0.104171
H	 2.9240863244	 1.0014991345	-4.1630924918	 0.110192
H	 3.158783384	-0.4833337061	-3.2187224831	 0.1221
26.5083	131.341	167.2529	179.7706	290.2779	342.3699	414.6544	487.0934	544.038	594.1285	606.7071	706.0069	826.2316	831.937	845.5602	875.3835	910.3343	938.8576	958.5558	969.8842	1000.8162	1022.2502	1032.1136	1096.1621	1104.3175	1147.1051	1156.0973	1211.187	1227.1927	1233.0438	1284.3787	1302.0553	1307.3386	1346.9229	1384.9204	1453.2226	1462.8941	1481.5389	1482.9545	1507.1542	1803.2943	3042.5761	3069.0506	3076.3015	3081.8099	3103.2236	3117.223	3128.8875	3136.6044	3149.8413	3157.4545
CC(=O)C12CC(CC1)O2	CC(=O)[C@@]12C[C@@H](CC1)O2	
InChI=1S/C7H10O2/c1-5(8)7-3-2-6(4-7)9-7/h6H,2-4H2,1H3	InChI=1S/C7H10O2/c1-5(8)7-3-2-6(4-7)9-7/h6H,2-4H2,1H3/t6-,7+/m1/s1
