19
gdb 5507	3.7504975	0.8727153	0.7590814	3.068	76.97	-0.2401	-0.03422	0.20588	1515.1822	0.154661	-422.518188	-422.508993	-422.508049	-422.553075	32.81	
C	 1.1262188436	-0.3047264393	 1.1317590723	-0.371521
C	 1.2684606556	 0.2751876845	-0.2804460503	-0.219636
C	 1.8181599003	-0.7240735027	-1.2797756299	-0.035043
C	 1.454649926	-0.5599856492	-2.7198031909	 0.074307
O	 2.1866951432	-1.4769929796	-3.5425986959	-0.301935
C	 1.5526205015	-2.6060405829	-2.8848168797	 0.012602
C	 0.6111522308	-3.3195447279	-3.8371248729	 0.141884
O	 0.2256605806	-4.4464635607	-3.6702586716	-0.241131
C	 0.8152219938	-1.6735485478	-1.9174838496	-0.137718
H	 0.4433267981	-1.1602635964	 1.14204163	 0.121237
H	 2.093170092	-0.6485014638	 1.5141340328	 0.120048
H	 0.7390949437	 0.4449593613	 1.8283288485	 0.116062
H	 0.2932666913	 0.6394068533	-0.6293432437	 0.098122
H	 1.929083871	 1.1508079462	-0.2551937751	 0.107615
H	 2.8153424901	-1.1053532422	-1.0631063155	 0.093602
H	 1.067569467	 0.3410506269	-3.1818320803	 0.109737
H	 2.2688519884	-3.3163323737	-2.4571305795	 0.108599
H	 0.2900962307	-2.6936176923	-4.6992766062	 0.091238
H	-0.1940915177	-1.8102971835	-1.5531101824	 0.111931
50.9806	86.8947	129.3431	153.9833	200.2925	237.3902	329.4245	370.739	432.047	463.6447	522.9943	754.0073	803.8593	822.465	882.9424	904.1474	941.9262	966.8976	985.9131	1004.4961	1035.056	1050.9098	1063.0312	1076.8863	1103.9308	1132.1075	1138.4624	1205.6236	1211.8613	1255.7396	1271.2613	1295.4758	1314.731	1362.627	1397.3552	1412.1571	1428.1843	1485.7459	1497.3606	1506.6394	1834.3192	2892.8946	3019.5414	3035.8781	3051.4837	3057.2965	3104.0176	3109.3599	3115.9138	3179.1832	3204.6284
CCC1C2OC(C=O)C12	CC[C@@H]1[C@H]2O[C@H](C=O)[C@@H]12	
InChI=1S/C7H10O2/c1-2-4-6-5(3-8)9-7(4)6/h3-7H,2H2,1H3	InChI=1S/C7H10O2/c1-2-4-6-5(3-8)9-7(4)6/h3-7H,2H2,1H3/t4-,5+,6+,7+/m0/s1
