19
gdb 4464	2.7758507	1.67355	1.2892833	1.9634	74.01	-0.24735	0.06786	0.31521	1027.701	0.158052	-422.527664	-422.519915	-422.518971	-422.559529	30.863	
O	-0.7035897304	 0.4281020417	 0.6799859317	-0.43553
C	-2.0908927147	 0.2488191701	 0.4711330725	 0.046857
C	-2.9852099411	 1.1282938288	 1.418731966	-0.241345
C	-4.3206120821	 1.4198179568	 0.6737438088	-0.324629
C	-3.9014547866	 1.3122570538	-0.7721427227	 0.330052
C	-4.4303201538	 0.6843679386	-2.077020292	-0.30218
C	-3.0506911003	-0.067686888	-2.2060631191	-0.309128
C	-2.6184964207	 0.6153851394	-0.8948723068	 0.291247
O	-2.7083450758	 2.0378419924	-1.0961856955	-0.31785
H	-0.497018747	 1.3299117696	 0.4074946434	 0.285688
H	-2.2738006853	-0.8168179724	 0.6525108632	 0.092071
H	-3.1411471864	 0.6402064372	 2.3834447083	 0.10616
H	-2.4503989575	 2.0622489375	 1.6102573999	 0.111827
H	-5.0719046716	 0.6507504148	 0.8878714183	 0.107331
H	-4.7539626665	 2.3858429162	 0.9517546882	 0.111538
H	-5.2644826055	-0.0021071718	-1.9146370263	 0.10947
H	-4.6906840787	 1.3915230057	-2.8671890896	 0.112911
H	-3.1570539882	-1.1504644214	-2.1079546183	 0.111863
H	-2.4366567478	 0.1582739009	-3.0801448701	 0.113647
109.5986	203.505	239.0809	273.2964	319.3456	384.9961	459.472	474.9801	565.905	602.8542	666.2063	725.6558	742.6089	766.2672	838.9196	893.341	924.4521	940.3218	951.7232	968.1364	1010.0451	1032.5744	1088.5461	1111.7626	1162.7286	1180.8324	1212.2405	1218.9537	1224.4642	1228.7844	1267.1107	1279.0262	1323.986	1337.3552	1346.0904	1424.4349	1436.3125	1465.6331	1477.7423	1488.6755	1494.5804	3040.8041	3048.1427	3066.8407	3067.9356	3073.5103	3081.3287	3117.9499	3118.0832	3134.3464	3793.2843
OC1CCC23CCC12O3	O[C@H]1CC[C@]23CC[C@]12O3	
InChI=1S/C7H10O2/c8-5-1-2-6-3-4-7(5,6)9-6/h5,8H,1-4H2	InChI=1S/C7H10O2/c8-5-1-2-6-3-4-7(5,6)9-6/h5,8H,1-4H2/t5-,6-,7-/m0/s1
