19
gdb 3883	2.5903237	1.664219	1.2409009	2.2053	75.32	-0.23241	0.08704	0.31945	1066.3412	0.156301	-422.526692	-422.518602	-422.517658	-422.559146	31.505	
C	 0.5804615738	 0.008534312	-0.480136294	-0.403312
C	 0.9779445509	-0.3917060663	 0.9395760346	 0.076928
O	 2.4005278855	-0.5500665881	 1.071034384	-0.311423
C	 2.7409032749	-1.9187979138	 1.0172913358	 0.455202
C	 3.6843980108	-2.4094180268	-0.0533856794	-0.337001
C	 4.1383788944	-2.2856273556	 1.3912946894	-0.329811
C	 1.5151102431	-2.6877445146	 1.3843358334	-0.075863
O	 0.895586812	-2.2179781247	 2.5914264467	-0.25891
C	 0.4008504687	-1.7387835039	 1.3391560448	 0.029687
H	 0.8315153786	-0.7806045849	-1.1960585035	 0.121848
H	-0.4960852495	 0.2017041987	-0.5421855512	 0.115605
H	 1.1099575226	 0.9187252517	-0.7724865622	 0.130841
H	 0.6909792125	 0.3930263314	 1.649394466	 0.095089
H	 3.5399163344	-3.4001036413	-0.4732761988	 0.11078
H	 4.0469480469	-1.6643039976	-0.7522501655	 0.123326
H	 4.3003355219	-3.1888492725	 1.9692349678	 0.120263
H	 4.8017092918	-1.4638545282	 1.6358371793	 0.130051
H	 1.4285258804	-3.7496524575	 1.1738942263	 0.10497
H	-0.6210143437	-2.006055788	 1.0832465464	 0.101727
85.0365	163.7125	225.6894	270.2197	283.1671	309.9864	405.0488	464.0536	514.273	577.5342	723.3266	763.4963	818.2187	846.3425	854.085	869.2624	892.1474	925.0589	940.7066	964.7235	994.0272	1008.304	1055.3967	1068.3632	1074.702	1091.4765	1129.913	1139.7681	1189.2923	1238.8693	1255.7499	1279.5632	1348.4992	1353.8707	1383.8516	1402.0646	1441.543	1451.209	1488.4665	1495.6689	1501.1406	3036.2996	3042.2414	3106.5774	3123.9551	3127.3248	3137.9064	3149.5836	3164.9739	3216.412	3231.6242
CC1OC2(CC2)C2OC12	C[C@@H]1OC2(CC2)[C@H]2O[C@@H]12	
InChI=1S/C7H10O2/c1-4-5-6(8-5)7(9-4)2-3-7/h4-6H,2-3H2,1H3	InChI=1S/C7H10O2/c1-4-5-6(8-5)7(9-4)2-3-7/h4-6H,2-3H2,1H3/t4-,5-,6-/m0/s1
