19
gdb 2931	3.3887656	1.3683739	1.1296813	1.2179	74.99	-0.23699	0.07191	0.3089	1104.4103	0.156662	-422.504984	-422.496706	-422.495762	-422.537374	31.864	
C	-2.2849843026	-1.1829679028	-0.7131986303	-0.507984
C	-2.1283314714	-0.3013624569	 0.4914593173	 0.340399
C	-0.8510905181	 0.4300970066	 0.7988147327	 0.036626
O	 0.2503018901	 0.0001912999	 0.0514144461	-0.433634
C	-1.3862257426	-0.529059497	 1.8359521519	-0.186422
C	-2.509365731	 0.1503082637	 2.5909238117	 0.110648
O	-3.5398374457	-0.7547702959	 3.0300578417	-0.293904
C	-4.3190910977	-0.5296025679	 1.8351055004	-0.084764
C	-3.2578224929	 0.4112407537	 1.2354275502	-0.16954
H	-2.9818281793	-2.0064923079	-0.5248767494	 0.117817
H	-2.6693510921	-0.6096672688	-1.565805408	 0.118103
H	-1.321009217	-1.6058320796	-1.0031956335	 0.141552
H	-0.8713731581	 1.5075873287	 0.9876019233	 0.077705
H	 1.0210041941	 0.0022999925	 0.628091313	 0.290721
H	-0.8076191395	-1.3843163872	 2.1666816797	 0.093048
H	-2.2717697896	 0.9009248034	 3.3511749273	 0.074892
H	-4.5236494666	-1.4568618033	 1.286361901	 0.101828
H	-5.2723475134	-0.0399134113	 2.0714335479	 0.100131
H	-3.5901397367	 1.3865773902	 0.8742463171	 0.072777
139.7688	183.0292	189.4771	250.4131	257.9472	288.5514	343.3067	416.2194	446.9323	527.0907	639.0835	710.6033	805.3476	827.0566	884.9723	902.6224	940.5172	982.5523	1004.9888	1016.4865	1030.6624	1043.0431	1073.8353	1083.4302	1119.6519	1143.1368	1164.8877	1187.4805	1204.6163	1222.2122	1254.0304	1285.4089	1313.2241	1315.7424	1355.2505	1366.0019	1415.1648	1451.9198	1492.5263	1495.1135	1522.6746	3011.4035	3027.5654	3044.6255	3053.814	3057.2336	3083.4838	3088.2975	3130.8678	3180.0298	3811.0792
CC12C(O)C1C1OCC21	C[C@]12[C@H](O)[C@H]1[C@@H]1OC[C@H]21	
InChI=1S/C7H10O2/c1-7-3-2-9-5(3)4(7)6(7)8/h3-6,8H,2H2,1H3	InChI=1S/C7H10O2/c1-7-3-2-9-5(3)4(7)6(7)8/h3-6,8H,2H2,1H3/t3-,4+,5+,6+,7+/m0/s1
