19
gdb 2390	2.6536162	1.4402412	1.2369031	1.9211	74.25	-0.23962	-0.02017	0.21945	1080.9339	0.156789	-422.58513	-422.576884	-422.57594	-422.618217	32.017	
O	-3.0453240013	-1.3838831004	 0.9993887545	-0.48441
C	-2.2734443373	-0.7608006907	-0.0014077814	 0.423911
C	-3.005183983	-0.768344487	-1.3612069312	-0.260525
C	-2.6479978249	 0.730449394	-1.5547256674	-0.240204
C	-2.2259142241	 0.8208175809	-0.0579800039	-0.0688
C	-0.7983098043	 1.2715874845	 0.2229029942	-0.34395
C	 0.0630108874	 0.0576467023	-0.1501251678	 0.391114
O	 1.219220957	 0.084753061	-0.4803461846	-0.304236
C	-0.7996849906	-1.2083097932	-0.0311599845	-0.404925
H	-2.5749096142	-1.3262515411	 1.8381398109	 0.271991
H	-2.6530855845	-1.4782702292	-2.1137817218	 0.10097
H	-4.074262075	-0.9224811428	-1.2000121673	 0.117809
H	-1.8047907426	 0.8861660271	-2.2348646102	 0.108302
H	-3.4607098096	 1.3875447615	-1.8688856679	 0.108336
H	-2.9832007083	 1.2895295048	 0.5718786423	 0.076319
H	-0.4712465884	 2.1592741266	-0.3249714197	 0.128886
H	-0.6405206521	 1.4741022357	 1.2918586798	 0.121339
H	-0.5547437454	-1.9173923292	-0.826053018	 0.135048
H	-0.5342408888	-1.6999254347	 0.9145788239	 0.123025
48.552	109.6981	252.7281	297.7292	340.0687	363.0392	409.8669	435.3947	488.5514	565.392	606.0428	651.2754	735.951	769.0509	803.4454	821.2396	875.2967	905.0385	949.9761	965.3066	1023.2156	1046.9822	1064.3319	1110.3146	1131.0647	1149.3846	1182.8087	1208.3284	1218.8889	1241.9832	1254.7451	1266.6558	1285.9366	1312.799	1341.3571	1379.1924	1439.4024	1453.1285	1479.7817	1501.7354	1846.6031	3018.5693	3029.0215	3056.9475	3065.5928	3097.4072	3099.3191	3100.9296	3112.6622	3128.225	3800.9791
OC12CCC1CC(=O)C2	O[C@@]12CC[C@@H]1CC(=O)C2	
InChI=1S/C7H10O2/c8-6-3-5-1-2-7(5,9)4-6/h5,9H,1-4H2	InChI=1S/C7H10O2/c8-6-3-5-1-2-7(5,9)4-6/h5,9H,1-4H2/t5-,7-/m1/s1
