19
gdb 2663	2.174827	1.6568047	1.0997901	1.4986	77.14	-0.2351	-0.02452	0.21058	1144.2219	0.155176	-422.553234	-422.543797	-422.542853	-422.587873	34.347	
C	-1.0202043234	 2.0266940279	 1.2859584833	-0.401171
C	-1.128447613	 1.1456891995	 0.044362197	-0.163376
C	-2.2278971688	 0.0107157732	 0.0390544313	 0.01408
O	-3.0729428131	-0.0931949067	 1.1605871787	-0.420005
C	-1.1092112919	-1.0386265807	-0.0973784729	 0.188499
C	-1.0750349775	-2.3439873424	-0.858824394	-0.316762
C	-1.0071681309	-2.3678206725	 0.6308780602	-0.312479
C	-0.0631359404	 0.0357993579	-0.1032565294	 0.343468
O	 1.1353663216	 0.0314617572	-0.1815790162	-0.322476
H	-0.9209833631	 1.4341091202	 2.2019180373	 0.105618
H	-0.1360092124	 2.6661726245	 1.2171923671	 0.138028
H	-1.9043278091	 2.6613171455	 1.3924593279	 0.132846
H	-1.1769187562	 1.7694925052	-0.8553344715	 0.10182
H	-2.8968222417	 0.0678795175	-0.8229394779	 0.095285
H	-2.5251899362	-0.2423915164	 1.9387834261	 0.281771
H	-1.997711797	-2.6530355294	-1.3387766073	 0.128821
H	-0.1689625827	-2.5495474623	-1.4193928864	 0.136984
H	-1.8906350215	-2.6749199898	 1.1813010826	 0.131543
H	-0.0576962227	-2.5925248082	 1.1048802442	 0.137505
33.34	162.8928	172.7787	185.4872	208.3103	213.952	248.7154	300.9483	361.275	499.6639	559.1758	596.8787	706.8454	731.8479	792.7503	801.4493	837.4248	892.3919	937.4215	949.5115	1012.9076	1032.345	1053.7454	1073.6974	1090.5775	1127.876	1135.657	1181.8545	1202.9146	1240.4556	1255.4271	1286.045	1318.1992	1363.9923	1406.4293	1435.3617	1456.4472	1487.9664	1490.1407	1498.1992	1872.0741	3037.3307	3047.9312	3085.4511	3102.8372	3122.5106	3129.4263	3130.6537	3213.9221	3228.7374	3809.5187
CC1C(O)C2(CC2)C1=O	C[C@@H]1[C@H](O)C2(CC2)C1=O	
InChI=1S/C7H10O2/c1-4-5(8)7(2-3-7)6(4)9/h4-5,8H,2-3H2,1H3	InChI=1S/C7H10O2/c1-4-5(8)7(2-3-7)6(4)9/h4-5,8H,2-3H2,1H3/t4-,5+/m1/s1
