19
gdb 4663	2.2722682	1.3815259	0.9299233	1.922	77.77	-0.2504	-0.0279	0.2225	1285.2762	0.154064	-422.577425	-422.56764	-422.566696	-422.613204	34.744	
C	 0.7369640646	-0.7462479972	 0.5078132949	-0.383512
C	 0.5173942911	 0.7239349437	 0.1602333584	-0.277774
C	 1.7539135419	 1.3878432304	-0.4090968762	 0.292021
O	 2.7940806136	 0.7781693581	-0.5575713245	-0.326513
C	 1.7023804799	 2.8489352227	-0.8063185237	 0.143589
C	 3.0351639211	 3.6118603222	-0.6350803938	-0.278549
C	 2.6173429569	 3.2282322363	-1.9922733515	-0.278584
C	 0.4943160583	 3.7000234873	-0.6747751429	 0.093718
O	-0.5864126105	 3.3731950462	-0.2489882441	-0.276695
H	 1.5324060256	-0.8619822862	 1.248479267	 0.127853
H	-0.1806173278	-1.180726669	 0.913931965	 0.110543
H	 1.0311993819	-1.3205048801	-0.3744415067	 0.127841
H	-0.3005018216	 0.857270923	-0.557981542	 0.138014
H	 0.1900162031	 1.3059292152	 1.0301316223	 0.13798
H	 2.9643697273	 4.6504984458	-0.3311434139	 0.130653
H	 3.8126039362	 3.0267757125	-0.1597214635	 0.157035
H	 2.2447434401	 3.9898444297	-2.6684974704	 0.130636
H	 3.1068895543	 2.3788237592	-2.4522033008	 0.157042
H	 0.669236104	 4.7455602303	-1.0246940238	 0.074703
23.2558	88.4519	117.8609	181.2596	207.4304	252.8157	281.8875	314.3172	351.4743	369.0412	486.725	571.2387	622.449	751.1618	767.0721	792.1913	817.5506	922.8147	933.3438	969.9891	1003.4908	1050.3697	1058.2374	1074.2461	1091.6599	1108.5691	1126.7182	1210.2676	1272.9142	1277.4881	1321.7016	1384.9608	1414.0328	1420.8889	1445.3763	1454.2751	1478.641	1494.0701	1498.5167	1771.8874	1815.4132	2844.5051	3047.0507	3051.3733	3068.8454	3122.9436	3125.9599	3142.7069	3143.209	3236.3224	3249.1811
CCC(=O)C1(CC1)C=O	CCC(=O)C1(CC1)C=O	
InChI=1S/C7H10O2/c1-2-6(9)7(5-8)3-4-7/h5H,2-4H2,1H3	InChI=1S/C7H10O2/c1-2-6(9)7(5-8)3-4-7/h5H,2-4H2,1H3
