19
gdb 5672	1.9088445	1.3372489	0.8569107	3.013	78.69	-0.24109	0.05228	0.29337	1351.4156	0.154582	-422.5132	-422.503279	-422.502335	-422.548246	36.213	
O	 1.4493704395	 0.1594624645	-0.7658684577	-0.413422
C	 0.2059181969	 0.1662800716	-0.086456724	-0.097422
C	-0.8912080367	 0.3631440038	-1.1104748788	 0.03302
C	-2.3419988988	 0.552487902	-0.5958528351	-0.316674
C	-2.5536266954	 1.6115553385	-1.7077786753	 0.154587
O	-3.347014574	 2.7393533028	-1.475047644	-0.426672
C	-0.996431022	 1.7557485501	-1.8213286301	-0.215562
C	-0.4029370704	 1.9578170025	-3.123310949	 0.31159
C	 0.0519842347	 2.1110018625	-4.2261223222	-0.44333
H	 2.1506404976	 0.0493131113	-0.1171530971	 0.288435
H	 0.0344371117	-0.7799880508	 0.4540387024	 0.088209
H	 0.159380722	 0.978489483	 0.6594228755	 0.076563
H	-0.8351504917	-0.4300398109	-1.8607566358	 0.096057
H	-3.0070209331	-0.3127661501	-0.5790537216	 0.109474
H	-2.3530053354	 1.0236156402	 0.3952768684	 0.090466
H	-2.9461797355	 1.1511793166	-2.617964765	 0.10768
H	-3.0324130614	 3.170734375	-0.6733926466	 0.277932
H	-0.6631069645	 2.5345035558	-1.1215453069	 0.088117
H	 0.4674665565	 2.2477905816	-5.193337797	 0.190951
63.5833	88.8372	128.1478	167.8166	212.0725	262.8946	296.2498	354.8137	383.9031	414.0902	433.1556	511.6406	533.6488	598.6514	614.8242	625.242	815.7806	856.273	906.0776	968.1498	1035.03	1050.4884	1069.5874	1079.1024	1092.198	1115.5242	1156.423	1173.8418	1229.3219	1234.8979	1249.1182	1265.1932	1289.8818	1320.3827	1346.5381	1379.745	1436.2742	1463.3823	1488.9698	1518.5249	2234.1768	2947.5352	2974.6672	3011.3586	3032.8354	3081.0088	3087.6223	3117.32	3506.	3806.137	3830.1139
OCC1CC(O)C1C#C	OC[C@H]1C[C@@H](O)[C@@H]1C#C	
InChI=1S/C7H10O2/c1-2-6-5(4-8)3-7(6)9/h1,5-9H,3-4H2	InChI=1S/C7H10O2/c1-2-6-5(4-8)3-7(6)9/h1,5-9H,3-4H2/t5-,6-,7-/m1/s1
