19
gdb 484	3.523941	1.2559352	1.2256851	2.2038	74.29	-0.2304	0.0665	0.2969	1096.5372	0.158464	-422.511178	-422.503457	-422.502513	-422.543672	29.155	
C	 1.1322454346	 2.6711645709	-0.3652346635	-0.150531
O	 0.0244481166	 3.1310245266	-1.1692282634	-0.277943
C	-0.5455948221	 1.8053159236	-1.2442709928	-0.145285
C	 0.5761951855	 1.2512468705	-0.3721366548	 0.2479
C	 1.3540303785	-0.0427317279	-0.4340759609	-0.170317
C	 0.681031568	-1.2472657179	-1.0739320926	-0.247912
C	-0.7102761093	-1.272003891	-0.3997512096	-0.087632
O	-0.5875828373	-0.5852563862	 0.8490411034	-0.257201
C	 0.5110909591	 0.2846099543	 0.7717178679	 0.038934
H	 2.0950467776	 2.8083094271	-0.8766365089	 0.099506
H	 1.1702160959	 3.1729833218	 0.6110979045	 0.103387
H	-1.5511587065	 1.7642344291	-0.8070160161	 0.113316
H	-0.5839751455	 1.4332577134	-2.2773422465	 0.099808
H	 2.4378599297	 0.0021676729	-0.4073548652	 0.091601
H	 0.5961331666	-1.1851116995	-2.1630434506	 0.109626
H	 1.2539764492	-2.1486421208	-0.8339734976	 0.113517
H	-1.4545905403	-0.769357491	-1.0321784394	 0.10441
H	-1.0748720539	-2.2817377387	-0.1921158788	 0.112617
H	 0.9041019337	 0.5417292129	 1.7496669948	 0.102199
89.8309	152.3132	166.1676	204.0388	260.2893	396.9165	456.7686	590.7629	691.485	706.5163	827.0645	844.6818	855.9245	881.773	927.9187	963.6331	978.3885	985.5422	999.1494	1030.8503	1041.6781	1068.4865	1120.5253	1122.8857	1141.9837	1153.3569	1167.0804	1180.6576	1217.6252	1235.358	1274.3949	1297.6015	1309.2014	1313.8595	1374.0542	1393.2453	1453.7196	1495.8342	1509.7075	1529.3292	1534.6816	2991.0195	3002.2333	3010.253	3035.1477	3044.6137	3049.3841	3081.8414	3096.2688	3160.1524	3172.033
C1OCC11C2CCOC12	C1OCC21[C@@H]1CCO[C@H]21	
InChI=1S/C7H10O2/c1-2-9-6-5(1)7(6)3-8-4-7/h5-6H,1-4H2	InChI=1S/C7H10O2/c1-2-9-6-5(1)7(6)3-8-4-7/h5-6H,1-4H2/t5-,6+/m1/s1
