19
gdb 1988	2.4825784	1.8882153	1.3951249	2.8126	74.6	-0.23677	0.06318	0.29995	998.8925	0.155291	-422.499173	-422.490833	-422.489889	-422.53142	32.312	
C	 2.7151706461	-1.3813796783	 0.4866707323	-0.518118
C	 2.3991858114	 0.0782899054	 0.5475648696	 0.37411
O	 3.1236615216	 0.8772746989	 1.4888143032	-0.27149
C	 3.1228617491	 1.299478436	 0.12258027	-0.067078
C	 1.810037557	 2.0772966134	-0.1246082585	-0.185936
C	 1.1486534482	 2.7069163412	 1.1204583753	-0.089639
O	 0.4638991726	 1.4683029344	 1.4406898686	-0.324232
C	 1.0238300032	 0.8051354936	 0.2894462114	 0.394816
C	 0.0080063201	 0.0861053256	-0.5578170124	-0.487992
H	 2.2777235096	-1.9059249419	 1.3436061107	 0.138295
H	 2.318113579	-1.8364731701	-0.4257701585	 0.12462
H	 3.7974918331	-1.5349018836	 0.5121240574	 0.135212
H	 4.0875340183	 1.4261806156	-0.3572435893	 0.102544
H	 1.6856901336	 2.5486201677	-1.0982082729	 0.083045
H	 1.8249803325	 3.0198670215	 1.9203664576	 0.115675
H	 0.4313471379	 3.5049712461	 0.8964838817	 0.096821
H	-0.4363079111	-0.7432524448	 0.0039957817	 0.132337
H	-0.7961127647	 0.7655316192	-0.8535237605	 0.127539
H	 0.4693684124	-0.3238491398	-1.4624077875	 0.119472
151.0928	185.8899	211.1771	231.072	259.2849	275.4509	343.8965	384.9057	503.5873	548.0487	603.8117	664.0319	779.4307	813.817	818.0947	853.8956	883.7821	901.319	971.8969	989.7742	1003.4315	1030.9149	1063.5229	1085.2059	1103.9457	1136.173	1159.2813	1166.9656	1223.0913	1252.8137	1290.2982	1303.596	1348.3835	1399.3442	1407.4628	1446.4189	1478.4325	1483.8132	1486.9738	1495.1659	1505.659	3029.3306	3032.2085	3036.1098	3094.6596	3098.4596	3101.2769	3114.8797	3119.9403	3128.9622	3173.721
CC12OC1C1COC21C	C[C@@]12O[C@@H]1[C@@H]1CO[C@]21C	
InChI=1S/C7H10O2/c1-6-4(3-8-6)5-7(6,2)9-5/h4-5H,3H2,1-2H3	InChI=1S/C7H10O2/c1-6-4(3-8-6)5-7(6,2)9-5/h4-5H,3H2,1-2H3/t4-,5+,6-,7+/m0/s1
