19
gdb 5633	2.3872294	1.6932402	1.1175231	2.6096	75.91	-0.24238	0.0151	0.25748	1102.6557	0.157535	-422.548238	-422.539992	-422.539048	-422.581324	31.636	
O	 1.1190033825	 0.480735407	-0.659573846	-0.431293
C	-0.0591487077	 0.033575461	-0.0191903084	-0.062071
C	-1.1840432267	-0.2980360684	-1.0214089461	-0.158869
C	-2.4554130829	-0.764354198	-0.3553237554	-0.076298
C	-3.5094009632	-0.0037306156	-0.6477415291	-0.079309
C	-3.1694517462	 1.1149806781	-1.5986390992	-0.341212
C	-1.6634817635	 0.9310397165	-1.8234264158	 0.415493
C	-0.969413817	 1.4237838315	-3.0160947817	-0.243294
O	-0.8530024413	 2.1265576734	-1.7678082353	-0.283914
H	 0.8893020512	 1.3444653329	-1.0273524777	 0.293515
H	 0.2041669517	-0.8731239646	 0.5366903531	 0.10276
H	-0.4292093644	 0.7702127132	 0.7098558502	 0.092446
H	-0.7869274619	-1.0621690352	-1.7033003189	 0.090444
H	-2.4723158167	-1.6265146789	 0.3027288886	 0.098765
H	-4.5138048488	-0.1559076754	-0.269075817	 0.09924
H	-3.7354285894	 1.0455178157	-2.5366774196	 0.114095
H	-3.3739118079	 2.1092032578	-1.1828426959	 0.127957
H	-0.0602219606	 0.9257951972	-3.3495554153	 0.124856
H	-1.5250918371	 1.9536859117	-3.7884918104	 0.116689
48.4324	159.8118	193.2591	243.3119	320.062	357.6406	400.3868	433.6425	539.1292	549.403	597.2309	709.065	753.6613	784.5764	814.9915	897.4385	933.2368	970.2689	977.9835	991.7457	1017.9026	1033.431	1073.8336	1079.1485	1129.0877	1137.6836	1168.1237	1173.4841	1215.1568	1223.0988	1264.5591	1290.2668	1326.2123	1375.7401	1388.8447	1421.7052	1444.2432	1476.9332	1502.9682	1521.306	1688.401	2989.8142	3013.7073	3021.0919	3053.8211	3066.8367	3082.9964	3173.5654	3182.7277	3207.7557	3754.9098
OCC1C=CCC11CO1	OC[C@H]1C=CC[C@@]21CO2	
InChI=1S/C7H10O2/c8-4-6-2-1-3-7(6)5-9-7/h1-2,6,8H,3-5H2	InChI=1S/C7H10O2/c8-4-6-2-1-3-7(6)5-9-7/h1-2,6,8H,3-5H2/t6-,7+/m1/s1
