19
gdb 3691	3.8734382	1.030576	0.9364342	2.2887	78.95	-0.22406	0.02036	0.24442	1285.4904	0.15635	-422.550477	-422.541648	-422.540704	-422.584099	33.654	
O	-4.7173045891	 0.4131877997	 2.8098063704	-0.419824
C	-3.3980404025	 0.5800622638	 3.2412817101	 0.057967
C	-2.817720614	 1.9654497726	 3.3407964515	-0.385071
C	-2.3966838166	 1.0373434832	 2.210592413	 0.305848
C	-0.9877527808	 0.4406637313	 2.1177074168	-0.343346
C	-0.7969441029	 0.0635777856	 0.619434239	 0.071515
O	 0.4445746678	 0.4994410397	 0.072339567	-0.43397
C	-1.9382367205	 0.7720871818	-0.0644746331	-0.092857
C	-2.8113004094	 1.2798393905	 0.8039477406	-0.112399
H	-5.2998031392	 0.7162737584	 3.5143493359	 0.287777
H	-3.0534191484	-0.1638823201	 3.9617463735	 0.08277
H	-3.4710629555	 2.7929177187	 3.0821152048	 0.113556
H	-2.0984299586	 2.1765162256	 4.1262308001	 0.110196
H	-0.2365477032	 1.2004169504	 2.3584083764	 0.112178
H	-0.840847322	-0.4070083382	 2.7940578377	 0.092063
H	-0.8921848725	-1.0254720971	 0.4739227786	 0.070504
H	 1.1342296034	-0.0826583795	 0.4062464722	 0.280157
H	-2.016889726	 0.8065832005	-1.1443344765	 0.098664
H	-3.7352368501	 1.786351143	 0.554751962	 0.104272
46.462	148.2966	203.0094	246.618	275.1548	292.8224	321.6837	418.1534	439.5293	455.4883	539.3506	617.5065	698.8747	790.7681	802.4351	827.4845	864.7979	885.0087	922.091	970.4893	987.2756	1007.528	1032.1437	1044.4117	1083.6564	1098.5902	1131.5863	1172.6022	1202.7338	1227.1195	1252.9121	1269.8644	1297.8682	1303.2479	1343.6359	1385.3049	1418.322	1434.7495	1481.2644	1484.663	1680.812	2952.0718	3042.5953	3080.8174	3089.3297	3119.8859	3200.6498	3211.0037	3224.735	3801.0845	3818.153
OC1CC11CC(O)C=C1	O[C@@H]1C[C@]21C[C@H](O)C=C2	
InChI=1S/C7H10O2/c8-5-1-2-7(3-5)4-6(7)9/h1-2,5-6,8-9H,3-4H2	InChI=1S/C7H10O2/c8-5-1-2-7(3-5)4-6(7)9/h1-2,5-6,8-9H,3-4H2/t5-,6-,7-/m1/s1
