19
gdb 496	3.5753761	1.3013424	1.1518275	2.5493	78.02	-0.23195	0.00501	0.23695999999999998	1122.0886	0.158077	-422.537969	-422.530058	-422.529114	-422.570728	30.052	
C	-0.0403085591	 1.3183064272	-0.7450799316	-0.067995
C	-0.0853682255	-0.1139979943	-0.1841841248	-0.348506
C	 1.3310386523	 0.196427528	 0.3704588034	 0.402701
C	 1.4089389579	 0.2296428267	 1.896470608	-0.134915
O	 2.7207920768	 0.4603082151	 2.3663905674	-0.244642
C	 3.6086229621	-0.5791602599	 2.01309752	-0.125034
C	 3.4968487575	-0.979234565	 0.5689758073	-0.085787
C	 2.4677495905	-0.6049749967	-0.187597608	-0.10244
O	 1.2824861847	 1.5359710663	-0.2176456376	-0.321547
H	-0.0640477613	 1.4024330455	-1.8383206109	 0.10298
H	-0.7726887795	 2.0183737563	-0.3241804916	 0.101655
H	-0.8441466259	-0.3010251626	 0.5792272064	 0.110307
H	-0.122336171	-0.9130151671	-0.9267199884	 0.111145
H	 0.7921709378	 1.0468018045	 2.2801171706	 0.112648
H	 1.0137572003	-0.7243743965	 2.2907423677	 0.082534
H	 4.6170983609	-0.2078557042	 2.2279375128	 0.122231
H	 3.4505267336	-1.4643130429	 2.6599016681	 0.096701
H	 4.3023119379	-1.587793574	 0.1653839326	 0.098703
H	 2.4203351399	-0.8632802764	-1.2423568314	 0.08926
72.632	96.9632	215.7538	267.5392	308.7265	389.5859	422.2346	480.6463	525.011	668.5301	732.526	780.8261	817.0591	858.9943	902.6149	930.2796	948.5421	984.2997	996.1768	1007.5734	1024.1408	1041.2663	1093.249	1131.2983	1153.7818	1162.1276	1203.7142	1213.8844	1248.7483	1262.159	1305.4825	1322.6842	1348.8272	1369.5745	1411.0853	1425.4791	1473.0036	1486.0821	1486.7101	1533.927	1717.5723	2917.1804	2942.6725	3014.9961	3051.8068	3058.456	3069.6079	3093.6579	3125.2312	3149.1986	3171.8561
C1CC2(COCC=C2)O1	C1C[C@]2(COCC=C2)O1	
InChI=1S/C7H10O2/c1-2-7(3-5-9-7)6-8-4-1/h1-2H,3-6H2	InChI=1S/C7H10O2/c1-2-7(3-5-9-7)6-8-4-1/h1-2H,3-6H2/t7-/m1/s1
