19
gdb 3545	2.3687839	1.612779	1.1987706	4.0655	75.32	-0.23469	-0.00958	0.22511	1086.2827	0.156415	-422.582966	-422.57437	-422.573425	-422.615785	33.293	
C	-2.9501001787	-1.0705286814	-1.2497020619	-0.384273
C	-2.346616456	-0.7667529365	 0.1267694087	-0.073715
C	-0.8931102042	-1.2875361284	 0.2355504139	-0.358534
C	 0.0018358104	-0.0897977279	-0.1250695241	 0.428747
O	 1.1095812483	-0.1566377597	-0.5971226836	-0.333373
C	-0.7710977812	 1.1553445141	 0.1568680867	-0.189075
C	-1.4398391757	 1.2086322712	 1.5389069076	-0.364369
C	-2.2194630784	 0.7506071055	 0.3526744345	 0.411567
O	-3.2126439186	 1.5813777732	-0.1633607074	-0.467163
H	-3.9379635656	-0.6175569823	-1.3577157698	 0.119498
H	-2.3168745928	-0.6744661924	-2.0514256322	 0.126123
H	-3.0428051567	-2.1510548708	-1.3949068308	 0.112664
H	-2.9844031074	-1.2120921283	 0.9010641987	 0.069594
H	-0.6468553004	-1.6145693316	 1.2526247354	 0.125014
H	-0.6810824249	-2.1278421518	-0.4288069469	 0.128483
H	-0.4774336888	 2.0864452496	-0.3093382501	 0.114671
H	-1.1290832126	 0.5112760679	 2.3099567386	 0.120296
H	-1.651271525	 2.2131128465	 1.8882203645	 0.126933
H	-3.9507048217	 1.5876264133	 0.4562018383	 0.28691
95.0236	134.0385	230.6288	263.4333	273.5077	346.6222	361.545	396.7606	459.4325	483.9725	533.7024	600.2862	639.591	714.6066	776.6089	833.0126	884.1538	922.5334	925.5211	959.2433	977.5988	1035.6633	1050.8286	1066.4677	1094.5174	1099.8169	1179.1382	1197.9046	1225.2024	1247.3302	1272.9574	1317.7573	1325.6145	1360.4483	1390.2203	1412.7602	1461.1219	1487.4071	1494.7903	1499.6537	1834.9823	3016.3532	3038.4121	3048.7899	3104.6902	3113.3574	3127.8634	3130.2241	3210.0909	3222.8275	3796.6808
CC1CC(=O)C2CC12O	C[C@H]1CC(=O)[C@@H]2C[C@]12O	
InChI=1S/C7H10O2/c1-4-2-6(8)5-3-7(4,5)9/h4-5,9H,2-3H2,1H3	InChI=1S/C7H10O2/c1-4-2-6(8)5-3-7(4,5)9/h4-5,9H,2-3H2,1H3/t4-,5-,7-/m0/s1
