19
gdb 1059	3.2524339	0.7149562	0.6744292	3.0506	83.78	-0.25805	-0.05016	0.20789	1754.2654	0.151877	-422.552027	-422.540774	-422.53983	-422.58987	38.859	
C	 3.1449945145	-3.3138309154	 0.2714189907	-0.477622
C	 1.6592942269	-3.017178861	 0.2881589711	 0.249029
O	 0.815886017	-3.8752560725	 0.4399823749	-0.276385
C	 1.2988479264	-1.6224132286	 0.1084614593	-0.041586
C	 0.9965392805	-0.4629861138	-0.0477302785	 0.12227
C	 0.5670848909	 0.9361890765	-0.2059755367	 0.160791
C	 0.6431189187	 1.6479834672	 1.1592561485	-0.402475
C	 1.4326975302	 1.6521483493	-1.2518900059	-0.385665
O	-0.7659654898	 0.9865062962	-0.7190031506	-0.436433
H	 3.6524804806	-2.7420370503	 1.055829442	 0.145234
H	 3.3059174363	-4.3821423623	 0.4227959448	 0.143922
H	 3.5793065204	-3.0004290061	-0.684123159	 0.147583
H	 0.0082519581	 1.1423846696	 1.8929936669	 0.12138
H	 1.666510878	 1.6587133942	 1.5445456065	 0.125885
H	 0.2929711571	 2.6770703498	 1.0416188912	 0.12925
H	 1.3635100289	 1.1378612678	-2.2126338599	 0.136169
H	 1.0674833504	 2.6751940968	-1.3761793117	 0.128636
H	 2.4782016222	 1.6803566453	-0.936538414	 0.122687
H	-1.3216744072	 0.4337138374	-0.1582225396	 0.28733
19.4008	72.4071	83.9782	122.6324	179.6994	212.2256	235.582	264.7969	282.6465	309.6657	356.554	396.7825	459.5043	528.8576	564.5947	602.4765	614.5251	643.8194	813.9223	923.458	932.9139	965.3382	997.3371	1018.3101	1042.8197	1123.7879	1194.2176	1207.2304	1255.4019	1367.0646	1380.8977	1391.406	1412.4252	1460.5256	1468.8019	1474.5902	1479.2774	1492.8627	1503.7537	1767.9798	2318.0045	3039.3332	3040.7654	3053.073	3103.5439	3117.2703	3125.6314	3132.7991	3140.6075	3152.1892	3806.3913
CC(=O)C#CC(C)(C)O	CC(=O)C#CC(C)(C)O	
InChI=1S/C7H10O2/c1-6(8)4-5-7(2,3)9/h9H,1-3H3	InChI=1S/C7H10O2/c1-6(8)4-5-7(2,3)9/h9H,1-3H3
