19
gdb 5064	2.8933834	1.1746922	0.9811548	3.0317	78.39	-0.2551	-0.03762	0.21748	1269.7886	0.154651	-422.537895	-422.528665	-422.527721	-422.572187	33.451	
C	 2.0423104831	 1.7084584991	-0.368254096	-0.382152
C	 1.5401775585	 0.3138518864	 0.0365109967	-0.292671
C	 2.0432489532	-0.7517008094	-0.8896971162	 0.346405
C	 3.4778682332	-1.3018096902	-1.0251856048	-0.281782
C	 2.8785725979	-2.6792243058	-1.4706973011	-0.298533
C	 1.4815489309	-2.076438148	-1.3289341736	 0.243561
O	 1.4195207655	-0.9001772076	-2.1580844163	-0.309742
C	 0.2141915881	-2.7153847079	-0.9410033341	 0.065212
O	 0.1273346674	-3.8672299994	-0.5866079928	-0.262405
H	 1.6657824981	 2.4690251296	 0.3212618245	 0.120962
H	 3.1359254309	 1.7564170969	-0.3555927959	 0.123816
H	 1.7047675922	 1.9640428055	-1.3768083589	 0.13713
H	 1.8685003239	 0.0793798131	 1.0560842301	 0.111672
H	 0.4456357962	 0.2970071131	 0.0374158737	 0.115426
H	 4.0979375142	-0.7765584305	-1.7548747611	 0.116477
H	 4.0053013103	-1.3598870461	-0.0704265236	 0.113391
H	 3.1282129918	-3.0250146141	-2.475500879	 0.1179
H	 3.0583072954	-3.4781584528	-0.7501479321	 0.131717
H	-0.6662094308	-2.0387873819	-0.9881090295	 0.083617
71.8085	92.715	150.7745	192.7226	208.09	230.101	283.4067	345.7775	464.0482	492.4947	510.4821	639.4571	726.6165	760.4998	781.7448	790.0125	854.9558	936.3008	952.6894	973.937	1009.7675	1039.7675	1081.7441	1102.7802	1131.1448	1196.3943	1216.5034	1218.6859	1242.2961	1314.9617	1316.9417	1345.8633	1390.6416	1410.208	1450.7536	1464.8513	1474.8358	1491.218	1498.392	1509.4219	1801.6345	2902.977	3038.1328	3042.1338	3069.5244	3081.5782	3083.6596	3113.3322	3120.6554	3124.1473	3146.3286
CCC12CCC1(O2)C=O	CC[C@@]12CC[C@@]1(O2)C=O	
InChI=1S/C7H10O2/c1-2-6-3-4-7(6,5-8)9-6/h5H,2-4H2,1H3	InChI=1S/C7H10O2/c1-2-6-3-4-7(6,5-8)9-6/h5H,2-4H2,1H3/t6-,7-/m1/s1
