19
gdb 1520	3.3299602	1.3040019	1.1868964	2.6463	76.01	-0.22914	0.06514	0.29428	1118.0702	0.154797	-422.494345	-422.485743	-422.484798	-422.527042	33.529	
C	-0.0744158023	-0.0884888494	 0.1142037164	-0.440031
C	 1.4306021134	-0.0381328812	 0.0406769006	 0.346137
O	 2.0480034593	-0.648417547	 1.1367045081	-0.475791
C	 2.130298326	 1.173915913	-0.5810948871	-0.41884
C	 2.1638980359	-0.1638569352	-1.2569150921	 0.384769
O	 3.3684310978	-0.9669519872	-1.2395345115	-0.329167
C	 2.9602482987	-1.5768007443	-2.4766414156	 0.099344
C	 2.8984739889	-0.5604724907	-3.570775528	-0.298107
C	 1.7381319517	-0.6979646298	-2.5995071314	-0.225024
H	-0.4255736733	 0.4336220941	 1.0102906922	 0.130423
H	-0.5306704148	 0.3902774883	-0.7572748535	 0.111506
H	-0.4229765013	-1.124912958	 0.1679019571	 0.12132
H	 2.7679386594	-1.1866880835	 0.7775601801	 0.292565
H	 1.5285857441	 1.963578222	-1.0207359325	 0.114242
H	 3.0492749828	 1.4985872591	-0.1043461361	 0.125317
H	 3.119985307	-2.6418433827	-2.5896043929	 0.111108
H	 3.5495787262	 0.3077382461	-3.5316231704	 0.123867
H	 2.7071759361	-0.9554880971	-4.5639450086	 0.117894
H	 0.7259435645	-0.9312992766	-2.8991469847	 0.108465
127.5932	153.813	162.9507	205.0007	289.6009	373.7213	385.6105	400.9568	451.7397	479.3375	562.0434	594.4225	742.9257	775.3754	807.7307	843.1838	869.4675	908.5046	945.745	957.5631	976.5782	979.4861	1024.344	1044.5737	1047.6498	1065.7615	1085.6427	1107.6232	1127.1774	1165.164	1210.627	1252.4878	1280.0648	1340.7342	1384.5435	1401.9291	1426.1878	1469.6213	1475.825	1485.4146	1512.1579	3034.2947	3101.7772	3111.8113	3120.4126	3124.0051	3190.7817	3206.8301	3216.0538	3219.0522	3729.0655
CC1(O)CC11OC2CC12	C[C@]1(O)C[C@]21O[C@@H]1C[C@H]21	
InChI=1S/C7H10O2/c1-6(8)3-7(6)4-2-5(4)9-7/h4-5,8H,2-3H2,1H3	InChI=1S/C7H10O2/c1-6(8)3-7(6)4-2-5(4)9-7/h4-5,8H,2-3H2,1H3/t4-,5+,6-,7-/m0/s1
