19
gdb 1062	3.0982619	0.9763122	0.8628244	0.319	76.49	-0.23525	-0.08165	0.1536	1417.1073	0.154142	-422.571934	-422.561933	-422.560989	-422.608441	34.74	
C	-1.3797996192	-2.1941571421	-0.2584426285	-0.473664
C	-0.2716384706	-1.3699805164	-0.8639555976	 0.298344
O	 0.2104497762	-1.5751445127	-1.9545576	-0.277636
C	 0.2498219233	-0.1909452532	-0.0030767808	 0.293399
O	-0.2493853135	 0.0187360665	 1.0787347062	-0.283693
C	 1.392968589	 0.6190859013	-0.5800188845	-0.320048
C	 2.7047595775	-0.1522526541	-0.4909530769	 0.010709
C	 3.9950730999	 0.5886669263	-0.2485015718	-0.271193
C	 3.4101289141	-0.2810842911	 0.8363902697	-0.253672
H	-1.0486199206	-2.6222445721	 0.6931855906	 0.156676
H	-2.2357555015	-1.5549611951	-0.0203360693	 0.156753
H	-1.6729776991	-2.9839337598	-0.9502147052	 0.140105
H	 1.1807309985	 0.8580671269	-1.6270338383	 0.129044
H	 1.4561152965	 1.5462810836	-0.0035841703	 0.11557
H	 2.7554240322	-1.0079643684	-1.1553710666	 0.109771
H	 4.8848834548	 0.2448083399	-0.7640005575	 0.116477
H	 3.94547844	 1.6646908147	-0.1183140325	 0.114593
H	 3.9030475947	-1.2181354624	 1.0700576957	 0.114533
H	 2.9617370077	 0.2107623484	 1.6933880877	 0.12393
44.0599	55.0018	68.3646	113.0713	138.205	236.2275	309.3085	333.6195	384.2018	414.0713	533.829	545.1385	665.4243	717.3417	776.5484	810.3016	836.443	894.1018	939.4203	950.7364	984.9401	1041.9343	1055.1371	1075.5124	1080.9118	1147.3631	1161.183	1199.9909	1218.5885	1244.2896	1286.9591	1311.5757	1383.2164	1395.9383	1452.0068	1458.2863	1460.4136	1471.4485	1505.5032	1799.2669	1803.8136	3049.8517	3051.1475	3108.7965	3111.3284	3131.8569	3136.3551	3162.0677	3171.9309	3210.4081	3225.4674
CC(=O)C(=O)CC1CC1	CC(=O)C(=O)CC1CC1	
InChI=1S/C7H10O2/c1-5(8)7(9)4-6-2-3-6/h6H,2-4H2,1H3	InChI=1S/C7H10O2/c1-5(8)7(9)4-6-2-3-6/h6H,2-4H2,1H3
