19
gdb 1697	3.2441173	1.0439658	0.9702723	3.6835	77.42	-0.23926	-0.01676	0.2225	1284.2323	0.155399	-422.583732	-422.574454	-422.57351	-422.618915	33.605	
O	-0.2403616115	 2.7254942037	 0.1887323749	-0.4697
C	-1.1124772584	 1.9336516299	-0.6376062539	 0.335544
C	-0.2117306093	 0.8161120512	-1.1922924358	-0.305617
C	 0.4210476257	-0.0317758171	-0.1084566141	 0.151155
O	 0.349958701	-1.2348564962	-0.0634571741	-0.251342
C	-1.7830972979	 2.7779966775	-1.761623489	-0.266565
C	-3.2359210783	 3.0512731799	-1.2985818913	-0.270072
C	-3.4276418529	 2.0715151938	-0.1664941937	-0.070341
C	-2.3004174323	 1.4448102377	 0.1665695981	-0.127029
H	-0.7961596726	 3.2890050387	 0.7375309288	 0.277345
H	-0.7703917876	 0.163309711	-1.8668806338	 0.118257
H	 0.6009588656	 1.2958433393	-1.7558126723	 0.125672
H	 0.9718265125	 0.5440371543	 0.6636949455	 0.095666
H	-1.2016135152	 3.6858211376	-1.9374378571	 0.110645
H	-1.793405305	 2.2081686042	-2.6951940238	 0.108279
H	-3.3855009071	 4.0832003455	-0.9538725553	 0.110625
H	-3.9624055187	 2.8970541136	-2.1041759774	 0.114595
H	-4.3882748304	 1.9218870737	 0.3152984077	 0.103403
H	-2.1913745377	 0.7100136718	 0.9568576569	 0.10948
35.3938	65.6673	97.7414	187.5441	252.9406	312.6898	324.8244	363.1076	433.1355	473.1845	522.1922	643.894	731.5632	771.8581	791.9265	818.0108	852.5052	923.6703	956.9978	969.7391	982.3873	998.4009	1040.4891	1070.9027	1111.4386	1128.4873	1169.1263	1178.0453	1220.2047	1261.1829	1286.6789	1308.8015	1324.6851	1352.008	1403.1483	1418.3232	1448.9325	1475.6683	1495.9762	1681.9178	1824.7141	2924.5021	3020.7502	3021.1075	3054.5332	3066.4601	3111.6653	3116.2399	3181.0007	3206.2186	3810.4719
OC1(CC=O)CCC=C1	O[C@]1(CC=O)CCC=C1	
InChI=1S/C7H10O2/c8-6-5-7(9)3-1-2-4-7/h1,3,6,9H,2,4-5H2	InChI=1S/C7H10O2/c8-6-5-7(9)3-1-2-4-7/h1,3,6,9H,2,4-5H2/t7-/m0/s1
