19
gdb 702	3.8012556	1.1704066	1.0694823	4.2905	75.27	-0.26092	0.01621	0.27713	1179.4742	0.158247	-422.602108	-422.594226	-422.593281	-422.634701	30.339	
O	 1.3451265631	 0.1151146108	 0.1422497707	-0.335321
C	 0.1497023411	 0.1026290036	 0.110248163	 0.412824
C	-0.8099707465	 1.2540482085	-0.1738917442	-0.362924
C	-2.1516627216	 0.7225858484	 0.3342157791	-0.286944
C	-1.9871291712	-0.7987568644	 0.1793928763	 0.439625
C	-2.6269705202	-1.4349368627	-1.085033102	-0.280259
C	-3.7941661381	-1.9295658037	-0.1869498131	-0.21527
C	-2.886326009	-1.6971357537	 1.0537669402	-0.285706
O	-0.5765324643	-1.0294272377	 0.3307707333	-0.260368
H	-0.460002781	 2.1688423304	 0.3055392519	 0.139319
H	-0.8141551246	 1.4294745838	-1.2558395182	 0.14031
H	-2.2810909412	 0.9717782078	 1.3928224314	 0.116488
H	-3.0184770552	 1.1041304027	-0.2092833138	 0.114626
H	-2.859304606	-0.7744607907	-1.9246268107	 0.098672
H	-2.0095574095	-2.2630119296	-1.4413067256	 0.121612
H	-4.6504304447	-1.2508271213	-0.2065699538	 0.108139
H	-4.1529272472	-2.9456528524	-0.3561658496	 0.110288
H	-3.3276010171	-1.2435743093	 1.9448325723	 0.100947
H	-2.349787187	-2.6041836406	 1.3421430529	 0.12394
96.0572	122.5425	141.4855	275.9036	351.701	413.8507	443.4402	519.4275	539.8779	654.8803	700.8498	758.0964	790.161	811.3544	870.8869	913.1929	924.9353	931.6249	974.6621	977.4273	1012.1378	1042.4658	1095.9429	1123.4238	1155.0513	1184.8406	1203.8544	1214.7264	1241.4545	1250.308	1273.9928	1298.8007	1303.7756	1313.2202	1341.555	1465.4573	1469.6065	1485.6589	1498.5065	1507.1447	1884.6945	3050.5342	3056.5349	3059.5015	3063.805	3073.5661	3110.3787	3112.5993	3119.8999	3131.5568	3134.4495
O=C1CCC2(CCC2)O1	O=C1CCC2(CCC2)O1	
InChI=1S/C7H10O2/c8-6-2-5-7(9-6)3-1-4-7/h1-5H2	InChI=1S/C7H10O2/c8-6-2-5-7(9-6)3-1-4-7/h1-5H2
