19
gdb 668	2.6505254	1.6432577	1.4868197	1.9784	73.39	-0.2398	-0.01622	0.22358	978.9964	0.159915	-422.605318	-422.597981	-422.597037	-422.637334	28.898	
O	 1.103027178	-0.0008556995	-0.5186291314	-0.310634
C	-0.057712358	-0.0034602228	-0.1822995748	 0.379924
C	-0.8522523794	-1.2871630762	 0.0386032722	-0.306879
C	-2.2866813536	-1.1359774015	-0.5114903611	 0.076724
C	-2.3090790099	-0.7887625099	-2.0182880902	-0.232153
C	-2.3131431587	 0.7660805563	-2.0200492679	-0.232143
C	-2.2924934647	 1.1168184274	-0.5140477028	 0.07672
C	-0.8588542869	 1.2766380175	 0.035662511	-0.306879
O	-2.8994486395	-0.0104352898	 0.1191241764	-0.256499
H	-0.31398951	-2.1246997374	-0.413257369	 0.118139
H	-0.9193248123	-1.4656235876	 1.1193775318	 0.126547
H	-2.8851945847	-2.0155571025	-0.2641649386	 0.085056
H	-1.4523493973	-1.2106689743	-2.5494468935	 0.115474
H	-3.2144235573	-1.1813448524	-2.4860562656	 0.110696
H	-1.4586688083	 1.1912626627	-2.5522275391	 0.115471
H	-3.2205629998	 1.1528565227	-2.4886337734	 0.110696
H	-2.8955232064	 1.9938626875	-0.268695758	 0.085055
H	-0.3249124371	 2.1158947589	-0.418129396	 0.118139
H	-0.9268303139	 1.4572325611	 1.1160261601	 0.126547
84.94	98.1853	319.0635	355.8266	379.7828	455.8829	491.6027	504.8121	637.3765	738.7198	754.0991	799.404	819.9879	837.4678	849.3426	890.3536	920.4958	968.191	981.8584	1014.7052	1036.0671	1072.053	1075.0685	1159.5882	1167.0055	1207.807	1218.231	1245.2369	1256.8431	1281.7731	1301.969	1314.3624	1330.713	1362.2661	1373.9702	1387.4331	1447.4788	1458.3015	1487.4378	1509.1918	1818.1675	3032.9542	3037.0192	3064.9265	3072.8013	3084.5565	3090.367	3102.8077	3105.3967	3106.6028	3124.2332
O=C1CC2CCC(C1)O2	O=C1C[C@@H]2CC[C@H](C1)O2	
InChI=1S/C7H10O2/c8-5-3-6-1-2-7(4-5)9-6/h6-7H,1-4H2	InChI=1S/C7H10O2/c8-5-3-6-1-2-7(4-5)9-6/h6-7H,1-4H2/t6-,7+
