19
gdb 872	3.0318968	1.1204706	0.8737867	1.0517	76.6	-0.24255	-0.02994	0.21261	1302.0521	0.157024	-422.607247	-422.598599	-422.597655	-422.641158	31.684	
O	-0.1178971702	-0.4149242068	 0.7332215165	-0.238694
C	 0.6079777541	-0.006920872	-0.1365344812	 0.140342
C	 0.4743331328	 1.3428443415	-0.8133622669	-0.089308
C	-0.6766544502	 2.186131361	-0.2580058892	-0.188765
C	-0.7664535128	 3.5400973385	-0.9722640578	-0.229508
C	-0.9071122303	 3.3745700247	-2.4995367734	-0.287399
C	 0.1791440779	 2.4731623403	-3.0663978063	 0.383766
O	 0.8689802627	 2.7814101267	-4.0087671747	-0.298788
C	 0.3410189878	 1.1369024119	-2.3456148498	-0.313771
H	 1.4498675361	-0.6293870096	-0.5198241686	 0.081474
H	 1.4309109818	 1.8630207015	-0.6408320041	 0.104714
H	-1.6147426509	 1.6303224549	-0.3787289271	 0.111456
H	-0.54524302	 2.3261380082	 0.8189038912	 0.11486
H	-1.6130331812	 4.1170384629	-0.5866341813	 0.108819
H	 0.134724075	 4.1290131612	-0.7576725129	 0.109538
H	-1.8763621133	 2.9046156549	-2.7200669564	 0.11893
H	-0.8732587012	 4.3327436392	-3.0228513358	 0.121616
H	-0.5557799598	 0.5329563079	-2.5440672292	 0.126847
H	 1.2024558317	 0.614212323	-2.768803713	 0.123871
67.4858	98.3968	121.8958	218.5767	241.2744	332.7262	378.7283	415.7012	469.907	505.4336	623.9128	701.6644	757.952	810.7404	822.9248	871.0843	903.125	937.7156	958.1872	1041.0773	1054.604	1059.9755	1110.3676	1129.1073	1208.0725	1230.1762	1240.3873	1269.8185	1286.6184	1324.8567	1325.7866	1341.1523	1373.8677	1387.5547	1428.6322	1462.3058	1469.8423	1487.8671	1499.9107	1820.8261	1828.9004	2862.8515	2980.6697	3013.0841	3020.1261	3027.1561	3040.66	3077.7601	3091.0343	3104.3532	3109.7702
O=CC1CCCC(=O)C1	O=C[C@@H]1CCCC(=O)C1	
InChI=1S/C7H10O2/c8-5-6-2-1-3-7(9)4-6/h5-6H,1-4H2	InChI=1S/C7H10O2/c8-5-6-2-1-3-7(9)4-6/h5-6H,1-4H2/t6-/m1/s1
