19
gdb 2879	2.8239875	1.7614045	1.6028833	1.3322	72.94	-0.21931	0.08036	0.29967	939.4561	0.1594	-422.547564	-422.540398	-422.539454	-422.578845	28.774	
C	 0.6772416423	-0.2726272553	-1.2296260219	-0.413796
C	 0.8610565145	 0.477985387	 0.0912627347	 0.022638
C	 1.3055079418	-0.4392039506	 1.2257382344	-0.161196
C	 2.8179000197	-0.267027683	 1.2769884667	 0.046992
O	 3.2150762201	 0.6336671945	 0.2681347687	-0.261497
C	 2.0583385145	 1.4608871172	 0.0685959769	 0.013999
C	 1.982749531	 2.4237856177	 1.250311299	-0.065955
O	 1.7760009831	 1.7089563626	 2.4706117638	-0.277384
C	 1.959502704	 0.3227800331	 2.363049333	 0.074918
H	-0.0894961983	-1.048585352	-1.1374156839	 0.113861
H	 0.3699227192	 0.4077220586	-2.0310093574	 0.111187
H	 1.6126370073	-0.7536771856	-1.5310814404	 0.132501
H	-0.0555597501	 1.0211557772	 0.3483223262	 0.082513
H	 0.8058086531	-1.3873594307	 1.3888332233	 0.085233
H	 3.5385627224	-1.0572920954	 1.4475700316	 0.101955
H	 2.1848937998	 1.9973489491	-0.8745090342	 0.084557
H	 2.9224292732	 2.9890416785	 1.3109780665	 0.10469
H	 1.1540858319	 3.1340898497	 1.1329857566	 0.099512
H	 1.9790771805	-0.1293272527	 3.3484978365	 0.105273
136.3878	208.5418	227.052	283.187	382.6835	419.3075	568.601	604.5538	682.8461	721.6812	747.5519	758.3226	803.5825	872.1611	896.4972	912.3638	956.5919	996.0524	1018.8432	1030.8724	1052.0949	1071.9779	1090.005	1117.0102	1118.9373	1128.1183	1136.0799	1211.1858	1232.3125	1262.5137	1279.6508	1306.7262	1316.8781	1358.281	1376.1406	1401.2784	1407.7053	1436.3055	1495.7158	1502.3578	1507.9363	3005.7435	3033.0729	3040.2649	3047.9875	3093.1326	3099.5799	3113.3231	3168.8673	3174.5879	3191.8826
CC1C2C3OC1COC23	C[C@H]1[C@H]2[C@H]3O[C@@H]1CO[C@@H]23	
InChI=1S/C7H10O2/c1-3-4-2-8-6-5(3)7(6)9-4/h3-7H,2H2,1H3	InChI=1S/C7H10O2/c1-3-4-2-8-6-5(3)7(6)9-4/h3-7H,2H2,1H3/t3-,4-,5-,6+,7-/m1/s1
