19
gdb 1901	2.3183021	1.6031188	1.1802507	3.1478	76.67	-0.24854	-0.02437	0.22417	1099.647	0.156638	-422.566209	-422.557657	-422.556712	-422.599122	32.136	
C	 0.0325705812	 0.2636404992	-0.2711326488	-0.48706
C	 1.4089204525	-0.1764753247	 0.1656418896	 0.25918
C	 1.8391781137	-0.1308360469	 1.592453069	-0.377421
C	 2.5418553048	 0.7800743446	 0.5898122675	 0.188868
C	 3.8087850425	 0.2123815082	-0.0265426418	-0.151544
O	 3.5042416905	-1.1456696106	-0.3361267487	-0.255796
C	 2.1325660728	-1.2148016813	-0.6880873941	-0.128071
C	 2.3611508709	 2.2384384132	 0.6687049228	 0.073504
O	 3.1671223788	 3.0465137926	 0.2690952599	-0.271392
H	-0.3714513065	 1.0449441717	 0.3779110217	 0.126422
H	 0.0415422287	 0.6466507069	-1.2972998751	 0.129769
H	-0.6652274472	-0.5810577351	-0.2374765904	 0.129418
H	 1.1692603319	 0.3514496705	 2.2979506039	 0.120133
H	 2.4292538946	-0.9453570773	 2.0002012337	 0.136554
H	 4.0728603508	 0.78990391	-0.9239739233	 0.113974
H	 4.6691260646	 0.2095477863	 0.6487656161	 0.118961
H	 1.9753196122	-0.9816844328	-1.7548183622	 0.094154
H	 1.7947972698	-2.2409539418	-0.5061883382	 0.113363
H	 1.4075750034	 2.5675538772	 1.1418405384	 0.066986
98.6353	173.2983	205.31	220.1829	240.168	269.0747	338.9596	408.054	444.7058	468.8593	573.8625	668.7373	697.4206	772.5197	873.7001	928.1433	939.1803	958.1416	975.2504	1028.9548	1038.6803	1068.262	1075.2958	1108.061	1127.5264	1155.5242	1222.4181	1250.4869	1266.0664	1306.9124	1345.1543	1388.3718	1406.7894	1417.8774	1445.0766	1480.1135	1489.7287	1502.2321	1510.0461	1522.7058	1800.1425	2864.2317	2964.2132	3009.9662	3031.0196	3065.5604	3087.1905	3089.6047	3113.9479	3124.3368	3213.9701
CC12CC1(COC2)C=O	C[C@]12C[C@]1(COC2)C=O	
InChI=1S/C7H10O2/c1-6-2-7(6,3-8)5-9-4-6/h3H,2,4-5H2,1H3	InChI=1S/C7H10O2/c1-6-2-7(6,3-8)5-9-4-6/h3H,2,4-5H2,1H3/t6-,7-/m1/s1
