19
gdb 2254	2.7186661	1.840048	1.618461	0.5623	73.01	-0.23426	0.07547	0.30973	921.8073	0.159269	-422.543008	-422.535984	-422.53504	-422.573781	29.401	
O	 0.288508341	 0.1500658509	 0.5923258931	-0.4929
C	-0.6760239344	 1.1494767233	 0.5573230313	 0.42069
C	-2.0001843025	 0.8281366477	-0.1309582324	-0.292911
C	-2.63316543	 1.9518629437	 0.7489592171	-0.071659
C	-2.5389847878	 3.3074295432	 0.0326856897	-0.198935
C	-1.1060624561	 3.4518072317	-0.5419503971	-0.224344
C	-0.191424724	 2.6435221777	 0.3705026047	 0.008708
O	-0.5468903455	 2.9575354477	 1.7546118388	-0.304402
C	-1.408827597	 1.8101725307	 1.7495404264	 0.030229
H	 1.0234755804	 0.4514243517	 1.1385273462	 0.285146
H	-2.0737712447	 0.9226805999	-1.2182077967	 0.096845
H	-2.3344791928	-0.1697397759	 0.1658043322	 0.109336
H	-3.6234571272	 1.7553913457	 1.1609025689	 0.070386
H	-3.2931129484	 3.3812920572	-0.7570469805	 0.094967
H	-2.7317041729	 4.111392382	 0.7480683406	 0.113235
H	-1.0376375257	 3.0698756758	-1.5668827526	 0.104503
H	-0.7941455531	 4.5004428835	-0.5671476585	 0.105131
H	 0.8787474824	 2.7792827084	 0.1825198749	 0.069262
H	-1.5902146316	 1.382993725	 2.7373609239	 0.076713
223.9739	261.5056	307.4293	321.2423	374.6874	430.1197	458.7959	518.1726	613.2483	677.5757	730.0602	787.034	804.0433	851.2573	888.9288	901.1609	909.865	956.2897	982.6267	1006.5455	1024.8959	1067.6124	1076.1558	1087.4628	1113.1596	1143.6641	1172.0237	1189.5973	1218.582	1243.9004	1256.5441	1284.5194	1305.2143	1316.7195	1353.6504	1357.2735	1368.3529	1399.9618	1476.3683	1487.8125	1503.8576	3038.7554	3052.8048	3053.4558	3059.6684	3080.9333	3095.2883	3101.3072	3104.8193	3110.4198	3797.3522
OC12CC3CCC1OC23	O[C@]12C[C@@H]3CC[C@H]1O[C@H]23	
InChI=1S/C7H10O2/c8-7-3-4-1-2-5(7)9-6(4)7/h4-6,8H,1-3H2	InChI=1S/C7H10O2/c8-7-3-4-1-2-5(7)9-6(4)7/h4-6,8H,1-3H2/t4-,5+,6-,7+/m0/s1
