19
gdb 544	3.3560951	1.3806801	1.0245586	1.1887	77.63	-0.22648	0.02102	0.2475	1152.8978	0.159258	-422.563017	-422.555247	-422.554303	-422.595483	29.216	
C	 1.2893736177	 0.1380644962	 0.233703229	-0.166209
O	 1.3553447913	 1.500133067	-0.1853419386	-0.268291
C	 0.062402951	 1.9620380566	-0.574564564	-0.164529
C	-0.846169371	 0.7811679219	-0.3880745671	 0.182504
C	-0.1490556428	-0.2592523462	 0.062403752	 0.206462
C	-0.769379556	-1.5970346296	 0.3191385171	-0.334295
C	-2.1430361636	-1.6297210622	-0.3714046948	-0.074062
O	-2.896929384	-0.4588746866	-0.1009677933	-0.245789
C	-2.3199155843	 0.7193768794	-0.6403872646	-0.187279
H	 1.9711960344	-0.4738942769	-0.3793257241	 0.100708
H	 1.630963305	 0.0499705042	 1.2782582298	 0.102691
H	-0.2309710742	 2.8223804869	 0.0494204849	 0.10266
H	 0.0930355596	 2.3181229029	-1.6172489884	 0.1026
H	-0.1418017889	-2.4100523647	-0.0691637565	 0.105728
H	-0.8783798139	-1.7762063473	 1.397408607	 0.118425
H	-2.0025708466	-1.7514998044	-1.458055071	 0.09085
H	-2.7486414978	-2.4660240195	-0.0122873612	 0.10971
H	-2.5290554465	 0.7929400433	-1.7239453854	 0.098727
H	-2.8412312595	 1.5569935491	-0.1607552806	 0.11939
103.9212	122.3449	186.4463	265.4286	315.6545	334.0647	434.9353	498.6535	515.1525	655.045	714.8201	839.6827	855.9321	919.6299	934.8352	952.2889	976.9499	1027.1832	1063.9304	1077.5699	1093.2897	1115.4259	1138.7704	1164.7444	1184.3275	1218.4663	1225.2699	1239.4076	1262.7596	1311.9341	1346.0362	1373.4132	1395.6998	1407.5862	1424.2119	1471.6383	1487.8835	1499.7651	1516.9962	1528.8199	1756.2007	2931.8616	2959.6531	2967.4934	2972.2621	2976.6006	2979.4634	3013.5647	3044.6337	3046.5722	3092.4991
C1OCC2=C1CCOC2	C1OCC2=C1CCOC2	
InChI=1S/C7H10O2/c1-2-8-4-7-5-9-3-6(1)7/h1-5H2	InChI=1S/C7H10O2/c1-2-8-4-7-5-9-3-6(1)7/h1-5H2
