19
gdb 5066	2.1924246	1.4628657	1.0440661	2.593	77.75	-0.24844	-0.03002	0.21842	1187.288	0.155993	-422.541379	-422.532281	-422.531337	-422.575413	33.278	
O	-0.5365030546	-1.2909374393	-0.6027445953	-0.411937
C	-0.201197662	 0.0894442987	-0.5103698118	-0.178217
C	-0.3095452917	 0.5982787051	 0.8988841288	 0.289104
C	 0.8041114026	 0.4756249739	 1.8808161374	-0.372648
C	 0.3707670132	 1.8781858624	 1.5103657085	 0.20285
C	-0.9402689479	 2.240489696	 2.2154584258	-0.305675
C	-1.615582675	 0.9637807383	 1.6186303039	-0.275829
C	 1.2731710705	 2.7860160956	 0.7910808173	 0.055824
O	 2.2566859685	 2.4383656406	 0.1732696235	-0.280456
H	 0.1073313376	-1.7792300789	-0.0788542487	 0.283857
H	 0.8060619516	 0.2956725539	-0.8994774802	 0.117273
H	-0.9188824634	 0.6047590667	-1.157722559	 0.110258
H	 0.6147809392	 0.1307892577	 2.8949068993	 0.115285
H	 1.7717409267	 0.2042990556	 1.470044006	 0.140591
H	-0.8876674941	 2.3040855113	 3.3068253253	 0.104595
H	-1.3846318972	 3.1635855157	 1.8344896094	 0.112183
H	-1.9787124	 0.2218594006	 2.3357554115	 0.10777
H	-2.4250061232	 1.2016238925	 0.9252638348	 0.114144
H	 0.971946619	 3.8581030435	 0.8269540636	 0.071028
75.0004	109.311	134.3939	201.1233	221.4138	292.7742	302.0826	372.3819	394.9821	435.4691	533.0448	682.7104	723.7565	786.493	800.1776	817.5169	938.3008	951.5913	954.5207	984.0739	1018.3173	1037.6745	1057.9808	1086.2072	1114.5153	1139.8959	1198.8107	1215.0461	1245.5683	1250.4008	1296.1164	1333.21	1365.8886	1404.4362	1423.6456	1433.9626	1477.4124	1482.1742	1501.597	1510.7919	1783.1605	2868.3952	3008.5443	3047.9396	3059.4637	3073.3784	3097.8935	3106.5345	3118.8054	3207.0921	3811.3654
OCC12CC1(CC2)C=O	OC[C@@]12C[C@@]1(CC2)C=O	
InChI=1S/C7H10O2/c8-4-6-1-2-7(6,3-6)5-9/h4,9H,1-3,5H2	InChI=1S/C7H10O2/c8-4-6-1-2-7(6,3-6)5-9/h4,9H,1-3,5H2/t6-,7+/m0/s1
