19
gdb 3927	3.9453923	1.2887135	1.2261186	2.7342	76.91	-0.2374	0.06182	0.29922	1090.0196	0.156262	-422.438307	-422.430522	-422.429577	-422.469972	31.526	
C	-0.0235466841	 0.0616431064	 0.2101986236	-0.427126
C	 1.4815448405	-0.0062237291	 0.0538924402	-0.068652
C	 2.3757800673	-0.3782377772	 1.3229175983	 0.006596
O	 2.0372933885	 0.9277330243	 1.902638026	-0.356917
C	 2.4030116656	 1.1861775756	 0.4531642112	 0.360459
C	 3.2682006113	 2.4448023303	 0.4005468104	-0.36895
C	 4.3893615768	 1.5531068949	 1.1240931491	 0.116356
O	 4.5766570958	 1.7686187312	 2.4859079234	-0.425216
C	 3.6067627086	 0.2540526939	 0.6363326685	-0.076109
H	-0.2886629187	 0.5398732325	 1.1550598819	 0.139093
H	-0.4716184792	 0.6340540965	-0.6087724127	 0.121447
H	-0.4611034318	-0.9422402224	 0.1869375174	 0.117551
H	 1.7906377267	-0.494826361	-0.8756107412	 0.079828
H	 2.2749602402	-1.253804145	 1.9708971202	 0.09395
H	 3.5643454607	 2.7148543754	-0.6164497532	 0.113145
H	 2.905579818	 3.3241143728	 0.9379742463	 0.118837
H	 5.3693877165	 1.6341819967	 0.6479093715	 0.091942
H	 3.7099718172	 1.6001083277	 2.8824181734	 0.286968
H	 4.0313947497	-0.2501061837	-0.2335198744	 0.076799
170.0614	188.2989	225.8229	282.7657	290.3882	402.7572	431.3931	492.7057	588.7207	620.367	666.1423	689.4346	729.5198	757.6973	784.9792	831.9663	881.7672	912.5427	922.0886	969.2711	1025.377	1037.5193	1058.617	1087.7178	1113.5835	1139.1581	1159.5082	1180.1764	1187.8346	1191.2001	1221.9674	1230.0484	1271.9321	1293.0823	1344.3328	1388.5146	1410.4513	1450.9094	1463.8475	1491.1874	1503.065	3038.1164	3063.0687	3064.3264	3070.1426	3080.6327	3096.6882	3100.9566	3130.5688	3137.6788	3736.3638
CC1C2OC11CC(O)C21	C[C@@H]1[C@@H]2O[C@@]31C[C@@H](O)[C@@H]23	
InChI=1S/C7H10O2/c1-3-6-5-4(8)2-7(3,5)9-6/h3-6,8H,2H2,1H3	InChI=1S/C7H10O2/c1-3-6-5-4(8)2-7(3,5)9-6/h3-6,8H,2H2,1H3/t3-,4-,5+,6+,7-/m1/s1
