19
gdb 2752	2.5606364	1.4557518	1.0373525	4.2738	77.4	-0.23151	-0.00286	0.22865	1185.0882	0.154112	-422.55158	-422.541728	-422.540784	-422.586616	35.281	
C	-2.970223855	 1.9770565308	 1.4888034843	-0.452696
C	-2.0139850571	 0.8212948727	 1.2676338458	-0.087372
C	-0.848917761	 1.1006435645	 0.2946685467	-0.281708
C	 0.0615303561	-0.075416368	 0.2451512923	 0.439641
O	 1.2558861975	-0.2019079492	 0.2204978171	-0.337322
C	-1.0878023266	-1.0893289331	-0.0286234898	-0.194916
C	-0.9147155008	-1.7956143685	-1.3713645742	-0.401567
C	-2.0411771982	 0.1166109088	-0.0321916856	 0.418813
O	-3.034339489	 0.2122974401	-0.9778366373	-0.456336
H	-2.586263261	 2.6582384023	 2.2536864245	 0.139837
H	-3.1196667097	 2.5640199512	 0.5760943468	 0.125424
H	-3.9483429992	 1.617734043	 1.8297472161	 0.126488
H	-1.8041364705	 0.2478461135	 2.1705868241	 0.094079
H	-0.6282544358	 2.1187782892	-0.0048632387	 0.105061
H	-1.2785813022	-1.8188889079	 0.768345938	 0.082159
H	-0.0646342049	-2.4809944141	-1.3222346629	 0.13258
H	-1.8123247886	-2.3641733976	-1.6295115719	 0.123884
H	-0.7270834833	-1.078740084	-2.1765356988	 0.127132
H	-3.7773109007	 0.7030660463	-0.6122658964	 0.29682
42.7943	97.1479	163.6994	185.8226	199.1209	214.4247	239.1768	280.0433	361.8592	429.8125	490.7003	493.0967	629.6397	676.9522	721.7609	763.0968	826.948	885.2999	942.087	946.0536	1016.9691	1043.0206	1072.952	1082.8542	1119.1954	1125.2686	1152.0467	1180.875	1226.922	1235.1723	1307.1651	1342.0617	1392.9686	1407.6686	1420.9683	1435.1837	1490.2947	1495.4689	1501.362	1505.5717	1869.8416	3026.2797	3028.1557	3044.4881	3085.878	3097.3939	3110.171	3115.2466	3124.8294	3184.6161	3819.1416
CC1C2C(=O)C(C)C12O	C[C@@H]1[C@H]2C(=O)[C@H](C)[C@@]12O	
InChI=1S/C7H10O2/c1-3-5-6(8)4(2)7(3,5)9/h3-5,9H,1-2H3	InChI=1S/C7H10O2/c1-3-5-6(8)4(2)7(3,5)9/h3-5,9H,1-2H3/t3-,4+,5+,7+/m1/s1
