19
gdb 5534	2.7568667	1.4353041	1.103531	1.7937	76.73	-0.23489	0.0695	0.30439	1152.8398	0.15532	-422.445491	-422.437017	-422.436073	-422.478721	31.868	
C	 1.3558235512	-0.1557075247	-0.138134903	-0.239187
O	-0.0434619119	-0.1582382858	 0.0601100621	-0.243273
C	-0.4495117254	 0.6372833031	 1.1230971507	 0.167876
C	-1.9308396105	 0.5542340781	 1.5597885534	-0.120515
O	-1.5085182945	 1.1681214118	 2.8437526756	-0.30621
C	-0.5175193033	 0.0943044967	 2.5966093513	-0.115796
C	-1.668509662	-0.8266251678	 2.1762441021	 0.484412
C	-1.7754199099	-2.2286628575	 1.6963438894	-0.339485
C	-2.534575506	-1.765715185	 2.9359677502	-0.372538
H	 1.8917564302	-0.5941798798	 0.7163903463	 0.109445
H	 1.5574139653	-0.756297012	-1.027708732	 0.130993
H	 1.7386403194	 0.8631629871	-0.3005444566	 0.111143
H	-0.06175765	 1.6626236576	 1.0673247978	 0.081165
H	-2.8217617469	 0.9519088965	 1.0734621728	 0.094794
H	 0.2646822254	-0.050163083	 3.342456175	 0.090691
H	-2.3401416542	-2.4212592411	 0.7903186639	 0.119224
H	-0.9247972797	-2.8880718993	 1.834900365	 0.113582
H	-3.6110760695	-1.6508086584	 2.8611388637	 0.117455
H	-2.1928249877	-2.1163427563	 3.9045005521	 0.116223
74.0279	137.4716	163.378	210.644	260.3315	283.7721	339.1955	442.6926	510.8397	612.5774	687.2845	731.6729	766.5654	829.8546	862.1636	891.5111	914.7259	930.5492	967.493	1027.1873	1052.0737	1057.5558	1074.4702	1080.8829	1119.8777	1131.5709	1156.4328	1178.4367	1180.5849	1187.8326	1229.7831	1237.8545	1243.6541	1265.2152	1368.91	1426.819	1461.1901	1484.2232	1489.3257	1506.9471	1522.6242	2982.4024	3031.9017	3034.5539	3115.3356	3121.7849	3123.166	3126.6784	3130.5686	3203.5123	3217.54
COC1C2OC1C21CC1	CO[C@H]1[C@@H]2O[C@H]1C12CC1	
InChI=1S/C7H10O2/c1-8-4-5-7(2-3-7)6(4)9-5/h4-6H,2-3H2,1H3	InChI=1S/C7H10O2/c1-8-4-5-7(2-3-7)6(4)9-5/h4-6H,2-3H2,1H3/t4-,5-,6+
