19
gdb 2620	2.4598445	1.6420114	1.1693537	2.271	74.46	-0.23904	-0.02085	0.21819	1083.0127	0.156087	-422.580962	-422.572276	-422.571332	-422.614038	33.421	
C	-0.4894958479	-1.9434268604	 1.3872378928	-0.429105
C	-0.7547869433	-1.2520005398	 0.0387231354	-0.159359
C	 0.1293012817	 0.0043913493	-0.0834071177	 0.383735
O	 1.3215183089	-0.0083898921	-0.2458309678	-0.316233
C	-0.733227801	 1.2692981479	 0.0666186291	-0.334749
C	-2.1629191374	 0.7926286944	-0.0687357417	-0.119739
C	-2.5104118876	 0.0379736409	-1.340393976	-0.331328
C	-2.1813182982	-0.7313673737	-0.1010906608	 0.408924
O	-3.2311163286	-1.4697827675	 0.4450537971	-0.46946
H	-1.1030774053	-2.8433926957	 1.4829787718	 0.129963
H	 0.56262357	-2.2288879983	 1.4589349831	 0.143125
H	-0.714105103	-1.281619263	 2.2327684373	 0.111392
H	-0.4846185363	-1.9447767853	-0.7661338214	 0.104163
H	-0.5369657096	 1.6972864484	 1.0583650869	 0.129536
H	-0.4224336415	 2.0194948246	-0.6680870716	 0.131194
H	-2.9613614844	 1.3314373733	 0.4277464169	 0.092246
H	-3.5547366688	 0.033887296	-1.6298703802	 0.126981
H	-1.8080768649	 0.0447189323	-2.1699707699	 0.115412
H	-3.1395375228	-1.4635444113	 1.4040830064	 0.283303
61.7631	172.8642	231.4241	248.3958	264.497	308.0089	354.8703	406.7497	438.5453	487.074	546.6758	580.6104	644.3508	728.6272	755.737	841.8131	861.5335	902.1482	935.0342	956.4688	1022.9982	1050.1228	1055.2039	1071.044	1094.4403	1100.2393	1159.0875	1188.8079	1234.2265	1252.7109	1283.1296	1302.7959	1309.921	1347.123	1395.0262	1409.6044	1455.8759	1484.0023	1499.9613	1505.5496	1843.2859	3027.8962	3032.5229	3047.852	3077.6692	3101.2499	3119.8449	3128.9997	3180.6787	3220.0084	3800.201
CC1C(=O)CC2CC12O	C[C@@H]1C(=O)C[C@H]2C[C@@]12O	
InChI=1S/C7H10O2/c1-4-6(8)2-5-3-7(4,5)9/h4-5,9H,2-3H2,1H3	InChI=1S/C7H10O2/c1-4-6(8)2-5-3-7(4,5)9/h4-5,9H,2-3H2,1H3/t4-,5+,7-/m1/s1
