19
gdb 3552	2.0886918	1.8993759	1.2101492	3.9108	74.25	-0.23129	-0.03054	0.20074999999999998	1071.3423	0.157614	-422.567413	-422.559267	-422.558323	-422.600281	30.737	
C	-2.9430971841	-1.2531255014	-1.3232430155	-0.403272
C	-2.434746215	-0.8073138841	 0.0534948126	-0.009826
C	-0.9699315869	-1.2494704683	 0.2818630239	-0.339244
C	-0.1363658521	-0.1199445275	-0.3253505607	 0.40859
O	 0.9277534424	-0.21444643	-0.8775413241	-0.309686
C	-0.9352836716	 1.1753915422	-0.1221684106	 0.024646
O	-0.767255518	 1.6278387831	 1.2462502136	-0.2947
C	-2.146432157	 1.3242918331	 1.5619095674	-0.094809
C	-2.3940614178	 0.7379344675	 0.1581191326	-0.069473
H	-2.9420641001	-2.3441694665	-1.4088625233	 0.121746
H	-3.9638102349	-0.8994204841	-1.5005505816	 0.117975
H	-2.309563753	-0.8597866148	-2.1275820489	 0.125173
H	-3.094597528	-1.2178157046	 0.8258107124	 0.078883
H	-0.7341146503	-1.2982480673	 1.3521904877	 0.136204
H	-0.7152127978	-2.2150069121	-0.1589738836	 0.123638
H	-0.7016931931	 1.951862564	-0.8549543844	 0.090389
H	-2.2345340861	 0.6223909438	 2.4010448963	 0.103615
H	-2.7102710481	 2.2344599805	 1.7984523685	 0.108046
H	-3.1880677585	 1.2175119666	-0.4152533224	 0.082104
86.1491	105.9143	220.8945	227.9253	257.8188	335.4043	405.0143	446.4654	528.801	628.978	678.3431	775.0692	786.0843	869.4711	872.5264	897.195	931.8956	972.0387	999.4838	1023.327	1027.0021	1059.8786	1085.2424	1136.7977	1157.3645	1176.8874	1193.3118	1217.9461	1247.6819	1263.8736	1289.0476	1316.3535	1329.375	1355.1338	1372.4698	1416.4615	1455.0966	1496.8592	1499.6921	1523.183	1851.5704	3012.5278	3026.6639	3037.1341	3047.9102	3057.2339	3082.3684	3094.005	3103.6951	3108.0729	3119.8817
CC1CC(=O)C2OCC12	C[C@H]1CC(=O)[C@@H]2OC[C@H]12	
InChI=1S/C7H10O2/c1-4-2-6(8)7-5(4)3-9-7/h4-5,7H,2-3H2,1H3	InChI=1S/C7H10O2/c1-4-2-6(8)7-5(4)3-9-7/h4-5,7H,2-3H2,1H3/t4-,5+,7+/m0/s1
