19
gdb 511	3.2749153	1.7111259	1.4206716	2.3676	73.66	-0.24157	0.06413	0.3057	961.1714	0.159532	-422.515288	-422.508352	-422.507408	-422.546271	28.293	
C	 1.8457883386	 0.0560861883	 0.0663023572	-0.162043
O	 0.5895383849	-0.5307193459	-0.3852142219	-0.308941
C	 0.2013111078	 0.6917329639	-1.0461093025	 0.103135
C	-0.6753954925	 1.6949916133	-0.2995937768	 0.031508
C	-0.6810394956	 2.9797464599	-1.1658232577	-0.230679
C	 0.7284544327	 3.6525365107	-1.1461120703	-0.18396
C	 1.9221119399	 2.6546845154	-0.97571202	-0.325455
C	 1.3338638194	 1.4366420579	-0.3193191897	 0.389803
O	 0.3660349107	 1.8640701745	 0.7015975335	-0.335498
H	 2.0254257004	-0.106158068	 1.1326895918	 0.118674
H	 2.691909063	-0.3134887261	-0.5289163854	 0.098808
H	 0.0897963537	 0.5722433127	-2.1269672207	 0.077647
H	-1.6423915266	 1.4197271547	 0.1302268766	 0.083046
H	-0.9943454557	 2.7310692176	-2.187309534	 0.1015
H	-1.4162401592	 3.690892509	-0.7783972145	 0.108738
H	 0.8661458579	 4.2610416235	-2.0441743396	 0.097589
H	 0.7517863829	 4.3379434204	-0.2969780341	 0.122453
H	 2.3677222652	 2.3782729076	-1.9379514365	 0.104677
H	 2.7100516927	 3.1175938305	-0.3717154452	 0.108999
145.6881	243.6236	281.4213	326.336	387.1161	457.2539	480.3564	588.2227	689.6709	740.672	801.8195	823.4244	845.9234	875.5578	912.7133	932.9902	944.8108	977.7089	998.4451	1011.2471	1030.8067	1044.1422	1091.6872	1140.2275	1163.2237	1168.2091	1200.0443	1224.4106	1239.6165	1267.9188	1289.396	1311.6196	1322.1473	1338.9781	1362.1481	1371.5052	1393.035	1479.4322	1490.79	1497.7812	1503.839	3010.4233	3033.6422	3036.8252	3066.6081	3070.2526	3074.8102	3078.4643	3086.3427	3095.2703	3115.2567
C1OC2C3CCCC12O3	C1O[C@H]2[C@@H]3CCC[C@]12O3	
InChI=1S/C7H10O2/c1-2-5-6-7(3-1,9-5)4-8-6/h5-6H,1-4H2	InChI=1S/C7H10O2/c1-2-5-6-7(3-1,9-5)4-8-6/h5-6H,1-4H2/t5-,6-,7-/m0/s1
