19
gdb 2201	1.8479351	1.8153317	1.7296217	2.6653	75.52	-0.21653	0.06307	0.2796	1006.2558	0.155031	-422.502369	-422.493466	-422.492522	-422.535258	33.824	
C	-1.042084111	 2.2706344935	-0.0669038275	-0.510662
C	 0.2087545386	 1.8084529009	 0.5964480966	 0.385496
O	 0.3476746305	 1.9254173188	 2.0185217737	-0.328199
C	 1.5323504406	 1.0916996754	 1.8858579553	 0.01634
C	 2.5639401812	 2.0237795343	 1.1944187171	-0.304296
C	 1.6227824889	 1.911740895	-0.0026846911	 0.247241
O	 1.7794897354	 2.3807559428	-1.2895335458	-0.459667
C	 1.0507937938	 0.5657243368	 0.478714182	 0.148844
C	 0.8734195067	-0.7776505662	-0.1482919749	-0.537903
H	-1.9105701571	 1.7006472694	 0.2773120114	 0.124983
H	-1.2172347597	 3.329552355	 0.1516014502	 0.135295
H	-0.9507822528	 2.1613833546	-1.1506783695	 0.137102
H	 1.7677013657	 0.5098195203	 2.774550047	 0.085951
H	 2.7318385821	 2.9994936256	 1.6611163204	 0.102429
H	 3.5140493225	 1.5105916751	 1.0132628195	 0.090914
H	 2.5291102864	 1.9288948441	-1.6932739539	 0.287949
H	 0.1453255347	-1.388656075	 0.3971232386	 0.13059
H	 0.5127154087	-0.6718214851	-1.177432404	 0.128567
H	 1.8156148347	-1.3377327352	-0.186191255	 0.119024
147.2659	166.8172	172.7275	185.3567	228.1513	260.8813	324.2861	392.5988	412.7833	474.7703	574.3247	634.7611	655.2983	677.0098	735.6906	776.8674	835.5822	903.7219	919.6408	932.5508	1035.3717	1053.8446	1089.2842	1100.8099	1110.8844	1129.3816	1153.7932	1188.0858	1234.8447	1272.356	1280.6158	1342.1871	1369.5448	1409.2018	1414.7736	1473.0298	1478.9851	1486.1925	1491.2731	1495.8721	1521.8346	3018.1468	3037.7607	3040.2798	3075.7533	3089.9512	3099.4482	3100.7554	3125.3946	3142.754	3785.3654
CC12OC3CC1(O)C23C	C[C@]12O[C@@H]3C[C@@]1(O)[C@]23C	
InChI=1S/C7H10O2/c1-5-4-3-7(5,8)6(5,2)9-4/h4,8H,3H2,1-2H3	InChI=1S/C7H10O2/c1-5-4-3-7(5,8)6(5,2)9-4/h4,8H,3H2,1-2H3/t4-,5+,6-,7-/m1/s1
