19
gdb 5076	3.2325631	1.1151108	1.0439293	1.6063	76.82	-0.23514	0.00878	0.24392	1248.072	0.15573	-422.551208	-422.542119	-422.541175	-422.585135	33.54	
C	 1.3950518242	 0.650736163	-0.1818069064	-0.502265
C	 0.0428585514	 0.0888171053	 0.1197458602	 0.349263
C	-0.2750088633	-1.1610543102	 0.4767689157	-0.179022
C	-1.7615891117	-1.3547727744	 0.6853798376	-0.341643
C	-2.3327110141	 0.0446202271	 0.4514181843	 0.398304
C	-3.7601922955	 0.2506237048	-0.0018572761	-0.182914
O	-4.0603511554	-0.4307572949	-1.2114121735	-0.408316
O	-1.8527966927	 1.0182254563	 1.3862040381	-0.301343
C	-1.2047633215	 0.919627038	 0.090762631	-0.132667
H	 1.6571358788	 1.4522085712	 0.5200001409	 0.135184
H	 2.1697548856	-0.1186436705	-0.1259099948	 0.125441
H	 1.4273817342	 1.0908495327	-1.1865144336	 0.127911
H	 0.4413335197	-1.9599945581	 0.6369098689	 0.092919
H	-2.1774401077	-2.0744121671	-0.0330844208	 0.099328
H	-2.0020601157	-1.7242152202	 1.6899380691	 0.119942
H	-4.4494047888	-0.0412160378	 0.8055026362	 0.097011
H	-3.9159609738	 1.3171154835	-0.1883594883	 0.121941
H	-4.2177622209	-1.3561213493	-1.0040356991	 0.288563
H	-1.3002173628	 1.8025000807	-0.5361985594	 0.092363
56.8049	134.45	175.1421	207.9764	225.5047	256.1626	298.9133	364.2589	398.9382	489.6401	554.3216	594.2489	659.1293	763.6425	811.7158	859.0392	890.2607	917.295	953.0425	969.2981	1026.4442	1032.6379	1060.0586	1068.5311	1076.975	1158.1425	1186.2216	1193.8829	1240.1335	1269.6241	1332.7329	1348.8969	1389.1538	1389.8211	1415.7735	1446.2841	1462.9941	1479.3867	1489.4876	1496.3214	1706.7746	2989.1347	3014.7728	3019.6794	3055.5507	3067.1031	3089.0311	3112.0447	3149.6592	3187.4594	3835.9036
CC1=CCC2(CO)OC12	CC1=CC[C@@]2(CO)O[C@@H]12	
InChI=1S/C7H10O2/c1-5-2-3-7(4-8)6(5)9-7/h2,6,8H,3-4H2,1H3	InChI=1S/C7H10O2/c1-5-2-3-7(4-8)6(5)9-7/h2,6,8H,3-4H2,1H3/t6-,7-/m0/s1
