19
gdb 3879	1.9430426	1.6413442	1.0708211	3.3876	76.08	-0.25068	-0.02376	0.22692	1180.9035	0.154643	-422.533286	-422.524141	-422.523197	-422.568037	33.029	
C	 1.0407441955	 1.1690799708	-0.232477983	-0.407912
C	 0.9077756961	-0.3127479945	 0.0959895064	 0.021327
C	 1.5279768448	-1.2875663725	-0.9606265305	-0.335591
C	 2.6618907831	-1.5719055529	 0.021783083	 0.457896
C	 4.1042441404	-1.6670182017	-0.2039449227	-0.262702
O	 3.3240732791	-2.8136397498	 0.1692158881	-0.266717
C	 1.9116938515	-0.8424604083	 1.1617217025	-0.229693
C	 1.3395938228	-1.8006341839	 2.1821928476	 0.157708
O	 0.1749448364	-2.0964370304	 2.2703032188	-0.242841
H	 0.7404365588	 1.790898332	 0.6176545087	 0.12077
H	 2.073166152	 1.4325499159	-0.4910291806	 0.112082
H	 0.4071944558	 1.4386138198	-1.0840343932	 0.120872
H	-0.1216977207	-0.5612474255	 0.3594764863	 0.103691
H	 0.913017008	-2.1736211911	-1.1386906775	 0.126792
H	 1.8131243246	-0.8514317697	-1.9217081498	 0.105755
H	 4.4903516862	-1.6808867428	-1.2223956347	 0.120967
H	 4.8000400566	-1.3086831696	 0.5541621664	 0.116766
H	 2.5135329894	-0.0938308774	 1.6915785837	 0.091386
H	 2.0954118395	-2.2446344185	 2.8657512606	 0.089443
38.3812	70.0272	172.2919	199.8209	238.8312	263.7884	305.9175	347.4294	391.011	471.7231	547.5779	674.9042	774.5974	812.048	844.3526	874.1948	889.72	909.0123	943.2819	994.9899	1034.9507	1064.2263	1107.6054	1122.7616	1131.3754	1160.5781	1169.541	1175.728	1215.0709	1241.9948	1263.9029	1308.1463	1371.6556	1412.2108	1423.3739	1425.3096	1475.7658	1496.9276	1498.9865	1532.5909	1822.2239	2897.3881	3024.8928	3037.5514	3059.8145	3078.998	3082.9222	3098.8274	3103.5934	3116.4527	3167.0126
CC1CC2(CO2)C1C=O	C[C@H]1C[C@@]2(CO2)[C@@H]1C=O	
InChI=1S/C7H10O2/c1-5-2-7(4-9-7)6(5)3-8/h3,5-6H,2,4H2,1H3	InChI=1S/C7H10O2/c1-5-2-7(4-9-7)6(5)3-8/h3,5-6H,2,4H2,1H3/t5-,6+,7+/m0/s1
