19
gdb 2257	3.4061296	1.5781795	1.3230552	1.8753	74.22	-0.24375	0.08922	0.33297	1010.4039	0.158658	-422.528476	-422.521044	-422.5201	-422.559871	29.708	
C	 0.0035039662	 0.5302443363	 0.3354929454	-0.50483
C	 1.3176739816	 0.1838943981	-0.3015391987	 0.308418
C	 2.1915595543	 1.1424548727	-1.1138955647	-0.301057
C	 3.4688665503	 0.4016533726	-0.5943722198	 0.118488
O	 4.2089317181	-0.3063996352	-1.5813893562	-0.268145
C	 3.6563410546	-1.5708290701	-1.8634845158	 0.021624
O	 2.2473257897	-1.5507123528	-1.9098068701	-0.252571
C	 1.7136896487	-1.2245670047	-0.6469670741	 0.055464
C	 2.5811134851	-0.4647841227	 0.3138839026	-0.215274
H	 0.0863411007	 1.4281091792	 0.9583800486	 0.119295
H	-0.7606228431	 0.7241231717	-0.4267274256	 0.127232
H	-0.361750133	-0.2834783826	 0.9708048015	 0.118609
H	 2.052361357	 1.1421665493	-2.1976943032	 0.107858
H	 2.1425635506	 2.1672016021	-0.7354695917	 0.098269
H	 4.175667687	 1.0537444796	-0.0802891768	 0.089115
H	 4.0123287503	-1.8661337027	-2.8527970596	 0.116954
H	 3.9853396983	-2.3018836333	-1.1065762651	 0.082869
H	 1.0844500952	-2.0106296714	-0.2361628474	 0.092017
H	 2.7978605284	-0.7954811561	 1.3226253606	 0.085665
185.6491	197.8744	225.4574	259.7471	336.9946	401.3591	470.0959	512.8337	571.2273	611.3803	709.7109	781.2243	824.4239	856.8905	899.7449	947.3578	960.535	968.9418	983.3677	1002.1746	1026.4397	1060.4344	1096.0199	1096.9514	1152.6651	1177.5895	1194.3529	1223.9032	1239.3328	1249.8471	1296.4251	1309.2845	1323.6705	1367.1678	1415.47	1434.2331	1451.0632	1481.688	1489.0174	1498.9056	1523.0546	2962.0324	3022.2021	3057.4527	3082.387	3094.633	3100.9598	3108.191	3116.8688	3135.9903	3179.5833
CC12CC3OCOC1C23	C[C@]12C[C@@H]3OCO[C@H]1[C@H]23	
InChI=1S/C7H10O2/c1-7-2-4-5(7)6(7)9-3-8-4/h4-6H,2-3H2,1H3	InChI=1S/C7H10O2/c1-7-2-4-5(7)6(7)9-3-8-4/h4-6H,2-3H2,1H3/t4-,5+,6-,7+/m0/s1
