19
gdb 1842	2.6682154	1.4423296	1.1731028	2.749	75.89	-0.23897	-0.02428	0.21469	1110.6531	0.156532	-422.559961	-422.55165	-422.550706	-422.592781	31.631	
C	-1.2156078116	-1.0734189734	-0.5944877659	-0.496222
C	-0.1617062244	-0.7701462358	-1.6223386239	 0.391868
C	-0.2402352797	-1.4511300149	-3.0108890415	-0.251534
C	 0.8907170077	-0.6416217924	-3.7140726772	-0.226643
C	 1.2638256446	 0.2429523521	-2.5089362375	 0.057482
O	-0.0398720315	 0.6457477131	-1.9965729384	-0.329294
C	 1.3813486925	-0.7711255435	-1.3356736286	-0.128949
C	 1.7693716241	-0.1395360638	-0.0312111487	 0.144221
O	 2.5455865822	-0.6349871912	 0.7491561826	-0.268486
H	-1.0649626418	-0.4964848194	 0.3212432816	 0.134815
H	-2.2067224831	-0.8333363452	-0.9928953086	 0.1345
H	-1.1994728378	-2.1378954965	-0.3400044091	 0.131875
H	-0.0485715374	-2.5261661578	-2.9646791291	 0.105699
H	-1.2221948853	-1.2892881204	-3.4617365144	 0.111092
H	 1.7221584113	-1.2575839242	-4.0655555909	 0.107084
H	 0.5254100097	-0.036024345	-4.5458730799	 0.114527
H	 1.9621721241	 1.0687406815	-2.6448916571	 0.089299
H	 1.9376795598	-1.6984456669	-1.4916480625	 0.084293
H	 1.2882421865	 0.8400091635	 0.172318089	 0.094372
80.8935	168.2329	192.9276	241.6214	256.5946	327.7952	361.921	401.7255	497.2692	578.3696	620.0062	701.0339	785.73	828.4749	873.7016	879.9683	921.0354	937.8294	957.5661	1000.8058	1009.2163	1054.1688	1068.8765	1113.184	1152.169	1175.1636	1186.407	1213.3438	1240.9238	1257.8989	1290.121	1295.0026	1318.7363	1352.2693	1415.8442	1421.0253	1475.2377	1481.6079	1492.3199	1497.7505	1817.9225	2915.5225	3041.8625	3064.7854	3073.3724	3091.6923	3109.223	3112.2342	3123.3778	3124.9623	3127.9699
CC12CCC(O1)C2C=O	C[C@@]12CC[C@@H](O1)[C@H]2C=O	
InChI=1S/C7H10O2/c1-7-3-2-6(9-7)5(7)4-8/h4-6H,2-3H2,1H3	InChI=1S/C7H10O2/c1-7-3-2-6(9-7)5(7)4-8/h4-6H,2-3H2,1H3/t5-,6-,7+/m1/s1
