19
gdb 3786	4.9342783	0.755981	0.6897155	1.8373	76.95	-0.2393	-0.01946	0.21984	1587.7612	0.155044	-422.543788	-422.534724	-422.53378	-422.578443	33.544	
O	-4.7851097691	-1.3254084674	-2.4028153999	-0.420346
C	-4.3164773239	-0.7120782395	-1.2378779737	 0.094765
C	-4.2752719301	 0.7834821502	-1.2556892571	-0.306498
C	-2.9793887961	-0.0088733333	-1.2447513456	-0.049775
C	-2.085630886	-0.0158591166	-0.0359061444	 0.010611
C	-0.9805902474	-1.1223634946	 0.0446964647	-0.366449
C	 0.0270235309	-0.0175106434	 0.4011091746	 0.403377
O	 1.1369353112	-0.0209167477	 0.8472276602	-0.288619
C	-0.9804311017	 1.0902547583	 0.0576429862	-0.360449
H	-4.3269425604	-2.166677196	-2.5017599045	 0.285555
H	-4.6206386918	-1.1939333466	-0.3073708754	 0.083659
H	-4.5598404025	 1.2613416734	-2.1858995504	 0.126055
H	-4.5646320053	 1.3185519474	-0.3573539255	 0.112895
H	-2.4601393179	-0.0441489728	-2.2006789076	 0.084892
H	-2.6931560567	-0.0192160663	 0.8744720049	 0.077438
H	-1.0987057494	-1.9257761609	 0.7760985629	 0.127747
H	-0.7532792177	-1.5706747503	-0.9298120939	 0.125861
H	-1.0990315024	 1.8856975946	 0.7975011155	 0.128683
H	-0.7567921237	 1.5496352115	-0.9121109811	 0.130598
48.8725	65.6621	123.3624	214.7304	289.1522	327.6453	353.0707	413.0966	424.9655	447.0551	502.0822	662.3845	667.8713	745.6617	835.1448	879.8942	907.7742	927.3623	935.9756	962.1004	1007.2644	1019.7174	1056.4638	1095.5706	1110.6364	1112.4031	1144.5453	1188.6089	1191.1783	1222.4026	1227.1485	1240.3262	1259.6024	1291.468	1305.1744	1391.9373	1427.0442	1441.4687	1448.9325	1496.2691	1894.767	3044.1565	3049.9059	3055.7081	3086.2609	3110.5701	3112.1811	3128.7878	3137.2423	3228.4814	3804.5428
OC1CC1C1CC(=O)C1	O[C@@H]1C[C@H]1C1CC(=O)C1	
InChI=1S/C7H10O2/c8-5-1-4(2-5)6-3-7(6)9/h4,6-7,9H,1-3H2	InChI=1S/C7H10O2/c8-5-1-4(2-5)6-3-7(6)9/h4,6-7,9H,1-3H2/t6-,7+/m0/s1
