19
gdb 1141	3.253781	1.2339059	1.1295865	2.8527	74.78	-0.23407	-0.01454	0.21953	1162.2728	0.156513	-422.559548	-422.550908	-422.549964	-422.593492	31.784	
C	 2.0289239543	-0.6563036572	-3.4163135005	-0.480967
C	 1.3824733242	 0.6410296076	-2.959946594	 0.37439
O	 1.5378703046	 1.6771489937	-3.5625249982	-0.292685
C	 0.5164858541	 0.55314547	-1.700449637	-0.132683
C	 1.3951105714	 0.5532498698	-0.405941546	-0.110651
O	 1.4671860609	 1.8967892139	 0.0434412061	-0.247141
C	 0.330451756	 2.5775560365	-0.4230051423	 0.134854
C	-1.029150241	 1.9749893658	-0.1783859726	-0.365589
C	-0.3325820786	 1.7981652314	-1.5181133401	-0.056483
H	 1.2537755953	-1.32798665	-3.8050841581	 0.143407
H	 2.7541019076	-0.4529596714	-4.2048930256	 0.145112
H	 2.5133173705	-1.181405711	-2.5866728755	 0.134997
H	-0.0604726703	-0.3781703446	-1.7395085779	 0.087259
H	 0.9303238004	-0.087898645	 0.3553230953	 0.10403
H	 2.4170424494	 0.1957512536	-0.5644882439	 0.115157
H	 0.4807283494	 3.6494720121	-0.4428280147	 0.107848
H	-1.1230390994	 1.1278920892	 0.4934191694	 0.114474
H	-1.8737597703	 2.655145189	-0.1541153659	 0.117426
H	-0.7215526989	 2.2814427566	-2.4042156685	 0.107245
53.4246	100.1872	114.0826	183.2169	272.6004	310.6237	345.8636	441.6008	560.4052	572.734	704.2283	732.6131	775.4219	799.0495	816.8754	906.0166	921.9914	946.8248	962.6374	993.5589	1012.0301	1041.5592	1066.0761	1092.1248	1101.0011	1118.7839	1164.2119	1181.0488	1198.3967	1243.474	1249.1216	1305.9331	1354.0262	1373.9298	1383.4799	1402.6758	1463.0118	1475.8138	1481.3133	1526.0257	1812.33	3004.2116	3034.3028	3043.5568	3077.7336	3096.9581	3130.5033	3153.4805	3196.042	3204.2853	3217.8369
CC(=O)C1COC2CC12	CC(=O)[C@H]1CO[C@@H]2C[C@H]12	
InChI=1S/C7H10O2/c1-4(8)6-3-9-7-2-5(6)7/h5-7H,2-3H2,1H3	InChI=1S/C7H10O2/c1-4(8)6-3-9-7-2-5(6)7/h5-7H,2-3H2,1H3/t5-,6-,7-/m1/s1
