19
gdb 3293	3.5943729	1.548679	1.4160307	1.9927	73.76	-0.22512	0.08614	0.31126	985.4049	0.159433	-422.541074	-422.534116	-422.533172	-422.572055	28.351	
C	-0.0501137022	 0.2925288592	 0.0492851623	-0.429509
C	 1.4352388778	-0.0521282005	 0.0592319967	 0.008018
C	 1.9382236979	-1.1454274523	 1.0401046609	 0.03743
O	 3.3577493334	-1.1120133256	 0.8146708011	-0.285256
C	 3.3982049493	-1.3627820013	-0.615392446	 0.046336
C	 3.5335562886	-2.8769052845	-0.7393748705	-0.075994
O	 2.3062997585	-3.3532384286	-0.1575705522	-0.280536
C	 1.4776369474	-2.2258702959	-0.0056701122	 0.125366
C	 1.913596393	-1.0988207742	-0.9856159807	-0.115352
H	-0.3205049699	 0.8538932051	 0.9500058232	 0.121422
H	-0.2932676029	 0.9207540081	-0.8143880503	 0.121263
H	-0.6949951566	-0.5895355575	 0.0025334444	 0.120172
H	 2.0390423296	 0.8583949487	 0.1128852687	 0.078805
H	 1.7237495791	-1.1680443863	 2.1078624505	 0.078343
H	 4.1720486968	-0.7608566296	-1.0931131362	 0.081525
H	 3.620670732	-3.2230488334	-1.7803145398	 0.088574
H	 4.3823256582	-3.2510181522	-0.159579457	 0.116128
H	 0.4346849964	-2.5305992032	 0.0247800646	 0.090115
H	 1.6463462135	-1.080610556	-2.0416214475	 0.073147
189.1376	222.4954	234.5472	286.642	406.8433	442.5857	504.2822	621.9775	704.96	777.917	804.2055	825.0028	855.1402	883.5747	924.3051	929.8282	948.53	973.0825	997.9421	1025.7626	1039.9497	1069.979	1078.2545	1105.8829	1115.6655	1137.0747	1183.1382	1196.2571	1224.7725	1234.9726	1257.1057	1268.373	1287.4536	1327.9927	1329.8234	1384.1923	1391.4122	1417.906	1496.1763	1502.5106	1505.8693	2992.2835	3034.6511	3064.03	3085.0386	3094.3773	3109.9511	3112.0287	3125.3317	3131.9263	3156.6729
CC1C2OC3COC2C13	C[C@H]1[C@@H]2O[C@H]3CO[C@@H]2[C@@H]13	
InChI=1S/C7H10O2/c1-3-5-4-2-8-7(5)6(3)9-4/h3-7H,2H2,1H3	InChI=1S/C7H10O2/c1-3-5-4-2-8-7(5)6(3)9-4/h3-7H,2H2,1H3/t3-,4+,5+,6+,7-/m1/s1
