19
gdb 6079	2.7104431	0.9222256	0.7665937	1.6841	78.92	-0.26018	0.0231	0.28328000000000003	1544.0052	0.152998	-422.484076	-422.473808	-422.472864	-422.520478	35.882	
C	 4.0127793086	-1.0469791406	-0.7439433421	-0.38559
C	 2.669837054	-1.2180520174	-0.0557086158	-0.02334
O	 1.7129542605	-0.4262699783	-0.734860643	-0.245728
C	 0.427399296	-0.5024801818	-0.1710040502	-0.138247
C	-0.4669641671	 0.4956920642	-0.8835313889	 0.198554
C	-1.1888201266	 0.071417431	-2.0989889152	-0.202675
O	-1.8651583389	 0.1575667687	-0.8478123528	-0.268256
C	-0.1475698619	 1.8892901969	-0.6901745089	 0.314589
C	 0.1314954069	 3.0430992531	-0.504669383	-0.446679
H	 4.7773030925	-1.6458664322	-0.2402316271	 0.115955
H	 3.9529001399	-1.366627004	-1.7881081984	 0.127223
H	 4.3218961693	 0.0017394833	-0.7237600844	 0.130754
H	 2.3605231551	-2.2769634313	-0.0646317207	 0.087084
H	 2.731665637	-0.9097726326	 1.0013206125	 0.090736
H	-0.0110046348	-1.5066169353	-0.2858801324	 0.097039
H	 0.4531794524	-0.2693170022	 0.9058232769	 0.100335
H	-1.4694427437	 0.8207067647	-2.8357366851	 0.127256
H	-1.0256179296	-0.9353176328	-2.4810751669	 0.12067
H	 0.3740591604	 4.0652318166	-0.3485165843	 0.200321
41.1309	63.1544	104.319	123.9259	175.4447	222.7357	246.5239	303.8664	328.9862	389.3921	477.6711	543.5326	585.495	624.6569	661.4319	723.5149	821.2892	859.4155	905.9704	919.0678	944.0683	1045.348	1058.9151	1130.9873	1150.2397	1161.9	1167.4998	1186.4974	1228.7989	1274.6898	1296.356	1374.4999	1386.0307	1406.1352	1448.5915	1483.4838	1499.1556	1508.7908	1521.6073	1534.2517	2242.7282	2954.9397	2970.7864	2983.3559	3004.7134	3046.1997	3089.6534	3120.6285	3123.7879	3185.093	3502.2807
CCOCC1(CO1)C#C	CCOC[C@]1(CO1)C#C	
InChI=1S/C7H10O2/c1-3-7(6-9-7)5-8-4-2/h1H,4-6H2,2H3	InChI=1S/C7H10O2/c1-3-7(6-9-7)5-8-4-2/h1H,4-6H2,2H3/t7-/m0/s1
