19
gdb 547	2.859176	1.5672936	1.1045207	2.0261	77.76	-0.23381	0.01222	0.24603	1103.3077	0.158613	-422.523743	-422.515928	-422.514984	-422.556167	29.81	
C	 1.1330079794	 0.2903277065	-0.6043913648	-0.171368
O	 0.8119411198	 1.6084574171	-0.0870629432	-0.305548
C	-0.4821787177	 1.1511342786	 0.3914422874	 0.011726
C	-0.7740811813	 1.4589992453	 1.8710390444	-0.090494
O	-1.3804748829	 0.3785371386	 2.5615677013	-0.248586
C	-2.3732387377	-0.3432635216	 1.8474394464	-0.090481
C	-1.8070473609	-1.6453383177	 1.2614555165	-0.244606
C	-0.599050757	-1.4535060464	 0.3820265758	-0.206675
C	-0.105804753	-0.2712976735	 0.052644645	 0.295094
H	 1.1419717909	 0.2793796575	-1.7036354868	 0.109567
H	 2.0994428131	-0.0770953076	-0.2374490278	 0.118952
H	-1.2714590072	 1.5629535397	-0.2544546794	 0.090689
H	 0.1783935677	 1.6505657642	 2.3738931084	 0.122996
H	-1.3954578658	 2.3639825784	 1.9551982551	 0.089913
H	-3.1692085109	-0.5872045435	 2.5605404189	 0.105558
H	-2.8280628353	 0.2734163552	 1.0600266775	 0.10091
H	-1.5242118223	-2.3031528983	 2.0949507279	 0.119592
H	-2.6054991759	-2.1766152772	 0.7224179477	 0.103975
H	-0.0877789631	-2.3565308052	 0.0528894295	 0.088783
88.7512	128.5186	249.4757	267.9893	313.5102	351.064	388.4089	433.3583	577.2124	628.9679	745.7396	787.2489	829.5683	857.2344	907.2987	949.9329	958.8102	996.6684	1017.1262	1044.839	1074.0765	1082.3786	1092.4638	1133.3319	1139.6328	1169.0459	1236.6969	1250.5988	1274.7859	1301.9447	1315.0702	1348.89	1376.8288	1382.354	1400.9349	1412.9005	1466.0931	1504.3928	1510.0703	1510.5869	1805.4771	2974.022	2988.9329	2998.7217	3001.0889	3011.1224	3033.2571	3045.2632	3061.3119	3089.0795	3141.6417
C1OC2COCCC=C12	C1O[C@@H]2COCCC=C12	
InChI=1S/C7H10O2/c1-2-6-4-9-7(6)5-8-3-1/h2,7H,1,3-5H2	InChI=1S/C7H10O2/c1-2-6-4-9-7(6)5-8-3-1/h2,7H,1,3-5H2/t7-/m1/s1
