19
gdb 1928	3.0620225	1.1185125	1.0643244	2.0188	75.44	-0.24642	-0.02234	0.22408	1206.0692	0.15658	-422.569136	-422.560556	-422.559612	-422.602629	32.487	
O	 3.4712297142	 0.400711324	-3.9331137325	-0.471427
C	 2.6264341239	 1.0741593009	-3.0546085924	 0.436977
C	 1.1923937517	 1.160461138	-3.4656551178	-0.340373
C	 1.5679151861	 0.3709915701	-2.2205191987	-0.124406
C	 1.4378675321	 1.0826127773	-0.8773838028	-0.079729
C	 2.1614416262	 2.4500973725	-1.1024023076	-0.265252
C	 3.1944541473	 2.2175756465	-2.2257833389	-0.278076
C	 2.1390154156	 0.2821476392	 0.1996906842	 0.163402
O	 1.6210135298	-0.1328144565	 1.2036806835	-0.251341
H	 4.1854910448	 0.0052303606	-3.4201484344	 0.279155
H	 0.6491361307	 2.0956567638	-3.3759079406	 0.113681
H	 0.9236952215	 0.5639112581	-4.3299053393	 0.127932
H	 1.4535310047	-0.7066727073	-2.2641050977	 0.097179
H	 0.4008048893	 1.2216903671	-0.5570808521	 0.091641
H	 1.4211644876	 3.1932961754	-1.4098323327	 0.120473
H	 2.6192983708	 2.8303923081	-0.1847302297	 0.114235
H	 3.3835816648	 3.1207719437	-2.8146922011	 0.110641
H	 4.1595029646	 1.898682466	-1.8089392257	 0.093678
H	 3.2215537744	 0.0924118424	-0.0038099537	 0.061613
58.6455	98.7751	193.7897	285.3	306.2521	329.2422	377.2839	401.8889	416.6254	470.2342	561.0181	676.255	725.5171	809.3124	841.6846	891.9798	917.5461	933.1583	963.7728	985.2408	1000.6634	1038.4877	1053.5049	1079.1336	1101.6776	1123.8161	1182.6748	1206.017	1242.3273	1255.4296	1273.6442	1297.018	1320.7284	1334.4542	1357.5151	1419.3695	1430.8564	1482.8166	1493.4505	1511.3035	1835.1485	2830.279	3017.2304	3058.4531	3068.4033	3075.8851	3101.9567	3132.7135	3171.6897	3223.481	3785.5172
OC12CC1C(CC2)C=O	O[C@@]12C[C@@H]1[C@H](CC2)C=O	
InChI=1S/C7H10O2/c8-4-5-1-2-7(9)3-6(5)7/h4-6,9H,1-3H2	InChI=1S/C7H10O2/c8-4-5-1-2-7(9)3-6(5)7/h4-6,9H,1-3H2/t5-,6-,7+/m1/s1
