19
gdb 4133	2.1745875	2.0831562	1.5950635	1.8164	74.08	-0.24109	0.00099	0.24208	955.1181	0.15686	-422.565784	-422.557827	-422.556883	-422.597583	31.635	
C	 0.4428761841	-0.5613269409	-0.3051662604	-0.415672
C	 0.9034903361	 0.7164215301	 0.3744284035	 0.130436
O	 2.2987112612	 0.9587645555	 0.1276483559	-0.298595
C	 2.8389030038	 1.2316129125	 1.4434335098	 0.118527
O	 1.7830030548	 1.8741439269	 2.1134208797	-0.259101
C	 0.8397821256	 0.7845849071	 1.9490934647	 0.293689
C	-0.4971133583	 1.089198669	 2.5731707657	-0.497725
C	 1.6556558529	-0.3983386239	 2.4625405949	-0.139127
C	 2.9228228867	-0.1141821727	 2.1598861795	-0.081332
H	 1.0053467743	-1.4252948052	 0.0566587703	 0.124163
H	-0.6252435193	-0.7306066088	-0.1291261555	 0.111551
H	 0.5962994775	-0.4846026674	-1.3853531319	 0.129582
H	 0.332865358	 1.5754477914	-0.0036003511	 0.080952
H	 3.7228108913	 1.8597143092	 1.3535142746	 0.090771
H	-0.3924879228	 1.2346514383	 3.651700082	 0.135442
H	-0.9254001342	 1.9978608032	 2.1403372783	 0.131665
H	-1.195389162	 0.2637023447	 2.4040273768	 0.124342
H	 1.2397008422	-1.3104571276	 2.8681889755	 0.108227
H	 3.8071175282	-0.7291643013	 2.2515484778	 0.112205
164.1303	190.1819	210.3171	240.302	302.9581	332.1882	431.8252	486.1158	523.0558	611.2764	639.2038	711.5155	729.8274	781.2709	836.2419	858.1777	870.1909	876.4866	892.4112	928.6477	943.5103	1037.1809	1051.2547	1093.9007	1114.8749	1133.301	1156.1927	1195.5587	1262.1136	1280.3776	1315.1174	1330.777	1360.045	1379.723	1408.2785	1417.1631	1482.3183	1484.5556	1495.2163	1499.4261	1636.9766	3010.5386	3039.661	3044.2979	3107.1735	3116.0135	3121.7606	3128.486	3151.2201	3216.7074	3243.862
CC1OC2OC1(C)C=C2	C[C@@H]1O[C@H]2O[C@]1(C)C=C2	
InChI=1S/C7H10O2/c1-5-7(2)4-3-6(8-5)9-7/h3-6H,1-2H3	InChI=1S/C7H10O2/c1-5-7(2)4-3-6(8-5)9-7/h3-6H,1-2H3/t5-,6-,7+/m0/s1
