19
gdb 5588	2.8398647	1.1724709	0.9118196	2.5644	76.55	-0.23578	-0.01988	0.21589999999999998	1311.9047	0.1564	-422.560746	-422.552042	-422.551098	-422.594528	32.035	
C	 0.2220933597	-0.8597873912	 1.0791438026	-0.37189
C	 0.2176168242	-0.1295948638	-0.2684061887	-0.213547
C	 1.207376365	-0.7040648452	-1.2613244619	-0.054981
C	 0.9586206816	-0.6295359199	-2.7263506072	 0.084805
O	 2.0771750247	-0.6513019283	-3.5843082572	-0.264857
C	 2.7800923775	-1.8748221057	-3.4216662708	-0.19865
C	 1.9018918965	-2.8049303271	-2.5653748897	 0.380986
O	 2.0845830035	-3.9857897537	-2.4112881365	-0.320953
C	 0.7860321618	-1.9673160637	-2.0449980367	-0.209975
H	-0.0333865966	-1.9171099506	 0.9566638606	 0.125969
H	 1.2095252385	-0.8105391047	 1.5501658347	 0.120138
H	-0.5002729459	-0.4144582557	 1.7696458063	 0.116496
H	-0.7895505779	-0.1602760024	-0.7028956085	 0.10016
H	 0.4527120755	 0.9315254109	-0.1158969522	 0.109324
H	 2.2486764676	-0.6608002319	-0.9489164839	 0.100743
H	 0.1317639706	-0.0582347698	-3.1334799095	 0.113217
H	 2.9650806022	-2.3284535867	-4.4011177151	 0.140363
H	 3.7519356708	-1.7184449618	-2.9321293292	 0.129333
H	-0.1646943992	-2.4340955388	-1.8214277972	 0.113317
81.6993	117.9931	126.2593	176.6747	225.9495	301.3236	361.8429	426.9549	477.8011	540.6711	629.2834	689.4162	762.2484	833.5797	846.0761	872.831	915.3711	951.2521	984.6176	1011.8242	1047.3888	1056.3668	1063.6491	1103.2372	1126.0306	1160.4196	1187.5842	1203.4699	1219.7865	1274.0672	1289.4937	1312.887	1332.9288	1372.8221	1413.5804	1436.5472	1483.5736	1486.7498	1498.0848	1506.3168	1840.8152	3009.9493	3020.7383	3036.9637	3053.4736	3072.6954	3105.793	3111.0611	3132.3424	3176.2423	3200.1181
CCC1C2OCC(=O)C12	CC[C@@H]1[C@H]2OCC(=O)[C@@H]12	
InChI=1S/C7H10O2/c1-2-4-6-5(8)3-9-7(4)6/h4,6-7H,2-3H2,1H3	InChI=1S/C7H10O2/c1-2-4-6-5(8)3-9-7(4)6/h4,6-7H,2-3H2,1H3/t4-,6+,7+/m0/s1
