19
gdb 3194	3.2023484	1.5947985	1.3793761	0.577	73.94	-0.24008	0.07835	0.31843	995.8929	0.157775	-422.526422	-422.518889	-422.517945	-422.557773	30.711	
C	-0.2515395525	-0.2108069344	-0.2105211956	-0.424497
C	 1.2677636551	-0.1050752174	-0.1360852249	 0.054369
C	 1.8650460325	 1.3190817627	 0.0026988252	-0.104112
C	 3.3902330059	 1.0352525643	-0.0996357873	-0.29932
C	 3.1885312721	 0.3582096262	 1.253235293	 0.415476
O	 4.268146749	 0.0208709	 2.0448998914	-0.481242
C	 2.0287517269	 1.3308597725	 1.5987214692	 0.019591
O	 1.2290188508	 0.2883836747	 2.1717172257	-0.296692
C	 1.8911296657	-0.5739334869	 1.1957698473	-0.039126
H	-0.7168831668	 0.2642426378	 0.6554468696	 0.136491
H	-0.6272301914	 0.2738871756	-1.1178980734	 0.109653
H	-0.5715658256	-1.2585087987	-0.236535976	 0.110187
H	 1.7234329297	-0.6231825452	-0.9871202526	 0.071911
H	 1.3974174243	 2.1385183439	-0.5384849186	 0.070964
H	 3.7458725652	 0.4513827565	-0.9526823295	 0.09964
H	 4.0016680109	 1.9341820296	 0.0197751823	 0.10703
H	 3.9325539092	-0.2622277377	 2.9040115921	 0.289665
H	 2.0731487182	 2.2648577463	 2.156576079	 0.085541
H	 1.8918319908	-1.6293659299	 1.4706443932	 0.074471
188.1655	207.5361	242.4248	301.9004	337.2023	367.2423	447.8353	488.9748	538.8771	663.4512	705.2883	715.7246	787.1844	818.597	854.0792	898.4897	927.4458	934.5954	954.7321	1004.935	1017.9149	1032.7502	1056.245	1081.8014	1093.1826	1118.0079	1155.639	1165.5002	1189.1851	1212.6399	1233.669	1240.7158	1277.7789	1321.1928	1348.0976	1381.1801	1400.7292	1404.9122	1492.4295	1504.4912	1506.4016	3033.5798	3046.2163	3056.7899	3093.0632	3112.4163	3117.016	3133.0735	3135.1827	3145.5578	3789.4143
CC1C2CC3(O)C2OC13	C[C@H]1[C@@H]2C[C@@]3(O)[C@@H]2O[C@@H]13	
InChI=1S/C7H10O2/c1-3-4-2-7(8)5(3)9-6(4)7/h3-6,8H,2H2,1H3	InChI=1S/C7H10O2/c1-3-4-2-7(8)5(3)9-6(4)7/h3-6,8H,2H2,1H3/t3-,4-,5-,6+,7-/m0/s1
