19
gdb 2001	2.9115325	1.6601843	1.3093162	1.992	73.77	-0.23634	0.0808	0.31714	1017.198	0.157732	-422.533415	-422.525625	-422.52468	-422.56549	30.189	
C	-0.0807012503	 0.2028180161	-0.164477098	-0.51147
C	 1.4102688348	 0.1743658772	-0.1316312829	 0.394664
O	 2.0934396117	-1.0821794248	-0.016417246	-0.291701
C	 2.4460550106	-0.2195146578	-1.1083468294	-0.059068
C	 3.4627752132	 0.7891391931	-0.5574364749	-0.073645
C	 3.6627188814	 2.0639910464	-1.3845105979	-0.242129
C	 2.3917270102	 2.8797914229	-1.0978188556	-0.088798
O	 2.0260680456	 2.5614528293	 0.2433875399	-0.256576
C	 2.3681689514	 1.2153100283	 0.4990038717	 0.035936
H	-0.4926240849	-0.0374642008	 0.8221623248	 0.132971
H	-0.4326821536	 1.2020566831	-0.4378244893	 0.136676
H	-0.4695894512	-0.5236867622	-0.883093543	 0.130225
H	 2.3566489673	-0.6273719298	-2.1103218779	 0.097959
H	 4.3910613718	 0.348669584	-0.1905715425	 0.083782
H	 4.5451307971	 2.6001748481	-1.0230548367	 0.113319
H	 3.8013936517	 1.8710366354	-2.4523653298	 0.104103
H	 2.5411269275	 3.9612448963	-1.1522467488	 0.111968
H	 1.5852757163	 2.6110736062	-1.7964047015	 0.095379
H	 2.5656100695	 1.100147849	 1.5668785277	 0.086406
121.1989	162.2968	187.2783	244.8096	318.2136	330.308	465.5828	484.8091	570.0453	660.1836	711.8964	814.772	828.0225	860.9446	881.9503	899.0044	935.5348	958.6625	975.8981	998.7067	1026.7692	1051.9254	1092.8002	1117.8388	1121.6063	1176.0888	1207.893	1227.4679	1230.637	1255.0251	1271.503	1300.1978	1323.9291	1352.2661	1393.0715	1401.107	1459.9694	1480.2382	1485.2579	1494.954	1522.5397	2990.2094	3036.2773	3054.8085	3088.8377	3091.9741	3100.2199	3100.3061	3106.9087	3122.396	3167.1024
CC12OC1C1CCOC21	C[C@@]12O[C@@H]1[C@H]1CCO[C@@H]21	
InChI=1S/C7H10O2/c1-7-5-4(2-3-8-5)6(7)9-7/h4-6H,2-3H2,1H3	InChI=1S/C7H10O2/c1-7-5-4(2-3-8-5)6(7)9-7/h4-6H,2-3H2,1H3/t4-,5+,6+,7-/m0/s1
