19
gdb 4740	1.953239	1.0899827	0.8893922	3.4384	81.41	-0.24679	-0.03005	0.21674000000000002	1434.679	0.152599	-422.543386	-422.53212	-422.531176	-422.581272	38.102	
C	 1.5097832585	-0.0500078899	 0.0276190711	-0.498747
C	 0.0543161963	-0.002959012	 0.0115401313	 0.00113
C	-1.1510967203	 0.0256520317	-0.0092899507	 0.085128
C	-2.615789843	 0.0703056421	-0.0023929053	-0.041619
C	-3.1662356045	 0.0424914212	-1.4506791607	-0.417354
C	-3.0989916956	 1.3408771608	 0.7410052545	-0.070812
O	-2.6301146901	 2.5240525191	 0.1272811465	-0.425832
C	-3.1191939313	-1.1892831898	 0.7131838919	 0.153746
O	-3.8992965266	-1.185182694	 1.6277519323	-0.251637
H	 1.9098065372	 0.3073015725	 0.9825558017	 0.154486
H	 1.8702788258	-1.0735518671	-0.1211326934	 0.156155
H	 1.9367881922	 0.5705885826	-0.7675681732	 0.153845
H	-2.7895564552	-0.8228611361	-2.0021325036	 0.124324
H	-4.26010552	 0.0059991463	-1.437675011	 0.128014
H	-2.8541885805	 0.9533888077	-1.9647873942	 0.147664
H	-4.1905385758	 1.3805321741	 0.7101161037	 0.121753
H	-2.7981000402	 1.2763967552	 1.7947752113	 0.105672
H	-1.6663155022	 2.4907204422	 0.150730154	 0.284324
H	-2.7062951345	-2.1361949766	 0.2996614936	 0.089761
25.4228	58.7783	82.4416	119.25	150.1174	192.8572	224.9728	282.1062	295.0524	296.0319	330.8714	389.3658	424.5048	490.6227	544.8508	606.3897	692.677	853.2419	914.5883	949.583	1017.1712	1050.9301	1053.9507	1063.8127	1091.1532	1131.9219	1185.3803	1203.8279	1286.529	1378.681	1394.8364	1411.9217	1414.3262	1425.3963	1476.442	1478.0295	1484.9697	1496.4371	1500.6588	1829.3871	2355.1511	2885.5706	3021.7862	3030.7497	3044.0146	3093.1691	3094.0676	3105.5632	3119.1607	3141.4441	3785.5502
CC#CC(C)(CO)C=O	CC#C[C@](C)(CO)C=O	
InChI=1S/C7H10O2/c1-3-4-7(2,5-8)6-9/h5,9H,6H2,1-2H3	InChI=1S/C7H10O2/c1-3-4-7(2,5-8)6-9/h5,9H,6H2,1-2H3/t7-/m0/s1
