19
gdb 619	2.7542527	1.9311505	1.5709433	2.6098	72.81	-0.22052	0.07689	0.29741	918.8381	0.160598	-422.537323	-422.530408	-422.529464	-422.568623	27.643	
C	 0.2764881217	 2.4517121615	-0.0157316593	-0.075424
O	-0.6205357791	 1.4031240526	-0.383567307	-0.254803
C	-0.106604054	 0.1772654829	 0.0337310332	 0.079979
C	 1.2520244325	-0.2620402382	-0.4603522109	 0.042773
O	 1.8985209249	 0.5167723171	-1.4199585296	-0.24423
C	 3.1049096276	 1.0822725597	-0.9037051706	-0.064091
C	 2.8225408441	 2.0955932421	 0.2318330171	-0.238887
C	 1.426672963	 1.8531935044	 0.8527196975	-0.038766
C	 1.0940972408	 0.3620806053	 0.9157969468	-0.169795
H	 0.6763917359	 2.9137867662	-0.9241937914	 0.105774
H	-0.2959497582	 3.2102450669	 0.5328208963	 0.096424
H	-0.877429343	-0.5635790114	 0.2151444586	 0.101823
H	 1.4526408212	-1.3317033214	-0.5302430637	 0.083226
H	 3.7599397396	 0.2761465422	-0.5436997834	 0.09404
H	 3.5994439361	 1.5578175532	-1.7539214849	 0.110376
H	 3.5963858413	 2.003632167	 1.00137451	 0.099406
H	 2.8781609841	 3.1229745597	-0.1442044236	 0.103604
H	 1.3977651289	 2.2851694353	 1.855867992	 0.079439
H	 1.2739334024	-0.1995516651	 1.8243245528	 0.089133
112.7481	145.8343	274.4252	327.8084	446.5221	517.6299	603.6529	656.1063	734.9039	762.0885	770.4718	784.2337	833.4878	858.9182	914.7225	949.198	991.0039	995.9303	1017.3678	1044.1367	1062.5273	1077.9945	1097.7995	1102.8226	1135.9272	1153.6859	1212.1836	1233.3171	1248.4019	1273.8387	1300.0183	1301.2808	1316.7541	1336.3281	1369.1597	1389.1338	1411.2047	1433.3144	1494.3999	1510.591	1521.4814	2998.6839	3018.1386	3036.9042	3061.1819	3070.0289	3080.8377	3093.019	3101.4362	3171.8639	3183.3256
C1OC2C3OCCC1C23	C1O[C@H]2[C@H]3OCC[C@@H]1[C@@H]23	
InChI=1S/C7H10O2/c1-2-8-6-5-4(1)3-9-7(5)6/h4-7H,1-3H2	InChI=1S/C7H10O2/c1-2-8-6-5-4(1)3-9-7(5)6/h4-7H,1-3H2/t4-,5+,6-,7+/m0/s1
