19
gdb 2730	2.6894203	1.4170589	1.2134598	0.5955	76.11	-0.24239	0.06483	0.30722	1112.4861	0.155155	-422.508161	-422.499266	-422.498322	-422.541324	33.649	
C	 0.085338054	 1.6854979764	-2.7755751874	-0.50502
C	-0.1013202884	 0.4570176623	-1.9327862392	 0.35435
C	-1.4169047434	 0.0655626993	-1.319564852	-0.329968
C	-0.7526711927	-0.9004074853	-2.2702865299	-0.212265
C	 0.3348914531	-1.6130831675	-1.5034433961	 0.449725
C	 0.3304263973	-2.8722501515	-0.7632763217	-0.271511
O	 1.0587804095	-2.7253301287	-1.997933238	-0.293564
C	 1.0356381752	-0.2668528679	-1.2027404518	-0.050498
O	 1.2389322861	 0.145557963	 0.130027643	-0.433649
H	 0.9228807482	 1.5706571294	-3.4728785592	 0.118466
H	-0.8131809369	 1.9006270243	-3.363014373	 0.118523
H	 0.289022318	 2.5622086602	-2.1498758055	 0.130307
H	-1.4876698386	-0.1713423699	-0.2619828533	 0.122406
H	-2.2790704144	 0.5907515955	-1.7192222835	 0.111488
H	-1.200038246	-1.2359843955	-3.1973931848	 0.099112
H	 0.9462538326	-2.9820725658	 0.1289604475	 0.10668
H	-0.5392154718	-3.5262853926	-0.8099109378	 0.116987
H	 1.9647357926	-0.2202322581	-1.789259464	 0.081531
H	 2.0354180657	-0.2802905176	 0.4621946864	 0.286901
87.8708	189.6052	200.0853	223.0101	225.5953	251.1387	300.877	337.3808	451.875	476.9885	524.6078	601.2448	705.584	762.7195	816.3327	858.7179	888.5505	933.2649	939.5547	982.8729	997.6224	1021.2903	1078.5366	1094.0408	1110.091	1114.8104	1125.9049	1142.7608	1176.8683	1193.0366	1239.005	1259.2686	1305.7573	1377.3385	1420.1484	1436.0424	1446.5248	1485.9372	1498.5031	1499.9503	1538.7734	3003.4701	3024.4684	3078.7403	3084.9962	3098.0018	3118.6926	3165.2678	3195.4208	3205.0017	3819.986
CC12CC1C1(CO1)C2O	C[C@@]12C[C@@H]1[C@]1(CO1)[C@@H]2O	
InChI=1S/C7H10O2/c1-6-2-4(6)7(3-9-7)5(6)8/h4-5,8H,2-3H2,1H3	InChI=1S/C7H10O2/c1-6-2-4(6)7(3-9-7)5(6)8/h4-5,8H,2-3H2,1H3/t4-,5+,6+,7+/m0/s1
