19
gdb 4146	2.5778129	1.3950232	1.0995823	2.1392	76.61	-0.24258	-0.0188	0.22377999999999998	1165.2172	0.154468	-422.539414	-422.530188	-422.529244	-422.57356	33.816	
C	 2.5572287285	-0.6504065723	-1.3887696912	-0.409981
C	 1.7960461015	-0.1035409745	-0.1994177365	 0.076858
O	 1.9187152565	 1.3450863972	-0.0417766383	-0.298043
C	 2.282774315	 1.1959935377	 1.321994007	 0.082165
C	 3.5602735162	 0.4731739746	 1.4829959788	-0.349522
C	 2.2946104434	-0.3420269271	 1.2333560592	 0.141913
C	 1.7943690114	-1.2955920503	 2.2509686186	 0.292912
C	 0.7112112697	-2.2672889866	 1.8155127394	-0.498187
O	 2.2219356935	-1.2867849768	 3.3882376659	-0.324036
H	 2.3889364761	-1.728981145	-1.4793944583	 0.121992
H	 2.2068002096	-0.1738903026	-2.3095136454	 0.133996
H	 3.6314990806	-0.4723485721	-1.2968873755	 0.126367
H	 0.729372552	-0.3463246974	-0.2853626241	 0.085251
H	 1.8140098133	 1.8400596547	 2.0571370911	 0.122104
H	 4.319733817	 0.548348895	 0.7113237463	 0.121097
H	 3.9141660313	 0.3607210681	 2.5020870541	 0.150222
H	 0.5035615237	-2.9630856999	 2.6288390731	 0.144415
H	-0.2069491629	-1.7263040988	 1.5596613083	 0.144373
H	 1.0172049836	-2.8205884138	 0.9205054574	 0.136104
58.9365	126.6417	140.7174	191.46	219.0018	229.391	300.9875	379.3944	444.8395	492.7204	535.0319	594.0932	634.3104	703.0393	802.7313	856.303	876.0829	911.8662	953.6378	979.3901	1019.4228	1044.1659	1056.185	1086.6512	1093.0389	1107.2872	1130.452	1164.8905	1233.9019	1281.0614	1310.0581	1372.7344	1383.0606	1396.1042	1414.932	1462.5633	1464.3092	1476.1674	1483.6398	1493.1863	1776.3805	3023.1061	3035.6555	3039.6599	3095.2767	3108.513	3123.6182	3130.2588	3154.0358	3186.4213	3230.9386
CC1OC2CC12C(C)=O	C[C@@H]1O[C@@H]2C[C@]12C(=O)C	
InChI=1S/C7H10O2/c1-4(8)7-3-6(7)9-5(7)2/h5-6H,3H2,1-2H3	InChI=1S/C7H10O2/c1-4(8)7-3-6(7)9-5(7)2/h5-6H,3H2,1-2H3/t5-,6+,7-/m0/s1
