19
gdb 3127	2.6019239	1.3903641	1.1710977	2.3181	74.81	-0.23845	-0.02124	0.21721	1126.0976	0.155937	-422.58087	-422.572138	-422.571194	-422.614043	33.477	
C	-0.4508969551	 2.0529149381	 1.2197643774	-0.404851
C	-0.7674745876	 1.3141571124	-0.0923571937	-0.090861
C	-2.1905249591	 0.793403948	-0.1681840924	-0.119249
C	-2.5635591326	-0.0427194148	-1.3802449926	-0.337766
C	-2.1842833381	-0.7298925203	-0.1077556337	 0.4157
O	-3.1965738442	-1.4567567156	 0.5159240658	-0.469346
C	-0.748317385	-1.2022940619	 0.022578647	-0.40072
C	 0.1118755138	 0.0498337392	-0.2018353669	 0.380071
O	 1.2969106179	 0.0543105255	-0.410083589	-0.315769
H	-0.6798574005	 1.4312194379	 2.0924910789	 0.11204
H	 0.6084539105	 2.3194102527	 1.2589300562	 0.138938
H	-1.0433938591	 2.9694722664	 1.297546125	 0.122233
H	-0.5130305399	 1.9723698879	-0.9320064251	 0.101422
H	-2.9849243734	 1.3472216998	 0.3202458427	 0.08974
H	-3.616238841	-0.0793427944	-1.6351430858	 0.127503
H	-1.8878334357	-0.0768825841	-2.2308259321	 0.115964
H	-3.0510591315	-1.4217046988	 1.4682944915	 0.279231
H	-0.5555767263	-1.5698213434	 1.0407316823	 0.120477
H	-0.4591120534	-2.0020605545	-0.6652087958	 0.135242
68.7951	140.3656	226.8538	246.3498	273.278	321.9615	349.929	407.8846	429.8488	482.1131	519.8043	614.5577	620.2683	731.46	755.2668	830.3988	874.305	921.3943	945.4349	956.3193	1009.7411	1035.8615	1053.0865	1068.517	1093.0649	1129.4398	1158.3029	1177.712	1219.0201	1248.6091	1276.7908	1303.8245	1326.8436	1341.0721	1401.3206	1415.2971	1451.4184	1491.1883	1498.4556	1499.197	1843.8327	3018.2737	3032.3741	3036.1223	3091.0209	3102.021	3121.5275	3122.9254	3171.155	3220.7273	3787.3187
CC1C2CC2(O)CC1=O	C[C@@H]1[C@H]2C[C@@]2(O)CC1=O	
InChI=1S/C7H10O2/c1-4-5-2-7(5,9)3-6(4)8/h4-5,9H,2-3H2,1H3	InChI=1S/C7H10O2/c1-4-5-2-7(5,9)3-6(4)8/h4-5,9H,2-3H2,1H3/t4-,5-,7-/m1/s1
