19
gdb 3887	3.1272134	1.295362	1.0231365	4.0663	76.09	-0.2607	0.01434	0.27504	1203.5076	0.156922	-422.594355	-422.585912	-422.584968	-422.627418	32.075	
C	-0.3297826335	 2.3851597231	 0.929045778	-0.406211
C	-0.8096478271	 1.1938402661	 0.1052578288	-0.131129
C	-2.2226998238	 0.6647077239	 0.393835333	-0.314962
C	-2.0885756979	-0.8048498873	 0.0368270077	 0.443296
C	-3.1010746567	-1.8637127288	 0.3035024157	-0.332919
C	-2.7693765486	-1.464177825	-1.1268840455	-0.325564
O	-0.7260931408	-1.1646988557	 0.2613069223	-0.252454
C	 0.0574462988	-0.0513484247	 0.3109813347	 0.427805
O	 1.2394960607	-0.1072522836	 0.4896402472	-0.344004
H	-0.4467861702	 2.1918058425	 2.0003102007	 0.124108
H	 0.7294008115	 2.571853887	 0.7359097245	 0.144904
H	-0.8964703482	 3.2873572949	 0.6816819542	 0.116572
H	-0.7240954561	 1.4346510684	-0.9638346176	 0.114042
H	-2.4539181503	 0.7784212436	 1.4600579142	 0.114706
H	-3.0072036925	 1.1636539598	-0.1785809274	 0.114554
H	-2.7327600417	-2.8224971093	 0.6498864938	 0.135654
H	-4.0560517324	-1.5631022871	 0.721708343	 0.120715
H	-2.1819134054	-2.1629098949	-1.7114141656	 0.132877
H	-3.499102676	-0.8923190628	-1.6904225219	 0.118009
84.6349	114.0102	209.1828	232.9948	271.67	301.5888	372.6131	448.8075	500.5709	523.3842	597.5836	703.2329	764.5813	778.6652	806.393	877.9999	922.2994	928.4437	961.9056	972.7719	992.1021	1054.0391	1060.993	1079.7616	1127.9233	1140.4242	1176.1474	1179.2956	1188.6032	1278.4489	1294.5429	1313.6274	1359.4342	1382.8827	1411.9222	1451.679	1492.6533	1497.6857	1499.055	1502.1655	1879.7092	3014.2262	3035.8206	3043.2164	3108.4728	3112.1402	3128.6967	3133.4239	3136.3039	3219.7015	3232.996
CC1CC2(CC2)OC1=O	C[C@@H]1CC2(CC2)OC1=O	
InChI=1S/C7H10O2/c1-5-4-7(2-3-7)9-6(5)8/h5H,2-4H2,1H3	InChI=1S/C7H10O2/c1-5-4-7(2-3-7)9-6(5)8/h5H,2-4H2,1H3/t5-/m1/s1
