19
gdb 3218	3.8941248	1.0674293	0.9846615	2.1462	74.95	-0.24093	0.06709	0.30802	1236.4055	0.156339	-422.492043	-422.483543	-422.482599	-422.525618	31.597	
O	 0.3349169273	-0.0082823963	 0.1514770857	-0.44094
C	-0.6651059719	 0.7210494599	 0.8015339141	 0.151852
C	-1.489104598	 0.0491177444	 1.8576316113	-0.110728
C	-2.6141946904	 0.9778326648	 2.3235633468	-0.327605
C	-1.555782152	 2.058513031	 2.7101076426	 0.300406
C	-1.6356374968	 3.5406330014	 2.2869568559	-0.131651
O	-1.5723026817	 3.9850775294	 3.6580941246	-0.274528
C	-1.5280526596	 2.6299982939	 4.142604565	-0.133718
C	-0.4447335629	 1.1276604247	 2.2347297144	-0.200425
H	 0.7284858764	-0.6225473736	 0.7804039129	 0.284738
H	-1.1245073142	 1.4064833049	 0.091680736	 0.102469
H	-1.4527586228	-1.025995231	 1.994362845	 0.086933
H	-3.350287501	 1.2624912563	 1.5628366827	 0.100739
H	-3.1473476452	 0.6055637134	 3.2026757772	 0.109875
H	-0.7889677408	 3.9085527386	 1.6931250544	 0.10365
H	-2.5729695848	 3.8439015096	 1.8015245908	 0.098283
H	-0.6153639855	 2.4272195452	 4.718849491	 0.099133
H	-2.402213743	 2.3826988211	 4.7609462571	 0.095738
H	 0.5336418668	 1.0265429124	 2.6945200025	 0.085778
58.4809	108.4595	166.5804	201.849	275.4278	298.6049	383.8061	423.0869	431.7227	543.9336	769.0786	807.3307	843.9804	859.1997	900.2658	903.9785	934.6098	974.319	984.4687	993.549	1012.5472	1040.6807	1091.7832	1105.0741	1123.4309	1132.7339	1151.2661	1158.5267	1192.0484	1207.4189	1223.0484	1251.2946	1290.3919	1303.7957	1307.6331	1356.6291	1382.7431	1452.3581	1485.4498	1505.5067	1531.7521	2990.9251	3005.1732	3033.8204	3037.4509	3046.5832	3093.12	3125.8871	3155.1336	3173.236	3811.6176
OC1C2CC3(COC3)C12	O[C@H]1[C@@H]2CC3(COC3)[C@H]12	
InChI=1S/C7H10O2/c8-6-4-1-7(5(4)6)2-9-3-7/h4-6,8H,1-3H2	InChI=1S/C7H10O2/c8-6-4-1-7(5(4)6)2-9-3-7/h4-6,8H,1-3H2/t4-,5+,6+/m1/s1
