19
gdb 5419	1.9939545	1.6133735	0.9541897	2.7884	77.6	-0.23878	-0.04966	0.18911999999999998	1235.941	0.156182	-422.594663	-422.585469	-422.584525	-422.628924	33.675	
C	 1.5188517191	 1.1190708004	 0.5051811258	-0.398429
C	 0.9602475286	-0.2486282221	 0.1015208657	-0.187222
C	 1.6332533655	-0.8501251261	-1.1338728023	-0.131811
C	 1.4106665666	-0.1303348352	-2.4852952305	 0.057297
O	 2.4921448354	 0.6718778737	-2.9357150731	-0.436538
C	 1.1997690532	-1.2569906921	-3.4683122661	-0.054947
C	 1.0547411814	-2.4461574258	-2.8767829638	-0.185318
C	 1.193232759	-2.3020974085	-1.4071525874	 0.37109
O	 0.9920599886	-3.1467567665	-0.5657845611	-0.337835
H	 1.0322084563	 1.4921722296	 1.4113964126	 0.122467
H	 2.5952436163	 1.0656434715	 0.7031713755	 0.120289
H	 1.3591322073	 1.8729141086	-0.2759375393	 0.103144
H	 1.0754653167	-0.9617938304	 0.9242952493	 0.125254
H	-0.1196970979	-0.1684659378	-0.079284921	 0.099641
H	 2.7210510784	-0.884756523	-0.9803348481	 0.111728
H	 0.4880245189	 0.4739808479	-2.4379063734	 0.085188
H	 2.5632698486	 1.4312441956	-2.3489869719	 0.289045
H	 1.1604070162	-1.0571845543	-4.5334023314	 0.124949
H	 0.8496673017	-3.3965922853	-3.3528727996	 0.122007
62.6547	85.9021	164.1386	226.5561	244.1939	276.429	303.6729	320.235	364.5518	508.7962	541.9797	575.8421	686.5957	736.4212	767.6792	809.2023	888.5137	923.227	942.9421	1001.1565	1004.8789	1050.9464	1066.7895	1120.9311	1133.1368	1148.8123	1174.4578	1223.0304	1236.6604	1263.8734	1319.442	1336.6495	1356.9164	1376.6363	1409.7993	1421.2557	1487.9356	1500.5831	1508.1472	1655.3976	1813.5653	2946.9077	3016.4309	3021.1165	3029.5971	3069.5853	3092.0815	3104.0722	3198.5803	3227.7327	3824.9598
CCC1C(O)C=CC1=O	CC[C@@H]1[C@@H](O)C=CC1=O	
InChI=1S/C7H10O2/c1-2-5-6(8)3-4-7(5)9/h3-6,8H,2H2,1H3	InChI=1S/C7H10O2/c1-2-5-6(8)3-4-7(5)9/h3-6,8H,2H2,1H3/t5-,6+/m1/s1
