19
gdb 5281	1.9640026	1.6916693	1.0571182	2.1975	77.32	-0.24131	-0.02793	0.21338	1174.3509	0.155249	-422.522995	-422.513951	-422.513007	-422.557012	32.8	
C	 1.2352153193	 0.9807358337	 0.464003714	-0.377681
C	 0.9058588458	-0.4786904578	 0.1221475336	-0.307098
C	 1.6842876699	-0.9903555951	-1.0567603466	 0.265732
C	 3.1678042705	-1.3792253928	-1.0508780432	-0.135092
O	 2.9220252371	-2.4656223191	-1.9914501005	-0.28936
C	 1.5418550414	-2.1555091882	-1.9727724232	 0.062092
C	 1.3113691433	-0.7430294272	-2.5357104328	-0.204039
C	-0.0864110736	-0.4268053878	-2.8793031101	 0.123878
O	-1.0614792731	-0.8228709662	-2.2748180404	-0.283446
H	 0.6650556348	 1.3140099508	 1.3359399636	 0.11906
H	 2.2988809213	 1.1120605117	 0.6921496489	 0.113725
H	 0.9901105046	 1.6451098861	-0.3710650692	 0.121014
H	 1.1258421601	-1.1192538309	 0.9860936828	 0.10091
H	-0.161519392	-0.5852840415	-0.0857217256	 0.146182
H	 3.9012079992	-0.6591197365	-1.4291983102	 0.113782
H	 3.4954434585	-1.779849841	-0.0853510393	 0.119933
H	 0.8045008573	-2.9424754476	-2.0763209349	 0.1329
H	 2.0683242139	-0.3507101071	-3.2099067234	 0.09569
H	-0.2034021281	 0.2011272466	-3.7898100734	 0.081819
66.5257	120.7939	170.7369	195.3025	204.5501	233.1941	310.3697	353.3377	377.6438	436.2968	637.5134	716.3931	721.5506	793.0861	885.3372	922.7343	934.3174	974.1648	985.5607	1000.9756	1029.4874	1043.9989	1051.698	1076.6459	1081.0457	1123.8168	1153.1274	1204.1378	1241.3116	1289.8038	1312.2256	1348.3652	1363.8139	1412.4799	1428.4005	1449.5085	1487.5501	1500.3251	1505.3092	1509.3313	1782.5771	2887.1678	3025.736	3032.4883	3033.9015	3087.5285	3090.0583	3110.6878	3112.4219	3145.2941	3195.3694
CCC12COC1C2C=O	CC[C@@]12CO[C@@H]1[C@H]2C=O	
InChI=1S/C7H10O2/c1-2-7-4-9-6(7)5(7)3-8/h3,5-6H,2,4H2,1H3	InChI=1S/C7H10O2/c1-2-7-4-9-6(7)5(7)3-8/h3,5-6H,2,4H2,1H3/t5-,6-,7+/m1/s1
