19
gdb 3313	3.4162186	1.1447395	0.9630089	2.1308	74.91	-0.2328	-0.0133	0.2195	1228.9338	0.157571	-422.574695	-422.566306	-422.565362	-422.608172	31.979	
O	-4.4586223726	 1.2683815486	-1.2870718895	-0.431735
C	-3.2916208438	 0.7056823778	-0.7606475775	 0.090213
C	-2.444882711	-0.0566198676	-1.7320868942	-0.046325
C	-1.7390066657	-1.3429590946	-1.3460092287	-0.23762
C	-1.0706681843	-1.268745923	 0.0406599355	-0.315578
C	-0.1690246077	-0.0531550446	 0.180138944	 0.394989
O	 0.9638362963	-0.1353139982	 0.5945395056	-0.309177
C	-0.7647780336	 1.3012490628	-0.2109480312	-0.335171
C	-1.9488269477	 1.2675729466	-1.168681867	-0.096035
H	-4.6185730481	 2.1026252757	-0.8329245563	 0.285077
H	-3.3901158264	 0.3212735957	 0.2562696604	 0.07796
H	-2.8129699888	-0.0204262502	-2.7529269679	 0.100178
H	-2.4410529801	-2.1848661614	-1.3686465622	 0.110409
H	-0.968853242	-1.5616885309	-2.0963952133	 0.113048
H	-1.8431851617	-1.2043727782	 0.8193149313	 0.122503
H	-0.4752269465	-2.1606511244	 0.2476213263	 0.12175
H	-1.036965304	 1.8047842169	 0.7289883628	 0.127183
H	 0.0574601012	 1.8877193613	-0.631074584	 0.134155
H	-2.0137538436	 2.1162916777	-1.842742454	 0.094177
34.0821	167.2343	234.8662	255.1164	291.4926	337.547	367.3431	402.7393	473.8743	539.3929	556.5536	672.3072	726.1414	799.2691	821.6511	851.5942	918.3008	947.8651	968.0455	1014.097	1050.8728	1073.4478	1104.6589	1111.6468	1130.8553	1178.2702	1200.854	1226.1043	1239.9801	1257.7483	1296.4935	1306.0996	1338.3789	1347.3349	1361.3164	1377.3157	1446.5104	1468.7932	1483.46	1500.9001	1812.5128	3004.0039	3019.8852	3024.6463	3058.9746	3079.9062	3085.9003	3109.9912	3151.3215	3161.9479	3800.6653
OC1C2CCC(=O)CC12	O[C@H]1[C@@H]2CCC(=O)C[C@H]12	
InChI=1S/C7H10O2/c8-4-1-2-5-6(3-4)7(5)9/h5-7,9H,1-3H2	InChI=1S/C7H10O2/c8-4-1-2-5-6(3-4)7(5)9/h5-7,9H,1-3H2/t5-,6+,7+/m1/s1
