19
gdb 2926	3.0684266	1.7056493	1.2848425	2.9093	74.35	-0.24125	0.06245	0.30369999999999997	999.9995	0.158965	-422.537212	-422.529891	-422.528947	-422.568313	30.449	
O	 0.6917283182	 0.7948137279	 0.7251557846	-0.461421
C	-0.7007531405	 0.7181527315	 0.7623243455	 0.177332
C	-1.5536950457	 1.8777634824	 1.353062207	-0.156387
C	-2.7215524467	 0.8570866672	 1.5437756241	-0.009462
C	-3.5234327387	 1.2392434939	 2.7934339548	-0.243255
C	-2.363431096	 1.6528787089	 3.734973684	-0.299488
C	-1.1845527782	 1.4047611902	 2.7918198634	 0.429042
O	 0.1009990821	 1.7394401769	 3.2602329928	-0.498953
C	-1.4390984771	 0.081989127	 1.9747191405	-0.189838
H	 0.9758244109	 1.1483900359	 1.5793554017	 0.286585
H	-1.0237286504	 0.357283827	-0.2186044045	 0.07535
H	-1.6328321289	 2.9121017432	 1.0124291902	 0.069377
H	-3.2596875863	 0.5175655578	 0.6586032124	 0.071072
H	-4.2204064563	 2.060195519	 2.6001031547	 0.103202
H	-4.1051107236	 0.3975684404	 3.1814809986	 0.100856
H	-2.4099856118	 2.6990864931	 4.051761866	 0.10722
H	-2.3023618915	 1.0337229783	 4.637697232	 0.089825
H	 0.2585111213	 1.2623720048	 4.0825874651	 0.286404
H	-1.3872315907	-0.9439634055	 2.346928597	 0.062536
214.707	236.5725	253.1721	310.3266	391.9618	408.7771	443.7568	495.8817	590.3051	644.8232	710.4585	719.4628	731.6616	829.3138	838.4028	867.5855	923.1032	927.6933	953.1212	1004.96	1034.4856	1046.2854	1066.183	1090.9431	1111.9553	1136.7576	1152.6672	1187.8182	1191.6896	1213.7585	1235.7818	1253.3829	1266.9775	1279.5005	1306.9647	1330.2213	1357.1791	1390.1154	1489.0716	1489.5469	1511.3764	3034.6735	3052.3908	3068.8726	3078.458	3084.8618	3095.9267	3097.2532	3118.3386	3739.8609	3802.2025
OC1C2C3CCC2(O)C13	O[C@@H]1[C@H]2[C@@H]3CC[C@@]2(O)[C@H]13	
InChI=1S/C7H10O2/c8-6-4-3-1-2-7(4,9)5(3)6/h3-6,8-9H,1-2H2	InChI=1S/C7H10O2/c8-6-4-3-1-2-7(4,9)5(3)6/h3-6,8-9H,1-2H2/t3-,4+,5-,6+,7-
