19
gdb 4720	2.4889127	1.1822247	0.8588993	1.8899	77.53	-0.24658	0.02832	0.2749	1353.4727	0.154509	-422.480906	-422.471051	-422.470107	-422.516615	34.32	
C	 1.5286372875	-0.0275522514	-0.034553591	-0.241401
O	 0.1279045665	 0.1606139416	 0.0065017687	-0.236336
C	-0.3368093404	 0.7960989694	 1.1847501468	-0.074961
C	 0.1184882852	 2.1900740277	 1.2917644058	 0.327923
C	 0.4757721597	 3.3352455869	 1.3718317729	-0.460345
C	-1.8612343502	 0.711039357	 1.15615473	-0.037874
C	-2.5685376344	 1.0412506735	 2.4867081141	-0.089036
O	-2.9446839701	-0.3383208741	 2.6785107227	-0.274533
C	-2.4313859409	-0.7039804984	 1.3792709556	-0.088536
H	 1.8768854091	-0.6433277095	 0.8089686826	 0.106698
H	 1.750640385	-0.5471039793	-0.9691134598	 0.131055
H	 2.0678502822	 0.9287486884	-0.0158482379	 0.12229
H	 0.029281832	 0.2440403018	 2.0692387874	 0.097319
H	 0.7953641611	 4.3456577184	 1.4458901216	 0.202027
H	-2.2307793966	 1.2376972217	 0.2754122525	 0.097144
H	-1.9278571958	 1.414958835	 3.294905152	 0.107209
H	-3.4426028928	 1.697892636	 2.3954463563	 0.1027
H	-1.6951782371	-1.5143964084	 1.4330693413	 0.108302
H	-3.23233221	-0.9948636765	 0.6885039483	 0.100356
57.2158	71.4884	107.6374	127.6344	173.4663	193.4305	252.1196	325.4157	363.9233	446.8064	502.5877	587.7738	632.6285	680.5129	837.2428	859.4894	883.5576	932.7451	979.2356	987.044	1036.0973	1073.1418	1084.2367	1132.9653	1150.9862	1157.5937	1180.6263	1185.0726	1233.633	1250.8952	1291.2414	1307.7687	1360.3744	1371.5346	1394.4659	1478.0784	1485.8506	1510.48	1513.4898	1537.9619	2228.7939	2940.5929	2985.5421	3010.9297	3022.0466	3048.1558	3055.9552	3063.1198	3107.9422	3124.1744	3500.8479
COC(C#C)C1COC1	CO[C@@H](C#C)C1COC1	
InChI=1S/C7H10O2/c1-3-7(8-2)6-4-9-5-6/h1,6-7H,4-5H2,2H3	InChI=1S/C7H10O2/c1-3-7(8-2)6-4-9-5-6/h1,6-7H,4-5H2,2H3/t7-/m0/s1
