19
gdb 5728	2.9130386	1.1641778	0.9398696	1.3316	78.37	-0.24574	-0.0278	0.21794	1311.9569	0.154725	-422.539416	-422.530189	-422.529245	-422.573841	33.505	
C	 2.8702400366	 1.3602052901	-0.1222652865	-0.384251
C	 2.3067902528	-0.0506969506	 0.0719855453	-0.192757
C	 2.0680868173	-0.7663648625	-1.2478267876	 0.020341
O	 1.0358585456	-0.1419788791	-2.0715523564	-0.336181
C	 0.2295371892	-1.3211677658	-2.0743776785	 0.335738
C	-1.2712487161	-1.3184136734	-2.0305769576	-0.32387
C	-0.5498084667	-1.8073192273	-3.2630711528	-0.328007
C	 1.2183027159	-2.0507954451	-1.2190155202	 0.265237
O	 1.3022237487	-3.1349392339	-0.7216877595	-0.305041
H	 3.0066341694	 1.8625614234	 0.8397818161	 0.116989
H	 3.8413516626	 1.3327426764	-0.6284302791	 0.116836
H	 2.1907085632	 1.9640073278	-0.7301186693	 0.137921
H	 2.9955937712	-0.6659483034	 0.6638185082	 0.115915
H	 1.3622950363	-0.0063909559	 0.6267066499	 0.107336
H	 3.001136922	-0.8747134251	-1.8177468808	 0.106196
H	-1.753480691	-2.0409321023	-1.3806832433	 0.136949
H	-1.7446340683	-0.3438461084	-2.0780742997	 0.136686
H	-0.5292125899	-2.8710695776	-3.4749418612	 0.136772
H	-0.5412970687	-1.1578521073	-4.131540267	 0.13719
65.0436	94.7255	140.9423	175.3871	207.7333	229.5566	301.6811	359.2034	408.6271	518.4561	591.5053	699.3541	739.7655	767.8906	779.4489	836.8376	882.2572	911.1736	930.9977	952.5159	994.7939	1031.6625	1056.8254	1065.3828	1069.6909	1100.9413	1144.6581	1194.041	1224.5694	1253.0565	1280.0792	1326.8604	1358.8631	1394.5141	1408.3045	1444.1355	1474.3329	1480.1889	1496.9201	1507.9734	1909.5601	3017.8234	3033.2407	3038.0624	3072.2342	3106.6768	3120.8115	3133.5738	3134.4835	3220.4951	3234.624
CCC1OC2(CC2)C1=O	CC[C@@H]1OC2(CC2)C1=O	
InChI=1S/C7H10O2/c1-2-5-6(8)7(9-5)3-4-7/h5H,2-4H2,1H3	InChI=1S/C7H10O2/c1-2-5-6(8)7(9-5)3-4-7/h5H,2-4H2,1H3/t5-/m0/s1
