19
gdb 5970	3.037082	1.1492843	0.9286191	2.7053	77.64	-0.23044	-0.01044	0.22	1314.8303	0.155065	-422.533952	-422.524797	-422.523853	-422.568625	33.181	
C	 2.9587270274	-0.2825107405	 1.3668075792	-0.389557
C	 2.0679535664	 0.1010383819	 0.2004007588	-0.067681
O	 2.3753047483	 1.4525717183	-0.1656836471	-0.288815
C	 1.6374006248	 1.9202165204	-1.2162548703	 0.34516
C	 0.2043030415	 2.4292240896	-1.0386756606	-0.340591
C	 1.2358108731	 3.3763344892	-1.5566407636	-0.14105
C	 1.4319095859	 3.1186826542	-3.058491465	-0.354274
C	 1.9192386824	 1.6907917831	-2.6759611983	 0.346063
O	 2.5018318131	 0.8328112623	-3.2771245707	-0.324384
H	 2.7516977475	-1.3110590947	 1.6767423661	 0.11898
H	 4.0126940712	-0.2105308833	 1.0848275199	 0.133713
H	 2.784451116	 0.3794165415	 2.2199966121	 0.125129
H	 2.238977755	-0.556532251	-0.6612769929	 0.124067
H	 1.0046952863	 0.0296517954	 0.4743135718	 0.093229
H	-0.6082028202	 2.0924746688	-1.6772726732	 0.119261
H	-0.0541364768	 2.538228011	 0.0100718638	 0.129675
H	 1.545062035	 4.2659513374	-1.0254577406	 0.116465
H	 0.5410543154	 3.1971172569	-3.6882533558	 0.119887
H	 2.2508317379	 3.6817537394	-3.5149714936	 0.134721
56.1817	71.306	119.2883	164.2842	237.5458	280.4387	344.9191	368.2705	429.1854	507.9446	568.4699	659.8899	711.9319	820.3123	822.3408	835.9395	890.5884	916.2777	955.1775	977.2451	1016.0808	1019.2664	1059.4771	1079.2271	1086.4186	1138.7347	1144.8325	1185.0774	1197.6854	1250.818	1287.8755	1295.3147	1366.7061	1404.1309	1434.5747	1456.7049	1483.3123	1492.7708	1500.433	1525.145	1875.317	2993.5484	3045.8026	3047.3057	3056.9544	3112.0385	3113.3926	3120.6968	3124.8238	3204.6986	3217.2721
CCOC12CC1CC2=O	CCO[C@@]12C[C@@H]1CC2=O	
InChI=1S/C7H10O2/c1-2-9-7-4-5(7)3-6(7)8/h5H,2-4H2,1H3	InChI=1S/C7H10O2/c1-2-9-7-4-5(7)3-6(7)8/h5H,2-4H2,1H3/t5-,7-/m0/s1
