19
gdb 4247	3.6349465	1.3602039	1.1262691	1.027	74.17	-0.24702	0.08137	0.32838999999999996	1110.5693	0.157959	-422.540167	-422.53251	-422.531565	-422.57239	29.631	
C	 0.2825982118	 0.2549370867	-0.2960141309	-0.403689
C	 0.8864712812	-0.7041867424	 0.7122799219	 0.142703
O	 2.3204127631	-0.5317152511	 0.8452555399	-0.312073
C	 2.5923706351	-1.8633024671	 0.3453548866	 0.132994
C	 3.2463641559	-2.7674378598	 1.4084634227	-0.264786
C	 2.0921080461	-3.5466156282	 2.0151135207	 0.047663
O	 1.4852586883	-4.4478652451	 1.0750568896	-0.264114
C	 0.8256225629	-3.2075041163	 1.3458370349	 0.024896
C	 1.0712578703	-2.1743196124	 0.2729835392	-0.126694
H	 0.4435515071	 1.2892843215	 0.022822634	 0.127807
H	 0.7388474883	 0.1257592154	-1.2825425344	 0.120846
H	-0.7965320372	 0.08767964	-0.3868258366	 0.115263
H	 0.3941151143	-0.5854724522	 1.6881529088	 0.073324
H	 3.151069826	-1.8233764981	-0.5948286457	 0.078596
H	 3.9823319226	-3.4522840176	 0.9751167288	 0.112001
H	 3.7529575322	-2.1436888385	 2.1511840221	 0.117856
H	 2.1347757064	-3.9100926355	 3.0388450935	 0.096089
H	-0.1436701311	-3.2841465074	 1.8352119492	 0.095906
H	 0.642052907	-2.4473418019	-0.6930133343	 0.085412
82.6699	161.1242	220.8408	256.891	330.2686	388.7536	403.9278	484.6487	667.3426	717.8361	796.6509	837.3824	850.9388	860.9315	867.1345	909.837	932.5909	952.7351	1002.546	1030.5471	1048.0449	1056.725	1088.5823	1106.0538	1116.8447	1146.3612	1203.7939	1211.3323	1243.7846	1253.5026	1286.0857	1303.0753	1325.5855	1344.2478	1371.4585	1395.2839	1407.7468	1431.3181	1464.6998	1484.1183	1493.7657	2996.9698	3032.4634	3047.3621	3059.3086	3093.532	3100.9579	3104.3923	3113.2553	3128.0441	3148.9121
CC1OC2CC3OC3C12	C[C@@H]1O[C@H]2C[C@@H]3O[C@@H]3[C@@H]12	
InChI=1S/C7H10O2/c1-3-6-4(8-3)2-5-7(6)9-5/h3-7H,2H2,1H3	InChI=1S/C7H10O2/c1-3-6-4(8-3)2-5-7(6)9-5/h3-7H,2H2,1H3/t3-,4-,5-,6-,7-/m0/s1
