19
gdb 1998	2.7425954	1.8812319	1.5589916	0.8936	73.1	-0.24659	0.07619	0.32278	926.9885	0.159703	-422.560294	-422.553217	-422.552273	-422.591199	29.497	
O	-0.5546072433	-0.2909122307	 0.3359954294	-0.472529
C	-1.946753795	-0.3386481811	 0.3016259456	 0.402935
C	-2.7531757464	-0.7513397217	 1.5047164681	-0.375354
C	-2.6767769784	-1.6601638227	 0.2934466799	-0.097871
C	-3.7225615105	-1.4434644825	-0.8014158012	 0.059534
C	-2.9962105314	-1.4974007999	-2.1680980846	-0.212198
C	-2.2284857324	-0.1366925265	-2.1561530398	-0.215543
C	-2.6847628636	 0.4447755798	-0.7959871444	-0.007433
O	-4.0270813723	-0.0421003884	-0.6758972822	-0.262798
H	-0.296622486	 0.5027532625	 0.8174236237	 0.285358
H	-2.1661548565	-1.0758027169	 2.3570376512	 0.110528
H	-3.6819091677	-0.242410207	 1.7352976867	 0.123835
H	-2.1363908756	-2.5969673829	 0.354244451	 0.09741
H	-4.644948585	-2.0203071283	-0.7250973519	 0.077227
H	-2.3313793733	-2.3609950536	-2.2505664504	 0.101034
H	-3.7182180907	-1.5434558625	-2.9867352582	 0.101618
H	-1.1442371151	-0.2545333025	-2.197814901	 0.116687
H	-2.5414745165	 0.5083814912	-2.97994539	 0.097302
H	-2.6795674702	 1.5329624936	-0.7091484719	 0.070258
176.1724	252.1601	297.7307	323.5832	376.8148	448.2383	488.4283	544.7331	603.4272	667.0944	749.6207	826.9777	828.2083	848.3433	887.1999	908.973	930.919	947.3157	955.4782	978.9119	1013.7611	1023.261	1036.6212	1069.4288	1076.8376	1086.3869	1153.0666	1220.3767	1229.943	1236.6328	1253.2011	1270.0526	1305.383	1308.4091	1326.4823	1338.1422	1349.6301	1395.7081	1473.2813	1483.6196	1504.4657	3063.7475	3076.0878	3101.1463	3106.5002	3113.5826	3130.9441	3136.4008	3191.5598	3229.8962	3795.4658
OC12CC1C1CCC2O1	O[C@]12C[C@H]1[C@@H]1CC[C@H]2O1	
InChI=1S/C7H10O2/c8-7-3-4(7)5-1-2-6(7)9-5/h4-6,8H,1-3H2	InChI=1S/C7H10O2/c8-7-3-4(7)5-1-2-6(7)9-5/h4-6,8H,1-3H2/t4-,5-,6+,7+/m0/s1
