19
gdb 658	5.2803705	0.7563971	0.727014	4.0843	76.51	-0.27251	0.01306	0.28557	1578.1515	0.156914	-422.57124	-422.562621	-422.561677	-422.605552	31.586	
O	 1.251760479	 0.2121756341	 0.0919471422	-0.315768
C	 0.0793537057	 0.0212683308	 0.0649447439	 0.449607
C	-0.8795566077	-1.1699647912	 0.0508254844	-0.442542
C	-1.9712325504	-0.0840739147	 0.0245112007	 0.14642
C	-2.8510122808	 0.0278478811	-1.206179573	-0.238811
C	-3.6444672789	 1.3165638391	-1.2416869814	 0.034504
C	-4.9227793135	 1.4044768839	-2.0329653445	-0.277509
C	-4.9692094055	 1.416733547	-0.5242291972	-0.259252
O	-0.9224781261	 0.9574069771	 0.0414481034	-0.25249
H	-0.8056024251	-1.7940320218	-0.8421647479	 0.141638
H	-0.8303563246	-1.7967071905	 0.9424818376	 0.143706
H	-2.5576203881	-0.0042737351	 0.9439082002	 0.101528
H	-2.2192270204	-0.0566254698	-2.1003323232	 0.107331
H	-3.5335887896	-0.8325409147	-1.2165570333	 0.102681
H	-3.0259297486	 2.2089441765	-1.2267458931	 0.106072
H	-5.1378123888	 2.3252520089	-2.5633624292	 0.116892
H	-5.2667143419	 0.5097535821	-2.5420653086	 0.110578
H	-5.2162145787	 2.3453376631	-0.0222450473	 0.117591
H	-5.3470146062	 0.530070404	-0.0243613337	 0.107824
64.913	65.671	120.5705	147.6193	294.9313	322.0326	410.477	460.888	522.0173	531.8509	723.376	774.8446	802.7762	830.7554	845.7998	866.6676	923.8019	930.5179	956.4431	997.1793	1049.8751	1058.2757	1080.7671	1091.1276	1113.8471	1142.0577	1150.4224	1179.4132	1199.624	1223.8916	1226.8113	1264.2429	1295.7398	1335.6027	1398.6541	1421.5467	1456.9562	1465.9234	1473.1739	1507.5205	1939.3472	3014.5116	3052.1132	3081.5915	3087.1862	3128.2734	3133.6775	3145.0792	3156.9569	3207.5633	3222.7536
O=C1CC(CC2CC2)O1	O=C1C[C@H](CC2CC2)O1	
InChI=1S/C7H10O2/c8-7-4-6(9-7)3-5-1-2-5/h5-6H,1-4H2	InChI=1S/C7H10O2/c8-7-4-6(9-7)3-5-1-2-5/h5-6H,1-4H2/t6-/m0/s1
