19
gdb 2075	2.4994808	1.6241432	1.1554306	2.5829	74.99	-0.24078	-0.03042	0.21036	1090.7114	0.155957	-422.560157	-422.551454	-422.550509	-422.593775	32.178	
C	 1.7414064869	 0.8072955192	-2.9664690986	-0.482046
C	 0.9206245528	-0.408783808	-2.6093284861	 0.31708
C	 0.4156342024	-1.3371269598	-3.6911375807	-0.332364
C	-0.5650911936	-0.5379431178	-2.8706281111	-0.092907
C	-1.1471269254	-1.263332283	-1.6764397154	-0.106212
O	-0.0348857888	-1.9001522054	-1.0362998734	-0.267048
C	 1.1374841594	-1.1291913868	-1.2703411099	-0.040271
C	 1.3835830162	-0.1758639049	-0.1026811409	 0.12968
O	 2.4055430661	 0.4365423844	 0.0683907978	-0.24795
H	 1.6327101613	 1.6102212092	-2.2323732077	 0.13197
H	 2.8070363356	 0.5618418395	-3.0230412148	 0.131772
H	 1.4349134597	 1.1952784915	-3.9424204899	 0.113912
H	 0.583970716	-1.0246665022	-4.7160825913	 0.113285
H	 0.4641731125	-2.4093049794	-3.5270063138	 0.123663
H	-1.130800588	 0.2680437509	-3.3232494761	 0.09306
H	-1.64175823	-0.5518257349	-0.9968035074	 0.09738
H	-1.8632105147	-2.0526805021	-1.9279076374	 0.11491
H	 1.9870364503	-1.8233149186	-1.3086213295	 0.114432
H	 0.5284293812	-0.1124708819	 0.6092167963	 0.087653
58.29	108.9949	181.5583	199.3486	246.8281	321.7903	330.9709	407.763	429.7512	518.8642	588.1873	687.4536	753.9686	832.1384	870.371	900.1581	934.3391	948.5073	979.7959	1013.983	1049.2884	1065.2473	1071.0729	1091.2158	1105.5305	1130.2114	1132.3741	1230.9702	1255.3758	1274.5524	1291.4112	1314.0401	1371.8639	1391.3049	1406.6246	1427.983	1481.6416	1488.6359	1498.0986	1517.4278	1829.9813	2870.3234	2983.0269	3032.0304	3039.3073	3068.9764	3103.1582	3114.3466	3125.5792	3181.8343	3215.1737
CC12CC1COC2C=O	C[C@]12C[C@H]1CO[C@@H]2C=O	
InChI=1S/C7H10O2/c1-7-2-5(7)4-9-6(7)3-8/h3,5-6H,2,4H2,1H3	InChI=1S/C7H10O2/c1-7-2-5(7)4-9-6(7)3-8/h3,5-6H,2,4H2,1H3/t5-,6+,7-/m0/s1
