19
gdb 1301	2.993787	1.1867774	1.0729269	4.6377	77.53	-0.26738	-0.04354	0.22384	1213.8821	0.156488	-422.613602	-422.604713	-422.603769	-422.647334	32.831	
C	-1.7710836144	-1.3227935164	 3.0429781594	-0.399383
C	-2.1013061768	-1.0901613053	 1.5634119221	 0.015041
C	-2.1005267999	-2.4058136559	 0.7734035668	-0.394862
C	-1.1517525858	-0.0701360368	 0.9012805603	 0.06839
O	 0.207536418	-0.5228234403	 0.9601781917	-0.237645
C	 1.0082192243	 0.4358507454	 1.5374824618	 0.424574
O	 2.1870072824	 0.2861367645	 1.6886263757	-0.345538
C	 0.136225914	 1.5837531171	 1.8894784626	-0.231957
C	-1.1120861271	 1.2958662181	 1.527904551	-0.089054
H	-2.4814056694	-2.0289773112	 3.4828312649	 0.117023
H	-0.7673560226	-1.7433538639	 3.1543414747	 0.140255
H	-1.8154915766	-0.3964388034	 3.6230470012	 0.115373
H	-3.1040750955	-0.6448191848	 1.4924859973	 0.078272
H	-2.8050493098	-3.1192121421	 1.2112580533	 0.114809
H	-2.388653205	-2.24610323	-0.2710405819	 0.111594
H	-1.1052025017	-2.8595480627	 0.782752311	 0.142244
H	-1.4235684882	 0.0128040552	-0.1617797836	 0.10673
H	 0.5238772518	 2.4750703436	 2.3600821775	 0.135375
H	-1.9952154975	 1.912536169	 1.6384232641	 0.12876
72.72	102.584	175.6796	216.4205	237.6245	267.4108	331.7875	348.6978	446.9988	501.2315	580.5935	685.1569	713.9774	803.6723	823.7199	850.0282	894.5055	920.6264	936.6144	969.5066	976.4228	1017.6829	1036.7309	1093.7147	1121.3187	1141.2364	1166.8804	1206.1428	1294.1943	1316.989	1350.3142	1358.8636	1378.2448	1402.1535	1424.5206	1486.7068	1496.3852	1504.1988	1514.1698	1661.3121	1871.3509	2995.5362	3007.5249	3036.4978	3044.3849	3103.6854	3112.0496	3116.3605	3120.535	3215.8539	3256.6521
CC(C)C1OC(=O)C=C1	CC(C)[C@@H]1OC(=O)C=C1	
InChI=1S/C7H10O2/c1-5(2)6-3-4-7(8)9-6/h3-6H,1-2H3	InChI=1S/C7H10O2/c1-5(2)6-3-4-7(8)9-6/h3-6H,1-2H3/t6-/m1/s1
