19
gdb 6081	2.762812	0.8273159	0.7004853	2.642	78.12	-0.26126	0.02214	0.2834	1620.2096	0.153734	-422.49706	-422.486861	-422.485917	-422.533073	36.225	
O	 1.8647951045	 0.0513608076	-3.2167274076	-0.418277
C	 2.2687664918	 0.1531565804	-1.8617282071	-0.057634
C	 1.0942949695	 0.0961038025	-0.8846830706	-0.199381
C	 1.5336000072	 0.270074261	 0.5741416048	-0.292368
C	 0.3724212472	 0.1995098509	 1.5514648506	 0.214111
C	 0.3239598985	 1.1015915426	 2.7213872751	-0.216
O	-0.4740542682	 1.3666621182	 1.5729644133	-0.262133
C	-0.3233384794	-1.0663765195	 1.6247091097	 0.318679
C	-0.8725346435	-2.1347500392	 1.6706013389	-0.447549
H	 1.4231539264	-0.7966248795	-3.3280744402	 0.28049
H	 3.0085093113	-0.6237864266	-1.6045036617	 0.083414
H	 2.7802598476	 1.1190640917	-1.77992565	 0.111447
H	 0.3722912095	 0.8767760744	-1.1473659155	 0.124308
H	 0.5778418408	-0.8669967902	-0.9945508936	 0.100451
H	 2.2661341989	-0.5008882728	 0.844874359	 0.109535
H	 2.0227505041	 1.2421701417	 0.7025289081	 0.109154
H	-0.2206788853	 0.7927216968	 3.6115835955	 0.123888
H	 1.1541055468	 1.7870387481	 2.8896014386	 0.116623
H	-1.3701778177	-3.0720295681	 1.7178129428	 0.201242
53.1977	72.735	106.8411	139.0359	173.8254	221.1444	288.7179	298.785	335.0128	392.6805	475.0611	550.7079	582.7522	625.0113	664.1976	712.0586	754.55	818.9352	878.1201	914.1823	959.0073	1026.3004	1054.7086	1082.7427	1096.5441	1133.3076	1145.6653	1170.2177	1251.3332	1266.814	1295.0777	1322.9015	1359.7738	1387.3641	1404.969	1426.1385	1469.7734	1493.8637	1516.34	1519.3152	2236.8423	2961.8933	3020.9212	3028.9417	3060.0433	3068.845	3082.4787	3091.3532	3175.734	3500.1998	3814.3382
OCCCC1(CO1)C#C	OCCC[C@]1(CO1)C#C	
InChI=1S/C7H10O2/c1-2-7(6-9-7)4-3-5-8/h1,8H,3-6H2	InChI=1S/C7H10O2/c1-2-7(6-9-7)4-3-5-8/h1,8H,3-6H2/t7-/m0/s1
