19
gdb 1050	4.0862649	0.5956688	0.5445331	2.3721	83.21	-0.24435	-0.03283	0.21152	2038.3775	0.151889	-422.523642	-422.512341	-422.511397	-422.56262	37.061	
C	 1.5705395574	-0.0966615914	-0.0099988079	-0.498799
C	 0.1180442295	-0.0417489425	 0.0550296632	 0.131979
C	-1.0832612498	-0.0034794466	 0.1083366385	 0.010536
C	-2.533848633	 0.0718682528	 0.1762222983	-0.224828
O	-3.0989995781	-1.2171729346	-0.045383037	-0.254613
C	-4.5126080351	-1.2169937258	-0.0007996165	 0.071743
C	-4.9730314771	-2.6724178182	 0.0847782185	-0.414737
C	-5.0892227834	-0.5839335955	-1.2664691307	 0.131346
O	-6.1419872703	-0.0056286023	-1.3243938074	-0.23925
H	 2.025438842	 0.2630036748	 0.9192965435	 0.150875
H	 1.9148018771	-1.1239241653	-0.1717659895	 0.15519
H	 1.9572746756	 0.5162356459	-0.8313698551	 0.150887
H	-2.8505982963	 0.4519168669	 1.1620011577	 0.12218
H	-2.9064371408	 0.7933121222	-0.5705031201	 0.123178
H	-4.8860248733	-0.6512703365	 0.8667686778	 0.089362
H	-4.5390564981	-3.1406816913	 0.9715225418	 0.136513
H	-6.0630151366	-2.7216974712	 0.1466554946	 0.13718
H	-4.6414041012	-3.2314656669	-0.7955583007	 0.133328
H	-4.4441554284	-0.7410056747	-2.1633218791	 0.087929
31.6664	36.1604	54.7032	82.5214	129.3803	201.4331	214.3907	221.2877	273.5668	329.0817	363.0373	381.3189	425.0729	472.4767	591.071	793.2616	884.2461	914.0239	952.1772	1025.5166	1051.3329	1057.3343	1064.298	1115.4907	1154.1262	1158.6749	1184.0175	1256.6932	1307.658	1335.5653	1390.7467	1400.9638	1413.9407	1429.5171	1475.9161	1478.4967	1482.5286	1497.5369	1500.8067	1838.1507	2380.9302	2861.148	2956.1617	2976.4567	2993.9451	3029.7892	3047.2426	3091.5395	3092.9468	3123.1277	3135.9747
CC#CCOC(C)C=O	CC#CCO[C@H](C)C=O	
InChI=1S/C7H10O2/c1-3-4-5-9-7(2)6-8/h6-7H,5H2,1-2H3	InChI=1S/C7H10O2/c1-3-4-5-9-7(2)6-8/h6-7H,5H2,1-2H3/t7-/m1/s1
