19
gdb 4809	3.0333526	0.8302413	0.7064151	2.6648	79.08	-0.24243	-0.02291	0.21952	1585.5143	0.152091	-422.517931	-422.506994	-422.50605	-422.555839	36.959	
C	 1.37525889	 0.1569165641	-0.3628200309	-0.247059
O	 0.0701271024	-0.2132880573	 0.0484166727	-0.252457
C	-0.4514339286	 0.4784706437	 1.1678894017	 0.093422
C	-1.978531972	 0.4806182353	 0.9944722292	-0.286917
C	-2.4238774057	 1.2421008851	-0.2364639422	 0.149616
O	-3.3304742798	 2.035589509	-0.2485012143	-0.242693
C	-0.0675875408	-0.198991079	 2.5084858776	-0.351929
C	 1.3185208956	-0.014201485	 2.9203721094	 0.282715
C	 2.4506663131	 0.1567570685	 3.2875068442	-0.426785
H	 2.1368744235	-0.1295544154	 0.3696564732	 0.134309
H	 1.5644501174	-0.3658569411	-1.3036308557	 0.128063
H	 1.4465513862	 1.2404315887	-0.5389197499	 0.109256
H	-0.0781430452	 1.5143655686	 1.1775045396	 0.089199
H	-2.3001785273	-0.5640053916	 0.8765159577	 0.132862
H	-2.485787536	 0.9018482779	 1.8660695761	 0.120486
H	-1.8445037976	 1.0093475457	-1.154654431	 0.092843
H	-0.7225713984	 0.1944584719	 3.2960299092	 0.134952
H	-0.2947410617	-1.2680064907	 2.4142835424	 0.140825
H	 3.4525434549	 0.3023666416	 3.6080124309	 0.199292
28.423	51.1445	81.936	100.6374	121.5021	184.0396	219.2981	280.1882	337.0196	346.7572	392.2575	434.963	505.6092	581.813	619.6129	639.1803	799.9412	835.5	914.1409	947.5576	1008.0511	1050.2515	1095.1135	1103.7404	1146.3918	1183.2438	1205.1819	1214.2823	1267.1838	1273.9603	1329.2486	1372.102	1387.0267	1417.2318	1443.0098	1458.4308	1480.4647	1491.1984	1513.6769	1830.0235	2235.1477	2916.0838	2985.3182	2996.8215	3021.1751	3026.6954	3064.6574	3077.5494	3109.646	3120.6641	3504.3294
COC(CC=O)CC#C	CO[C@@H](CC=O)CC#C	
InChI=1S/C7H10O2/c1-3-4-7(9-2)5-6-8/h1,6-7H,4-5H2,2H3	InChI=1S/C7H10O2/c1-3-4-7(9-2)5-6-8/h1,6-7H,4-5H2,2H3/t7-/m1/s1
