19
gdb 2639	2.299552	1.5237956	0.9604875	1.6316	75.31	-0.2405	-0.03954	0.20096	1216.6	0.154554	-422.616143	-422.606638	-422.605694	-422.65122	34.218	
C	-0.8926157755	 2.213227517	-1.2249068833	-0.406039
C	-0.9276718836	 1.1721903063	-0.110201137	-0.103095
C	-2.314411758	 0.6256168074	 0.2938868538	-0.103328
C	-3.1714727418	 1.5111854277	 1.1931112589	-0.405971
C	-2.016860781	-0.7528347501	 0.902930269	 0.38492
O	-2.7063638437	-1.3201342424	 1.710259719	-0.308724
C	-0.6979457756	-1.2686640822	 0.3311289164	-0.443849
C	-0.100244145	-0.0833630135	-0.4243688049	 0.385144
O	 0.8525948272	-0.1224243979	-1.1589276408	-0.30881
H	-1.3996317642	 1.8396781603	-2.1210037135	 0.121726
H	-1.3827429072	 3.1412480371	-0.9181029383	 0.11951
H	 0.1409006671	 2.4380885456	-1.4985874888	 0.142197
H	-0.4623014774	 1.5983668761	 0.7950076694	 0.108319
H	-2.8699527547	 0.4108320005	-0.6350040476	 0.108129
H	-4.0725673012	 0.9758946192	 1.5015160394	 0.1421
H	-2.6237782415	 1.7891136387	 2.0999530586	 0.121804
H	-3.4690343917	 2.4296688792	 0.679858231	 0.11945
H	-0.031258985	-1.6171440741	 1.1271291192	 0.163206
H	-0.856454807	-2.1217345146	-0.3374412107	 0.163309
37.6711	64.4634	176.9281	183.5644	228.9521	245.9263	279.9758	349.7814	425.9106	429.624	530.8014	580.9222	599.4705	608.3117	753.5016	763.3641	866.8133	870.5046	976.8002	997.1551	1005.9115	1072.0309	1103.3889	1144.5548	1166.945	1169.094	1204.2573	1227.8063	1260.1728	1282.3057	1334.5077	1355.8017	1398.8259	1405.7385	1412.5257	1492.5309	1493.4087	1495.6942	1497.1122	1828.8848	1863.2117	2964.7467	2978.6486	3041.8656	3042.8896	3057.7059	3097.7042	3108.8955	3110.3468	3128.8011	3129.6258
CC1C(C)C(=O)CC1=O	C[C@H]1[C@H](C)C(=O)CC1=O	
InChI=1S/C7H10O2/c1-4-5(2)7(9)3-6(4)8/h4-5H,3H2,1-2H3	InChI=1S/C7H10O2/c1-4-5(2)7(9)3-6(4)8/h4-5H,3H2,1-2H3/t4-,5-/m0/s1
