19
gdb 1675	3.1129391	1.2621873	1.1861224	2.4429	74.92	-0.26611	-0.0344	0.23171000000000003	1118.4798	0.156934	-422.571657	-422.56339	-422.562445	-422.604384	32.042	
O	 1.429940029	 2.3263624022	-0.8283397436	-0.476112
C	 2.3439160477	 1.2567619918	-0.8131910774	 0.331279
C	 3.8204746744	 1.7747315255	-0.7083060925	-0.300267
C	 4.6459301172	 1.0175103342	-1.7312499663	-0.023736
C	 4.6655934362	-0.4898198184	-1.6689284831	-0.295822
C	 3.7147176764	 0.2095576618	-2.6086278746	-0.023728
C	 2.286844229	 0.4440426665	-2.1532982801	-0.300257
C	 2.0055399036	 0.3639087688	 0.3680694664	 0.111786
O	 1.089686328	 0.6061484887	 1.1170494278	-0.281754
H	 0.8403166199	 2.183094004	-0.070441874	 0.290715
H	 3.7799037591	 2.8393951588	-0.954018082	 0.130105
H	 4.21714559	 1.6948878287	 0.3110466519	 0.104128
H	 5.5117666341	 1.5191497849	-2.148448784	 0.089051
H	 5.5189517916	-0.9893444291	-2.1146598516	 0.115253
H	 4.2807004093	-0.9996990942	-0.7908885001	 0.106009
H	 3.8928716606	 0.1144857267	-3.6738010759	 0.089048
H	 1.7526112766	 1.0803967632	-2.8640507644	 0.130106
H	 1.7081453856	-0.4821436805	-2.052886708	 0.104128
H	 2.6436514216	-0.5301225235	 0.5140501715	 0.100068
99.6237	100.2836	222.9338	301.0591	318.7964	354.5445	381.9081	392.7753	491.345	499.473	627.5044	731.0235	782.6989	817.9483	827.852	859.1669	892.4137	900.913	941.8608	943.5798	1028.3027	1054.9108	1070.6907	1076.0463	1085.6704	1105.299	1124.878	1162.5509	1195.5552	1211.2103	1279.4162	1301.0736	1323.0728	1344.3792	1387.3036	1401.7745	1439.24	1481.8327	1484.7787	1498.5836	1807.7871	2943.5437	3033.0239	3035.3478	3094.1909	3095.3149	3125.3327	3167.0426	3174.9651	3207.3166	3678.7364
OC1(CC2CC2C1)C=O	O[C@@]1(C[C@H]2C[C@H]2C1)C=O	
InChI=1S/C7H10O2/c8-4-7(9)2-5-1-6(5)3-7/h4-6,9H,1-3H2	InChI=1S/C7H10O2/c8-4-7(9)2-5-1-6(5)3-7/h4-6,9H,1-3H2/t5-,6+,7-
