19
gdb 1546	3.1246859	1.5276282	1.3576921	0.658	73.84	-0.24842	0.07071	0.31913	1007.6123	0.155801	-422.49958	-422.491549	-422.490605	-422.531452	32.202	
C	-0.1129310436	-0.0300096291	 0.2799098188	-0.462265
C	 1.3780258178	-0.018190751	-0.0161177682	 0.41703
O	 2.0642567046	-0.9695764135	 0.7935145196	-0.483364
C	 2.1189250234	 1.3707551429	-0.0296419447	-0.301881
C	 2.7066998618	 1.0454540641	-1.4337846528	-0.056722
C	 1.8964281803	 1.5382662121	-2.660109234	 0.010344
O	 0.5135230644	 1.5644232211	-2.2938624981	-0.236124
C	 1.0882854675	 0.303364777	-2.6705190697	-0.001519
C	 1.87650746	-0.2762631102	-1.4712841035	-0.083696
H	-0.2931622688	 0.2536001937	 1.325235924	 0.099166
H	-0.6477389307	 0.6747104021	-0.3584471819	 0.144589
H	-0.5205824285	-1.0349022092	 0.1297941684	 0.11677
H	 1.8950317573	-0.7420567946	 1.714753623	 0.271752
H	 1.464913916	 2.2438961889	-0.0029100279	 0.107126
H	 2.87075201	 1.44241736	 0.759472967	 0.093363
H	 3.7883577008	 1.0332417938	-1.5579274757	 0.076928
H	 2.2005343335	 2.2026603052	-3.4615690888	 0.10283
H	 0.5964585808	-0.2263457798	-3.478796437	 0.104804
H	 2.3468083934	-1.2430942438	-1.6459457584	 0.080868
136.9883	200.8117	245.9003	278.2931	313.6662	346.1761	374.7668	387.7412	499.1146	597.088	633.231	740.7398	780.3718	801.7512	827.0699	862.2612	895.946	903.9857	924.3308	955.9917	959.796	990.0884	1014.0992	1047.6786	1090.8794	1101.8305	1125.6154	1175.0335	1200.3618	1215.237	1231.6528	1258.327	1260.6357	1274.6033	1302.8812	1364.1959	1382.6764	1402.3557	1450.4732	1487.5307	1504.0564	3021.6911	3067.6006	3089.1141	3120.9208	3129.1003	3134.442	3144.2247	3170.0201	3185.147	3793.6448
CC1(O)CC2C3OC3C12	C[C@]1(O)C[C@@H]2[C@@H]3O[C@@H]3[C@H]12	
InChI=1S/C7H10O2/c1-7(8)2-3-4(7)6-5(3)9-6/h3-6,8H,2H2,1H3	InChI=1S/C7H10O2/c1-7(8)2-3-4(7)6-5(3)9-6/h3-6,8H,2H2,1H3/t3-,4+,5-,6+,7-/m0/s1
