19
gdb 3547	2.4564268	1.5885864	1.1779098	4.7297	75.37	-0.25743	0.01346	0.27088999999999996	1105.9274	0.156855	-422.603482	-422.594908	-422.593964	-422.636307	32.53	
C	-3.1191938359	-1.6103843553	-0.0742390314	-0.403061
C	-2.0372463431	-0.7034743704	-0.6381154165	 0.071226
O	-0.7573682081	-1.0862707787	-0.0903133524	-0.248072
C	 0.0240454544	 0.005828566	 0.1825763883	 0.445866
O	 1.1939028096	-0.0897635292	 0.4156569165	-0.347375
C	-0.8296090205	 1.2307267209	 0.1398635404	-0.243146
C	-2.0216594588	 1.1785590651	 1.0846972709	-0.334693
C	-2.1900311588	 0.7931360291	-0.3535752574	 0.321234
C	-3.0428199494	 1.6106999783	-1.291711561	-0.490796
H	-3.2106766517	-1.489782024	 1.0083902812	 0.127589
H	-4.0841409852	-1.3731077623	-0.5331699075	 0.122364
H	-2.8869687105	-2.6569580809	-0.287186086	 0.136384
H	-1.9746351709	-0.8461533723	-1.726159388	 0.089551
H	-0.3603678287	 2.1759258606	-0.0975544983	 0.115424
H	-2.0303242985	 0.4198407731	 1.8603398551	 0.132098
H	-2.4242881247	 2.1381613083	 1.3900406255	 0.123824
H	-2.9989730241	 2.673576424	-1.0371380175	 0.126393
H	-2.7104153906	 1.4991557335	-2.329696501	 0.126982
H	-4.0937014245	 1.3037778642	-1.241289221	 0.12821
128.8148	140.6997	194.2176	225.2334	242.4979	285.2536	331.6559	380.296	503.6058	511.5402	562.7606	672.2597	697.8216	766.5229	801.3933	868.3375	896.7743	943.0123	961.0768	984.7146	1028.7401	1055.3174	1070.5542	1083.5865	1105.6595	1119.6318	1145.7786	1203.6544	1238.3447	1309.587	1348.7592	1380.7717	1407.5908	1412.6876	1426.095	1485.6513	1488.8037	1490.7883	1498.2231	1502.8749	1880.9514	3005.1793	3029.1846	3046.6234	3089.5699	3108.415	3119.148	3128.798	3132.2274	3209.8617	3219.9594
CC1OC(=O)C2CC12C	C[C@@H]1OC(=O)[C@@H]2C[C@]12C	
InChI=1S/C7H10O2/c1-4-7(2)3-5(7)6(8)9-4/h4-5H,3H2,1-2H3	InChI=1S/C7H10O2/c1-4-7(2)3-5(7)6(8)9-4/h4-5H,3H2,1-2H3/t4-,5-,7+/m0/s1
