19
gdb 1464	2.2209516	1.775975	1.3984142	2.8409	74.13	-0.2443	-0.01985	0.22444999999999998	1023.7927	0.155593	-422.581119	-422.57239	-422.571445	-422.614163	33.056	
C	-0.4663473265	 2.231582073	 1.2556726352	-0.425589
C	-0.7994289319	 1.2814114188	 0.0992372693	 0.13576
C	-0.589988301	 1.9679488618	-1.2653865917	-0.435262
C	-2.1927817253	 0.6852866889	 0.1912664498	 0.022055
O	-2.387348295	-0.1369119549	 1.3485739853	-0.267247
C	-2.1477340243	-0.7840714252	 0.0905699182	 0.032758
C	-0.7205718863	-1.2498311432	-0.0558469809	-0.358031
C	 0.1117764143	 0.0268841596	 0.1541527891	 0.381656
O	 1.3029614067	 0.060179341	 0.3144750681	-0.320485
H	-0.7188751253	 1.7719885699	 2.2146998268	 0.135828
H	 0.6032374825	 2.4579517881	 1.2513451385	 0.136188
H	-1.0238144536	 3.1693677268	 1.1630105004	 0.109358
H	-0.8201502293	 1.2976135957	-2.1007199492	 0.116185
H	-1.2362443401	 2.8477203524	-1.3527904493	 0.121155
H	 0.449048185	 2.2924959396	-1.366262542	 0.141296
H	-3.0582615119	 1.2660603012	-0.1206958237	 0.095628
H	-2.9750847717	-1.3705647961	-0.2991664533	 0.102181
H	-0.4320532805	-2.0154455249	 0.6696044969	 0.144712
H	-0.5221485759	-1.6528585124	-1.0570352275	 0.131854
71.725	193.6943	202.8557	222.1149	240.4591	291.7891	310.2675	358.6919	478.5715	494.0017	583.0781	597.716	682.2712	708.7172	825.3278	851.2466	879.6428	935.2934	954.6478	963.0649	996.2395	1022.9646	1029.2928	1086.7169	1117.1522	1165.1348	1197.034	1229.3946	1255.2562	1261.5463	1288.4839	1351.0536	1388.9089	1407.6393	1432.3369	1442.2151	1482.7917	1488.4125	1501.1942	1511.1314	1847.131	3030.7956	3039.8221	3042.9272	3096.5103	3101.5459	3111.7526	3119.5405	3127.5962	3135.3178	3156.2345
CC1(C)C2OC2CC1=O	CC1(C)[C@@H]2O[C@@H]2CC1=O	
InChI=1S/C7H10O2/c1-7(2)5(8)3-4-6(7)9-4/h4,6H,3H2,1-2H3	InChI=1S/C7H10O2/c1-7(2)5(8)3-4-6(7)9-4/h4,6H,3H2,1-2H3/t4-,6-/m1/s1
