19
gdb 2456	2.5209312	2.1779696	1.5722603	2.3142	73.46	-0.2336	0.07007	0.30367	905.3481	0.1596	-422.556694	-422.5498	-422.548856	-422.587346	29.086	
O	 0.2322294511	 0.2253000898	 0.3540175082	-0.501164
C	-0.8937385029	 1.0552482605	 0.3825770761	 0.44014
C	-0.9670605423	 2.0928699184	 1.5128815676	-0.296777
C	-2.4831828572	 2.4225254044	 1.5904775301	-0.215569
C	-3.0066514632	 1.7974475427	 0.2927531949	 0.096263
O	-2.3237269937	 2.4893729236	-0.7926045462	-0.293562
C	-1.2506954607	 1.5753168347	-1.0500118202	 0.0677
C	-1.9879830425	 0.2405215891	-1.300348216	-0.252342
C	-2.3279162424	 0.4111013521	 0.1992968245	-0.150387
H	 0.2908108471	-0.2339236883	 1.1989871148	 0.278415
H	-0.5873239698	 1.6620224872	 2.4464201864	 0.085552
H	-0.3559927176	 2.9717710685	 1.2901180449	 0.114844
H	-2.9560267302	 1.9578197632	 2.4634772141	 0.091538
H	-2.6892956201	 3.494610661	 1.6238820714	 0.108941
H	-4.0868169943	 1.8449819427	 0.1406398107	 0.072646
H	-0.5185418678	 2.0185641324	-1.7238429874	 0.080236
H	-2.7982850584	 0.2578612498	-2.0318461224	 0.094858
H	-1.3077958808	-0.5942425286	-1.4684566768	 0.114821
H	-2.7148758443	-0.386791033	 0.8340505953	 0.063848
205.4734	285.8001	320.9406	350.5513	380.7456	428.9905	483.9002	573.8595	626.1024	682.6431	716.2712	794.9374	851.8292	866.2664	894.9771	914.7103	928.6859	955.9408	975.3956	999.0582	1011.8007	1045.5105	1062.403	1102.5902	1113.6256	1136.0623	1165.8784	1195.5627	1227.7218	1234.4887	1239.2584	1256.1442	1274.0903	1287.849	1328.4485	1337.0145	1351.4023	1392.047	1474.3821	1478.8924	1495.065	3034.0963	3046.2607	3078.6248	3088.6489	3091.6623	3111.0824	3113.1934	3133.8345	3152.2745	3797.3349
OC12CCC3OC1CC23	O[C@@]12CC[C@H]3O[C@@H]1C[C@@H]23	
InChI=1S/C7H10O2/c8-7-2-1-5-4(7)3-6(7)9-5/h4-6,8H,1-3H2	InChI=1S/C7H10O2/c8-7-2-1-5-4(7)3-6(7)9-5/h4-6,8H,1-3H2/t4-,5-,6-,7-/m1/s1
