19
gdb 2724	2.4748406	1.7798701	1.3048296	1.7531	75.54	-0.22807	0.00711	0.23518	1023.7591	0.155585	-422.54097	-422.532278	-422.531334	-422.573319	34.384	
C	-2.1942392317	 1.9231509874	-1.6794380199	-0.514575
C	-2.704071117	 0.778424551	-0.8391801394	 0.269179
C	-2.8118332707	-0.6924902381	-1.3876462149	-0.29007
C	-2.8794129035	-1.0123373062	 0.1306902779	 0.313984
O	-2.5922298093	-2.3080202347	 0.5615831827	-0.494059
C	-4.1616307202	-0.2817497874	 0.5375760713	-0.184332
C	-4.0405880909	 0.8906703827	-0.0942552444	-0.123187
C	-1.8444049266	 0.1560333735	 0.3363477251	 0.088384
O	-0.5206700027	-0.1645817986	-0.0050429793	-0.459333
H	-2.1574593332	 2.8534869292	-1.1014527815	 0.115397
H	-1.1833019998	 1.7118899214	-2.0398398328	 0.133594
H	-2.837514121	 2.0946114209	-2.5496228541	 0.116062
H	-3.6888885097	-0.9433097496	-1.9873793983	 0.092189
H	-1.8874168537	-1.0342566273	-1.8568070974	 0.104846
H	-2.7737221143	-2.3656364874	 1.5063542519	 0.283107
H	-4.9294092744	-0.6500660193	 1.2047206977	 0.101647
H	-4.6886904049	 1.7567581613	-0.0795738226	 0.102901
H	-1.8929436149	 0.6933888374	 1.2934643074	 0.055244
H	-0.3912362214	-1.0971794563	 0.2077324104	 0.289022
165.7207	196.8411	205.2028	227.2984	266.0849	335.143	346.6019	382.2338	453.5703	464.5383	556.0817	572.7859	613.4605	680.1003	687.2449	705.8674	839.3558	888.1408	898.5206	909.3039	965.0341	1002.1502	1027.8495	1060.1558	1103.6996	1118.2749	1127.2296	1172.1453	1190.3609	1202.719	1240.2436	1308.7905	1323.8953	1346.0287	1369.4522	1372.6663	1412.3045	1488.7686	1492.939	1496.7422	1622.0179	3011.3102	3028.9455	3073.0439	3090.2284	3109.5423	3143.1241	3206.0573	3233.2433	3774.2335	3798.3502
CC12CC(O)(C=C1)C2O	C[C@]12C[C@](O)(C=C1)[C@H]2O	
InChI=1S/C7H10O2/c1-6-2-3-7(9,4-6)5(6)8/h2-3,5,8-9H,4H2,1H3	InChI=1S/C7H10O2/c1-6-2-3-7(9,4-6)5(6)8/h2-3,5,8-9H,4H2,1H3/t5-,6+,7+/m0/s1
