19
gdb 3010	2.2615907	1.8870501	1.5319801	0.7585	73.24	-0.2432	0.06779	0.31099	968.3389	0.15737	-422.519572	-422.511833	-422.510889	-422.551088	31.442	
C	 0.323291041	 0.694962875	-0.2947765035	-0.439812
C	 1.5462521163	-0.2088721162	-0.3487553764	 0.018986
C	 3.012549866	 0.3519513612	-0.5080480885	-0.109955
C	 3.4774331832	-1.0024543075	 0.1008581126	-0.293011
C	 2.1829259971	-0.8242805549	 0.9475885345	 0.360585
O	 1.5086236754	-1.8654843337	 1.5799767296	-0.490087
C	 2.4951259209	 0.4667427303	 1.7530779438	-0.048712
O	 3.8832255853	 0.836376124	 1.8158519961	-0.258289
C	 3.0888341011	 1.3007246262	 0.7099912988	 0.05029
H	 0.4434181868	 1.5300132578	 0.4001693841	 0.114756
H	 0.1088812573	 1.1124240625	-1.2846560665	 0.115991
H	-0.5562889313	 0.1228656606	 0.0186047049	 0.128818
H	 1.3767053802	-1.0105911301	-1.0751881757	 0.078294
H	 3.3877883666	 0.7106512625	-1.4648016116	 0.068196
H	 3.3729166606	-1.8234330494	-0.6091452535	 0.099876
H	 4.4364885139	-1.0305702882	 0.6133022893	 0.114857
H	 2.031884904	-2.15626075	 2.3346961742	 0.28319
H	 1.8593273845	 0.8060462584	 2.5641954503	 0.102867
H	 2.9754790011	 2.3759277314	 0.6274720173	 0.103163
195.0556	218.7997	239.466	259.2093	298.1123	365.0021	445.3365	472.0187	551.1904	600.168	632.0122	700.4775	759.7467	808.6453	820.1657	867.9139	884.0039	907.6132	941.6546	977.8505	1015.5977	1026.7785	1042.716	1076.1881	1097.863	1129.2631	1158.6893	1167.1575	1198.0129	1219.3657	1231.3764	1260.7012	1287.9957	1325.1562	1344.8217	1393.7211	1411.7146	1414.9098	1493.536	1501.5811	1503.5172	3036.2645	3053.9846	3096.3775	3096.7542	3117.3692	3131.3329	3167.6292	3168.5169	3180.924	3806.4714
CC1C2CC1(O)C1OC21	C[C@H]1[C@@H]2C[C@@]1(O)[C@H]1O[C@@H]21	
InChI=1S/C7H10O2/c1-3-4-2-7(3,8)6-5(4)9-6/h3-6,8H,2H2,1H3	InChI=1S/C7H10O2/c1-3-4-2-7(3,8)6-5(4)9-6/h3-6,8H,2H2,1H3/t3-,4-,5-,6-,7-/m0/s1
