19
gdb 6070	2.1722804	0.7618945	0.5899959	3.9446	83.55	-0.25423	-0.04974	0.20449	1899.1341	0.152955	-422.527231	-422.515875	-422.514931	-422.568317	36.51	
C	-3.3028147032	 0.5999483715	 4.7702266899	-0.230036
O	-3.5219362639	 0.9996383299	 3.4381453092	-0.227338
C	-2.9019731256	 0.1465142744	 2.5032408631	-0.057085
C	-3.2346460542	 0.6666687755	 1.1035258881	-0.30386
C	-2.5477406208	-0.132331605	 0.0075098519	 0.223677
O	-3.1622876398	-0.8080858396	-0.7911517324	-0.28171
C	-1.1000335321	-0.0405776495	-0.0296607689	 0.069818
C	 0.1041591652	 0.038580291	-0.0684912002	 0.029622
C	 1.5532013744	 0.1202558267	-0.1308763123	-0.501517
H	-3.7015761676	-0.40804334	 4.9656897668	 0.106501
H	-2.2312656748	 0.5994741436	 5.0264834746	 0.103526
H	-3.8195526846	 1.3150889197	 5.4146510838	 0.129293
H	-1.8103357258	 0.1293830657	 2.6556159026	 0.096626
H	-3.2656360999	-0.8883233821	 2.620566379	 0.098251
H	-4.3121014057	 0.6197671975	 0.9308996187	 0.130166
H	-2.9105400456	 1.7123652999	 1.0440587708	 0.127082
H	 1.9398364035	 0.9171658942	 0.5125775357	 0.158048
H	 2.0062010846	-0.8239975386	 0.1908130649	 0.164049
H	 1.8884730658	 0.3149293351	-1.1552193755	 0.164888
5.4638	30.2423	61.9455	95.2655	103.5453	131.6906	167.7951	228.1266	277.707	342.9502	387.917	396.5439	440.8273	587.3802	675.9838	730.4351	825.6551	977.2704	1010.771	1044.3103	1054.5751	1055.2178	1073.0492	1159.1857	1178.0601	1215.7537	1224.3232	1263.7377	1291.2148	1307.2792	1409.7127	1419.0354	1469.634	1471.2739	1473.7529	1480.435	1484.9477	1504.2839	1533.3342	1761.3692	2336.187	2956.4884	2972.346	2990.776	3013.9815	3032.4298	3046.8579	3095.9051	3100.1031	3115.9947	3121.2994
COCCC(=O)C#CC	COCCC(=O)C#CC	
InChI=1S/C7H10O2/c1-3-4-7(8)5-6-9-2/h5-6H2,1-2H3	InChI=1S/C7H10O2/c1-3-4-7(8)5-6-9-2/h5-6H2,1-2H3
