19
gdb 2882	2.7632711	1.761668	1.5690097	1.5841	72.42	-0.22788	0.0808	0.30868	939.6837	0.160401	-422.567719	-422.560595	-422.55965	-422.599009	28.925	
O	 0.3646799362	 0.6317682571	 0.9630219953	-0.4465
C	-0.7471420603	 1.0543829916	 0.1920858255	 0.148734
C	-1.1939163132	 2.4551813956	 0.5791128797	-0.154484
C	-2.6389412623	 2.7965035223	 0.2296407425	-0.081494
C	-3.3895450113	 1.9467136928	-0.7853097871	-0.230946
C	-3.088573198	 0.4349342083	-0.5875684704	-0.220428
C	-2.027550041	 0.2472573145	 0.4989092615	 0.019828
O	-2.508505916	 0.8276341542	 1.7275088475	-0.278131
C	-2.304905591	 2.2176703105	 1.5766722394	 0.083883
H	 0.0873867795	 0.6620999005	 1.8865175758	 0.284975
H	-0.444236829	 0.9501126519	-0.8535768332	 0.088028
H	-0.4450161318	 3.2296102057	 0.6902841428	 0.092373
H	-2.8698355928	 3.8578382238	 0.2153968395	 0.085791
H	-4.4641315804	 2.1324201971	-0.6872394685	 0.108229
H	-3.1152252954	 2.2673344351	-1.7964025522	 0.105044
H	-3.989741775	-0.101177187	-0.2773797083	 0.110673
H	-2.7458448476	-0.0258450111	-1.5202503483	 0.100864
H	-1.8110879044	-0.8052054399	 0.6925174493	 0.084205
H	-2.4419995761	 2.7616315569	 2.5028023093	 0.099357
114.8016	186.3336	304.5922	349.3978	387.7278	429.6979	489.3483	571.5964	688.746	743.1968	759.5195	796.766	811.8544	835.5906	875.4218	918.6182	929.5694	943.6636	1007.2847	1026.2631	1055.1894	1077.3384	1082.7752	1093.023	1100.3018	1114.9088	1156.3362	1206.6899	1257.6178	1266.5011	1275.051	1276.465	1301.751	1322.6604	1354.9604	1362.2092	1384.1804	1428.9772	1436.0732	1479.189	1506.1304	3033.4798	3048.8883	3064.7537	3077.9923	3095.3876	3099.367	3147.8489	3185.8867	3196.7947	3792.3095
OC1C2C3CCC1OC23	O[C@@H]1[C@H]2[C@H]3CC[C@@H]1O[C@@H]23	
InChI=1S/C7H10O2/c8-6-4-2-1-3-5(6)7(3)9-4/h3-8H,1-2H2	InChI=1S/C7H10O2/c8-6-4-2-1-3-5(6)7(3)9-4/h3-8H,1-2H2/t3-,4+,5-,6+,7-/m1/s1
