19
gdb 3854	4.2759971	1.1058472	1.0525899	2.8749	76.19	-0.21635	0.06384	0.28019	1215.2923	0.15625	-422.486183	-422.477983	-422.477039	-422.519315	31.009	
C	 0.1224464641	 0.5501317577	-0.0271539383	-0.39836
C	 0.8407215595	-0.7326646368	-0.3867728913	 0.163723
C	 1.3734818294	-1.6246699035	 0.7633853645	-0.40061
C	 2.7253141373	-1.3785457332	 0.108455981	 0.479862
O	 2.193518412	-0.4910362127	-0.8689766672	-0.325797
C	 4.0360175619	-1.2085477919	 0.808051857	-0.247776
C	 5.0918986636	-0.8249597852	-0.2262909354	-0.084485
O	 4.74025029	-1.9436129103	-1.0843137694	-0.281542
C	 3.7795405594	-2.3990290463	-0.1375327795	-0.004385
H	 0.6778091032	 1.1053785501	 0.7349793285	 0.120752
H	 0.0188734571	 1.1884540616	-0.9100925926	 0.130504
H	-0.8801496184	 0.3325554268	 0.3575888248	 0.116217
H	 0.272487219	-1.2954196373	-1.1384691543	 0.082397
H	 1.2574919357	-1.1875370687	 1.758574631	 0.110552
H	 1.0227411456	-2.6584194952	 0.7760517562	 0.113854
H	 4.1426515334	-1.1406394361	 1.8840403049	 0.095894
H	 4.9642479836	 0.1398363507	-0.7285817103	 0.120904
H	 6.1206292224	-0.9316322004	 0.133800317	 0.108371
H	 3.683520631	-3.4702257793	 0.0151061235	 0.099926
52.2065	136.4729	186.1182	235.7814	270.7175	335.5203	399.1635	468.8358	502.3561	617.6995	749.4506	776.444	813.1365	852.6551	901.2671	912.6862	929.751	955.988	961.2622	1004.0071	1023.1469	1057.5787	1076.1846	1087.8298	1102.0477	1154.4404	1161.5185	1178.0868	1203.2877	1220.8014	1241.1914	1258.0196	1316.3407	1331.4564	1380.6018	1407.9932	1447.8705	1482.242	1493.2959	1497.0437	1511.4187	3018.831	3033.3558	3034.1285	3063.5979	3086.0487	3105.8278	3113.691	3119.9723	3150.7282	3181.7171
CC1CC2(O1)C1COC21	C[C@@H]1C[C@@]2(O1)[C@@H]1CO[C@H]21	
InChI=1S/C7H10O2/c1-4-2-7(9-4)5-3-8-6(5)7/h4-6H,2-3H2,1H3	InChI=1S/C7H10O2/c1-4-2-7(9-4)5-3-8-6(5)7/h4-6H,2-3H2,1H3/t4-,5-,6+,7-/m1/s1
