19
gdb 5341	3.7912934	1.0385029	0.9375041	1.9535	77.51	-0.24096	-0.00315	0.23781000000000002	1305.6167	0.156049	-422.553172	-422.544299	-422.543355	-422.586751	33.278	
C	 0.8499696653	 4.058010519	 2.1213338634	-0.492556
C	 0.6831404548	 2.9130986047	 1.163776592	 0.406492
O	 0.1926343662	 3.2528999774	-0.162338202	-0.301755
C	 1.4897919725	 2.6599941187	-0.0465274519	-0.030332
C	 1.5186889716	 1.1606847817	-0.3073387814	-0.333076
C	 0.6194398796	 0.6011860597	 0.7849354633	 0.271993
C	 0.2374869636	-0.8471084913	 0.8229839425	-0.157939
O	-0.4395952103	-1.2518789029	-0.3654241575	-0.41267
C	 0.1864600473	 1.5684008122	 1.6023339296	-0.254032
H	 1.5035693374	 3.7768264652	 2.9538720084	 0.124611
H	 1.2805581617	 4.9235620074	 1.6122254911	 0.131991
H	-0.1170640233	 4.3574724741	 2.5405390842	 0.128096
H	 2.319618589	 3.2941724224	-0.3495493228	 0.09086
H	 1.1503834813	 0.9029268203	-1.3061050007	 0.133342
H	 2.5391263667	 0.7619223089	-0.2306999588	 0.109735
H	 1.1307480982	-1.4818577631	 0.8692001297	 0.111909
H	-0.3624724592	-1.0553571312	 1.7215441509	 0.092468
H	-1.2088139969	-0.679649248	-0.4615747898	 0.285655
H	-0.4659985455	 1.4256351749	 2.45691901	 0.095209
69.2593	117.7486	188.2976	228.6942	257.4782	264.4249	352.0554	403.3365	436.2283	481.9064	524.7187	612.8712	676.9183	730.7063	818.5757	869.9865	873.293	913.6341	932.7093	976.7269	991.6216	1031.4534	1049.5019	1067.7123	1102.1391	1162.9858	1177.1126	1193.5276	1242.5393	1293.0108	1320.3064	1337.3254	1367.6666	1409.3905	1417.2621	1444.1307	1461.2784	1484.7551	1494.9939	1501.2782	1695.1849	2991.3305	3025.7343	3035.0033	3052.7289	3077.6776	3095.9214	3125.166	3140.0033	3190.3493	3803.7346
CC12OC1CC(CO)=C2	C[C@@]12O[C@@H]1CC(=C2)CO	
InChI=1S/C7H10O2/c1-7-3-5(4-8)2-6(7)9-7/h3,6,8H,2,4H2,1H3	InChI=1S/C7H10O2/c1-7-3-5(4-8)2-6(7)9-7/h3,6,8H,2,4H2,1H3/t6-,7+/m1/s1
