19
gdb 5383	3.0028993	1.2754234	1.0274543	1.791	77.14	-0.24346	0.00946	0.25292000000000003	1190.9422	0.158248	-422.549254	-422.541061	-422.540117	-422.582378	30.747	
O	 1.8181960049	 0.5228783118	-0.1699739075	-0.41284
C	 0.4172430036	 0.7045310542	 0.032229948	-0.176702
C	-0.3751422341	 0.4086322223	-1.2051553722	 0.293422
C	-1.3553201109	-0.4920360087	-1.3321452815	-0.174973
C	-1.9314799109	-0.5616536625	-2.7267256611	-0.274315
C	-1.21166517	 0.5847124445	-3.4548285728	 0.118924
O	-1.9362945187	 1.8357516919	-3.3879310181	-0.292506
C	-0.8646812362	 2.4795514646	-2.6679478123	-0.077177
C	-0.1167464605	 1.1349276974	-2.5028371843	-0.167625
H	 1.9504253031	-0.3958083224	-0.4271623979	 0.281734
H	 0.0483602193	 0.0985902219	 0.8730486597	 0.093634
H	 0.3093734704	 1.7579155834	 0.3184086261	 0.115253
H	-1.7130352676	-1.121565049	-0.5227548005	 0.090641
H	-1.7457502349	-1.5375176237	-3.1956966372	 0.102964
H	-3.0152838975	-0.3966651166	-2.7524799125	 0.123713
H	-0.9284774305	 0.347471896	-4.4861665906	 0.07077
H	-0.3412044734	 3.2168874962	-3.290870947	 0.097425
H	-1.2169972977	 2.9677206934	-1.7512489188	 0.100724
H	 0.9302540915	 1.1255636653	-2.8099378993	 0.086931
76.2103	113.6482	173.9164	220.8411	273.5422	345.8562	385.5435	427.0734	572.6835	626.8825	733.2005	792.4378	808.578	848.2416	890.0676	902.3163	946.1692	980.9709	997.687	1011.5417	1037.26	1047.8485	1058.0024	1071.215	1162.7955	1169.8601	1176.9558	1196.45	1232.0481	1259.353	1280.5363	1316.0961	1333.3481	1356.8729	1359.3127	1386.0415	1416.4583	1466.3326	1497.7784	1521.615	1706.65	2993.9261	3006.4148	3013.8916	3045.5626	3051.2776	3054.9051	3060.2682	3099.5151	3177.3552	3808.6761
OCC1=CCC2OCC12	OCC1=CC[C@H]2OC[C@@H]12	
InChI=1S/C7H10O2/c8-3-5-1-2-7-6(5)4-9-7/h1,6-8H,2-4H2	InChI=1S/C7H10O2/c8-3-5-1-2-7-6(5)4-9-7/h1,6-8H,2-4H2/t6-,7+/m0/s1
