19
gdb 2031	2.7916781	1.8062521	1.4917933	3.1449	73.48	-0.24249	0.07786	0.32035	959.0004	0.15806	-422.535633	-422.528241	-422.527296	-422.566925	29.835	
C	 0.018683746	-0.0470353967	-0.291429204	-0.487745
C	 1.515229019	 0.0196715756	-0.1393501546	 0.416994
O	 2.1224886292	-0.953658337	 0.7077319008	-0.283049
C	 2.4355365956	-0.9900984533	-0.6931666902	-0.023349
C	 3.8278227236	-0.5219165151	-1.108496431	-0.246867
C	 3.9378767481	 0.9954034891	-0.9186114011	 0.092275
C	 2.7115571238	 1.7559110803	-1.4794741158	-0.255467
C	 2.1505333942	 1.4171196252	-0.0793383991	 0.006008
O	 3.4984611014	 1.3211028651	 0.430776696	-0.276714
H	-0.475101558	 0.3575975141	 0.5992625944	 0.130177
H	-0.3153291613	 0.5405744501	-1.1539577869	 0.122284
H	-0.3116789174	-1.0800371007	-0.425622039	 0.130822
H	 2.0332947994	-1.8617394534	-1.2090039457	 0.087476
H	 4.5908934786	-1.0305765034	-0.5090208624	 0.123062
H	 4.0036243294	-0.7835823888	-2.1592368967	 0.100142
H	 4.9381650168	 1.3806210012	-1.1332312177	 0.078166
H	 2.9144782309	 2.8205674699	-1.6020969257	 0.112394
H	 2.2000709325	 1.3561069708	-2.3588319301	 0.098456
H	 1.5462878483	 2.146619257	 0.467393419	 0.074936
179.9592	194.8984	239.1104	317.0657	353.1264	403.6116	431.28	505.9691	548.3675	638.4163	702.1415	798.0555	836.88	867.542	885.0674	913.6725	929.7528	948.8151	978.9193	1002.064	1042.8202	1046.8941	1058.9843	1100.0131	1127.494	1134.621	1197.4129	1227.2935	1230.7253	1251.9684	1300.2654	1328.1086	1336.1318	1347.8793	1377.5989	1411.5314	1457.9212	1464.7593	1485.1591	1489.074	1500.6293	3031.3918	3033.0449	3063.8965	3071.4302	3077.7899	3079.96	3092.7016	3109.4986	3121.4962	3135.1477
CC12OC1CC1CC2O1	C[C@@]12O[C@@H]1C[C@H]1C[C@@H]2O1	
InChI=1S/C7H10O2/c1-7-5-2-4(8-5)3-6(7)9-7/h4-6H,2-3H2,1H3	InChI=1S/C7H10O2/c1-7-5-2-4(8-5)3-6(7)9-7/h4-6H,2-3H2,1H3/t4-,5+,6-,7+/m1/s1
