19
gdb 4523	3.1224991	1.4011366	1.1421593	1.9372	78.43	-0.24124	0.00714	0.24838000000000002	1111.6834	0.158586	-422.544108	-422.536298	-422.535354	-422.576251	30.75	
O	 0.0007772233	 1.4729806051	 0.1497648469	-0.431902
C	 0.0278843206	 0.0519969762	 0.0006535487	 0.094475
C	-1.3972510839	-0.5202947874	-0.136082233	-0.122434
O	-2.0635673186	-0.6224555777	 1.1243250909	-0.27062
C	-1.3900475809	-1.5885700759	 1.8947667765	 0.086155
C	-1.4147976939	-1.5015149298	 3.4462374081	-0.261185
C	 0.1254602557	-1.8143477536	 3.4341943886	-0.321552
C	 0.0967657906	-1.3643618866	 1.9879595614	 0.298822
C	 0.7666824487	-0.5618993597	 1.1721215629	-0.27317
H	-0.470507005	 1.6462356373	 0.9734882056	 0.278768
H	 0.556697172	-0.1184236474	-0.9446767682	 0.090283
H	-1.9911489352	 0.1579477218	-0.7526454606	 0.116877
H	-1.3644183964	-1.5076430306	-0.6250996142	 0.088918
H	-1.6578126061	-2.6043663711	 1.5557881744	 0.07217
H	-1.6076822573	-0.4753586674	 3.7653147727	 0.11889
H	-2.073143076	-2.1899254162	 3.9790282042	 0.106132
H	 0.7662032537	-1.2611355581	 4.1238200433	 0.117771
H	 0.3212791669	-2.8850708163	 3.5535948144	 0.116475
H	 1.7726008219	-0.2024062825	 1.3714346873	 0.095128
94.487	181.2732	208.9648	310.3923	355.4972	383.3467	444.3004	449.1775	489.9534	576.3855	687.8013	745.1657	780.1383	813.7889	856.9105	879.6603	911.672	944.6606	973.4027	994.986	1043.488	1063.8029	1091.8816	1112.9587	1132.2699	1148.5741	1184.4357	1224.9322	1252.6926	1258.0964	1265.4519	1304.9972	1321.065	1335.1205	1369.1404	1403.8215	1422.6597	1475.0017	1484.1074	1489.2197	1765.661	2949.4571	2974.4797	3044.7698	3051.3454	3075.5178	3109.2134	3110.6652	3139.9967	3164.8206	3791.0984
OC1COC2CCC2=C1	O[C@@H]1CO[C@@H]2CC[C]2[CH]1	
InChI=1S/C7H10O2/c8-6-3-5-1-2-7(5)9-4-6/h3,6-8H,1-2,4H2	InChI=1S/C7H10O2/c8-6-3-5-1-2-7(5)9-4-6/h3,6-8H,1-2,4H2/t6-,7+/m0/s1
