19
gdb 5195	3.5983648	1.3639815	1.3170635	0.5662	73.85	-0.23977	0.06957	0.30934	1053.7648	0.157522	-422.516833	-422.509315	-422.508371	-422.548784	29.811	
C	 1.2324515658	 1.1036238701	 0.3024782348	-0.383687
C	 0.808417828	-0.327644967	-0.0511404674	-0.310081
C	 1.6418185835	-0.9475515848	-1.1376191461	 0.39841
C	 3.1690880779	-1.1559670987	-1.0142598155	-0.246245
C	 3.2125929854	-2.0898772894	-2.2344153461	 0.021024
O	 2.4096583893	-3.2170713685	-1.7676259651	-0.296581
C	 1.2995240372	-2.3290881393	-1.8876196233	 0.003265
C	 1.9344510429	-1.509172045	-3.0069468551	 0.064053
O	 1.5765930281	-0.2560887859	-2.4365310269	-0.330924
H	 0.5640570929	 1.53102475	 1.0554937349	 0.113793
H	 2.2503117998	 1.1314114045	 0.703872226	 0.119307
H	 1.2020739036	 1.7432796217	-0.5839042048	 0.139373
H	 0.8701096413	-0.974339889	 0.8332338885	 0.107935
H	-0.2399761625	-0.3327046523	-0.3725060696	 0.10723
H	 3.7039458545	-0.21249577	-1.136086282	 0.11113
H	 3.4947600974	-1.6802055103	-0.1136277241	 0.109529
H	 4.1545565821	-2.3777728983	-2.6963469555	 0.085971
H	 0.3073275097	-2.7743260608	-1.8355293863	 0.09166
H	 1.8156555331	-1.608862677	-4.0839034064	 0.094839
86.3591	164.9925	212.4898	297.8618	334.6833	451.0594	531.5547	552.2114	630.3518	700.6923	765.0552	768.6852	790.302	845.1071	853.6959	876.3461	934.1863	937.609	968.1828	983.1702	1012.3361	1028.5337	1050.6764	1065.6406	1120.3675	1138.035	1161.4229	1180.2569	1209.3169	1230.1498	1262.1164	1273.1078	1309.8093	1322.0667	1348.4384	1393.7799	1411.0713	1461.7744	1474.8692	1500.175	1509.0699	3027.8586	3042.6767	3063.6462	3078.9934	3110.342	3122.0332	3135.1134	3141.8218	3144.6579	3153.9763
CCC12CC3OC1C3O2	CC[C@@]12C[C@H]3O[C@@H]1[C@H]3O2	
InChI=1S/C7H10O2/c1-2-7-3-4-5(9-7)6(7)8-4/h4-6H,2-3H2,1H3	InChI=1S/C7H10O2/c1-2-7-3-4-5(9-7)6(7)8-4/h4-6H,2-3H2,1H3/t4-,5+,6-,7-/m1/s1
