19
gdb 1431	2.4173246	1.5197009	1.2506956	3.6648	76.94	-0.23791	-0.0103	0.22761	1091.0462	0.153868	-422.55525	-422.545632	-422.544688	-422.589151	35.596	
C	-1.7074519094	-0.5490181607	-2.4309029529	-0.462575
C	-2.1220740686	-0.7859101645	-0.9937094423	 0.355678
O	-3.1476789359	-1.7451178784	-0.8822417253	-0.46731
C	-2.1517984426	 0.253046538	 0.0823135068	-0.17764
C	-1.0060214267	 1.2596209113	-0.0650352806	-0.375009
C	-0.0347585777	 0.0540614029	 0.0390793873	 0.349993
O	 1.1534280552	-0.0252892056	 0.1848030052	-0.316247
C	-1.1423647048	-0.9526725067	 0.1685226842	 0.170589
C	-1.0735741234	-2.1905878106	 1.0160554713	-0.500716
H	-1.4213529699	-1.4992707833	-2.8909034123	 0.136886
H	-2.5431316359	-0.1318243938	-3.0070912076	 0.109832
H	-0.8649791966	 0.1398771327	-2.5185561887	 0.134294
H	-3.9354734334	-1.3780377357	-1.2983975773	 0.285868
H	-3.0338438129	 0.388841975	 0.6955840743	 0.101183
H	-0.9736079011	 1.881757569	-0.963608485	 0.118031
H	-0.8806343478	 1.9014337468	 0.8126953989	 0.133371
H	-0.3188440841	-2.8776433035	 0.6183801535	 0.135593
H	-0.7864374097	-1.9470753039	 2.0439091809	 0.123786
H	-2.0340684846	-2.7073758989	 1.0275203399	 0.144396
96.4057	112.997	183.0086	200.5797	223.2176	250.243	262.5353	291.0506	390.9597	414.1362	471.4101	536.7742	569.4434	645.8963	674.3417	684.2995	814.6101	876.9732	929.2064	953.106	991.9996	998.5698	1010.1362	1076.4739	1096.7521	1112.5005	1144.6297	1199.3244	1216.0217	1248.0331	1297.7098	1313.5394	1405.9212	1415.7414	1434.2932	1462.6605	1487.4803	1489.4504	1490.9026	1499.5557	1870.1317	3027.7808	3040.5731	3054.7209	3096.6089	3098.2323	3104.6242	3134.1515	3144.2638	3196.9849	3799.9256
CC1(O)C2CC(=O)C12C	C[C@]1(O)[C@@H]2CC(=O)[C@]12C	
InChI=1S/C7H10O2/c1-6-4(3-5(6)8)7(6,2)9/h4,9H,3H2,1-2H3	InChI=1S/C7H10O2/c1-6-4(3-5(6)8)7(6,2)9/h4,9H,3H2,1-2H3/t4-,6-,7+/m1/s1
