19
gdb 4947	2.3587733	1.529308	1.1207664	2.6286	74.79	-0.21019	0.06753	0.27771999999999997	1131.2382	0.156119	-422.477942	-422.46923	-422.468286	-422.511189	33.515	
O	 1.5200316222	 0.8128557373	-0.2293238068	-0.420142
C	 0.2006555606	 0.4452618996	 0.1638744818	-0.176235
C	-0.7800103596	 0.5543117481	-0.9634729496	 0.309226
C	-1.0901918505	-0.5861861897	-1.8964532669	 0.014377
O	-0.5913153527	-1.815882004	-1.441959164	-0.438527
C	-2.2052010021	 0.014423097	-1.0676020622	-0.18535
C	-2.6990243455	 1.3984542282	-1.5618289605	-0.059686
C	-2.0147621327	 1.8928819136	-2.8084055994	-0.310629
C	-1.2733590263	 1.929995519	-1.4966005359	-0.108889
H	 1.7949733306	 0.1840787308	-0.9049983504	 0.2849
H	 0.1687666852	-0.5707858991	 0.5770866998	 0.104932
H	-0.0681508034	 1.1440032162	 0.9643062548	 0.104188
H	-1.0496145271	-0.4730860062	-2.9774118032	 0.084527
H	-1.2386490798	-2.495963514	-1.6554775304	 0.290429
H	-2.732944055	-0.595071844	-0.3439329628	 0.090995
H	-3.6054821822	 1.8560051736	-1.1861083758	 0.091372
H	-1.7415107361	 1.250670759	-3.6373013966	 0.114343
H	-2.3598147957	 2.8710184475	-3.1319938646	 0.113241
H	-0.91445783	 2.8586953869	-1.0714384873	 0.096928
63.9416	134.3899	256.4513	262.4016	269.7152	303.5732	319.1043	362.5884	444.6526	457.2676	550.7155	701.248	718.181	757.9195	851.4287	861.9419	874.6621	923.2972	937.4328	960.2406	983.9716	1008.0814	1045.6549	1048.9929	1065.9792	1080.7283	1094.9812	1133.7114	1160.8425	1189.8864	1236.9301	1247.8125	1272.5976	1293.4537	1319.2614	1363.8374	1384.8638	1420.3474	1457.1921	1495.1708	1503.613	3023.1417	3068.9235	3109.2913	3134.2474	3180.1417	3188.3136	3194.1957	3207.0313	3807.3735	3811.8815
OCC12C(O)C1C1CC21	OC[C@@]12[C@@H](O)[C@@H]1[C@@H]1C[C@H]21	
InChI=1S/C7H10O2/c8-2-7-4-1-3(4)5(7)6(7)9/h3-6,8-9H,1-2H2	InChI=1S/C7H10O2/c8-2-7-4-1-3(4)5(7)6(7)9/h3-6,8-9H,1-2H2/t3-,4+,5+,6+,7+/m1/s1
