19
gdb 3689	3.1507257	1.1626729	0.9876605	1.7814	78.32	-0.24684	-0.00343	0.24341000000000002	1247.2316	0.156082	-422.555146	-422.546305	-422.545361	-422.589046	33.26	
C	 0.103229317	 0.4096189094	-0.0081128833	-0.421184
C	 1.0298903424	-0.7786889128	-0.0240927927	-0.005981
O	 2.1868130892	-0.7177997451	 0.8152148152	-0.301027
C	 2.3849809087	-0.7476012643	-0.610800199	 0.402635
C	 3.0461760799	 0.4569344383	-1.2852685727	-0.349428
C	 3.9473752381	-0.1327983789	-2.4073220221	 0.080754
O	 3.5094668312	 0.1857255495	-3.7280412272	-0.430367
C	 3.9147802778	-1.6227261718	-2.1439836888	-0.1254
C	 3.0433748301	-1.949922498	-1.1897313506	-0.136137
H	-0.5028978009	 0.405103831	 0.9039251943	 0.131187
H	 0.6598991746	 1.3488719795	-0.0408461497	 0.131082
H	-0.5802446009	 0.3754805053	-0.8637593543	 0.120529
H	 0.5248692345	-1.7480149025	 0.0012954568	 0.082562
H	 2.3346793538	 1.1652662491	-1.7165750643	 0.111821
H	 3.6389593484	 0.9949750362	-0.5404813138	 0.124729
H	 4.9627567112	 0.2735970153	-2.3622025237	 0.095159
H	 2.6800214222	-0.2827871041	-3.8757992378	 0.27423
H	 4.5101396446	-2.314887153	-2.72859653	 0.106483
H	 2.8146674681	-2.9496519331	-0.8381987864	 0.108354
38.8053	147.3268	172.0522	203.8625	280.8294	325.9328	357.6907	398.4603	448.4374	461.7411	534.5763	589.3879	731.6541	778.4763	808.4476	823.0178	851.4327	898.3284	965.2328	980.6599	987.4361	1018.1692	1043.8129	1072.2729	1121.3491	1123.0611	1158.9427	1184.7508	1230.3937	1259.3327	1279.459	1320.3363	1334.2707	1379.879	1408.4324	1429.8821	1462.2608	1476.028	1488.383	1504.6301	1674.0359	3036.8758	3057.0254	3068.4187	3071.0578	3098.8117	3112.431	3130.3558	3189.8429	3213.9266	3794.7825
CC1OC11CC(O)C=C1	C[C@@H]1O[C@@]21C[C@H](O)C=C2	
InChI=1S/C7H10O2/c1-5-7(9-5)3-2-6(8)4-7/h2-3,5-6,8H,4H2,1H3	InChI=1S/C7H10O2/c1-5-7(9-5)3-2-6(8)4-7/h2-3,5-6,8H,4H2,1H3/t5-,6+,7+/m0/s1
