19
gdb 4803	2.8937208	0.8822207	0.7460636	2.6884	77.85	-0.26131	0.04058	0.30189	1536.4593	0.154481	-422.499081	-422.489108	-422.488164	-422.534789	35.526	
O	 2.8886931355	-1.1306855431	 2.2471884764	-0.420024
C	 3.1608060963	-1.2427412922	 0.8697176562	-0.065169
C	 2.571551337	-0.0742698663	 0.0444720068	-0.158448
C	 2.9234322391	-0.2175554588	-1.4535986226	-0.242099
C	 2.4946230165	 0.976107317	-2.2701318074	 0.095085
C	 3.2992555654	 1.4880009077	-3.3850640524	-0.182762
O	 3.2909913126	 2.1566819815	-2.1223379806	-0.236213
C	 1.1282174419	-0.0031149776	 0.2670456127	 0.315228
C	-0.056245362	 0.0009354747	 0.4808903893	-0.484997
H	 1.9302940951	-1.0739611626	 2.3438566121	 0.286081
H	 4.2506536872	-1.2348001168	 0.7672293708	 0.112644
H	 2.78991405	-2.1939587304	 0.4544634698	 0.090643
H	 3.0268326479	 0.8532951131	 0.4143073411	 0.132566
H	 4.0083408201	-0.340207237	-1.5453154625	 0.107747
H	 2.4508371907	-1.1224629477	-1.8550521103	 0.111168
H	 1.4214351228	 1.169217314	-2.2840847708	 0.105666
H	 4.2339897259	 0.9917976782	-3.6446114638	 0.112659
H	 2.8174961719	 2.0228744617	-4.2023662248	 0.116832
H	-1.1033315737	 0.0341496146	 0.65689686	 0.203393
59.1938	68.4474	111.9308	142.3795	163.4179	228.5818	287.6044	336.5164	400.2779	430.6327	452.8528	535.102	617.0797	628.7973	659.9012	783.2264	801.9049	862.9225	914.6867	956.454	1004.8164	1056.8533	1073.4359	1090.589	1111.9617	1132.3372	1160.6724	1172.1772	1212.3382	1232.9497	1275.5236	1296.6078	1345.0096	1367.3969	1388.1414	1427.6241	1450.2745	1468.5591	1505.7253	1531.3454	2224.113	2973.0136	3029.2842	3039.3369	3075.7692	3081.0651	3083.3248	3112.313	3167.2945	3500.5329	3781.8117
OCC(CC1CO1)C#C	OC[C@@H](C[C@@H]1CO1)C#C	
InChI=1S/C7H10O2/c1-2-6(4-8)3-7-5-9-7/h1,6-8H,3-5H2	InChI=1S/C7H10O2/c1-2-6(4-8)3-7-5-9-7/h1,6-8H,3-5H2/t6-,7-/m1/s1
