19
gdb 5581	4.2819418	1.0687099	0.9505886	1.9677	75.07	-0.24527	0.09322	0.33848999999999996	1263.4046	0.15726	-422.519208	-422.511151	-422.510207	-422.551916	30.549	
C	 1.4886037937	-0.0773225669	-0.0859858414	-0.236547
O	 0.0920018754	-0.1579635535	 0.1208500279	-0.241785
C	-0.3359882488	 0.5678094514	 1.2254077184	 0.108651
C	-1.7555892529	 1.0427381493	 1.1870003222	-0.083474
C	-2.4643122218	 1.2501416608	 2.5265269858	-0.269578
C	-1.6973587557	 2.3942976098	 3.1836503734	 0.05296
O	-1.8147948253	 3.6367669057	 2.4840037859	-0.255818
C	-0.6152692354	 2.8661703682	 2.3038074553	 0.015826
C	-0.6158025983	 2.0470299774	 1.0506208826	-0.120438
H	 2.048338715	-0.4792845154	 0.7720890044	 0.106828
H	 1.717983376	-0.6767231793	-0.9698722601	 0.129361
H	 1.8146636772	 0.9586410308	-0.2571347295	 0.108488
H	 0.0806372774	 0.2312563406	 2.1788426122	 0.079509
H	-2.329564957	 0.767393412	 0.3108382958	 0.100883
H	-3.5143815742	 1.5273771352	 2.3873572632	 0.116767
H	-2.4401650881	 0.3519556181	 3.1552128844	 0.102579
H	-1.648421677	 2.4752057589	 4.2669135699	 0.093292
H	 0.2933551101	 3.3290038255	 2.6827147878	 0.093815
H	-0.3884859901	 2.5042974313	 0.0940261319	 0.098681
96.6111	141.9506	174.1517	220.0066	280.0295	364.9886	398.2575	449.1945	469.8611	693.7951	735.1338	816.5229	853.8882	863.4557	887.8383	916.3111	946.8639	984.8859	1009.3711	1025.5933	1040.3073	1051.9814	1091.2736	1112.5759	1130.3936	1169.5264	1182.5539	1185.6655	1215.7939	1243.7012	1258.9895	1282.8076	1295.7545	1326.2788	1348.0486	1423.8599	1436.9088	1481.4418	1485.8541	1488.7852	1508.4751	2983.5589	3034.602	3034.8832	3059.5034	3078.5463	3120.8048	3133.2279	3146.7358	3176.9565	3193.5231
COC1C2CC3OC3C12	CO[C@@H]1[C@H]2C[C@@H]3O[C@@H]3[C@@H]12	
InChI=1S/C7H10O2/c1-8-6-3-2-4-7(9-4)5(3)6/h3-7H,2H2,1H3	InChI=1S/C7H10O2/c1-8-6-3-2-4-7(9-4)5(3)6/h3-7H,2H2,1H3/t3-,4-,5+,6+,7-/m0/s1
