19
gdb 1257	2.1670467	1.3271065	1.1159681	2.9738	77.82	-0.2581	0.01796	0.27605999999999997	1220.0704	0.152419	-422.511041	-422.50063	-422.499686	-422.546025	37.83	
C	 4.9750629149	-0.3757708959	 1.7388479005	-0.410654
C	 5.284144317	-0.8360823151	 0.3122382208	 0.054831
O	 5.7575647732	 0.2279357142	-0.4949012771	-0.428977
C	 4.0844276044	-1.5289513002	-0.3390958625	 0.176041
O	 4.4077405043	-2.498844266	-1.3519101699	-0.289792
C	 3.8543987513	-2.977374534	-0.1264596821	 0.039886
C	 2.4981067308	-3.6276336992	-0.1802523235	-0.436461
C	 2.9835790554	-0.6442237131	-0.647259402	 0.282865
C	 2.1151832157	 0.1568919209	-0.8754217056	-0.431069
H	 4.7225112823	-1.2219985502	 2.3861013774	 0.115288
H	 5.8475371964	 0.1346500959	 2.1541530627	 0.129409
H	 4.1302642386	 0.3214710274	 1.7471574566	 0.122344
H	 6.0963724733	-1.5702927613	 0.3218392803	 0.099732
H	 5.0282811109	 0.8488808804	-0.6139221683	 0.282839
H	 4.5848690074	-3.4801815654	 0.512220107	 0.090393
H	 2.085920582	-3.7306524071	 0.8291209763	 0.125348
H	 1.8054162833	-3.0391375003	-0.7849408913	 0.140862
H	 2.5792075152	-4.6290611434	-0.6150601403	 0.133216
H	 1.3300655938	 0.8399634622	-1.089956519	 0.203899
69.2263	133.3788	143.9287	157.6669	186.4432	226.5783	244.5323	312.5515	336.3782	342.4995	394.9061	471.2524	507.7352	580.579	613.357	632.9383	671.4578	685.0702	798.4083	901.4348	930.3508	961.8629	1005.834	1030.3707	1091.395	1108.2948	1140.87	1167.2862	1237.7756	1277.1173	1322.9847	1352.0261	1401.5307	1407.9508	1430.3951	1451.1826	1485.0447	1490.3238	1495.1591	1498.838	2227.2205	3036.1603	3041.1754	3063.8614	3077.6266	3104.7704	3106.6965	3124.7233	3139.5163	3497.17	3779.6895
CC(O)C1(OC1C)C#C	C[C@H](O)[C@]1(O[C@@H]1C)C#C	
InChI=1S/C7H10O2/c1-4-7(5(2)8)6(3)9-7/h1,5-6,8H,2-3H3	InChI=1S/C7H10O2/c1-4-7(5(2)8)6(3)9-7/h1,5-6,8H,2-3H3/t5-,6+,7+/m0/s1
