19
gdb 3812	3.0699834	1.5743196	1.2672377	0.7503	73.51	-0.21796	0.06794	0.2859	1036.1922	0.157264	-422.526887	-422.519061	-422.518117	-422.558633	31.39	
C	 2.7393410196	 1.4627956122	-0.3752470502	-0.411147
C	 1.9246449998	 0.202167609	-0.093355062	 0.044386
C	 2.4507863023	-0.6626622727	 1.0928754036	-0.311444
C	 2.2789362931	-2.1058298351	 0.6181497284	 0.358099
O	 2.0525717399	-3.1305975469	 1.5334237916	-0.473852
C	 2.9420975506	-2.474656144	-0.7024469321	 0.026824
O	 3.2983130299	-1.3006599898	-1.4308393064	-0.310695
C	 1.9228395068	-0.8041034046	-1.2487120444	 0.073296
C	 1.4764406798	-2.1580065632	-0.6644315806	-0.202162
H	 2.7642073936	 2.1225538763	 0.4978146223	 0.112721
H	 3.7681207795	 1.1949350879	-0.6337888412	 0.135052
H	 2.315627695	 2.0315918701	-1.2101945006	 0.109374
H	 0.878587599	 0.4748129314	 0.10146976	 0.073864
H	 3.4979225823	-0.4275338947	 1.3146492688	 0.09904
H	 1.8717877389	-0.5055776687	 2.0073671397	 0.105111
H	 2.8890675253	-3.337712752	 1.9645043943	 0.286222
H	 3.4887564187	-3.3936851708	-0.8833676059	 0.102642
H	 1.5015456574	-0.4567965758	-2.194350469	 0.07884
H	 0.5900762486	-2.7466774388	-0.8528343561	 0.10383
132.6604	232.089	241.9317	280.1224	327.2179	349.5055	393.1072	467.843	487.6082	584.0867	626.7413	752.4176	770.9523	828.0217	857.7683	885.1392	904.8314	929.915	938.8114	959.4741	1013.9183	1022.6606	1036.3482	1087.6528	1115.8245	1131.1645	1154.4879	1202.0098	1213.9102	1237.9005	1262.8344	1287.3334	1307.953	1324.5414	1343.4882	1360.754	1406.6732	1429.5176	1492.957	1496.9563	1504.2986	3014.6405	3032.9517	3040.2902	3090.3871	3093.4188	3098.0265	3114.7173	3174.3073	3216.5447	3794.8076
CC1CC2(O)C3OC1C23	C[C@@H]1C[C@]2(O)[C@@H]3O[C@H]1[C@H]23	
InChI=1S/C7H10O2/c1-3-2-7(8)4-5(3)9-6(4)7/h3-6,8H,2H2,1H3	InChI=1S/C7H10O2/c1-3-2-7(8)4-5(3)9-6(4)7/h3-6,8H,2H2,1H3/t3-,4+,5-,6-,7-/m1/s1
