19
gdb 4342	2.048469	1.5749553	1.3947646	2.2121	75.86	-0.2428	-0.0253	0.2175	1063.4289	0.156814	-422.58562	-422.576881	-422.575936	-422.61904	32.54	
O	-0.8704177553	-1.6770319296	-2.4605421078	-0.441412
C	 0.3305905335	-1.0375034812	-2.028868832	 0.118084
C	 0.6144968269	 0.1006962115	-3.014693353	-0.259752
C	-0.1482309026	 1.3634714931	-2.7158710125	-0.032673
C	-0.8541642646	 1.5634481093	-1.6039637701	-0.053574
C	-0.9736263222	 0.5299417441	-0.5147015972	-0.26315
C	 0.1665099711	-0.5022272815	-0.5945346741	-0.148509
C	 1.4599673709	 0.0625938606	-0.0340782705	 0.163231
O	 2.5487426636	-0.0593695963	-0.5356928288	-0.251762
H	-1.0091534928	-2.4542994008	-1.9096907169	 0.278854
H	 1.1694329744	-1.7446023729	-2.0562079555	 0.080757
H	 1.6907786704	 0.3105438013	-3.0138596004	 0.132493
H	 0.3678986424	-0.2612844563	-4.0196504796	 0.117537
H	-0.0959738811	 2.1476006023	-3.4674823643	 0.086768
H	-1.3943018008	 2.4958299669	-1.4622188952	 0.085539
H	-0.9755528214	 1.0098574017	 0.472427156	 0.099721
H	-1.9337181566	 0.0062321608	-0.6006297545	 0.122177
H	-0.0827799262	-1.3408232572	 0.0780046319	 0.085725
H	 1.3369834004	 0.6045058943	 0.9332525946	 0.079946
81.8822	124.0072	143.4064	195.2508	280.4795	284.6544	378.6722	393.9744	413.9512	547.6395	585.4475	661.9037	685.0552	755.9715	853.3643	881.73	896.253	928.0949	938.4047	1005.0059	1013.7393	1049.7952	1072.6355	1088.9881	1111.7058	1158.2938	1216.6348	1231.891	1251.0186	1276.9537	1320.6719	1355.4249	1368.2678	1390.1885	1410.8296	1427.9344	1437.5686	1461.414	1476.1939	1727.0628	1822.8727	2855.687	2965.8698	3017.9507	3022.8054	3037.7586	3050.2903	3069.3298	3145.9172	3169.7454	3812.5168
OC1CC=CCC1C=O	O[C@H]1CC=CC[C@@H]1C=O	
InChI=1S/C7H10O2/c8-5-6-3-1-2-4-7(6)9/h1-2,5-7,9H,3-4H2	InChI=1S/C7H10O2/c8-5-6-3-1-2-4-7(6)9/h1-2,5-7,9H,3-4H2/t6-,7+/m1/s1
