19
gdb 6084	8.4639718	0.5388852	0.5304272	1.2221	81.27	-0.25724	0.01997	0.27721	2063.1525	0.153454	-422.481814	-422.471525	-422.470581	-422.518188	35.466	
C	 1.383124769	-0.0599402004	-0.1727907182	-0.230076
O	-0.0144894452	 0.0672111417	-0.0649886299	-0.231497
C	-0.4191817927	 0.6517032322	 1.1518666154	-0.045398
C	-1.9438813447	 0.7154282188	 1.1655778977	-0.246772
C	-2.4657574038	 1.3626674016	 2.4228464681	 0.066404
O	-2.4140748067	 0.5854262484	 3.6205048958	-0.242432
C	-3.7083306236	 0.9092447326	 3.0826140276	-0.163511
C	-4.5377404586	 1.8056199339	 3.8422469343	 0.318361
C	-5.2512778421	 2.5439720052	 4.466978681	-0.410701
H	 1.7990860478	-0.6934345272	 0.6265851138	 0.106219
H	 1.5959480318	-0.5246236125	-1.1385505999	 0.127666
H	 1.8876111798	 0.9186761518	-0.1303983355	 0.103661
H	-0.0609524409	 0.0592424256	 2.0096527061	 0.105365
H	 0.0090504577	 1.6646117915	 1.2555442032	 0.08426
H	-2.2847866406	 1.284913219	 0.2927965071	 0.116567
H	-2.3440675453	-0.2993806794	 1.0749523711	 0.116026
H	-2.1914347925	 2.4083111728	 2.5724862992	 0.104302
H	-4.2269614658	 0.0577922092	 2.6425730395	 0.118454
H	-5.8777988637	 3.1983263153	 5.0214106537	 0.203101
44.6489	76.5467	89.8815	113.1235	160.5905	200.9461	233.8671	300.17	306.2763	416.6225	470.7529	544.0283	584.5697	622.1945	671.1397	773.82	822.9913	910.7695	960.994	999.7811	1027.9711	1063.5298	1083.7167	1141.9569	1155.617	1165.903	1186.5689	1227.7271	1241.6373	1268.6649	1307.5762	1310.0201	1365.6096	1425.9844	1468.6167	1479.1656	1481.4256	1485.6457	1504.8848	1533.4065	2241.9311	2945.6254	2970.4102	2987.6146	3013.3676	3042.8998	3088.3346	3104.9297	3114.6593	3114.8112	3502.5379
COCCC1OC1C#C	COCC[C@@H]1O[C@H]1C#C	
InChI=1S/C7H10O2/c1-3-6-7(9-6)4-5-8-2/h1,6-7H,4-5H2,2H3	InChI=1S/C7H10O2/c1-3-6-7(9-6)4-5-8-2/h1,6-7H,4-5H2,2H3/t6-,7-/m0/s1
