19
gdb 624	3.2121813	1.498188	1.1209256	2.2668	77.6	-0.24446	0.00879	0.25325000000000003	1098.7619	0.159455	-422.55606	-422.54836	-422.547416	-422.589093	29.048	
C	-0.7177914444	-0.254363181	 0.9533395627	-0.063885
C	 0.7773823108	 0.0088281525	 0.5960483884	-0.356477
C	 0.6786634593	 1.2792906873	-0.2055743745	 0.340334
C	 1.4938199265	 2.3227778216	-0.2978318347	-0.23128
C	 0.9698405243	 3.6094261779	-0.8921560234	-0.125854
O	-0.4132531238	 3.7646719273	-0.6155588415	-0.235099
C	-1.1931293478	 2.7192432343	-1.156532825	-0.115152
C	-0.7315672219	 1.3161689882	-0.7314403305	 0.038378
O	-1.4935983341	 0.786556958	 0.3521376253	-0.270716
H	-1.0442179099	-1.2337713371	 0.5764213464	 0.09432
H	-0.9043563971	-0.2250744533	 2.0304797555	 0.113147
H	 1.4097031022	 0.1205978561	 1.4798092736	 0.119396
H	 1.1828911045	-0.8181870085	 0.0019183409	 0.11523
H	 2.4902184073	 2.3167396349	 0.1354168303	 0.090828
H	 1.4666084979	 4.4687127304	-0.4317941428	 0.116501
H	 1.1526561948	 3.6701450144	-1.9806928979	 0.093274
H	-2.219336433	 2.8801531449	-0.8174382704	 0.126177
H	-1.1758537789	 2.772730991	-2.2580758033	 0.084147
H	-0.8283725066	 0.6433156809	-1.603717649	 0.066729
36.186	125.6533	200.5573	293.6668	330.0844	366.2945	449.6297	561.2465	666.6762	683.3616	749.9206	792.181	838.3413	850.1066	885.6746	944.7252	950.6999	972.7842	1029.5625	1043.6981	1061.6074	1084.2445	1119.555	1156.3393	1177.3875	1209.5471	1242.1997	1253.3491	1268.4765	1304.4913	1325.9947	1354.3048	1377.5577	1377.9786	1395.7726	1419.4416	1479.2244	1482.495	1490.9359	1523.9097	1762.0182	2918.2519	2935.4193	2967.4414	3000.8593	3039.1856	3078.5636	3079.6091	3103.7304	3105.0801	3163.8356
C1CC2=CCOCC2O1	C1CC2=CCOC[C@@H]2O1	
InChI=1S/C7H10O2/c1-3-8-5-7-6(1)2-4-9-7/h1,7H,2-5H2	InChI=1S/C7H10O2/c1-3-8-5-7-6(1)2-4-9-7/h1,7H,2-5H2/t7-/m0/s1
