19
gdb 3833	2.6559693	1.5211313	1.2360402	2.49	75.49	-0.24341	-0.00994	0.23346999999999998	1093.4379	0.155962	-422.563227	-422.554574	-422.55363	-422.596148	32.673	
C	-3.2875173354	 1.4371023603	-1.2833071064	-0.413579
C	-1.8856199961	 0.8338289358	-1.3337169941	 0.021435
C	-1.866017802	-0.737077746	-1.3286132813	-0.285871
C	-1.0746410396	-0.9782205075	-0.0260636969	 0.287968
C	-0.9313854194	-2.3510518562	 0.5574388259	-0.499744
O	-1.6578850108	 0.0442931775	 0.8706246225	-0.328164
C	-1.0853252359	 1.0488901603	-0.0293582561	-0.059223
C	 0.0792067102	 0.0486378553	-0.1585243242	 0.415681
O	 1.2701378943	 0.0461591096	-0.1316872145	-0.321332
H	-3.8140467957	 1.1002580483	-0.3854233668	 0.133426
H	-3.250336836	 2.5315268316	-1.269571046	 0.115454
H	-3.8742965086	 1.1319792446	-2.1561023233	 0.117733
H	-1.3340549319	 1.2356996857	-2.1904751969	 0.085079
H	-2.8728278908	-1.1589243615	-1.2544017878	 0.110725
H	-1.3722260432	-1.1684364413	-2.2039511699	 0.111442
H	-0.3595303695	-2.3201939774	 1.488146319	 0.141622
H	-1.9125233323	-2.7917650572	 0.760801473	 0.132489
H	-0.4056229054	-3.0002165713	-0.1493762402	 0.136362
H	-0.9991630218	 2.0448961795	 0.4015109041	 0.098497
127.6513	145.6289	164.6324	225.1322	240.2456	250.9525	322.8815	406.0434	471.46	521.7526	623.9158	671.2227	722.5866	749.2394	827.4257	845.1278	887.1193	903.1978	920.3411	936.252	1030.2114	1036.0276	1049.6906	1088.628	1130.0351	1186.4074	1190.1852	1198.413	1241.24	1265.2419	1298.5051	1355.2455	1367.4382	1405.7466	1416.1955	1476.9425	1485.1534	1490.394	1493.3663	1505.4957	1916.6624	3032.8615	3043.2972	3048.0497	3055.1928	3098.3487	3103.5672	3113.1637	3115.749	3126.7573	3146.5973
CC1CC2(C)OC1C2=O	C[C@@H]1C[C@]2(C)O[C@H]1C2=O	
InChI=1S/C7H10O2/c1-4-3-7(2)6(8)5(4)9-7/h4-5H,3H2,1-2H3	InChI=1S/C7H10O2/c1-4-3-7(2)6(8)5(4)9-7/h4-5H,3H2,1-2H3/t4-,5-,7+/m1/s1
