19
gdb 1245	1.8645858	1.4030197	1.2934423	1.3309	77.7	-0.25481	-0.03013	0.22468	1157.0303	0.151906	-422.539887	-422.529152	-422.528207	-422.575223	38.656	
C	 2.7117822871	-1.7093831183	-1.8562362128	-0.421267
C	 3.2454871154	-1.3453853593	-0.4717408697	 0.120074
O	 2.9470935054	-2.3452452533	 0.4829516439	-0.430408
C	 2.7441240491	 0.0593166354	 0.0370904866	-0.090179
C	 3.4562368475	 0.392868182	 1.373077191	-0.427334
C	 3.1642652677	 1.1237865354	-0.978452839	 0.158268
O	 2.4374856272	 1.8820992563	-1.5583351308	-0.247632
C	 1.2971503689	 0.0162133977	 0.2237478518	 0.347676
C	 0.1130296615	-0.0835133979	 0.4078198214	-0.469488
H	 3.0652511371	-2.7064630231	-2.1300679943	 0.128855
H	 1.6171100475	-1.7112992579	-1.8616991652	 0.133605
H	 3.0489849711	-1.0002395603	-2.6192756075	 0.127279
H	 4.3407254299	-1.2998336069	-0.5008962102	 0.093611
H	 1.985310372	-2.3734447386	 0.5714204724	 0.285143
H	 3.3222687882	-0.4387631932	 2.066277486	 0.151305
H	 4.5296909759	 0.5334903866	 1.2066895417	 0.119593
H	 3.0477643647	 1.3040866066	 1.8155114796	 0.135713
H	 4.2689237287	 1.1451946827	-1.132212231	 0.080856
H	-0.9376220148	-0.1320016041	 0.5579131861	 0.20433
76.175	89.828	134.3247	156.4553	221.8542	224.9543	230.5081	280.961	322.8681	367.0811	384.8755	419.6751	427.6099	488.149	589.6145	638.0444	659.6528	666.7731	730.0723	850.8647	913.3896	937.752	988.9805	1027.1321	1081.2293	1105.9022	1140.937	1168.921	1228.7624	1318.176	1344.5423	1394.979	1409.2079	1421.306	1436.2336	1486.0032	1488.6458	1495.0847	1499.3395	1839.1989	2230.8931	2855.9333	3040.1657	3040.2005	3044.9896	3110.2283	3119.1616	3126.4933	3149.6965	3498.0387	3765.2617
CC(O)C(C)(C=O)C#C	C[C@H](O)[C@@](C)(C=O)C#C	
InChI=1S/C7H10O2/c1-4-7(3,5-8)6(2)9/h1,5-6,9H,2-3H3	InChI=1S/C7H10O2/c1-4-7(3,5-8)6(2)9/h1,5-6,9H,2-3H3/t6-,7+/m0/s1
