19
gdb 580	2.7679569	1.6307802	1.0988122	1.872	76.37	-0.23207	0.00672	0.23879	1096.1342	0.158821	-422.524964	-422.517462	-422.516517	-422.556711	29.628	
C	 0.3988160182	 1.0198717272	 1.168704463	-0.151887
O	 0.1937984689	-0.2577953544	 0.4990544258	-0.307932
C	 0.3632454569	 0.3984536778	-0.780400783	 0.111659
C	 1.0708090658	-0.2648587448	-1.9122840437	-0.129587
C	 1.5028791011	 0.5169857283	-2.9047523623	-0.062744
C	 1.2573283863	 2.0206933682	-2.9771469296	-0.266876
C	 1.7323426529	 2.9223949138	-1.8102950496	-0.081219
O	 1.0016796562	 2.810605	-0.5889977958	-0.250071
C	 1.134460172	 1.5200280785	-0.0822482663	 0.114802
H	-0.5523101899	 1.5389293267	 1.3502620359	 0.108187
H	 0.9581620277	 0.9125036908	 2.1011539693	 0.113232
H	-0.6152403159	 0.7850690436	-1.1184977303	 0.084901
H	 1.220377201	-1.3398658706	-1.9078189387	 0.105765
H	 2.0127515359	 0.0701688389	-3.7537368882	 0.095583
H	 1.7497074378	 2.4124226077	-3.8740736067	 0.106203
H	 0.1824558335	 2.2065735917	-3.1201180424	 0.124279
H	 2.8006710846	 2.7351708969	-1.6168882468	 0.096682
H	 1.6197839154	 3.9663904465	-2.1152846315	 0.110009
H	 2.1950525516	 1.2339929334	-0.0171257491	 0.079014
130.7697	179.808	270.2427	307.3845	332.4354	359.1588	464.7717	488.4917	523.5222	633.9167	699.0155	721.0437	797.3684	875.8698	906.8717	963.1743	973.9549	1003.7462	1012.0432	1053.6051	1069.8676	1074.0399	1106.8778	1131.2253	1166.9347	1186.6066	1201.1732	1240.138	1250.1958	1298.7913	1311.6685	1328.5785	1355.9543	1366.9661	1400.0643	1416.7092	1441.3065	1465.35	1494.6123	1516.1244	1690.6094	2934.2453	2979.1128	2991.9574	3004.9922	3015.8804	3067.0826	3091.0791	3102.5408	3160.0748	3189.0978
C1OC2C=CCCOC12	C1O[C@@H]2C=CCCO[C@@H]12	
InChI=1S/C7H10O2/c1-2-4-8-7-5-9-6(7)3-1/h1,3,6-7H,2,4-5H2	InChI=1S/C7H10O2/c1-2-4-8-7-5-9-6(7)3-1/h1,3,6-7H,2,4-5H2/t6-,7+/m1/s1
