19
gdb 4956	2.4272755	1.7370731	1.2436578	3.0203	75.56	-0.25199	0.06293	0.31492	1047.1111	0.156961	-422.487182	-422.478956	-422.478011	-422.519718	31.846	
O	 1.3619349808	 0.4495688194	-0.1867022374	-0.42787
C	 0.1256849379	-0.2443315127	-0.2763507054	-0.197713
C	-0.9673259461	 0.6626715651	-0.7659425434	 0.328594
C	-1.4615989623	 1.9260544396	-0.0565083418	 0.046676
O	-0.4359791512	 2.8913983718	 0.1078674479	-0.447253
C	-2.2801973024	 1.907832254	-1.3587047118	-0.098645
C	-2.4120292079	 0.3415278403	-1.2968903215	-0.113581
C	-1.9200413522	 0.1798510098	-2.749198286	-0.270911
C	-1.0763926873	 1.3406880231	-2.1880360614	-0.06811
H	 1.1700169532	 1.3298895484	 0.1598469802	 0.295965
H	 0.2809532887	-1.0828267967	-0.965951919	 0.104456
H	-0.1628857475	-0.6755628458	 0.6981015288	 0.081372
H	-2.0227824014	 1.7771153007	 0.8778989457	 0.062606
H	-0.8066792236	 3.6866805991	 0.5021716011	 0.288555
H	-3.0443554613	 2.5996788224	-1.7165622564	 0.06902
H	-3.1811556388	-0.2143891966	-0.7580962553	 0.071501
H	-1.3919750836	-0.7474394616	-2.9926303622	 0.097144
H	-2.6362002835	 0.4290903525	-3.5385751144	 0.092256
H	-0.2966666313	 1.9258056273	-2.6716464577	 0.085938
100.4866	150.66	209.2221	255.7786	262.8055	317.1603	397.0844	419.8277	492.3912	566.8882	659.0543	753.5968	799.3984	852.5177	865.9425	901.7632	917.1265	924.3306	955.2692	1011.1729	1029.5423	1047.7343	1057.4607	1095.1159	1099.255	1122.2574	1145.9543	1155.1647	1166.2597	1193.6228	1226.8372	1234.2819	1256.6572	1276.1967	1316.3663	1331.0055	1369.3494	1435.1694	1458.2191	1504.1659	1514.8577	2951.3422	2995.2801	3039.5462	3049.3029	3095.2303	3095.5989	3104.9974	3137.6808	3777.5997	3824.1757
OCC12C(O)C3C1CC23	OC[C@]12[C@@H](O)[C@@H]3[C@H]1C[C@H]23	
InChI=1S/C7H10O2/c8-2-7-3-1-4(7)5(3)6(7)9/h3-6,8-9H,1-2H2	InChI=1S/C7H10O2/c8-2-7-3-1-4(7)5(3)6(7)9/h3-6,8-9H,1-2H2/t3-,4+,5-,6-,7+/m0/s1
