19
gdb 5153	1.8427813	1.7946113	1.0838569	2.4934	75.4	-0.24794	-0.03822	0.20972	1162.9293	0.154707	-422.520107	-422.510979	-422.510035	-422.55447	33.055	
C	 1.1267610805	 1.2411005006	-0.2537938635	-0.383016
C	 0.9443065703	-0.2824879868	-0.1896307609	-0.299653
C	 1.7163251831	-1.0028901899	-1.2581645919	 0.277694
C	 3.1755898632	-1.4234049033	-1.1480835503	-0.354715
C	 2.128437608	-2.4431767041	-1.4655080353	 0.040038
O	 1.8092375153	-2.4228571797	-2.8647949805	-0.304042
C	 1.2986612214	-1.0759772437	-2.7405584648	-0.001294
C	 1.9168591886	-0.0857583092	-3.7045213242	 0.12776
O	 1.5262041138	 1.0486026389	-3.8182739081	-0.24165
H	 0.5180805267	 1.7399321727	 0.5061049146	 0.111538
H	 2.1729335024	 1.5164183904	-0.0855334586	 0.118653
H	 0.8373133754	 1.6263541114	-1.2360606187	 0.14548
H	 1.2595964591	-0.65669558	 0.7921531128	 0.100709
H	-0.1208904839	-0.5308292127	-0.2860213417	 0.103366
H	 3.9199728647	-1.1591676098	-1.8930310264	 0.119384
H	 3.5423414919	-1.4404835156	-0.1257144516	 0.120618
H	 1.9272197017	-3.3544722754	-0.9147129882	 0.111876
H	 0.2068359846	-1.0574530162	-2.8540454359	 0.110373
H	 2.774134243	-0.4803275873	-4.2926557167	 0.096882
65.4941	87.5614	116.2008	191.9773	231.8864	242.594	335.8001	373.7797	449.9975	478.2701	498.8846	660.1075	754.3382	786.8611	852.0381	875.0951	909.7116	978.1406	997.8904	1005.5355	1018.6229	1039.639	1054.9237	1075.3617	1098.621	1102.1621	1140.7935	1206.9933	1230.076	1263.2574	1314.2103	1318.5625	1355.0026	1397.9654	1408.5825	1418.0695	1479.4369	1488.558	1501.6223	1512.2675	1822.6536	2897.978	3017.0728	3028.3066	3039.0083	3053.05	3109.0751	3118.9404	3119.5472	3184.7857	3207.5013
CCC12CC1OC2C=O	CC[C@@]12C[C@@H]1O[C@@H]2C=O	
InChI=1S/C7H10O2/c1-2-7-3-5(7)9-6(7)4-8/h4-6H,2-3H2,1H3	InChI=1S/C7H10O2/c1-2-7-3-5(7)9-6(7)4-8/h4-6H,2-3H2,1H3/t5-,6+,7+/m0/s1
