19
gdb 4039	2.9839334	1.4361379	1.4087038	0.856	73.77	-0.22209	0.06842	0.29051	1033.8522	0.15752	-422.526824	-422.518994	-422.518049	-422.558648	31.239	
C	-0.1694111498	-0.1709708004	 0.0691028722	-0.413683
C	 1.3343247978	 0.0815590277	-0.0287505702	 0.040932
C	 2.0215018192	-0.5790440194	-1.2650941453	-0.247915
C	 3.3776808279	-1.0437932291	-0.7391771319	-0.126917
C	 3.3495356082	-2.0045071255	 0.4587173354	-0.003271
O	 2.0655312953	-1.9593942509	 1.0832150414	-0.30669
C	 2.1453050519	-0.4930713766	 1.1333147589	 0.003897
C	 3.6230557385	-0.5454955591	 0.6579538597	 0.308394
O	 4.6958728934	 0.2231184028	 1.0437873799	-0.455232
H	-0.6046169995	 0.3374887165	 0.9362813576	 0.108389
H	-0.6893668724	 0.1912579674	-0.8236466484	 0.112569
H	-0.3659020878	-1.2426500898	 0.1688940317	 0.134734
H	 1.5251829938	 1.1637335565	-0.049472331	 0.075898
H	 1.426185443	-1.4210020842	-1.6332721414	 0.10742
H	 2.1328802341	 0.1286070252	-2.0915548994	 0.101021
H	 4.2353023401	-1.1477518868	-1.3952230724	 0.092944
H	 3.9337167452	-2.9132589502	 0.5421091557	 0.105972
H	 1.9120211023	-0.1155622082	 2.1323005223	 0.071883
H	 4.9035702889	 0.0181116442	 1.9626640352	 0.289655
125.7414	217.6045	248.9735	252.0868	333.2927	358.089	377.011	484.2844	523.1546	615.9965	631.8983	710.3066	763.5986	837.1511	853.9546	897.269	916.1403	938.189	950.7303	978.4394	1007.1907	1018.245	1043.246	1082.2597	1112.0515	1136.6365	1155.2215	1199.1847	1220.6596	1247.8079	1272.5118	1291.7786	1310.2527	1324.9797	1346.9716	1364.1477	1405.4082	1487.6604	1493.6414	1499.7924	1505.4532	3009.0672	3032.7497	3048.178	3083.9194	3089.9226	3097.0679	3113.9038	3177.6153	3189.036	3787.1874
CC1CC2C3OC1C23O	C[C@@H]1C[C@@H]2[C@@H]3O[C@H]1[C@]23O	
InChI=1S/C7H10O2/c1-3-2-4-6-7(4,8)5(3)9-6/h3-6,8H,2H2,1H3	InChI=1S/C7H10O2/c1-3-2-4-6-7(4,8)5(3)9-6/h3-6,8H,2H2,1H3/t3-,4-,5-,6+,7-/m1/s1
