19
gdb 2675	3.0071279	1.4401117	1.1070192	2.6543	75.95	-0.23409	0.01846	0.25255	1109.3431	0.157958	-422.562782	-422.554631	-422.553687	-422.59525	31.77	
O	-1.7100946556	-1.2574798288	-0.5935195785	-0.440123
C	-1.9874865617	-0.1996109057	 0.2760110162	 0.154582
C	-0.763720882	 0.6216496513	 0.785574604	 0.061313
O	 0.2792153684	 0.4280441625	-0.1578682756	-0.451031
C	-1.5766639517	 1.9257187561	 0.5367222004	-0.106754
C	-2.3954864059	 2.4385053819	 1.6906800664	-0.090767
C	-3.6991954918	 2.19669485	 1.5393698412	-0.057234
C	-4.0204635895	 1.4782333812	 0.2467486871	-0.281487
C	-2.6268274267	 1.1097814378	-0.2921425492	-0.051832
H	-0.9007441203	-1.0124858639	-1.0610550743	 0.292362
H	-2.5831635301	-0.5981738899	 1.1032178945	 0.085079
H	-0.4117788605	 0.4313065135	 1.8080560343	 0.063968
H	 0.9261869511	 1.1322983231	-0.0564620652	 0.2891
H	-1.0002860242	 2.7120881269	 0.0343622158	 0.06504
H	-1.9539601346	 2.9538953547	 2.5375964365	 0.089787
H	-4.468057795	 2.4885714228	 2.2474076073	 0.093682
H	-4.6448614018	 0.5889188652	 0.4066222447	 0.108775
H	-4.5829527782	 2.1284399346	-0.4370415339	 0.10497
H	-2.5279307099	 1.1685385067	-1.3765527318	 0.07057
88.9392	193.4738	203.9799	266.2097	299.0185	330.7537	372.2364	433.9668	450.1417	578.9418	714.6513	735.6216	772.4766	799.2874	848.6497	867.7201	903.9323	942.2577	975.4748	993.0573	1021.4852	1028.4492	1041.6092	1092.1003	1124.5639	1137.1736	1153.6587	1162.7458	1196.4073	1235.7474	1257.1179	1263.9477	1278.2905	1307.9104	1323.5496	1350.5962	1381.5676	1401.2399	1450.7911	1481.7658	1674.6501	3010.3485	3011.32	3027.5451	3037.0488	3063.3658	3108.2906	3173.1928	3198.5547	3765.7486	3831.3145
OC1C(O)C2C=CCC12	O[C@H]1[C@@H](O)[C@@H]2C=CC[C@H]12	
InChI=1S/C7H10O2/c8-6-4-2-1-3-5(4)7(6)9/h1-2,4-9H,3H2	InChI=1S/C7H10O2/c8-6-4-2-1-3-5(4)7(6)9/h1-2,4-9H,3H2/t4-,5+,6+,7-/m1/s1
