19
gdb 780	2.960988	0.961756	0.8389317	1.2712	77.03	-0.24726	-0.0943	0.15296	1420.6663	0.155322	-422.562497	-422.553118	-422.552174	-422.598403	32.795	
O	 0.2057540502	-1.5947946948	 0.1215939503	-0.216528
C	 0.1806015409	-0.3936237904	 0.0567459373	 0.081079
C	-1.1136228009	 0.4352711726	 0.025252795	 0.300645
O	-1.0025107682	 1.6388063453	-0.0385435638	-0.281401
C	-2.4216525825	-0.3155146394	 0.0402419422	-0.328975
C	-2.7726382227	-0.832210889	-1.3643519164	 0.037813
C	-3.0947020113	 0.1913356659	-2.4899761734	-0.219765
C	-4.2201843281	-0.76275518	-2.9742386538	-0.211028
C	-4.1790873155	-1.4564391833	-1.5855992354	-0.232275
H	 1.093308053	 0.2384748949	 0.0172310922	 0.107542
H	-2.3420753424	-1.1668721941	 0.7248329183	 0.128281
H	-3.1999413722	 0.3666449063	 0.3945220367	 0.117853
H	-1.9993447763	-1.5320367704	-1.6964065261	 0.094793
H	-3.499140871	 1.1205573661	-2.0765830902	 0.110989
H	-2.2979952279	 0.4457284473	-3.1929946749	 0.100296
H	-5.1650951699	-0.312922351	-3.2861631825	 0.10082
H	-3.8734135156	-1.4283513424	-3.7695816538	 0.105867
H	-4.9163691341	-1.0270791768	-0.899390787	 0.101675
H	-4.2608032054	-2.5452351866	-1.5476838947	 0.102319
32.5203	62.8617	113.8042	124.0472	144.1361	252.3587	309.1268	396.7412	478.9211	536.3288	574.0167	647.6695	758.5104	781.6408	816.5455	886.5034	910.8651	933.1483	959.0593	970.3867	1000.7396	1064.631	1088.4947	1105.656	1188.667	1203.1188	1239.192	1257.0372	1263.766	1268.5712	1279.3044	1295.2137	1322.4544	1361.8629	1368.8942	1463.578	1480.3432	1486.3507	1511.0822	1797.2599	1821.1805	2921.4345	3046.0341	3049.8568	3054.5652	3060.1281	3062.1606	3100.744	3106.5186	3108.1008	3122.6874
O=CC(=O)CC1CCC1	O=CC(=O)CC1CCC1	
InChI=1S/C7H10O2/c8-5-7(9)4-6-2-1-3-6/h5-6H,1-4H2	InChI=1S/C7H10O2/c8-5-7(9)4-6-2-1-3-6/h5-6H,1-4H2
