19
gdb 1748	2.6222355	1.6741645	1.5641122	2.731	74.46	-0.2245	0.08146	0.30596	976.605	0.158094	-422.514163	-422.506526	-422.505582	-422.545881	29.862	
C	 1.746016211	 0.5618594	 1.2342663823	-0.511832
C	 2.2327560902	-0.0179449182	-0.0591433484	 0.239364
C	 1.8394022511	-1.3455519023	-0.6673169752	-0.137263
C	 1.1469057926	-1.39383519	-2.0178312675	-0.094241
O	 1.6261894226	-0.4585995527	-2.9689071694	-0.241279
C	 1.9108102405	 0.8326247784	-2.4729699362	-0.094735
C	 2.815809088	 0.7718818448	-1.2487423549	 0.043991
O	 3.8741818941	-0.2112680729	-1.4392613462	-0.294169
C	 3.2978946005	-1.0235815854	-0.4181970235	 0.052083
H	 1.5922958702	-0.2239242008	 1.9811599961	 0.122897
H	 2.464288302	 1.2800326747	 1.6462816038	 0.123313
H	 0.789202437	 1.0833285347	 1.1078797659	 0.122183
H	 1.4331451867	-2.0523366211	 0.0546419484	 0.088184
H	 1.2705539921	-2.3749148836	-2.4888546536	 0.11375
H	 0.0655654116	-1.2419769291	-1.8481643642	 0.085006
H	 2.4008649443	 1.3590356587	-3.2977396587	 0.115556
H	 0.9926792746	 1.3882780812	-2.2086458247	 0.084521
H	 3.2280386395	 1.7532817158	-0.9903338243	 0.079806
H	 3.9685293615	-1.6274435719	 0.1833905103	 0.102866
165.4226	180.5507	203.2293	255.4422	289.8612	359.5668	427.8511	464.0932	621.9011	682.0036	738.207	745.9927	822.7299	875.45	883.4462	904.7509	914.333	1003.3929	1007.2816	1024.5721	1042.3774	1070.3443	1088.2526	1106.2128	1135.4836	1174.8543	1222.5845	1234.8891	1261.8561	1279.9758	1302.1189	1330.0712	1345.5274	1386.1407	1412.0353	1426.7361	1481.9466	1486.6334	1488.4538	1499.0302	1502.8254	2938.202	2947.9669	3018.9318	3051.0167	3062.3512	3076.725	3080.5431	3095.7981	3129.0848	3174.3004
CC12C3COCC1OC23	C[C@@]12[C@H]3COC[C@@H]1O[C@@H]23	
InChI=1S/C7H10O2/c1-7-4-2-8-3-5(7)9-6(4)7/h4-6H,2-3H2,1H3	InChI=1S/C7H10O2/c1-7-4-2-8-3-5(7)9-6(4)7/h4-6H,2-3H2,1H3/t4-,5-,6+,7+/m0/s1
