19
gdb 4685	4.1739102	1.0037734	0.8974746	1.5053	76.46	-0.26018	0.01365	0.27383	1343.9561	0.156669	-422.555506	-422.546582	-422.545638	-422.591067	31.872	
C	 1.5297146132	-0.1122498771	 0.2069018489	-0.239343
O	 0.1726649149	-0.3792682081	 0.5803397805	-0.235713
C	-0.4927477771	 0.662232227	 1.123959418	 0.432477
O	-0.0017622633	 1.7526651786	 1.280657835	-0.360685
C	-1.8877315562	 0.2394253607	 1.525151738	-0.123793
C	-2.8038325439	 1.4264283556	 1.9593036778	-0.256159
C	-2.8601912463	 0.8580044282	 3.3819103814	-0.026366
C	-3.3803727031	-0.5513988827	 3.3588106829	-0.286543
C	-1.9500363607	-0.2989530334	 2.9727157291	-0.034583
H	 2.1168332965	 0.196236318	 1.0757553015	 0.139139
H	 1.9149008019	-1.0463875498	-0.202327202	 0.131872
H	 1.5742587296	 0.6811877723	-0.543550226	 0.140231
H	-2.2771060919	-0.4524797143	 0.7729154792	 0.091059
H	-2.2534248827	 2.365774792	 1.8946180829	 0.135519
H	-3.7597694285	 1.520192068	 1.4346001645	 0.093232
H	-2.8435923699	 1.4463077895	 4.2907240066	 0.088588
H	-3.517207871	-1.0162370967	 4.3302003921	 0.113113
H	-4.1071425085	-0.8611553843	 2.6104125774	 0.105278
H	-1.119348213	-0.7506288935	 3.5010009023	 0.092677
12.8472	103.7845	127.846	141.9955	212.765	288.989	348.9982	385.3177	432.3599	657.4238	709.9858	751.228	781.2282	828.4999	871.8441	917.7219	926.6724	965.196	981.2173	999.9907	1059.73	1062.8108	1075.0225	1085.699	1092.2402	1161.721	1179.0187	1197.4933	1213.7231	1218.1041	1224.968	1256.9663	1295.1302	1345.4201	1378.3163	1472.4594	1476.2606	1481.9098	1494.0982	1497.8194	1815.273	3050.4884	3051.4983	3067.5795	3102.6745	3124.5548	3133.5712	3156.9802	3181.9592	3187.9416	3201.4345
COC(=O)C1CC2CC12	COC(=O)[C@@H]1C[C@H]2C[C@@H]12	
InChI=1S/C7H10O2/c1-9-7(8)6-3-4-2-5(4)6/h4-6H,2-3H2,1H3	InChI=1S/C7H10O2/c1-9-7(8)6-3-4-2-5(4)6/h4-6H,2-3H2,1H3/t4-,5-,6-/m1/s1
