19
gdb 3714	3.4553652	1.3153911	1.2367978	1.8453	74.9	-0.24028	0.07664	0.31692	1075.31	0.157881	-422.518519	-422.510858	-422.509914	-422.550413	30.605	
O	 0.3737602381	-0.1211277905	 0.5504109031	-0.420278
C	-0.8159076552	 0.5459127117	 0.2388560652	 0.017727
C	-2.1489851899	-0.069117552	 0.6097054976	-0.406589
C	-1.668783595	-0.0751872709	-0.817214409	 0.399335
C	-1.279768815	-1.3467566396	-1.59836663	-0.305019
C	-1.8358493258	-0.8831883539	-2.9640226128	 0.074346
C	-1.3172063021	 0.5655544297	-3.1101298925	-0.23177
C	-2.3305408587	 0.7063620885	-1.951531475	-0.014531
O	-3.1422605217	-0.3299530574	-2.5933474936	-0.297065
H	 0.5239554026	-0.0370490035	 1.4977906737	 0.288797
H	-0.7440856897	 1.6350525679	 0.2593575854	 0.080814
H	-2.1208615648	-1.0147921837	 1.1424074509	 0.113887
H	-2.9654990128	 0.5894419738	 0.8910559529	 0.110141
H	-0.2036446213	-1.5360163673	-1.6026556474	 0.118435
H	-1.7988455383	-2.2388088053	-1.2400639216	 0.107857
H	-1.8720958598	-1.5960201828	-3.7875172169	 0.079266
H	-0.261535945	 0.7797005183	-2.9249907616	 0.102223
H	-1.6756089621	 1.0365988869	-4.0257821318	 0.108227
H	-2.8707182837	 1.6247660901	-1.7193334368	 0.074199
113.7336	165.3494	232.54	284.2668	354.8545	412.208	459.7168	475.4079	561.1554	601.2092	763.2196	817.2034	826.7077	835.7505	871.508	884.5775	917.5479	935.912	954.4037	998.4997	1005.313	1028.8049	1046.0653	1068.0302	1092.8453	1101.5858	1155.5175	1174.8057	1196.4082	1217.2342	1225.2852	1250.8587	1268.1318	1294.5381	1308.8449	1312.1251	1365.5877	1430.6486	1479.8212	1493.3896	1497.4739	3066.573	3068.836	3078.372	3116.416	3117.8489	3118.7401	3125.1932	3146.0153	3206.1182	3805.3196
OC1CC11CC2CC1O2	O[C@@H]1C[C@@]21C[C@@H]1C[C@H]2O1	
InChI=1S/C7H10O2/c8-5-3-7(5)2-4-1-6(7)9-4/h4-6,8H,1-3H2	InChI=1S/C7H10O2/c8-5-3-7(5)2-4-1-6(7)9-4/h4-6,8H,1-3H2/t4-,5+,6+,7+/m0/s1
