19
gdb 3291	2.8688868	1.7276779	1.3212154	1.2257	73.87	-0.23845	0.07166	0.31011	991.8309	0.158833	-422.535936	-422.528594	-422.52765	-422.567704	29.183	
O	 0.508960486	 0.4520356036	 0.4544514346	-0.441686
C	-0.6555610534	-0.1707761858	 0.9566031061	 0.126132
C	-1.8466777197	 0.1564293505	 0.025078264	-0.042387
C	-3.0303089404	-0.8345334459	 0.1267944737	-0.25527
C	-3.5168555237	-0.1175825506	 1.4209596588	 0.109941
O	-3.1678435478	-0.8015999248	 2.6194513156	-0.274052
C	-2.007057192	-0.2204409826	 3.213399481	-0.093363
C	-1.3343064744	 0.613572188	 2.1316205574	-0.085553
C	-2.4844767681	 1.0180753565	 1.1730829622	-0.071808
H	 1.1977730482	 0.3817903584	 1.1240348534	 0.279796
H	-0.4852314534	-1.2417745568	 1.1482266417	 0.062377
H	-1.5616674654	 0.5414787594	-0.95294281	 0.078576
H	-3.7371299759	-0.696097776	-0.6961441443	 0.101144
H	-2.803311083	-1.8994245418	 0.2290696788	 0.100491
H	-4.5782923468	 0.1423822373	 1.4565643054	 0.076823
H	-2.2945141894	 0.4076142401	 4.0708925386	 0.09088
H	-1.3711939686	-1.0323797406	 3.5881657233	 0.099587
H	-0.7047066202	 1.4161560053	 2.5207948527	 0.072563
H	-2.814558392	 2.0514173258	 1.0903121268	 0.065809
79.9159	201.6274	281.9724	313.0044	333.504	382.9727	421.8868	640.6053	650.3149	731.4477	783.0018	836.5778	857.4625	879.601	886.732	933.5459	936.9829	966.859	983.8735	1026.255	1049.4804	1064.6024	1079.5585	1123.4965	1134.4731	1147.8796	1182.7234	1202.2325	1214.8726	1229.1014	1243.2138	1251.5931	1270.2266	1286.9611	1293.9576	1329.7608	1341.66	1392.4922	1422.1786	1468.2049	1520.4595	2972.7135	2980.6984	3041.6931	3051.0505	3066.1198	3092.7798	3108.5205	3121.9905	3134.8571	3804.9578
OC1C2CC3OCC1C23	O[C@@H]1[C@H]2C[C@H]3OC[C@@H]1[C@@H]23	
InChI=1S/C7H10O2/c8-7-3-1-5-6(3)4(7)2-9-5/h3-8H,1-2H2	InChI=1S/C7H10O2/c8-7-3-1-5-6(3)4(7)2-9-5/h3-8H,1-2H2/t3-,4+,5+,6+,7+/m0/s1
