19
gdb 3642	3.2848672	0.871358	0.7528014	2.5453	78.35	-0.24321	-0.03304	0.21017000000000002	1518.5928	0.154089	-422.576471	-422.566698	-422.565753	-422.612573	33.921	
C	-4.5814781906	 1.9258031598	-1.4891953802	-0.406705
C	-3.2886068903	 2.4486718453	-0.878768907	-0.0836
C	-2.448994315	 1.5593726023	 0.096356575	-0.266376
C	-1.1353026113	 1.9599805709	-0.6486803137	-0.121887
C	-0.1021704754	 0.9010144913	-1.0363606061	-0.290906
C	 0.7605270255	 0.5048159248	 0.1399998979	 0.159634
O	 0.8751512909	-0.6130743786	 0.5699011279	-0.235226
C	-2.038253292	 2.5054206839	-1.7724074564	 0.382716
O	-1.8546449015	 2.7194167241	-2.9356661391	-0.30304
H	-5.3703362021	 1.8477798976	-0.7347371002	 0.123233
H	-4.9308052427	 2.5949721867	-2.2809286234	 0.137465
H	-4.4346231621	 0.9348663111	-1.9305647145	 0.123743
H	-3.4475244105	 3.4415012764	-0.4378793341	 0.106455
H	-2.5051831311	 1.8085971252	 1.1564991828	 0.113358
H	-2.6743017008	 0.4968957807	-0.0313024963	 0.12082
H	-0.6444490185	 2.8024587245	-0.1427197159	 0.106507
H	-0.579361722	 0.0066970653	-1.4468614497	 0.124366
H	 0.5491600698	 1.3287118974	-1.8117804636	 0.138591
H	 1.3002885699	 1.3601791513	 0.6131778866	 0.070852
40.3738	69.9347	78.6386	139.8849	189.557	205.0233	275.6258	335.7508	346.0591	467.1169	544.0246	581.6542	672.5546	773.9077	787.6394	844.3636	909.5039	922.8143	941.7884	998.9724	1013.3154	1076.1351	1107.8658	1117.697	1141.3233	1159.9266	1203.3662	1228.7397	1246.9415	1260.7014	1283.7549	1330.4387	1363.6503	1408.1291	1427.046	1458.88	1490.0287	1494.8892	1496.2046	1836.597	1883.6544	2845.2763	3021.8208	3023.1086	3029.5504	3038.4023	3069.4036	3102.2104	3107.9821	3114.671	3132.4452
CC1CC(CC=O)C1=O	C[C@H]1C[C@@H](CC=O)C1=O	
InChI=1S/C7H10O2/c1-5-4-6(2-3-8)7(5)9/h3,5-6H,2,4H2,1H3	InChI=1S/C7H10O2/c1-5-4-6(2-3-8)7(5)9/h3,5-6H,2,4H2,1H3/t5-,6+/m0/s1
