19
gdb 3687	2.6381826	1.2313393	1.0295866	2.3043	78.3	-0.23048	-0.01744	0.21303999999999998	1235.3647	0.154987	-422.55025	-422.540869	-422.539924	-422.584801	34.248	
C	-1.0380168589	 2.003395575	 1.3622066905	-0.398637
C	-1.0043529557	 1.1402727055	 0.104831644	-0.092799
C	-2.1447177255	 0.0814948543	-0.106008239	-0.347664
C	-1.0868154284	-1.0293721416	-0.1080784299	 0.19424
C	-1.0272908015	-2.3388885836	-0.8714783765	-0.359894
C	-1.1677042269	-2.3839160247	 0.6021605461	 0.058982
O	-2.4003794759	-2.7964605024	 1.0954233365	-0.407476
C	 0.0056338303	-0.0316637662	 0.1045923113	 0.330536
O	 1.1954481604	-0.110758821	 0.2559601337	-0.328925
H	-1.2024646766	 1.3928683341	 2.2570584179	 0.112006
H	-0.0888084501	 2.5324039792	 1.4895783752	 0.136312
H	-1.8404214393	 2.7462293783	 1.3105918449	 0.120273
H	-0.8551096458	 1.7693588313	-0.7804095626	 0.101609
H	-2.8541975119	 0.0197234972	 0.7244487356	 0.09779
H	-2.7066672943	 0.1944358436	-1.0355617116	 0.110045
H	-1.9081599139	-2.5932438843	-1.4516304868	 0.134076
H	-0.0741693347	-2.6119325718	-1.3116614637	 0.136228
H	-0.2954311462	-2.6597688285	 1.1939302269	 0.110192
H	-2.521571305	-2.4096700344	 1.9693009074	 0.293104
43.2624	116.3338	164.666	199.4569	210.1998	223.1081	311.1614	327.9262	389.4922	458.719	544.1695	561.8881	698.1835	724.5406	787.9019	819.6458	867.5091	901.4638	906.8182	959.3255	1007.3929	1057.5797	1070.5933	1090.9183	1111.2355	1121.2207	1166.9523	1186.1704	1197.7604	1238.0922	1248.3225	1282.5335	1317.8264	1338.3392	1405.8945	1427.088	1483.328	1488.9178	1495.7011	1496.2632	1864.4661	3031.7204	3044.1101	3057.4011	3098.0774	3109.3496	3111.6432	3111.8168	3131.6338	3226.5084	3804.7287
CC1CC2(CC2O)C1=O	C[C@@H]1C[C@@]2(C[C@@H]2O)C1=O	
InChI=1S/C7H10O2/c1-4-2-7(6(4)9)3-5(7)8/h4-5,8H,2-3H2,1H3	InChI=1S/C7H10O2/c1-4-2-7(6(4)9)3-5(7)8/h4-5,8H,2-3H2,1H3/t4-,5+,7+/m1/s1
