19
gdb 508	3.2388957	1.7088254	1.4350569	2.3378	73.93	-0.2343	0.07406	0.30836	951.0615	0.159828	-422.50224	-422.495463	-422.494519	-422.532921	28.132	
C	-0.2021792763	 1.3548568663	 0.0085225187	-0.183335
O	-0.1177865815	-0.073006938	-0.2883224191	-0.31027
C	 1.2925171551	-0.0877231742	 0.0467094985	 0.119707
C	 2.4014326588	-0.0936325066	-1.0277139686	 0.064298
C	 1.8258454347	 1.2279188684	-1.5658094722	-0.302303
C	 1.3168215927	 1.456390977	-0.0912141139	 0.301245
C	 2.3705019517	 2.1352568535	 0.7476486275	-0.350057
C	 3.7136594259	 1.4858885329	 0.2849842825	-0.059579
O	 3.5797803651	 0.157685227	-0.2401099039	-0.282912
H	-0.805291716	 1.8963878332	-0.7285658215	 0.105303
H	-0.609414421	 1.5212731326	 1.0157962005	 0.100565
H	 1.5021170113	-0.6318867247	 0.9722803129	 0.076477
H	 2.6230807987	-0.9419698798	-1.6793464945	 0.074922
H	 2.5184249396	 1.9517907455	-1.997958213	 0.101396
H	 0.9981650559	 1.0523638535	-2.2528733748	 0.119686
H	 2.4255834891	 3.220195621	 0.5969620948	 0.101475
H	 2.1852284824	 1.9543492546	 1.8124813874	 0.106496
H	 4.1821160924	 2.1288609714	-0.4717441874	 0.10271
H	 4.4168351116	 1.3987522362	 1.1168907061	 0.114173
216.7972	257.4193	313.9048	328.423	393.911	453.9442	462.1974	559.5647	669.3707	758.2954	808.1832	816.3549	874.3384	896.3308	914.0476	933.0314	947.2622	963.8455	998.2598	1023.6817	1033.545	1052.6479	1126.8278	1134.6216	1148.636	1170.0963	1202.0133	1232.3955	1244.9908	1268.7417	1277.1169	1284.1059	1298.2898	1325.4481	1352.2137	1380.1102	1404.3801	1480.348	1493.2659	1515.6403	1522.1011	3001.4975	3008.9632	3027.4645	3066.5825	3068.3972	3070.0706	3080.9574	3091.7502	3096.6547	3146.9948
C1OC2C3CC12CCO3	C1O[C@H]2[C@H]3C[C@@]12CCO3	
InChI=1S/C7H10O2/c1-2-8-5-3-7(1)4-9-6(5)7/h5-6H,1-4H2	InChI=1S/C7H10O2/c1-2-8-5-3-7(1)4-9-6(5)7/h5-6H,1-4H2/t5-,6+,7+/m1/s1
