19
gdb 3117	2.1506779	1.8453127	1.2898319	1.3105	75.66	-0.23031	0.07558	0.30589	1054.0539	0.155527	-422.506848	-422.498212	-422.497268	-422.539621	33.282	
C	 1.1423273824	-0.7877659748	-0.8309555525	-0.396198
C	 1.0481101836	 0.1405596423	 0.3739198706	-0.086611
C	 1.7351959858	 1.5141521965	 0.2125627858	-0.153483
C	 1.6751269088	 2.276589266	 1.5207246783	-0.343166
C	 2.688785996	 1.1943093329	 1.3892892782	 0.366936
O	 4.0245561276	 1.4183275946	 1.6176944049	-0.454447
C	 2.0642088801	-0.1732988255	 1.4994769152	 0.337988
C	 2.1272623788	-1.1599417545	 2.5758321761	-0.271571
O	 2.9421833417	-1.2927287839	 1.3913903786	-0.285761
H	 0.799713714	-1.7961073711	-0.580328185	 0.120121
H	 0.5220054474	-0.411983396	-1.6510226296	 0.113802
H	 2.1730749595	-0.8677467482	-1.1879268959	 0.124031
H	 0.0097935284	 0.2076260573	 0.7222679876	 0.072531
H	 1.9253773903	 2.007408327	-0.7326002164	 0.093262
H	 2.1059308568	 3.2726992606	 1.4809090159	 0.124289
H	 0.8185856329	 2.1848055469	 2.1868904259	 0.104792
H	 4.4849861648	 0.6175614007	 1.3322497707	 0.294376
H	 2.6731859401	-0.9314483083	 3.4899295809	 0.120946
H	 1.3440732612	-1.9100400924	 2.6751913107	 0.118163
99.2947	184.071	202.1453	217.2021	255.4575	274.5859	385.8843	413.7085	461.7292	499.4728	518.5294	597.9393	682.9014	776.8695	828.1395	835.9438	876.2641	923.612	938.5154	966.5095	998.1763	1015.2833	1041.6299	1098.5077	1104.0853	1108.4668	1124.7522	1162.4112	1166.7367	1215.2491	1251.4684	1252.522	1345.1535	1362.4425	1410.9425	1427.7822	1451.2956	1491.8637	1492.8179	1505.5199	1531.6386	3022.2861	3039.197	3084.3406	3093.8083	3107.1704	3116.1068	3172.3535	3188.746	3197.1811	3761.0787
CC1C2CC2(O)C11CO1	C[C@@H]1[C@H]2C[C@@]2(O)[C@]21CO2	
InChI=1S/C7H10O2/c1-4-5-2-6(5,8)7(4)3-9-7/h4-5,8H,2-3H2,1H3	InChI=1S/C7H10O2/c1-4-5-2-6(5,8)7(4)3-9-7/h4-5,8H,2-3H2,1H3/t4-,5-,6+,7-/m1/s1
