19
gdb 2271	2.4401308	2.1270733	1.5384848	1.0386	73.03	-0.24353	0.08787	0.33140000000000003	927.662	0.158717	-422.553381	-422.546262	-422.545318	-422.584313	29.396	
C	 0.1886733828	 0.8145605099	 0.224931418	-0.489815
C	 1.5377740682	 0.1565106439	 0.0716897595	 0.385391
C	 2.7563973491	 1.0032404617	-0.3354853954	-0.265547
C	 3.6882126028	-0.2211880188	-0.4405655785	-0.113228
C	 2.8344108711	-1.0972401048	-1.3892448334	-0.074933
O	 1.4756026214	-0.8231163548	-0.9997897938	-0.31052
C	 3.4970291625	-0.8782511187	 0.9322395473	 0.048586
O	 3.1387117115	-0.0018432051	 2.0079615583	-0.265501
C	 2.0889998429	-0.6426845096	 1.2675185199	 0.013109
H	 0.2129869458	 1.5423561379	 1.0414733274	 0.126845
H	-0.0976158861	 1.328111325	-0.6971118592	 0.124168
H	-0.579255051	 0.0684058935	 0.4514965861	 0.125878
H	 2.5930269502	 1.4989428162	-1.2948403082	 0.099587
H	 3.0657923627	 1.7215133709	 0.4208071231	 0.123133
H	 4.7136872662	-0.0535568646	-0.7699721047	 0.073251
H	 2.9768327159	-0.8190868614	-2.4409196341	 0.100645
H	 3.0402703809	-2.1696435682	-1.2826609281	 0.099229
H	 4.0409949709	-1.7760050926	 1.2105719353	 0.100017
H	 1.4621472421	-1.3413489006	 1.8131514604	 0.099707
211.4602	232.1084	278.9971	299.2245	372.8746	418.3032	477.3154	554.4363	586.08	639.4697	786.7762	818.007	849.3235	852.4947	885.5488	902.2822	921.0167	933.7408	954.2556	972.1879	1007.379	1029.9853	1054.3051	1102.4434	1114.3824	1149.3476	1181.1704	1207.9089	1236.3279	1249.9742	1255.7612	1293.0875	1309.5029	1343.3892	1367.6284	1411.9202	1422.2796	1480.9855	1483.5885	1496.1133	1524.4938	3014.607	3041.7341	3051.7526	3086.2129	3112.5018	3116.7355	3120.0232	3156.5202	3163.1895	3169.7935
CC12CC(CO1)C1OC21	C[C@]12C[C@H](CO1)[C@H]1O[C@@H]21	
InChI=1S/C7H10O2/c1-7-2-4(3-8-7)5-6(7)9-5/h4-6H,2-3H2,1H3	InChI=1S/C7H10O2/c1-7-2-4(3-8-7)5-6(7)9-5/h4-6H,2-3H2,1H3/t4-,5-,6-,7-/m1/s1
