19
gdb 1362	3.0547809	0.90943	0.7342743	3.0366	79.08	-0.2383	-0.00663	0.23167000000000001	1521.1072	0.15255	-422.53465	-422.523943	-422.522999	-422.571	37.661	
C	 0.2305390714	-2.7764167478	-4.1085863443	-0.417903
C	-0.0309105523	-3.4712483145	-2.7565230301	-0.059647
C	 0.5199482535	-2.6253091417	-1.5980107729	-0.19404
C	 0.3950675092	-3.3126453303	-0.2321360864	-0.093742
O	-1.0008942991	-3.4385927933	 0.0295513736	-0.403844
C	 1.0775284428	-2.562945646	 0.827590621	 0.313744
C	 1.6289115138	-1.959057645	 1.708544909	-0.443583
C	-1.5295992447	-3.7157489333	-2.6526210705	 0.184462
O	-2.0625982596	-4.7681134596	-2.8911970893	-0.268018
H	-0.1122511485	-3.3989204481	-4.939469551	 0.135246
H	-0.2923804115	-1.8148538695	-4.1658177987	 0.123481
H	 1.2995934071	-2.5831771356	-4.2404544711	 0.123026
H	 0.4499887688	-4.4564185286	-2.764484955	 0.091514
H	 1.5757581598	-2.4025434321	-1.7814830937	 0.115381
H	-0.0045316817	-1.6636862205	-1.542324699	 0.120236
H	 0.8582492143	-4.3102626014	-0.3025371107	 0.102944
H	-1.1184898149	-3.9566215959	 0.8324233699	 0.294913
H	 2.1161711261	-1.4234966838	 2.4857920838	 0.201987
H	-2.1239801546	-2.8070258331	-2.4054209748	 0.073844
39.3387	84.3208	118.2515	125.687	198.6017	227.4638	261.3518	282.5185	303.535	320.914	359.0852	433.2448	512.1387	573.5345	591.2762	634.801	672.7622	835.3568	886.0995	927.4773	933.2096	974.0022	1017.4273	1051.5412	1106.625	1112.8749	1159.4343	1203.5147	1284.3019	1295.0959	1329.3915	1355.2347	1373.8545	1399.3112	1409.3365	1426.0891	1470.6375	1497.1646	1501.1372	1832.2687	2233.6829	2873.9465	2970.4525	3032.374	3040.0351	3048.0346	3090.1937	3101.4838	3118.1822	3501.7674	3823.4005
CC(CC(O)C#C)C=O	C[C@@H](C[C@H](O)C#C)C=O	
InChI=1S/C7H10O2/c1-3-7(9)4-6(2)5-8/h1,5-7,9H,4H2,2H3	InChI=1S/C7H10O2/c1-3-7(9)4-6(2)5-8/h1,5-7,9H,4H2,2H3/t6-,7+/m0/s1
