19
gdb 1891	2.8654567	1.3289377	1.1990463	1.9813	76.58	-0.23126	0.06403	0.29529	1133.2258	0.155668	-422.490032	-422.481423	-422.480479	-422.523418	32.109	
C	-1.7765039124	-2.0352158251	 1.6662712818	-0.490635
C	-1.6392824407	-1.9733938718	 0.1740199893	 0.198694
C	-2.4207538125	-1.0300594063	-0.7226661767	-0.397196
C	-0.9187525355	-1.0042040667	-0.7530490571	 0.455152
O	-0.4349888167	-2.0536623486	-1.5967564764	-0.326816
C	-1.0106135839	-3.0496212837	-0.7071680001	-0.127641
C	-0.0534528008	 0.1729602357	-0.5342866814	-0.060776
C	 1.1085777787	 0.4298689928	-1.3975898499	-0.173797
O	 1.2799898049	-0.077144912	-0.0742777583	-0.23697
H	-2.5986303196	-2.6981981383	 1.9621606121	 0.123213
H	-0.8589865381	-2.4064799012	 2.1351216366	 0.130015
H	-1.9883549585	-1.0464353283	 2.0850421878	 0.122467
H	-2.9565589328	-1.392301392	-1.5964824127	 0.1136
H	-2.898779458	-0.2081804904	-0.1967729748	 0.114455
H	-1.6802255033	-3.7383115219	-1.2360931792	 0.102293
H	-0.2181617587	-3.6131224023	-0.2010910213	 0.112557
H	-0.5440532707	 1.0189605919	-0.0527703005	 0.09461
H	 1.330869839	-0.2757862239	-2.1944587827	 0.134733
H	 1.4409006296	 1.4546838621	-1.5583257566	 0.112043
70.0461	131.0902	161.687	188.5523	259.4836	304.2229	357.8329	407.6438	459.9853	560.4446	604.5011	702.4117	784.62	844.8756	861.9777	902.0419	924.6875	956.8023	980.5669	994.7924	999.5238	1034.0269	1055.509	1096.03	1113.8828	1153.2679	1162.1125	1165.4211	1169.3574	1249.364	1278.0422	1289.1028	1340.8166	1384.8144	1420.9415	1447.3528	1485.7437	1493.5528	1500.0903	1517.2276	1528.8283	3020.0439	3025.2784	3072.1662	3084.2724	3089.3337	3102.4696	3106.7799	3112.6881	3187.1918	3199.0553
CC12CC1(OC2)C1CO1	C[C@@]12C[C@@]1(OC2)[C@@H]1CO1	
InChI=1S/C7H10O2/c1-6-3-7(6,9-4-6)5-2-8-5/h5H,2-4H2,1H3	InChI=1S/C7H10O2/c1-6-3-7(6,9-4-6)5-2-8-5/h5H,2-4H2,1H3/t5-,6-,7+/m0/s1
