19
gdb 598	3.2655409	1.5256247	1.0961286	1.2059	76.05	-0.24786	0.01716	0.26502	1091.2333	0.159779	-422.571774	-422.56431	-422.563366	-422.603998	28.788	
C	-0.3337974974	 1.2981930351	-0.1538586698	 0.010352
O	 0.6969749787	 2.1897291988	-0.5637319382	-0.288648
C	 1.8755522096	 1.7311666118	 0.0830931366	 0.141819
C	 3.1874683132	 2.0552211782	-0.6033908967	-0.306692
C	 4.2502060078	 1.1631266663	 0.0124269152	-0.051879
C	 3.9962015874	 0.0869221914	 0.7641736598	-0.051863
C	 2.6064197042	-0.4348546094	 1.0815103664	-0.306693
C	 1.6448876035	 0.2326290542	 0.1185341529	 0.141816
O	 0.2666031433	 0.160282298	 0.4544170883	-0.288646
H	-0.9969267206	 1.7644725813	 0.5886151017	 0.102546
H	-0.9105403962	 1.0191857352	-1.0471381009	 0.102544
H	 1.907445713	 2.1076335062	 1.1196365701	 0.072754
H	 3.1037370221	 1.8765988826	-1.6838859846	 0.120228
H	 3.4576511611	 3.1100431099	-0.4830099578	 0.11324
H	 5.2835750045	 1.4456516339	-0.1709376544	 0.091448
H	 4.8293994982	-0.4774427546	 1.1747485514	 0.091447
H	 2.5782318942	-1.5262063933	 0.9903803125	 0.113241
H	 2.3273604815	-0.2016374759	 2.1179071465	 0.12023
H	 1.807822472	-0.1732675497	-0.894316109	 0.072754
68.1668	167.4029	188.5618	350.6479	356.492	407.8144	459.2358	553.4733	566.474	687.3092	731.7922	805.2566	822.2916	899.9425	943.036	975.2398	997.0343	1000.6265	1015.4305	1064.4448	1070.6248	1127.8524	1135.1869	1146.3657	1147.0144	1171.8464	1203.7161	1216.4616	1236.2209	1302.633	1325.3063	1328.6059	1387.9206	1388.4544	1413.6561	1413.6865	1434.281	1486.0457	1487.1856	1548.7512	1701.1692	2951.4304	2967.7742	2990.4526	3023.0107	3024.7905	3026.643	3065.6907	3066.8497	3150.6148	3173.2059
C1OC2CC=CCC2O1	C1O[C@@H]2CC=CC[C@H]2O1	
InChI=1S/C7H10O2/c1-2-4-7-6(3-1)8-5-9-7/h1-2,6-7H,3-5H2	InChI=1S/C7H10O2/c1-2-4-7-6(3-1)8-5-9-7/h1-2,6-7H,3-5H2/t6-,7-/m1/s1
