19
gdb 2116	2.7032607	1.7032748	1.2997861	1.1966	74.58	-0.22745	0.06656	0.29401	1027.4939	0.156794	-422.533289	-422.525236	-422.524292	-422.565168	31.953	
C	-0.039550052	-0.230026131	-0.1465227333	-0.504435
C	 1.3018204848	 0.4343524873	-0.0315102791	 0.303014
C	 1.906273327	 0.9991665813	 1.2595137768	-0.346158
C	 3.3276675766	 0.8065239435	 0.63517006	 0.371804
O	 4.3179476695	 0.175867688	 1.3929711365	-0.493083
C	 3.7456842281	 2.0872901124	-0.1031076637	-0.128826
O	 2.6830721704	 2.3155751872	-1.0301871662	-0.267576
C	 2.0215225842	 1.0744299899	-1.2047014762	 0.066549
C	 2.6902272688	-0.0472067535	-0.491179153	-0.219734
H	-0.1476061022	-1.0374967022	 0.5868879336	 0.11939
H	-0.8507212551	 0.4876246414	 0.0249270533	 0.123528
H	-0.1852617137	-0.6637129692	-1.1416793651	 0.118564
H	 1.6143922628	 2.0107854736	 1.5652934073	 0.089575
H	 1.771345164	 0.3014765634	 2.0911404495	 0.102656
H	 4.5390999018	 0.7461406946	 2.1374973089	 0.280852
H	 3.8265970211	 2.9607630305	 0.5547667803	 0.095961
H	 4.7034082813	 1.9368165114	-0.6239805475	 0.095479
H	 1.5980006814	 0.9523661439	-2.1948923869	 0.099426
H	 3.0538170612	-0.9827064722	-0.895655455	 0.093012
184.146	199.7539	230.7276	250.3163	276.6202	319.1086	384.9679	431.2112	475.9405	555.3107	600.2631	709.4613	715.9634	784.805	841.7082	883.5578	905.876	932.8986	978.5136	990.3811	1006.2151	1029.9174	1074.5794	1082.401	1100.2026	1140.5547	1154.3356	1189.1686	1201.2958	1240.4095	1260.427	1284.2766	1304.7456	1346.3358	1391.6642	1413.3347	1430.7237	1483.798	1489.4629	1500.0429	1513.6625	2990.0905	3020.0265	3029.2909	3058.2749	3080.9042	3092.6523	3096.548	3183.9807	3201.8103	3801.5762
CC12CC3(O)COC1C23	C[C@]12C[C@]3(O)CO[C@H]1[C@H]23	
InChI=1S/C7H10O2/c1-6-2-7(8)3-9-5(6)4(6)7/h4-5,8H,2-3H2,1H3	InChI=1S/C7H10O2/c1-6-2-7(8)3-9-5(6)4(6)7/h4-5,8H,2-3H2,1H3/t4-,5+,6-,7+/m1/s1
