19
gdb 2946	2.1378115	1.7313376	1.6209569	1.8204	75.4	-0.23023	0.00894	0.23917	987.8313	0.156057	-422.531071	-422.522427	-422.521482	-422.563477	33.97	
C	 1.665833354	-0.5966344639	-1.0256952507	-0.452116
C	 1.2846633419	 0.2365135016	 0.1928083585	 0.02538
C	 2.0057428098	 1.6180484371	 0.4649508759	-0.136256
C	 1.2452657981	 2.0732069795	 1.7093251654	-0.086086
C	 1.1772608586	 0.9649536476	 2.4592598148	-0.175505
C	 1.9157797016	-0.0644673141	 1.6020335387	 0.30346
O	 2.0788409734	-1.3915501692	 1.9992405561	-0.498271
C	 3.1571692637	 0.816198199	 1.1934339699	 0.121401
O	 4.1231509847	 0.1807332859	 0.3976343273	-0.453907
H	 1.3664850826	-1.6397126625	-0.8728746542	 0.121986
H	 1.1229130587	-0.2276572611	-1.9030849533	 0.110218
H	 2.7306316182	-0.5681040258	-1.2480943695	 0.137878
H	 0.1950179769	 0.3118005817	 0.2470015041	 0.070815
H	 2.2166087104	 2.3318915335	-0.3287493934	 0.07035
H	 0.8801456003	 3.069705738	 1.9145182769	 0.104581
H	 0.7408757152	 0.7965975828	 3.4347214785	 0.100034
H	 2.3364246451	-1.4096114255	 2.9276978129	 0.284563
H	 3.6390662519	 1.3676272611	 2.0114349352	 0.06292
H	 4.116125225	-0.7530233956	 0.6426239769	 0.288554
144.0037	173.4181	205.3106	248.147	290.5814	293.7894	356.0808	403.9675	435.9109	462.9587	558.2061	612.4526	660.3197	668.8637	685.9473	813.3271	866.5423	900.82	909.6003	934.8385	964.158	1011.6955	1049.3485	1075.6783	1094.3453	1111.5611	1134.9052	1141.3663	1220.4172	1224.7561	1235.7637	1270.4327	1313.8816	1341.0471	1360.896	1367.6628	1404.0212	1413.4222	1492.5223	1516.7164	1613.0794	3015.1745	3035.1669	3063.713	3088.6003	3141.1882	3168.156	3210.0167	3237.634	3773.1312	3800.6628
CC1C2C=CC1(O)C2O	C[C@@H]1[C@H]2C=C[C@]1(O)[C@H]2O	
InChI=1S/C7H10O2/c1-4-5-2-3-7(4,9)6(5)8/h2-6,8-9H,1H3	InChI=1S/C7H10O2/c1-4-5-2-3-7(4,9)6(5)8/h2-6,8-9H,1H3/t4-,5-,6+,7-/m1/s1
