19
gdb 1259	1.9828863	1.4880391	1.2036745	2.209	76.75	-0.25315	0.03154	0.28469	1150.3195	0.154301	-422.505867	-422.496093	-422.495149	-422.540328	35.81	
C	 2.2513876618	-1.9073243354	 1.4220914386	-0.420117
C	 1.5263609595	-1.2539050149	 2.5976362738	 0.079048
O	 1.3361790088	-2.1629779281	 3.6701884215	-0.437922
C	 0.1748989653	-0.6065867408	 2.2058888563	 0.075758
C	-0.3598278637	 0.3341795791	 3.3245775711	-0.117719
O	 0.0436884489	 1.5043423771	 2.5871683407	-0.270835
C	 0.3248111	 0.7255907712	 1.4131024713	-0.11937
C	-0.7541240092	-1.5974377503	 1.6948059732	 0.249972
C	-1.5124629192	-2.4432089643	 1.2967220748	-0.442649
H	 1.6394287775	-2.7027742304	 0.9842026638	 0.125273
H	 2.4775015222	-1.1824144839	 0.6335852766	 0.118113
H	 3.1918104677	-2.3428655863	 1.7688968449	 0.128847
H	 2.1502343097	-0.4532568155	 3.0121861084	 0.099865
H	 0.7530560479	-2.8630514035	 3.350805455	 0.283908
H	-1.4460187908	 0.289695931	 3.4658076021	 0.106457
H	 0.1459532621	 0.2448455386	 4.2907423844	 0.125118
H	-0.4281425801	 0.8645135451	 0.6279136714	 0.107894
H	 1.3209157774	 0.9335567454	 1.0056343341	 0.107873
H	-2.1953286257	-3.1714418743	 0.9335954981	 0.200487
86.1835	95.0175	140.4404	176.39	197.1977	238.0776	307.8884	333.5123	381.306	427.4776	479.3912	526.2936	549.6634	627.1208	647.6852	667.5103	802.5096	874.2925	922.851	974.2303	978.73	1024.0923	1040.3786	1047.074	1095.9593	1128.7384	1151.5303	1157.2323	1169.8835	1252.4395	1301.8705	1316.0007	1359.9273	1369.3962	1405.329	1430.0472	1491.5527	1494.7369	1509.7274	1534.6365	2224.3967	3015.9741	3030.0656	3039.1619	3046.0307	3067.5544	3088.6846	3109.1652	3123.9391	3498.1733	3776.3419
CC(O)C1(COC1)C#C	C[C@H](O)C1(COC1)C#C	
InChI=1S/C7H10O2/c1-3-7(6(2)8)4-9-5-7/h1,6,8H,4-5H2,2H3	InChI=1S/C7H10O2/c1-3-7(6(2)8)4-9-5-7/h1,6,8H,4-5H2,2H3/t6-/m0/s1
