19
gdb 3601	2.7608883	1.403723	0.9834921	3.2538	79.65	-0.23154	-0.05498	0.17656	1216.6674	0.15589	-422.588807	-422.579841	-422.578897	-422.622446	33.272	
C	-4.0155387354	 0.1517147508	 1.3231613545	-0.404268
C	-2.8678469282	 0.0210731126	 0.323758393	 0.088342
O	-2.0496260076	-1.044726675	 0.7678571858	-0.270946
C	-0.8484397621	-1.2235831863	 0.0269493237	 0.012382
C	-0.1217931486	-2.4348802067	 0.5858977058	-0.400476
C	 0.010437482	 0.049115744	 0.0662112365	 0.359189
O	 1.2211776993	 0.0157683482	-0.0206160259	-0.330365
C	-0.7506664517	 1.3119022931	 0.1272927292	-0.166898
C	-2.0866016949	 1.2999911527	 0.1824212608	-0.058712
H	-3.6291261538	 0.4220000556	 2.3097177448	 0.133811
H	-4.7250662975	 0.9184061594	 0.9989246555	 0.118263
H	-4.5423081082	-0.8018651879	 1.4057673186	 0.13326
H	-3.2926721698	-0.2284019475	-0.6698150715	 0.083428
H	-1.0950232629	-1.397712022	-1.0386708886	 0.086255
H	 0.0681106286	-2.2979246836	 1.6540745167	 0.129673
H	-0.7256880176	-3.3350861586	 0.4505907847	 0.118341
H	 0.8362777259	-2.5558498587	 0.0779477243	 0.141217
H	-0.1736076407	 2.2287679652	 0.0597750061	 0.113811
H	-2.6598215367	 2.2230142248	 0.1276964258	 0.113693
65.0681	133.5334	194.5024	220.4312	241.8082	260.6855	335.6351	389.0216	421.7992	450.289	532.5574	538.3159	653.8086	739.9848	802.4037	816.5349	860.5517	890.5932	976.3573	1014.9859	1047.8178	1074.8347	1094.8135	1129.5715	1134.0214	1162.1489	1205.6395	1239.3032	1320.2083	1331.3986	1348.8864	1374.218	1400.2987	1406.19	1409.7957	1482.0683	1483.7351	1495.9638	1499.8947	1682.5723	1782.6008	2897.6639	2915.6659	3047.8961	3056.4536	3124.4309	3129.1348	3132.0462	3150.5382	3153.8705	3189.2116
CC1OC(C)C(=O)C=C1	C[C@@H]1O[C@H](C)C(=O)C=C1	
InChI=1S/C7H10O2/c1-5-3-4-7(8)6(2)9-5/h3-6H,1-2H3	InChI=1S/C7H10O2/c1-5-3-4-7(8)6(2)9-5/h3-6H,1-2H3/t5-,6+/m0/s1
