19
gdb 4040	3.0120114	1.4565877	1.4071856	1.0712	74.07	-0.22047	0.06944	0.28991	1027.1043	0.157268	-422.529499	-422.521579	-422.520635	-422.561349	31.457	
C	 0.3036772027	-0.382184447	-0.7530207263	-0.406676
C	 0.9371794071	 0.0907876194	 0.5434104119	 0.142097
O	 1.3422284683	 1.4705762551	 0.4014457863	-0.282437
C	 2.4529183416	 1.6537703183	 1.2503436476	 0.014657
C	 3.7593969516	 0.9128738858	 0.9311878961	-0.145778
C	 3.4227233597	-0.2916872957	 0.0553758573	-0.234712
C	 2.2209477057	-0.6065432671	 1.0102038484	-0.148447
C	 2.8108919674	 0.43291498	 2.0187784001	 0.340542
O	 3.0258273214	 0.2875338493	 3.3721594592	-0.46511
H	-0.0756136794	-1.4025856949	-0.6379084886	 0.113445
H	-0.5356310389	 0.2659599756	-1.0205918666	 0.12793
H	 1.0207042638	-0.3677637143	-1.5778895211	 0.124718
H	 0.1874872463	 0.024539418	 1.3529770631	 0.056564
H	 2.5260348075	 2.6420029802	 1.6890791749	 0.102118
H	 4.7185737452	 1.4089772701	 1.0258900581	 0.088308
H	 3.1843072383	-0.0936354919	-0.9933477587	 0.102421
H	 4.1936536211	-1.0634146966	 0.1110621617	 0.106149
H	 2.0987410691	-1.6374855078	 1.3402832512	 0.07687
H	 2.2262700615	 0.5519629635	 3.8407482255	 0.287339
150.9542	203.6951	227.6703	257.3235	304.4111	307.4959	397.1458	486.0157	520.9951	593.13	621.5152	734.8977	769.1335	802.5948	838.6937	895.6407	911.238	932.7399	974.3453	981.4542	1020.2583	1039.2179	1071.2034	1084.9179	1106.6522	1138.5731	1152.3281	1162.1705	1180.0444	1227.6208	1278.7301	1286.6115	1304.7756	1321.1777	1352.8002	1386.489	1413.1597	1465.307	1485.9944	1493.1669	1503.63	2930.0778	3044.2938	3058.9075	3110.3024	3114.0404	3124.4878	3127.3721	3177.2713	3191.473	3791.5281
CC1OC2C3CC1C23O	C[C@@H]1O[C@@H]2[C@@H]3C[C@H]1[C@]23O	
InChI=1S/C7H10O2/c1-3-4-2-5-6(9-3)7(4,5)8/h3-6,8H,2H2,1H3	InChI=1S/C7H10O2/c1-3-4-2-5-6(9-3)7(4,5)8/h3-6,8H,2H2,1H3/t3-,4+,5-,6+,7+/m0/s1
