19
gdb 3995	3.0158086	1.2943082	0.9965569	3.7272	76.32	-0.23103	-0.03394	0.19709000000000002	1223.7119	0.155419	-422.541835	-422.53291	-422.531966	-422.575624	32.656	
C	-4.0531627481	-1.0508033352	-1.2561315673	-0.408401
C	-2.677623699	-0.4158348645	-1.2243965627	 0.147769
O	-1.6249770325	-1.4271186025	-1.2473096075	-0.307213
C	-1.1897282639	-1.0833936809	 0.0855540164	-0.013879
C	-2.1832202114	 0.1229220672	 0.1315514967	-0.105894
C	-1.0028721994	 1.136342286	 0.0279324329	-0.130522
C	-0.799244087	 2.0804742418	 1.2139400557	-0.412719
C	-0.0253653095	-0.066662525	 0.0346004585	 0.409375
O	 1.1658656372	-0.1567448352	 0.0750941203	-0.295258
H	-4.1953724879	-1.7224558996	-0.4037898408	 0.122796
H	-4.8301100775	-0.2787411629	-1.225686689	 0.117688
H	-4.1801058135	-1.6308211369	-2.1751937702	 0.132569
H	-2.5574920702	 0.283852868	-2.0622882066	 0.081804
H	-1.1375709812	-1.9420775813	 0.7603855404	 0.091775
H	-2.9120861207	 0.2832575565	 0.9245508905	 0.08317
H	-0.989392917	 1.7027695613	-0.9102796299	 0.102383
H	-0.8268946562	 1.5383424539	 2.1653013519	 0.121706
H	 0.173027691	 2.5756941976	 1.1411047439	 0.140334
H	-1.5786495833	 2.8482170916	 1.2400450271	 0.12252
62.8437	149.6735	172.2814	192.9329	215.4379	239.5439	321.1713	333.1985	423.2956	447.3574	648.8726	741.5668	763.4271	813.4665	821.804	868.7036	916.9397	933.4566	974.3579	1024.375	1042.5365	1077.3154	1078.7397	1093.5491	1106.7533	1150.1506	1172.4169	1213.4548	1236.7026	1249.7749	1264.8671	1315.4666	1330.1252	1389.7248	1405.2227	1408.4515	1484.1749	1491.4619	1494.4195	1496.3385	1890.7161	3015.5516	3033.479	3035.1256	3044.9437	3076.7312	3102.7989	3106.0312	3115.3796	3117.7553	3126.8268
CC1OC2C1C(C)C2=O	C[C@@H]1O[C@@H]2[C@H]1[C@@H](C)C2=O	
InChI=1S/C7H10O2/c1-3-5-4(2)9-7(5)6(3)8/h3-5,7H,1-2H3	InChI=1S/C7H10O2/c1-3-5-4(2)9-7(5)6(3)8/h3-5,7H,1-2H3/t3-,4+,5+,7-/m1/s1
