19
gdb 4236	2.6662554	1.9249117	1.7158532	2.6098	72.43	-0.24195	0.07043	0.31238	893.2255	0.160492	-422.540339	-422.533771	-422.532827	-422.570779	28.079	
O	-0.5109932558	 1.183166636	-1.6989523681	-0.447796
C	-0.4599515198	 1.7299326235	-0.3927496018	 0.157559
C	-0.8776141172	 0.691269612	 0.6880104404	-0.267615
C	 0.4025702798	 0.0145372451	 1.1606731137	 0.092951
O	 1.2058709418	-0.283153577	-0.0385449855	-0.322201
C	 1.8865485363	 0.9690520323	 0.1804243033	 0.12006
C	 1.4727526585	 1.0513957055	 1.6590731539	-0.071594
C	 1.0619752578	 2.5243174294	 1.4767478554	-0.265321
C	 0.9569590879	 2.2276153563	-0.0505607775	-0.096457
H	 0.043075348	 0.3914476177	-1.6624708245	 0.284149
H	-1.1568314976	 2.5743597818	-0.3962338832	 0.079935
H	-1.3952808954	 1.1611172938	 1.5314624857	 0.103634
H	-1.5650734068	-0.0300626666	 0.2369324215	 0.113557
H	 0.2528914383	-0.8813631421	 1.767006836	 0.081712
H	 2.9025824649	 0.9883527371	-0.2158739125	 0.082382
H	 2.096799456	 0.7267498751	 2.4912248979	 0.075157
H	 0.1681704667	 2.8984726374	 1.9844503557	 0.099575
H	 1.8996504115	 3.1866424259	 1.7119274425	 0.106149
H	 1.294983755	 2.9867631668	-0.7566020128	 0.074165
191.0017	292.6275	360.4321	414.6662	435.261	463.9852	571.9997	604.5119	700.546	717.9252	771.9175	794.7384	829.6831	855.3804	872.8137	929.9544	941.2046	966.7216	986.0177	994.2904	1036.937	1045.0547	1057.2316	1090.5448	1107.8127	1139.1059	1172.4075	1209.8744	1222.1382	1236.5613	1256.3502	1282.7567	1300.545	1313.2879	1324.764	1341.1561	1357.9928	1362.6871	1450.953	1473.0072	1500.111	3043.4588	3051.4416	3058.2082	3084.8348	3096.941	3098.6357	3102.4397	3108.9618	3118.7914	3750.8434
OC1CC2OC3C2CC13	O[C@H]1C[C@H]2O[C@@H]3[C@H]2C[C@H]13	
InChI=1S/C7H10O2/c8-5-2-6-4-1-3(5)7(4)9-6/h3-8H,1-2H2	InChI=1S/C7H10O2/c8-5-2-6-4-1-3(5)7(4)9-6/h3-8H,1-2H2/t3-,4+,5+,6-,7+/m1/s1
