19
gdb 2344	3.1691101	1.4032935	1.182331	2.6347	75.33	-0.24395	0.06261	0.30656	1098.8048	0.155752	-422.504971	-422.496715	-422.495771	-422.537706	31.66	
C	 0.0443834063	-0.595604767	-0.3631545681	-0.476147
C	 1.4622255385	-0.1822314527	-0.0744904381	 0.449798
C	 2.1682617104	-0.6790458671	 1.2220527687	-0.368968
C	 3.394856771	-1.0347801263	 0.3656467607	 0.461102
C	 4.3669214555	-2.1139958532	 0.5406291649	-0.273015
O	 4.7352207788	-0.7388060613	 0.7186843079	-0.268854
C	 2.7354987634	-0.5378676652	-0.9200567393	-0.237442
C	 2.8493412636	 0.982629631	-1.1118144253	-0.088923
O	 1.6919312489	 1.2331512911	-0.2791685918	-0.328146
H	-0.638829292	-0.1108434191	 0.3434245876	 0.132039
H	-0.2493288786	-0.3005194005	-1.3746630142	 0.124601
H	-0.0758530848	-1.6791136479	-0.2633945228	 0.116682
H	 2.3287902577	 0.1125456121	 1.9569727636	 0.124221
H	 1.6950279181	-1.5395755595	 1.7043140529	 0.104061
H	 4.3505906561	-2.7139609052	 1.4502226974	 0.116247
H	 4.7996395056	-2.6037943676	-0.3313902016	 0.11476
H	 2.7497016747	-1.1786601402	-1.8015047985	 0.078125
H	 3.7609703097	 1.4469595095	-0.7196843797	 0.118862
H	 2.679525167	 1.325647859	-2.1394835342	 0.100997
66.3191	198.6067	213.8054	237.4127	277.7855	315.1624	371.1521	393.2696	505.104	530.6731	653.6026	727.8094	811.7388	835.6134	864.4417	913.1942	919.1402	929.578	956.2366	994.1853	1004.4352	1054.6265	1103.1374	1120.6354	1128.9631	1149.9205	1162.6803	1173.7316	1182.8716	1215.0808	1225.6634	1274.6113	1325.7303	1348.3445	1410.3877	1430.5899	1459.5239	1480.265	1489.7725	1521.5275	1535.1435	3020.2763	3032.6066	3056.5521	3070.5021	3075.5037	3100.8773	3112.9572	3113.7286	3123.0453	3161.7933
CC12CC3(CO3)C1CO2	C[C@@]12C[C@@]3(CO3)[C@@H]1CO2	
InChI=1S/C7H10O2/c1-6-3-7(4-9-7)5(6)2-8-6/h5H,2-4H2,1H3	InChI=1S/C7H10O2/c1-6-3-7(4-9-7)5(6)2-8-6/h5H,2-4H2,1H3/t5-,6-,7-/m1/s1
