19
gdb 4018	3.0188409	1.3216823	1.0518936	2.4174	74.53	-0.23691	-0.02095	0.21596	1153.9056	0.157584	-422.580535	-422.572328	-422.571384	-422.61368	31.389	
O	-3.3817562016	-1.9537467053	-2.0502047163	-0.432674
C	-2.2936830518	-1.2034208054	-1.5778265227	 0.162019
C	-0.914410228	-1.8964615282	-1.3938841419	-0.278192
C	-0.7641101074	-1.1625853537	-0.0259987546	-0.13938
C	-2.2648072469	-0.7641456883	-0.0776274228	-0.060033
C	-2.3647554747	 0.7421333876	 0.2229490089	-0.242449
C	-1.0038965568	 1.3200205492	-0.2078491936	-0.323805
C	 0.0003955296	 0.1615198885	-0.0946953952	 0.402706
O	 1.1986987994	 0.275814469	-0.0597407339	-0.318355
H	-3.4704485347	-2.7362811516	-1.4954685038	 0.277843
H	-2.2301288415	-0.3410066745	-2.2494511754	 0.090441
H	-1.029227773	-2.9755388544	-1.2500197273	 0.101743
H	-0.1452192021	-1.7269319853	-2.1512617085	 0.117621
H	-0.38282347	-1.7639853292	 0.8012123567	 0.096338
H	-2.9382871025	-1.3736959032	 0.5307061429	 0.064855
H	-3.2108335298	 1.2084751726	-0.2908306058	 0.110749
H	-2.5130723671	 0.898247621	 1.2973539559	 0.107286
H	-1.0128660507	 1.6420835315	-1.2574714478	 0.134443
H	-0.6645881103	 2.1781985898	 0.3763270252	 0.128846
53.7108	120.7059	195.925	268.7354	291.1194	364.8014	434.7593	449.1968	512.4849	591.8985	649.9065	710.2647	737.0752	808.4779	838.5905	891.148	923.4524	954.8082	964.6836	968.588	1035.0991	1044.2608	1102.026	1125.6999	1135.5688	1159.7144	1177.7437	1195.8131	1233.9397	1248.027	1258.7259	1275.1565	1294.4531	1314.2453	1336.9046	1357.172	1438.6237	1454.6858	1480.8049	1494.2057	1838.3947	3033.2537	3040.5842	3050.9376	3058.041	3074.9751	3086.1817	3096.3688	3110.2186	3111.3387	3802.9289
OC1CC2C1CCC2=O	O[C@@H]1C[C@@H]2[C@H]1CCC2=O	
InChI=1S/C7H10O2/c8-6-2-1-4-5(6)3-7(4)9/h4-5,7,9H,1-3H2	InChI=1S/C7H10O2/c8-6-2-1-4-5(6)3-7(4)9/h4-5,7,9H,1-3H2/t4-,5-,7-/m1/s1
