19
gdb 2872	3.1586999	1.5136044	1.408987	0.5287	72.82	-0.25055	0.07409	0.32464	985.7956	0.159574	-422.5779	-422.570465	-422.569521	-422.609203	30.396	
O	-2.5252414954	 1.40144819	 3.7115352661	-0.45298
C	-2.3627824082	 1.0751878885	 2.3451302798	 0.160814
C	-3.5508135828	 0.3642557753	 1.7049053639	-0.121136
C	-3.2964118566	-1.1289882711	 1.8453263115	-0.063817
C	-1.9564857507	-1.2990583869	 2.5600079699	-0.231925
C	-1.2986192052	-0.0102637125	 2.0224670682	-0.13967
C	-1.508631277	-0.1676499966	 0.4925943348	 0.136128
O	-0.8426254437	-1.2678073518	-0.1044537701	-0.445682
C	-3.006116859	-0.4286333687	 0.5341088033	-0.06592
H	-2.937752452	 0.6487108601	 4.1473483103	 0.28232
H	-2.1240369337	 2.0232815679	 1.8517544716	 0.082156
H	-4.5455865288	 0.7905972588	 1.7033916809	 0.08738
H	-4.1089296523	-1.8371489112	 1.9367154757	 0.084567
H	-2.035462347	-1.3132138152	 3.65243133	 0.081146
H	-1.4216247476	-2.1943842182	 2.235494561	 0.112882
H	-0.2847743461	 0.2098531421	 2.3565019192	 0.060159
H	-1.2672768765	 0.7633509832	-0.0419235604	 0.062497
H	 0.0991959148	-1.0699702735	-0.123451273	 0.280941
H	-3.5805405823	-0.6116407403	-0.3639674327	 0.09014
184.9785	221.7206	267.0289	288.7278	316.0884	353.7695	474.3867	502.6276	560.7041	704.9214	730.5295	803.4899	819.7074	832.2143	858.3148	917.2498	919.8536	930.813	957.1218	1012.0879	1021.7957	1038.4197	1053.2613	1072.2259	1076.3054	1084.4349	1131.4183	1154.2608	1197.3276	1222.4548	1227.067	1257.9945	1284.3908	1300.4251	1301.402	1322.0353	1348.7319	1397.1682	1430.7438	1437.7698	1495.041	2987.3821	3047.9923	3057.8291	3109.2552	3121.2358	3197.5211	3202.1098	3214.3346	3816.2357	3817.6577
OC1C2C3CC1C(O)C23	O[C@@H]1[C@@H]2[C@@H]3C[C@H]1[C@@H](O)[C@H]23	
InChI=1S/C7H10O2/c8-6-3-1-2-4(6)5(2)7(3)9/h2-9H,1H2	InChI=1S/C7H10O2/c8-6-3-1-2-4(6)5(2)7(3)9/h2-9H,1H2/t2-,3+,4+,5-,6-,7+
