19
gdb 5850	3.163227	1.282804	0.9629922	1.7776	81.24	-0.22213	-0.03056	0.19157	1234.9325	0.157061	-422.544202	-422.535623	-422.534679	-422.577572	31.951	
C	 1.4661210498	-0.1402549914	 0.3484025191	-0.240789
O	 0.0675491835	-0.0375227569	 0.1530044414	-0.239389
C	-0.5707630027	 0.8017118609	 1.0563808316	 0.167651
O	-0.1140716588	 2.139372429	 0.8499557891	-0.255884
C	-0.1493570368	 2.9627392557	 1.9913796395	-0.136156
C	-1.4933216718	 3.1682249092	 2.6302297546	-0.076579
C	-2.6630161943	 2.5721383807	 2.3524187441	-0.079096
C	-2.9433607666	 1.4916274008	 1.4094204151	-0.073964
C	-2.0506659465	 0.6857964042	 0.8242281304	-0.096862
H	 1.6998186364	-0.5022943083	 1.3616634772	 0.102453
H	 1.8346559945	-0.8642594364	-0.3810674147	 0.128345
H	 1.9651282144	 0.8219692175	 0.1924750821	 0.1285
H	-0.3149201452	 0.5168598798	 2.0979018175	 0.063409
H	 0.5633133419	 2.6131200152	 2.7622896369	 0.098116
H	 0.2298924113	 3.9346990917	 1.6491174216	 0.12543
H	-1.4844722273	 3.9326574618	 3.4060565711	 0.094243
H	-3.5299219924	 2.9205570887	 2.9098615902	 0.089673
H	-3.996722332	 1.3200324446	 1.2021108067	 0.094277
H	-2.3608597374	-0.098378517	 0.1421361164	 0.106621
69.4753	125.2355	181.7499	203.4365	283.34	324.599	355.0983	391.2601	467.5581	491.2541	577.0704	673.429	718.026	790.4496	850.6799	887.6929	944.6224	967.1649	990.5366	1009.9601	1019.4709	1049.0332	1078.2412	1136.5278	1169.6057	1180.0271	1210.0859	1243.1393	1261.1172	1282.3403	1345.2028	1385.5744	1408.509	1421.5259	1451.0645	1471.7719	1478.5623	1482.8598	1513.9692	1683.2022	1716.4042	2882.6282	2924.7158	2988.4115	3036.7449	3073.7393	3129.2861	3130.2417	3148.7459	3161.9601	3195.788
COC1OCC=CC=C1	CO[C@H]1OCC=CC=C1	
InChI=1S/C7H10O2/c1-8-7-5-3-2-4-6-9-7/h2-5,7H,6H2,1H3	InChI=1S/C7H10O2/c1-8-7-5-3-2-4-6-9-7/h2-5,7H,6H2,1H3/t7-/m0/s1
