19
gdb 1658	3.3767238	0.9452274	0.9009769	2.4153	79.85	-0.24159	-0.02893	0.21266	1373.105	0.155076	-422.538856	-422.529695	-422.528751	-422.573316	33.91	
O	 1.482538717	 1.5722435485	-1.895534593	-0.468819
C	 2.078159101	 0.391993028	-1.4803633452	 0.347423
C	 2.1647594397	-0.7477215165	-2.4752531816	-0.359808
C	 3.4246674826	-0.0196564182	-2.1054386803	-0.095586
C	 4.0873942539	 0.9293956842	-3.0481869438	 0.030304
C	 5.380471437	 0.5401273795	-3.7255415299	-0.276636
C	 5.3779504152	 1.6057713165	-2.6582521606	-0.268909
C	 1.8954480806	 0.1033959368	-0.0482584357	 0.097048
O	 1.3308991213	 0.8795509445	 0.692535011	-0.295754
H	 1.1768483372	 1.9946217058	-1.0767938638	 0.296876
H	 2.0122539489	-1.7634194806	-2.1249132846	 0.120564
H	 1.7208463632	-0.5227492397	-3.4390359095	 0.138807
H	 4.1055192424	-0.5518533722	-1.444094409	 0.089197
H	 3.3940953807	 1.5265156124	-3.6301460294	 0.104303
H	 5.812560125	-0.4239566974	-3.4779921303	 0.110983
H	 5.5272748306	 0.8388187016	-4.7576067428	 0.11521
H	 5.8097402566	 1.3571518843	-1.6940370277	 0.111107
H	 5.5236343817	 2.6383671634	-2.954522691	 0.11717
H	 2.3232872854	-0.8533129709	 0.3160543273	 0.08652
51.6259	83.3525	137.7569	197.9545	275.7605	298.3188	349.0788	352.8561	404.9253	450.0879	533.6316	632.0041	736.1653	791.5259	812.4095	829.0267	858.1836	906.1227	920.817	941.6238	991.5788	1029.7678	1050.3619	1060.3867	1075.5958	1079.3835	1092.544	1134.1144	1197.3619	1201.8251	1223.2831	1237.3188	1306.7225	1345.0493	1383.0318	1433.494	1455.2598	1470.3498	1491.3967	1508.9822	1783.7152	2922.5519	3123.5672	3129.1196	3129.8557	3134.9093	3173.8499	3208.3371	3223.1235	3224.072	3694.7946
OC1(CC1C1CC1)C=O	O[C@]1(C[C@H]1C1CC1)C=O	
InChI=1S/C7H10O2/c8-4-7(9)3-6(7)5-1-2-5/h4-6,9H,1-3H2	InChI=1S/C7H10O2/c8-4-7(9)3-6(7)5-1-2-5/h4-6,9H,1-3H2/t6-,7+/m0/s1
