19
gdb 1303	3.0133739	0.9532468	0.9182962	1.1465	77.72	-0.24876	0.02027	0.26903	1377.5229	0.154133	-422.506433	-422.496578	-422.495634	-422.541904	35.741	
C	-2.3518907777	-1.4046092104	 3.3860554109	-0.415327
C	-1.9913968406	 0.0750678786	 3.3074545015	 0.118885
O	-2.6814608601	 0.8629832654	 4.2731300041	-0.431833
C	-0.4880889939	 0.3038612049	 3.4474207538	 0.137461
C	 0.0426352405	 1.6987588359	 3.0702898786	-0.319144
C	 0.8389047806	 0.9470975199	 1.9681717098	-0.038819
O	 0.2648040569	-0.3232720238	 2.3795153861	-0.298367
C	 0.5552378368	 1.2883946679	 0.5844653378	 0.338837
C	 0.3208132844	 1.585659037	-0.5565004004	-0.456469
H	-2.0759124859	-1.8200082877	 4.3643194725	 0.102815
H	-3.4265225591	-1.5463340847	 3.2438923418	 0.123501
H	-1.8124573595	-1.9669780056	 2.6190540644	 0.144161
H	-2.3037513741	 0.4752866462	 2.3356055325	 0.097183
H	-2.5518710435	 0.4508782119	 5.1346767626	 0.279194
H	-0.1511188493	-0.0629821517	 4.4293610792	 0.062569
H	-0.715878761	 2.3877008648	 2.6992219671	 0.132049
H	 0.6586116868	 2.1985258649	 3.8176799518	 0.114108
H	 1.9238274787	 0.9438778053	 2.1328650645	 0.105933
H	 0.11515146	 1.8430367811	-1.5662528184	 0.203262
32.8878	67.9807	168.7866	197.7049	218.2062	238.049	283.4471	319.7776	355.3581	454.0846	478.3542	506.2506	544.8771	618.1884	671.1622	740.3504	817.8066	880.9819	914.4205	969.8919	981.5981	1016.7602	1022.9665	1073.6017	1085.2178	1109.1294	1128.5717	1201.2022	1248.4428	1254.1852	1272.4081	1302.7163	1335.6572	1363.5951	1396.8254	1408.792	1417.1641	1489.7899	1492.5776	1494.5715	2234.4486	2981.4979	3020.8497	3021.3948	3049.4058	3094.8727	3099.0585	3129.1901	3154.3315	3502.7833	3797.0116
CC(O)C1CC(O1)C#C	C[C@@H](O)[C@@H]1C[C@@H](O1)C#C	
InChI=1S/C7H10O2/c1-3-6-4-7(9-6)5(2)8/h1,5-8H,4H2,2H3	InChI=1S/C7H10O2/c1-3-6-4-7(9-6)5(2)8/h1,5-8H,4H2,2H3/t5-,6+,7+/m1/s1
