19
gdb 3844	2.4208696	1.7730844	1.3107561	2.3924	76.26	-0.23379	-0.00255	0.23124	1020.1562	0.15751	-422.559805	-422.551471	-422.550527	-422.592228	32.877	
O	 0.509660585	 0.7789109384	 0.5141218834	-0.448135
C	-0.8124793154	 0.9094006455	 1.0749612991	 0.094032
C	-1.37996849	 2.212086058	 0.5068357292	-0.303465
C	-1.5321335954	 2.0866396317	-1.0092641753	 0.440129
O	-0.5461632172	 2.7388678055	-1.7583867945	-0.480378
C	-2.8976344691	 2.0212089729	-1.6188853081	-0.339238
C	-2.0388231943	 0.7583873511	-1.5142742812	-0.133002
C	-2.2780066601	-0.307916524	-0.5121231199	-0.049164
C	-1.7090198306	-0.2537094952	 0.6959065288	-0.138021
H	 0.7226904871	-0.158562531	 0.4788918482	 0.281814
H	-0.7299768958	 0.9755855746	 2.1688181866	 0.064495
H	-2.3366782631	 2.4251433998	 0.9930312511	 0.102055
H	-0.7044107454	 3.0454547931	 0.7226900089	 0.112374
H	 0.2871175719	 2.3204186917	-1.5060905931	 0.282908
H	-3.757785111	 2.125040778	-0.9656270802	 0.11153
H	-3.017757978	 2.4360117704	-2.6132451229	 0.12114
H	-1.6284215783	 0.431545544	-2.4662772814	 0.097202
H	-2.9132057766	-1.1473022905	-0.788832242	 0.094031
H	-1.8770633737	-1.0365555539	 1.4303670232	 0.089694
105.671	142.984	204.2145	274.3808	351.3179	376.4516	386.7529	423.8505	487.4776	500.0016	580.4217	596.839	687.632	756.5775	802.3122	841.0743	886.5395	917.835	941.2284	961.2268	971.0937	991.5344	1015.8262	1033.3061	1062.3643	1095.7282	1103.2357	1183.9854	1193.3816	1234.3468	1261.6641	1276.5207	1323.819	1359.7893	1368.2194	1401.906	1418.0078	1434.707	1469.2136	1493.3236	1690.3148	2998.8185	3052.5946	3098.9731	3131.2646	3135.9128	3143.6752	3170.7064	3225.9601	3772.3477	3825.8692
OC1CC2(O)CC2C=C1	O[C@H]1C[C@]2(O)C[C@@H]2C=C1	
InChI=1S/C7H10O2/c8-6-2-1-5-3-7(5,9)4-6/h1-2,5-6,8-9H,3-4H2	InChI=1S/C7H10O2/c8-6-2-1-5-3-7(5,9)4-6/h1-2,5-6,8-9H,3-4H2/t5-,6+,7+/m0/s1
