19
gdb 3081	2.6359922	1.6970738	1.3815358	1.7955	74.09	-0.24929	0.07301	0.32230000000000003	999.618	0.158015	-422.525996	-422.51837	-422.517426	-422.557696	30.715	
O	 0.4399821206	-0.1281357408	 0.1956626044	-0.436657
C	-0.7365223711	 0.419059385	 0.7041234372	 0.144254
C	-2.1528197336	-0.0015783705	 0.2070132474	 0.026596
C	-2.0796374041	 0.1810363637	-1.3241555073	-0.326456
C	-1.3957006634	 1.5671324685	-1.3073426453	 0.38875
C	-1.6762960498	 2.6731297225	-2.2726378507	-0.348616
C	-0.3134551657	 2.0146630387	-2.2627798387	-0.346394
C	-1.3064878717	 1.7737312178	 0.204100598	-0.056514
O	-2.6127236514	 1.309224309	 0.6585964942	-0.290711
H	 0.5009141588	 0.1014693683	-0.738383167	 0.294909
H	-0.6870791196	 0.3864017632	 1.7927490997	 0.10425
H	-2.7164465274	-0.8398682604	 0.6152523257	 0.081281
H	-1.4907153273	-0.6003512579	-1.8157469029	 0.100133
H	-3.0761255726	 0.2052172285	-1.7712264458	 0.115311
H	-2.3328958377	 2.4612700901	-3.1101564923	 0.11707
H	-1.7573704248	 3.6849113627	-1.8881751181	 0.118663
H	-0.0585278505	 1.3661678565	-3.0955642063	 0.116614
H	 0.523993473	 2.5850202722	-1.8720840181	 0.120724
H	-1.0075022618	 2.7496789532	 0.5879661158	 0.076793
119.7654	203.8155	253.1509	285.0096	333.1562	368.0345	446.3396	489.1143	586.8552	626.0692	765.5956	786.4293	801.0937	853.7288	866.4421	875.3387	891.4355	949.4538	953.8129	974.0742	985.6352	1010.7123	1050.6352	1054.6952	1083.1965	1131.402	1144.3152	1180.7521	1187.825	1202.2274	1221.8366	1247.9474	1279.844	1289.1695	1310.6543	1318.0854	1390.9627	1428.2713	1466.1275	1485.2213	1505.0142	3051.0061	3106.5339	3116.0251	3118.0509	3123.099	3126.4392	3133.1588	3197.1533	3213.7697	3799.9496
OC1C2CC3(CC3)C1O2	O[C@@H]1[C@@H]2CC3(CC3)[C@H]1O2	
InChI=1S/C7H10O2/c8-5-4-3-7(1-2-7)6(5)9-4/h4-6,8H,1-3H2	InChI=1S/C7H10O2/c8-5-4-3-7(1-2-7)6(5)9-4/h4-6,8H,1-3H2/t4-,5+,6-/m0/s1
