19
gdb 5719	2.7929855	0.7328132	0.625209	3.179	80.11	-0.24875	0.05027	0.29902	1813.4418	0.154004	-422.504642	-422.493979	-422.493034	-422.54346	35.956	
C	 1.600989811	 0.2531160538	 0.2536645734	-0.495947
C	 0.1595431924	 0.1094793311	 0.1047910105	 0.056213
C	-1.0337079402	 0.0084516356	-0.0199987011	 0.059365
C	-2.4756759762	-0.1560524742	-0.1742461046	-0.384011
C	-2.8866525394	-1.619652634	-0.1768754312	 0.074973
O	-4.2772103893	-1.8863172534	-0.0079718068	-0.254234
C	-3.3789919004	-2.2947649294	 1.0298521289	 0.045232
C	-3.2326889158	-3.7847645674	 1.2702691098	-0.110612
O	-2.8158917303	-4.5257931014	 0.1405457311	-0.40323
H	 1.8862360078	 0.3573277956	 1.3063520887	 0.147588
H	 2.1319067168	-0.6170542448	-0.1481420946	 0.146449
H	 1.9689900291	 1.1375675781	-0.2780034698	 0.150292
H	-3.0152928354	 0.3626837171	 0.6272527347	 0.132745
H	-2.8082091764	 0.3019421826	-1.1154518465	 0.137306
H	-2.4121379924	-2.2300630544	-0.944198956	 0.099044
H	-3.4620364449	-1.703735951	 1.9453930606	 0.089853
H	-2.5583882481	-3.9317230912	 2.1289553971	 0.093501
H	-4.2103851713	-4.1904069429	 1.5546571649	 0.127642
H	-1.883673937	-4.3396418299	-0.0081295592	 0.287832
10.5433	48.3754	53.4597	114.0523	188.2306	202.5562	224.9984	295.1878	335.801	344.8662	390.8219	432.9152	490.1332	642.3603	768.0056	808.5362	822.179	948.9323	955.9823	1004.7472	1053.1984	1053.963	1066.3713	1116.4306	1117.2345	1154.4612	1166.8273	1225.9836	1236.667	1275.7168	1324.3372	1354.4729	1398.2634	1413.6249	1416.1361	1470.8882	1478.4372	1479.4826	1487.0716	1499.3538	2374.8911	2982.684	3019.1423	3026.9604	3056.0803	3067.272	3082.1166	3086.9532	3087.9294	3122.2955	3823.6541
CC#CCC1OC1CO	CC#CC[C@@H]1O[C@H]1CO	
InChI=1S/C7H10O2/c1-2-3-4-6-7(5-8)9-6/h6-8H,4-5H2,1H3	InChI=1S/C7H10O2/c1-2-3-4-6-7(5-8)9-6/h6-8H,4-5H2,1H3/t6-,7-/m0/s1
