19
gdb 4131	2.2125707	2.0055843	1.5889238	1.7943	74.37	-0.23978	0.01566	0.25544	953.0527	0.15748	-422.570412	-422.562413	-422.561469	-422.602258	31.872	
C	 0.9605338172	 0.3683607816	-3.3443482521	-0.501281
C	 0.0442830584	 0.385092291	-2.1459091549	 0.341257
O	-0.9775264075	 1.390754387	-2.2533234919	-0.282064
C	-1.672948023	 1.0609992398	-1.0425263364	 0.008311
C	-0.5483984287	 1.2947003026	 0.0187295394	-0.263267
C	 0.6969798474	 0.8188012027	-0.7871942179	 0.098987
O	 1.4152555933	-0.2694634411	-0.2342498717	-0.440585
C	-1.8510676029	-0.4447841701	-1.1767623708	-0.085455
C	-0.7776139672	-0.8675232358	-1.8416011903	-0.095299
H	 1.7763101442	-0.3404467876	-3.1745977187	 0.131702
H	 0.4189285012	 0.0717374653	-4.2466280812	 0.12593
H	 1.3921874226	 1.3601322303	-3.5093640489	 0.122455
H	-2.5686099868	 1.6714003057	-0.9325456396	 0.076678
H	-0.4801252132	 2.3539433919	 0.2793589499	 0.099593
H	-0.6881511372	 0.7101296237	 0.9311200336	 0.099111
H	 1.3693539537	 1.6642456544	-0.9851956487	 0.069711
H	 1.8805397223	 0.0412931691	 0.5477142423	 0.285667
H	-2.6334582412	-1.0281187416	-0.7101862006	 0.101408
H	-0.4653364526	-1.8795439989	-2.0567856413	 0.107141
143.7854	196.0769	232.5668	248.6708	302.0048	322.9125	403.5844	493.0391	525.	582.5654	625.8529	704.9494	735.94	787.1702	835.9324	856.9733	881.5013	904.8338	924.3635	936.1878	950.7815	1014.1055	1032.0455	1093.0651	1095.1907	1128.5423	1153.7	1185.8199	1208.7831	1237.2922	1261.6544	1308.2849	1322.3463	1337.0866	1356.8584	1411.5787	1417.0962	1481.721	1485.7033	1494.2132	1648.1664	3006.5026	3043.2862	3062.8504	3115.4705	3116.4988	3122.0088	3125.9045	3216.4524	3244.1157	3829.0037
CC12OC(CC1O)C=C2	C[C@]12O[C@H](C[C@H]1O)C=C2	
InChI=1S/C7H10O2/c1-7-3-2-5(9-7)4-6(7)8/h2-3,5-6,8H,4H2,1H3	InChI=1S/C7H10O2/c1-7-3-2-5(9-7)4-6(7)8/h2-3,5-6,8H,4H2,1H3/t5-,6+,7+/m0/s1
