19
gdb 929	4.5757925	0.9481068	0.9185184	3.8879	75.98	-0.24275	-0.01807	0.22468	1310.8957	0.157462	-422.546825	-422.538845	-422.5379	-422.580323	30.017	
O	 1.2133869549	-0.5927968758	-0.1475614834	-0.2434
C	 0.1061805551	-0.1176047564	-0.1630605442	 0.156883
C	-0.4082467596	 0.8153352802	-1.2408973248	-0.306532
C	-0.9232764702	 2.1338975252	-0.6564712079	 0.131822
O	-1.9761487506	 1.8996404126	 0.3145082278	-0.300585
C	-3.0364645174	 2.7370495576	-0.1864979235	 0.118703
C	-3.0661824291	 2.4114140144	-1.6980212161	-0.238015
C	-1.6592832991	 3.0881583081	-1.6143821511	-0.079015
C	-2.3065429117	 4.0487847908	-0.5633915612	-0.239183
H	-0.6305047483	-0.3397638084	 0.6376684332	 0.097842
H	 0.4008900586	 1.0033217861	-1.9533190667	 0.117397
H	-1.2260918132	 0.3022833435	-1.7625540129	 0.117954
H	-0.0902872014	 2.6483581379	-0.1583417558	 0.086885
H	-3.8961130128	 2.6738782821	 0.4780585181	 0.084335
H	-3.1417577571	 1.3617549415	-1.988337237	 0.100929
H	-3.7812061337	 3.01712784	-2.2563886763	 0.106428
H	-1.1146097043	 3.4433416151	-2.4880449767	 0.078356
H	-1.6613129409	 4.498094281	 0.1953269631	 0.103812
H	-2.9587962595	 4.7959630345	-1.0175788344	 0.105383
52.8139	71.7147	168.8839	218.2605	337.1786	432.377	489.0935	530.8374	542.2688	654.9918	815.1637	832.5391	842.3428	854.3967	864.7812	877.4392	938.311	967.652	985.2164	1021.858	1037.0628	1051.4962	1072.0648	1100.3512	1107.0039	1123.44	1144.2852	1211.2252	1223.469	1241.6137	1248.4244	1280.3988	1288.8161	1299.5281	1354.1495	1399.7335	1422.1322	1451.9256	1479.5143	1514.753	1829.5065	2915.2588	3008.2584	3034.5531	3070.0059	3079.4417	3100.3247	3130.2787	3137.3759	3142.1355	3145.0735
O=CCC1OC2CC1C2	O=CC[C@@H]1O[C@@H]2C[C@H]1C2	
InChI=1S/C7H10O2/c8-2-1-7-5-3-6(4-5)9-7/h2,5-7H,1,3-4H2	InChI=1S/C7H10O2/c8-2-1-7-5-3-6(4-5)9-7/h2,5-7H,1,3-4H2/t5-,6+,7-/m0/s1
