19
gdb 977	3.3883529	1.0418697	0.9176305	1.6388	75.85	-0.25868	0.0087	0.26738	1309.2399	0.157285	-422.549626	-422.541164	-422.54022	-422.583658	30.985	
O	 1.1779407088	 0.9542864969	 0.4448232505	-0.306822
C	 0.2361139606	 0.2165615111	 0.5559151436	 0.189038
O	-1.0585169434	 0.5532672062	 0.5214667395	-0.210848
C	-1.3846908702	 1.9499482156	 0.3104135482	-0.107761
C	-1.7038829089	 2.6440804742	 1.6211487278	 0.004316
C	-2.0704581139	 4.1550614135	 1.4165915756	-0.262855
C	-0.8602966884	 4.5489581797	 2.2689051405	-0.029601
C	-0.9465666337	 3.9089913804	 3.6257978156	-0.287744
C	-0.4900848443	 3.075991828	 2.4625125798	-0.042488
H	 0.3072641565	-0.8727765847	 0.7011750049	 0.111594
H	-0.5525383815	 2.4343490822	-0.2062205277	 0.136896
H	-2.2637099241	 1.9353554148	-0.3401003725	 0.116415
H	-2.4482881821	 2.0498299967	 2.1637633514	 0.075493
H	-1.9720748163	 4.4560446438	 0.3692674114	 0.103861
H	-3.0521952045	 4.4781247043	 1.7782638805	 0.097749
H	-0.210894652	 5.3943895607	 2.0781788377	 0.086942
H	-0.1680928062	 4.1949172807	 4.3258365769	 0.112836
H	-1.9149533988	 3.726639164	 4.0884886439	 0.102073
H	 0.4849127423	 2.6081428722	 2.4260679424	 0.110906
52.9471	83.6216	137.964	181.6055	272.5281	341.6056	385.3207	398.1697	508.2621	702.703	758.1275	777.7711	798.8483	868.209	899.9532	915.1495	939.388	964.5642	990.3985	1010.6855	1043.436	1045.6332	1068.0757	1086.2646	1110.8272	1148.4857	1172.1658	1189.5895	1223.6117	1244.6582	1255.6304	1288.1763	1300.3191	1353.8644	1375.864	1407.582	1413.8086	1482.6443	1485.4812	1498.7948	1815.3295	3027.4324	3034.2281	3042.5304	3061.2375	3090.7294	3100.6264	3122.0336	3182.8725	3194.937	3208.5749
O=COCC1CC2CC12	O=COC[C@@H]1C[C@H]2C[C@@H]12	
InChI=1S/C7H10O2/c8-4-9-3-6-1-5-2-7(5)6/h4-7H,1-3H2	InChI=1S/C7H10O2/c8-4-9-3-6-1-5-2-7(5)6/h4-7H,1-3H2/t5-,6-,7+/m0/s1
