19
gdb 1527	3.5412824	0.9120222	0.873354	2.3083	77.63	-0.23382	0.02225	0.25607	1411.0513	0.152836	-422.490151	-422.479997	-422.479053	-422.525875	37.02	
C	-1.4014435642	 4.5214355883	-1.8166730907	-0.437814
C	-1.5996804416	 3.3036926917	-0.9513264866	 0.414346
O	-2.896725681	 3.2431363829	-0.4296502689	-0.475762
C	-0.4645903998	 2.769743497	-0.0972241326	-0.371026
C	-0.9566882664	 1.9931101146	-1.3070559639	 0.028726
O	-1.7954197384	 0.8863372774	-1.1243272028	-0.254974
C	-1.1336188244	-0.3500645064	-0.8875297588	-0.222752
C	-0.6092454433	-0.5136501253	 0.469394551	 0.321798
C	-0.1924591616	-0.6853678022	 1.5833053235	-0.459742
H	-0.3839999078	 4.5590777843	-2.2163670757	 0.110309
H	-2.1076404856	 4.5173116618	-2.6529803909	 0.123309
H	-1.5720448268	 5.4310959785	-1.2316107126	 0.128417
H	-3.1376253897	 2.3082212591	-0.3936934434	 0.291248
H	 0.5141613016	 3.2353295659	-0.1526158196	 0.108598
H	-0.7369717194	 2.376114428	 0.8742255394	 0.129468
H	-0.3203085372	 1.9231157304	-2.1897642717	 0.088639
H	-1.8829309137	-1.1242809419	-1.0842098026	 0.143504
H	-0.3223270246	-0.4870644451	-1.617522893	 0.127565
H	 0.181999934	-0.8289841891	 2.5669112298	 0.206143
25.1726	82.4365	164.7379	174.6122	217.6327	247.1117	306.1202	332.4228	346.0181	367.813	422.8831	470.8514	546.0203	620.0188	622.5583	683.4091	714.0573	809.5903	861.7305	925.4737	933.1607	974.7632	1024.011	1031.0218	1037.9299	1063.5517	1104.8654	1116.3839	1169.0329	1226.4147	1295.4821	1311.3084	1361.8338	1401.4848	1408.0921	1439.2407	1473.9364	1478.0246	1484.367	1508.5772	2235.4808	3000.5157	3036.024	3070.3631	3095.4939	3104.2476	3115.2983	3136.3941	3236.1871	3502.6597	3764.2377
CC1(O)CC1OCC#C	C[C@]1(O)C[C@H]1OCC#C	
InChI=1S/C7H10O2/c1-3-4-9-6-5-7(6,2)8/h1,6,8H,4-5H2,2H3	InChI=1S/C7H10O2/c1-3-4-9-6-5-7(6,2)8/h1,6,8H,4-5H2,2H3/t6-,7+/m1/s1
