19
gdb 585	2.4647835	1.9915988	1.4598871	2.5985	75.69	-0.24659	0.01065	0.25724	957.0211	0.160163	-422.563527	-422.556248	-422.555303	-422.595277	28.639	
C	 0.2979664176	 1.7951996733	 0.3123711748	-0.06489
O	 0.2585318765	 0.3990712802	 0.5932170657	-0.258818
C	 0.8253838912	-0.3525473988	-0.4717231759	 0.231412
C	 1.5240389896	 0.67948669	-1.3626631587	-0.299779
C	 0.6118072133	 1.9075516611	-1.1948505762	-0.083111
C	-0.6473044655	 1.8256530799	-2.0184272073	-0.066842
C	-1.2393881144	 0.7123042165	-2.4478502768	-0.066036
C	-0.7670134308	-0.7182157174	-2.3131535893	-0.125432
O	-0.1516442841	-1.1392813018	-1.1037651577	-0.256743
H	-0.6645665574	 2.2404657952	 0.5836006386	 0.107779
H	 1.0857833042	 2.2744472163	 0.9126010495	 0.089915
H	 1.510873567	-1.07828779	-0.022309378	 0.086598
H	 2.5177412323	 0.8893584816	-0.9550460661	 0.108271
H	 1.6444515415	 0.3475242155	-2.3950065433	 0.11572
H	 1.1355457354	 2.8427064563	-1.4121572269	 0.075724
H	-1.1334392463	 2.7766850653	-2.2260487947	 0.088774
H	-2.1618209028	 0.8110115785	-3.0166660584	 0.093402
H	-1.6333435529	-1.3791120015	-2.4158370414	 0.118322
H	-0.1064314044	-0.9527565202	-3.1660269878	 0.105735
87.2152	150.6209	251.2095	336.1676	401.4016	421.2332	489.6803	535.2313	657.5017	742.6834	782.8747	814.2984	835.4981	850.7898	896.3269	924.3649	939.1999	991.6293	997.3628	1014.6089	1033.2206	1043.2053	1080.3575	1108.5742	1148.973	1202.9219	1224.7573	1233.1207	1266.9353	1291.1157	1316.7473	1328.372	1375.1092	1389.7773	1408.3492	1421.9205	1423.3966	1483.5494	1504.3392	1524.0042	1729.1661	2950.403	2989.3669	3053.3071	3062.5223	3068.8795	3071.3771	3073.5446	3124.2332	3135.0929	3158.5906
C1OC2CC1C=CCO2	C1O[C@@H]2C[C@H]1C=CCO2	
InChI=1S/C7H10O2/c1-2-6-4-7(8-3-1)9-5-6/h1-2,6-7H,3-5H2	InChI=1S/C7H10O2/c1-2-6-4-7(8-3-1)9-5-6/h1-2,6-7H,3-5H2/t6-,7-/m1/s1
