19
gdb 4240	2.9143539	1.8186255	1.5112366	1.8103	73.95	-0.24283	0.07086	0.31369	946.5116	0.158435	-422.534769	-422.527535	-422.526591	-422.566306	28.87	
C	-0.0698674707	 0.1167865234	 0.0951452301	-0.399127
C	 1.3169123067	 0.0348456614	-0.5241035213	 0.123862
O	 1.9618108942	-1.1786571782	-0.1062990909	-0.288619
C	 2.6237733934	-1.8090770237	-1.1898565958	 0.102716
C	 1.7648759619	-2.8778105253	-1.9412773203	-0.254436
C	 1.4563638223	-1.8309169786	-3.0291594646	 0.112613
O	 0.3995224299	-0.9232240405	-2.6342162656	-0.31289
C	 1.3429849999	 0.0135525444	-2.0512370413	 0.092748
C	 2.5305033544	-0.8795837636	-2.4371047369	-0.145916
H	-0.0052053871	-0.0090289554	 1.178876007	 0.124265
H	-0.5263584606	 1.0903697224	-0.1119463649	 0.110586
H	-0.7089435808	-0.6659849501	-0.3187460064	 0.137544
H	 1.9285315218	 0.8894827167	-0.1891000184	 0.06872
H	 3.6115218044	-2.1388089265	-0.8593084192	 0.080622
H	 2.389203358	-3.688201341	-2.3321324351	 0.098951
H	 0.9137630321	-3.2914558988	-1.3969106945	 0.112836
H	 1.3643801959	-2.1349815224	-4.0734959327	 0.079415
H	 1.2473637272	 1.007402122	-2.4999696635	 0.077926
H	 3.4156270371	-0.4922131762	-2.9342495555	 0.078182
88.3876	222.2785	229.5837	326.8573	356.0118	403.3046	504.0613	637.3538	661.3065	733.0483	785.2488	818.8514	845.1265	857.5616	909.3108	927.3353	932.4236	963.8528	969.0016	999.2365	1048.0491	1052.6721	1097.5217	1113.6682	1141.3361	1153.7919	1170.5646	1202.6219	1216.5211	1242.3061	1271.4019	1297.8687	1305.6011	1332.8302	1349.8219	1370.8437	1379.8564	1403.9902	1450.355	1487.3198	1497.1185	2960.8617	3045.3556	3050.6633	3059.343	3077.9791	3092.5041	3115.7868	3125.135	3140.1536	3151.4597
CC1OC2CC3OC1C23	C[C@H]1O[C@H]2C[C@H]3O[C@@H]1[C@@H]23	
InChI=1S/C7H10O2/c1-3-7-6-4(8-3)2-5(6)9-7/h3-7H,2H2,1H3	InChI=1S/C7H10O2/c1-3-7-6-4(8-3)2-5(6)9-7/h3-7H,2H2,1H3/t3-,4+,5-,6+,7+/m1/s1
