19
gdb 3123	2.7162442	1.3688262	1.1108951	0.9456	77.48	-0.23628	0.00279	0.23906999999999998	1173.9834	0.15487	-422.55822	-422.549001	-422.548057	-422.591646	34.472	
C	 1.3624765049	 0.7701565742	 0.5060298364	-0.493908
C	-0.0279320381	 0.2404821166	 0.3719318713	 0.323461
C	-1.1736224277	 0.9253090615	 0.2866980046	-0.249069
C	-2.3598024033	 0.0152875503	 0.2124461949	 0.408491
C	-3.6463509141	 0.4333271894	-0.4398762521	-0.491315
O	-2.4896196365	-0.8200393438	 1.4035815272	-0.301918
C	-1.8147778273	-1.349337478	 0.2631392142	-0.080854
C	-0.2894732425	-1.2589215281	 0.3502904627	-0.018715
O	 0.3624219558	-1.8320560466	-0.7773496873	-0.429863
H	 1.8064318249	 0.4777436447	 1.4664584087	 0.127157
H	 2.0052603721	 0.3557593608	-0.2782496993	 0.144123
H	 1.3856252008	 1.8609483742	 0.4403269159	 0.122623
H	-1.2595620492	 2.0062608167	 0.2999455318	 0.094647
H	-4.1000442764	 1.2724854421	 0.0989836912	 0.127606
H	-3.4702008947	 0.7528361594	-1.4722794053	 0.127986
H	-4.360907702	-0.3931923693	-0.4436957736	 0.130516
H	-2.2772765171	-2.2061409191	-0.2245587272	 0.087599
H	 0.0689145798	-1.7187641685	 1.2850140859	 0.084522
H	 0.3723383106	-2.7876462464	-0.6622738901	 0.286911
116.5058	155.4599	178.7384	185.9431	230.0778	259.9511	280.9428	347.6973	381.8451	453.8803	482.097	568.3027	625.2935	651.6611	745.6562	817.7542	859.9643	879.6724	936.2935	996.6223	1007.0958	1032.9517	1055.3553	1070.5156	1096.0405	1107.5083	1162.8842	1219.0463	1242.6028	1272.9703	1313.7599	1337.1263	1396.4814	1407.714	1417.7718	1449.726	1475.1458	1483.4909	1491.2411	1495.0542	1705.1441	2980.364	3023.1533	3035.8492	3078.6868	3097.5662	3117.9489	3124.5677	3125.92	3192.4982	3816.6844
CC1=CC2(C)OC2C1O	CC1=C[C@]2(C)O[C@@H]2[C@H]1O	
InChI=1S/C7H10O2/c1-4-3-7(2)6(9-7)5(4)8/h3,5-6,8H,1-2H3	InChI=1S/C7H10O2/c1-4-3-7(2)6(9-7)5(4)8/h3,5-6,8H,1-2H3/t5-,6+,7-/m0/s1
