19
gdb 4990	2.5956873	1.2686743	0.9591302	2.7097	77.56	-0.2374	-0.00741	0.22999	1254.4932	0.15515	-422.549346	-422.540133	-422.539189	-422.583394	34.209	
C	 2.0456269275	 1.7531665019	-1.9345832939	-0.380264
C	 2.2952878752	 0.6492010522	-0.8967729132	-0.291709
C	 1.9785166568	-0.7204245739	-1.430167848	 0.328792
C	 2.8038027273	-1.4654601915	-2.4992906513	-0.428932
C	 2.6660860105	-2.7444940035	-1.6302396747	 0.425079
O	 3.2036106306	-3.8164834375	-1.6706831673	-0.325099
C	 1.789461373	-2.0630234758	-0.6387039137	-0.296515
C	 0.637848659	-1.3436619235	-1.3740961351	 0.058727
O	-0.2790541576	-0.697724035	-0.5481152618	-0.426143
H	 2.2999391281	 2.7352647839	-1.5250601541	 0.116044
H	 2.650708595	 1.599527552	-2.8344342849	 0.118217
H	 0.9937694422	 1.7741965711	-2.2355399953	 0.129156
H	 3.3435661678	 0.6745630704	-0.5736880863	 0.100861
H	 1.6824224632	 0.8326222597	-0.009610659	 0.121422
H	 2.3969437895	-1.4985514928	-3.5150112156	 0.117754
H	 3.8499471941	-1.1468732151	-2.5413575992	 0.133493
H	 1.694265426	-2.2513680297	 0.4242795778	 0.107477
H	 0.2040933816	-1.8024996406	-2.2649485701	 0.095117
H	-0.8854501397	-1.3565317823	-0.1938069944	 0.296523
67.3605	99.0818	178.9686	200.7324	263.2191	278.0492	315.4884	349.0815	386.8808	489.1557	507.9267	541.2004	638.5434	684.4014	787.184	794.9427	842.0905	920.2359	944.5385	974.5382	1005.0522	1036.4031	1075.9677	1080.3346	1092.5451	1130.6627	1154.5743	1196.1313	1205.9704	1241.1602	1270.7799	1325.5575	1342.981	1384.55	1408.4214	1447.9031	1475.4337	1487.9291	1498.7728	1506.8157	1874.4236	3030.2877	3036.5226	3049.2266	3072.8957	3085.8897	3105.3042	3108.629	3113.9806	3191.3565	3811.7883
CCC12CC(=O)C1C2O	CC[C@@]12CC(=O)[C@@H]1[C@H]2O	
InChI=1S/C7H10O2/c1-2-7-3-4(8)5(7)6(7)9/h5-6,9H,2-3H2,1H3	InChI=1S/C7H10O2/c1-2-7-3-4(8)5(7)6(7)9/h5-6,9H,2-3H2,1H3/t5-,6-,7-/m1/s1
