19
gdb 2736	2.3551952	1.661717	1.3531625	1.8413	76.48	-0.20673	0.01829	0.22502	1039.7864	0.155878	-422.555879	-422.546993	-422.546049	-422.588678	34.332	
C	-1.9265237811	-1.2101245088	-0.8501745723	-0.475637
C	-2.0682297126	-0.2260108384	 0.2847502356	 0.205002
C	-3.1184444885	-0.4875133976	 1.3703196104	-0.337582
C	-3.6307533609	 0.8916772984	 1.7394725749	-0.08188
C	-3.0735483125	 1.8530695192	 0.9990624391	-0.133061
C	-2.0537659367	 1.2990722219	 0.0745265004	 0.347907
O	-1.8525591325	 1.9198030022	-1.1512798701	-0.485997
C	-0.8791859892	 0.5952375912	 0.7340704534	-0.034346
O	 0.2714099608	 0.4694655091	-0.067611801	-0.435614
H	-1.5767342427	-2.1842069495	-0.4892856411	 0.116501
H	-2.8911239299	-1.3616611204	-1.346244185	 0.118828
H	-1.2132808591	-0.8616006857	-1.5991255269	 0.126222
H	-3.9283570818	-1.1287215025	 0.9946808136	 0.107183
H	-2.6913415972	-1.0109223414	 2.2362274944	 0.107937
H	-4.3534905883	 1.0499693946	 2.531354382	 0.095578
H	-3.2760707552	 2.915774009	 1.0614797159	 0.099418
H	-0.9513834993	 1.6930052353	-1.419584547	 0.280155
H	-0.6897992241	 0.7332758472	 1.7992754657	 0.083943
H	 0.8589751808	 1.2002667862	 0.1534037981	 0.295446
120.1552	172.9505	195.6211	236.5652	261.5329	279.5698	309.007	389.4357	444.6215	486.7334	512.819	545.4719	635.9572	697.9248	731.9397	772.76	774.8826	899.6527	927.0741	952.5091	972.5266	980.2294	1047.0147	1070.5968	1094.4351	1116.9098	1146.097	1180.324	1216.4708	1236.4072	1265.3981	1301.9057	1340.4116	1354.3305	1408.513	1431.4792	1451.7808	1478.4502	1488.5457	1500.5538	1668.1528	3005.2805	3031.8324	3035.2864	3087.5115	3088.664	3131.5882	3192.107	3216.1084	3744.4485	3805.8863
CC12CC=CC1(O)C2O	C[C@]12CC=C[C@@]1(O)[C@@H]2O	
InChI=1S/C7H10O2/c1-6-3-2-4-7(6,9)5(6)8/h2,4-5,8-9H,3H2,1H3	InChI=1S/C7H10O2/c1-6-3-2-4-7(6,9)5(6)8/h2,4-5,8-9H,3H2,1H3/t5-,6-,7-/m1/s1
