19
gdb 1721	4.4656415	0.7077435	0.6858307	1.7201	79.21	-0.24773	0.02582	0.27355	1680.8937	0.153517	-422.489857	-422.479845	-422.478901	-422.52564	36.108	
O	 2.9660664064	-2.4100456712	-0.1846550302	-0.472512
C	 2.2000715571	-2.09188937	 0.9425838078	 0.42891
C	 1.1253496535	-1.0784727408	 0.6534838367	-0.121296
O	 0.2952344215	-1.6379795733	-0.3552314188	-0.264127
C	-0.6521675493	-0.7186979937	-0.8640102178	-0.201551
C	-1.4297573574	-1.3426647269	-1.9260895733	 0.277397
C	-2.0820358012	-1.8344256476	-2.8060456314	-0.411073
C	 1.9596696055	-3.1725700398	 1.9693140165	-0.312695
C	 2.9463505606	-2.0508363782	 2.2365585479	-0.315927
H	 2.334363154	-2.6708355404	-0.8666596035	 0.289254
H	 0.5417735686	-0.8474570291	 1.5584797078	 0.089042
H	 1.579518898	-0.1426210262	 0.2887294469	 0.096731
H	-1.3267884308	-0.3778552325	-0.0604165157	 0.121092
H	-0.1453595547	 0.1809354134	-1.2528207103	 0.12254
H	-2.6572909687	-2.2739860112	-3.5831207037	 0.20282
H	 1.0218357245	-3.1810785427	 2.5142048716	 0.111832
H	 2.3703708873	-4.1497022659	 1.7441989011	 0.120036
H	 2.6887430994	-1.290904277	 2.966706004	 0.111798
H	 4.0019475657	-2.2903558769	 2.1822436743	 0.127729
42.9975	76.2371	89.4374	144.8676	203.8005	286.367	331.3164	332.7918	371.104	402.7832	459.7136	474.4112	585.7688	611.3486	679.4975	753.4082	777.1873	891.5452	926.0397	939.4836	979.2517	985.514	1024.7405	1034.8987	1048.8241	1070.6269	1084.4055	1133.7678	1189.4419	1224.7175	1252.7397	1288.1567	1320.9674	1363.2132	1413.2125	1448.2882	1455.68	1494.1545	1510.7052	1513.3923	2248.7014	2954.779	2968.0413	2975.9245	3005.9055	3134.7793	3138.1837	3220.6783	3234.4249	3505.0207	3781.2475
OC1(COCC#C)CC1	OC1(COCC#C)CC1	
InChI=1S/C7H10O2/c1-2-5-9-6-7(8)3-4-7/h1,8H,3-6H2	InChI=1S/C7H10O2/c1-2-5-9-6-7(8)3-4-7/h1,8H,3-6H2
