19
gdb 4184	2.5554662	1.6280412	1.1400844	2.6033	75.69	-0.2407	-0.02043	0.22027	1103.6935	0.156607	-422.583737	-422.575088	-422.574144	-422.61666	33.108	
C	-0.5439973443	 2.2961419782	 1.0636866179	-0.401461
C	-0.8888145136	 1.1839473169	 0.075414322	-0.111292
C	-2.359145355	 0.6880813208	 0.1110178427	-0.23394
C	-2.3145844012	-0.8016424006	-0.2300323805	-0.111989
C	-1.5598205882	-1.1845334907	-1.4741237029	-0.348063
C	-0.8678589324	-1.2787869846	-0.1298591538	 0.355394
O	-0.4523634529	-2.5039459308	 0.3518736037	-0.475226
C	-0.0845471045	-0.0957415878	 0.3164154706	 0.338978
O	 0.9714106766	-0.1981612971	 0.902864975	-0.361719
H	-0.7896550422	 1.997264258	 2.0876917471	 0.124156
H	 0.5253598536	 2.5193722933	 1.0317084918	 0.136369
H	-1.0994660888	 3.2097773426	 0.8325105139	 0.115122
H	-0.6414898865	 1.5278106649	-0.9389785232	 0.107225
H	-2.7596486768	 0.8212351708	 1.1225487884	 0.111079
H	-3.0045212607	 1.2514953222	-0.5717190595	 0.105495
H	-3.1187923876	-1.4489357166	 0.1000496191	 0.1055
H	-1.7934603212	-2.1552681166	-1.8978548336	 0.133979
H	-1.2689055954	-0.4305443635	-2.1995019308	 0.115422
H	 0.366308351	-2.3150260894	 0.8364591821	 0.294969
86.876	159.1024	194.7703	236.1614	291.0651	315.231	352.8201	376.3395	447.6294	510.197	518.4437	584.5857	674.4472	756.4156	825.4114	846.5202	885.2298	907.3907	924.3903	981.877	996.1489	1052.0474	1054.0006	1081.4476	1083.461	1134.676	1145.4879	1207.2196	1220.0702	1283.0466	1301.9079	1322.897	1355.0393	1398.0922	1411.923	1433.4108	1484.3916	1492.5223	1496.4775	1500.3318	1805.5569	3008.0117	3034.8708	3042.5438	3075.4989	3110.6332	3121.4325	3124.9297	3182.688	3216.3538	3709.0289
CC1CC2CC2(O)C1=O	C[C@@H]1C[C@H]2C[C@@]2(O)C1=O	
InChI=1S/C7H10O2/c1-4-2-5-3-7(5,9)6(4)8/h4-5,9H,2-3H2,1H3	InChI=1S/C7H10O2/c1-4-2-5-3-7(5,9)6(4)8/h4-5,9H,2-3H2,1H3/t4-,5+,7+/m1/s1
