19
gdb 1461	2.4727643	1.7607692	1.5494328	3.1384	73.14	-0.25825	0.05713	0.31538	973.7177	0.156124	-422.527655	-422.519589	-422.518645	-422.559597	31.749	
C	 2.0670997853	 1.3716408932	 0.097381596	-0.43767
C	 1.4401556084	-0.0297707176	 0.0286219103	 0.210771
C	-0.092860799	 0.0335913915	-0.0042149306	-0.423116
C	 1.9562613388	-0.8595138156	 1.2184838475	 0.010983
O	 1.5072303397	-2.2126267535	 1.280142813	-0.241548
C	 2.808960268	-1.9632360126	 0.746009903	 0.000143
C	 2.8439218939	-1.9043679068	-0.7725565226	 0.000144
O	 1.5685606317	-2.1093641209	-1.383636811	-0.241548
C	 2.0118713724	-0.765878693	-1.1968944831	 0.010984
H	 1.7349497352	 1.902642903	 0.9954202242	 0.120561
H	 3.1614833173	 1.3230619676	 0.1206912712	 0.117847
H	 1.7756171243	 1.9711266656	-0.7711890953	 0.120561
H	-0.4826851635	 0.5282352083	 0.8918049125	 0.110674
H	-0.4419816196	 0.5967693612	-0.8762427255	 0.110674
H	-0.5061852803	-0.9756972526	-0.0528531745	 0.151634
H	 2.0845923758	-0.3711188112	 2.1838451681	 0.090881
H	 3.6454792627	-2.3751339485	 1.3030856134	 0.098573
H	 3.7058931328	-2.273414955	-1.3207971373	 0.098572
H	 2.1835587661	-0.2044851734	-2.1146534495	 0.090881
149.2816	196.396	226.3153	248.447	308.796	328.0072	329.0454	417.5638	542.3091	569.1067	580.0155	721.5677	813.0265	824.3325	854.5795	882.4446	893.5155	935.7069	952.0775	952.9297	962.4184	1017.0812	1050.2945	1053.343	1092.6462	1107.9068	1199.054	1232.6663	1240.6543	1259.5893	1272.5822	1294.6826	1345.5458	1394.8538	1405.02	1422.9924	1434.1692	1487.2715	1488.9373	1503.0156	1511.2465	3028.1807	3035.1109	3096.1346	3096.884	3102.4343	3114.1091	3117.5889	3136.6973	3151.6312	3165.7343
CC1(C)C2OC2C2OC12	CC1(C)[C@H]2O[C@H]2[C@H]2O[C@@H]12	
InChI=1S/C7H10O2/c1-7(2)5-3(8-5)4-6(7)9-4/h3-6H,1-2H3	InChI=1S/C7H10O2/c1-7(2)5-3(8-5)4-6(7)9-4/h3-6H,1-2H3/t3-,4+,5-,6+
