19
gdb 3664	2.8255161	1.3433334	1.2327519	1.7578	76.24	-0.248	0.06519	0.31318999999999997	1100.0547	0.156002	-422.488609	-422.480119	-422.479175	-422.521247	33.167	
O	-0.693240633	 1.18357651	 0.2880317769	-0.422017
C	-1.8396910793	 0.3834413122	 0.4032129805	-0.041432
C	-3.0259088494	 0.806840813	-0.4473655158	-0.408718
C	-2.2831988949	-0.4529480435	-0.7443907536	 0.360055
C	-1.5521424841	-0.9649503163	-1.9954078589	-0.141576
C	-1.2132658018	-2.2579337432	-1.1913239078	-0.289685
C	-2.7152582384	-1.9350192141	-0.8897213502	 0.323469
O	-3.6225641225	-2.6470552428	-0.1326701024	-0.466815
C	-2.8956926324	-1.6529372474	-2.4016373973	-0.250178
H	 0.0753038589	 0.6040172768	 0.3051297384	 0.285629
H	-2.0575369463	 0.0439834446	 1.4185636041	 0.07327
H	-4.0163105868	 0.7489856073	-0.0056590718	 0.115151
H	-2.8590896527	 1.6655866929	-1.0901008621	 0.123841
H	-0.8836148838	-0.3999108798	-2.6390351398	 0.089233
H	-1.0198568292	-3.1594536864	-1.778578187	 0.094347
H	-0.5086187988	-2.1520268639	-0.3611557453	 0.077577
H	-3.2655683802	-2.7516416108	 0.7560984845	 0.284287
H	-2.8154418594	-2.5161722027	-3.0676499558	 0.091739
H	-3.718796486	-0.991522826	-2.6782713265	 0.101823
123.4044	149.3138	183.0273	256.2391	274.1539	297.4282	376.9223	445.4359	462.9681	506.1163	628.9461	647.2457	679.2286	772.5071	804.3948	847.2714	913.1851	938.953	947.2845	950.2967	1001.3847	1015.2149	1045.4007	1059.9864	1062.196	1109.2117	1121.8573	1138.3221	1149.7021	1167.2286	1194.2484	1204.9418	1219.5027	1291.0358	1300.498	1362.8186	1371.4494	1427.1221	1488.5229	1496.0748	1540.4119	3045.215	3059.6303	3065.3046	3115.0937	3120.604	3132.5389	3157.9425	3209.2721	3806.6223	3807.926
OC1CC11C2CC1(O)C2	O[C@H]1C[C@]21[C@H]1C[C@]2(O)C1	
InChI=1S/C7H10O2/c8-5-3-7(5)4-1-6(7,9)2-4/h4-5,8-9H,1-3H2	InChI=1S/C7H10O2/c8-5-3-7(5)4-1-6(7,9)2-4/h4-5,8-9H,1-3H2/t4-,5-,6-,7+/m0/s1
