19
gdb 5120	3.3083253	1.3863397	1.2694396	1.796	73.84	-0.25647	0.07317	0.32964	1058.5924	0.158548	-422.516563	-422.509048	-422.508104	-422.548597	29.985	
O	 1.1618671281	 0.6898242049	-0.6026438786	-0.416836
C	 0.0380803836	 0.1641270679	 0.0884692439	-0.169513
C	-1.2086473651	 0.2468155506	-0.7387899831	 0.411138
O	-1.3265040849	-0.7417725003	-1.7922895026	-0.310865
C	-2.3334790612	-0.6884660534	-0.7662339802	-0.031993
C	-3.5161021959	 0.2691950982	-1.0386815412	-0.078691
C	-3.1460917051	 1.4187212312	-0.0344511955	-0.223019
C	-1.934609694	 1.585490609	-1.0204038529	-0.111335
C	-2.941450181	 1.2034816839	-2.1396805426	-0.216343
H	 1.2550950769	 0.1761107541	-1.412778305	 0.292454
H	 0.203751165	-0.8791152503	 0.395180169	 0.094306
H	-0.0706311948	 0.7712896765	 0.9939157861	 0.112931
H	-2.4323628004	-1.5742741814	-0.1466711684	 0.099099
H	-4.5159628196	-0.1595650686	-1.0968902051	 0.066969
H	-3.845398431	 2.258292177	-0.0602449142	 0.100004
H	-2.9288611509	 1.1405559314	 1.001883063	 0.092787
H	-1.3246380803	 2.4865897342	-1.0582574955	 0.075733
H	-3.6243737754	 2.0243626307	-2.3650493304	 0.095915
H	-2.5551446439	 0.7514878045	-3.0509448269	 0.117258
78.1005	142.3813	260.5707	325.9741	399.9569	430.7892	475.4143	518.0113	590.4848	677.6749	706.3636	812.4258	841.2011	847.7888	855.3526	884.9082	931.222	955.1089	974.131	994.0201	1010.5265	1025.7228	1067.0774	1070.4807	1087.2548	1108.8263	1121.3537	1172.5367	1223.5665	1233.4242	1241.8043	1248.3953	1276.7129	1291.2953	1306.6962	1372.5225	1421.0778	1459.1606	1480.7504	1488.255	1516.4809	2996.6231	3047.0508	3072.3776	3088.1448	3110.8332	3121.4094	3131.7142	3160.9732	3166.9995	3803.7311
OCC12OC1C1CC2C1	OC[C@@]12O[C@@H]1[C@H]1C[C@@H]2C1	
InChI=1S/C7H10O2/c8-3-7-5-1-4(2-5)6(7)9-7/h4-6,8H,1-3H2	InChI=1S/C7H10O2/c8-3-7-5-1-4(2-5)6(7)9-7/h4-6,8H,1-3H2/t4-,5+,6-,7+/m1/s1
