19
gdb 492	3.8474706	1.2787896	1.1700624	2.5331	74.37	-0.24522	0.06434	0.30956	1104.0723	0.157496	-422.497988	-422.490264	-422.48932	-422.530647	29.396	
C	-1.7046771916	 3.9523351336	-0.2896293255	-0.23171
C	-0.82545524	 3.4382606546	-1.4743025056	-0.239648
C	-1.174078551	 1.9681383152	-1.101994251	-0.164418
C	-1.9921079799	 2.4907296043	 0.1118645248	 0.116628
O	-1.0075330749	 1.9612180601	 1.0303482202	-0.32662
C	-0.2672237073	 1.3400771463	-0.0332037731	 0.375134
C	 1.2688704865	 1.421775548	-0.02131496	-0.133421
O	 1.3822136062	-0.0120108272	-0.1333730196	-0.274989
C	-0.0382861646	-0.182952115	 0.0485646156	-0.135213
H	-1.2001333029	 4.5334956211	 0.4849405547	 0.113293
H	-2.5953263181	 4.4945803365	-0.6184847879	 0.104093
H	-1.2007708016	 3.7339532152	-2.4559106692	 0.108515
H	 0.2371284132	 3.6907651565	-1.4298053823	 0.106921
H	-1.5554422637	 1.3134467807	-1.8847083253	 0.079616
H	-3.008547114	 2.1939074599	 0.3813606104	 0.078792
H	 1.7512585731	 1.9424593045	-0.8573095366	 0.103266
H	 1.6680492037	 1.8016880738	 0.9282134911	 0.110335
H	-0.4870347175	-0.8018641102	-0.7379742337	 0.101021
H	-0.2894670856	-0.5951766378	 1.0346122629	 0.108406
78.5592	89.8336	192.817	255.5426	344.7649	383.3777	451.4991	509.472	722.6641	747.2975	782.9849	835.6264	850.7307	902.3009	920.5358	931.6857	952.001	970.9921	994.2911	1008.6761	1028.766	1045.2543	1098.8541	1147.3466	1150.7616	1155.3509	1176.9038	1181.3039	1196.7362	1232.6472	1248.4209	1272.5673	1285.1707	1296.2484	1323.6279	1333.7505	1381.8922	1464.0861	1489.2559	1493.7402	1520.7923	3004.8416	3017.2536	3060.357	3061.4625	3061.7947	3066.7611	3079.9449	3107.7128	3118.5474	3129.0589
C1CC2C1OC21COC1	C1C[C@@H]2[C@H]1OC12COC1	
InChI=1S/C7H10O2/c1-2-6-5(1)7(9-6)3-8-4-7/h5-6H,1-4H2	InChI=1S/C7H10O2/c1-2-6-5(1)7(9-6)3-8-4-7/h5-6H,1-4H2/t5-,6+/m1/s1
