19
gdb 769	2.2084813	1.8866086	1.2104365	2.39	74.74	-0.23565	-0.02156	0.21409	1055.1923	0.158095	-422.557786	-422.549869	-422.548925	-422.590354	30.629	
O	-0.2546369647	 0.2544500823	-3.3923473208	-0.304218
C	 0.843220131	 0.0575844557	-2.9294531658	 0.312607
C	 1.464432529	-1.3515348989	-2.9975170071	-0.179353
O	 2.6431037601	-1.5209673193	-2.2498845834	-0.22455
C	 2.458339238	-1.6172573215	-0.844578009	-0.06972
C	 1.6831472105	-0.4335609166	-0.2339537414	-0.270684
C	 2.1098242888	 0.8859276327	-0.8430987278	 0.01768
C	 1.0899622676	 1.9559716044	-1.163474788	-0.316999
C	 1.6821614734	 1.1270744339	-2.2692119682	-0.091089
H	 0.6801324352	-2.0749461488	-2.7252026783	 0.118038
H	 1.7278917536	-1.5446467565	-4.0443711551	 0.138351
H	 1.9536879339	-2.5629101698	-0.5893962846	 0.093526
H	 3.4725178488	-1.659765573	-0.4351632562	 0.112038
H	 0.6065332673	-0.5742065892	-0.3954933608	 0.114821
H	 1.8257077735	-0.442836818	 0.8529180233	 0.106369
H	 3.1077656748	 1.2203865824	-0.57313734	 0.087804
H	 0.0523717778	 1.7728729339	-0.9029387541	 0.126439
H	 1.3922167271	 2.994210831	-1.0851236422	 0.116543
H	 2.3988891544	 1.5906927252	-2.9421807706	 0.112398
58.2944	178.4012	236.7988	269.9781	327.2054	362.1286	396.9008	466.1478	542.6274	609.7995	643.6145	710.7962	793.8868	827.1106	854.0504	912.8077	930.2747	954.4472	998.5102	1022.5713	1038.9691	1072.1498	1092.9387	1117.464	1122.9012	1175.3223	1188.4726	1209.6144	1256.7358	1266.5541	1304.6899	1340.1106	1356.7164	1369.1385	1406.1879	1421.7391	1453.2089	1487.1473	1491.1452	1500.8102	1810.9599	2979.5782	2991.9547	3026.34	3060.5418	3063.5564	3083.0221	3132.9303	3139.2483	3148.7362	3218.7981
O=C1COCCC2CC12	O=C1COCC[C@@H]2C[C@H]12	
InChI=1S/C7H10O2/c8-7-4-9-2-1-5-3-6(5)7/h5-6H,1-4H2	InChI=1S/C7H10O2/c8-7-4-9-2-1-5-3-6(5)7/h5-6H,1-4H2/t5-,6+/m1/s1
