19
gdb 3907	3.3123475	1.1626596	1.0186647	3.2378	76.09	-0.23949	-0.0299	0.20959	1231.262	0.15573	-422.539225	-422.53022	-422.529276	-422.573718	32.211	
C	-0.9602463869	 2.2581597453	 1.1175004238	-0.40776
C	-1.0257680132	 1.1223633466	 0.1052279964	-0.087906
C	-2.15540516	 0.0414682344	 0.1975710633	-0.347661
C	-1.108176871	-1.0927817392	 0.0450101791	 0.175693
C	-1.0962975998	-2.4267496041	 0.813061122	-0.132249
O	-1.0247018637	-3.1957467082	-0.4037086599	-0.269171
C	-1.0536127275	-2.0054100666	-1.207638176	-0.118132
C	-0.020624626	-0.0329267055	 0.2526492665	 0.336092
O	 1.1400215967	-0.0971415252	 0.5432750534	-0.304801
H	-1.0345529881	 1.8767527082	 2.1412378134	 0.121368
H	-0.0114924222	 2.7956787556	 1.0300390203	 0.138082
H	-1.7743849642	 2.9728869313	 0.9624693782	 0.122221
H	-0.9602970034	 1.5188824169	-0.9165866472	 0.106169
H	-2.6347983413	 0.0303948698	 1.1811893744	 0.112544
H	-2.9296303234	 0.0826271623	-0.5714284524	 0.109901
H	-0.2147021148	-2.5774006327	 1.4479185056	 0.121442
H	-2.0073230837	-2.6400228257	 1.3870562908	 0.10417
H	-0.1561725651	-1.9056799845	-1.8305465055	 0.115711
H	-1.9480393223	-1.9523192485	-1.8428234361	 0.104288
48.0304	79.0665	155.662	194.5716	209.588	251.4518	273.9375	344.7406	453.8046	535.0214	690.6484	706.6363	775.1493	846.1662	858.9752	897.5217	932.7906	949.3616	954.8107	995.0511	1048.88	1075.2152	1115.5601	1147.9006	1160.1337	1163.9821	1168.3507	1205.2467	1218.0613	1241.1134	1291.0405	1308.6126	1332.9311	1371.8637	1407.5745	1481.7036	1494.646	1495.9869	1501.5793	1526.261	1879.3705	2999.9464	3012.5875	3026.7177	3036.6397	3053.0975	3057.1243	3060.646	3105.0191	3113.7059	3116.1112
CC1CC2(COC2)C1=O	C[C@@H]1CC2(COC2)C1=O	
InChI=1S/C7H10O2/c1-5-2-7(6(5)8)3-9-4-7/h5H,2-4H2,1H3	InChI=1S/C7H10O2/c1-5-2-7(6(5)8)3-9-4-7/h5H,2-4H2,1H3/t5-/m1/s1
