19
gdb 1414	2.7532203	1.8660035	1.6397045	1.8461	72.22	-0.23441	0.08812	0.32253	915.1132	0.158751	-422.569665	-422.562411	-422.561466	-422.600684	30.227	
C	-0.0469372113	 0.2352887175	 0.1534203348	-0.442845
C	 1.4311831306	-0.0733564846	-0.0253267164	 0.450653
O	 1.5452124674	-0.8484225612	-1.2058476398	-0.499995
C	 2.1290210236	-0.7344517075	 1.1729627985	-0.163646
C	 2.7298301103	 0.38143825	 2.0314479133	-0.115159
C	 2.382941894	 1.7083818319	 1.3618245861	-0.239735
C	 2.3952393025	 1.1517457636	-0.0714415774	-0.017839
O	 3.678119928	 0.4914913027	-0.1513759877	-0.281392
C	 3.5722867494	-0.3349856934	 1.0054952075	 0.067161
H	-0.2513038656	 0.739790763	 1.0998306969	 0.117978
H	-0.4088636651	 0.8597740915	-0.6693346745	 0.121589
H	-0.6147203985	-0.6992971957	 0.1357091629	 0.129682
H	 2.4892976355	-0.8806711761	-1.4091591908	 0.283928
H	 1.8179602388	-1.692027331	 1.5679744922	 0.091452
H	 2.8965932985	 0.2759093045	 3.0949622091	 0.091761
H	 1.4139497722	 2.1189168185	 1.6526384294	 0.107906
H	 3.154325896	 2.4692520281	 1.5115537061	 0.108696
H	 2.2796010602	 1.8361233937	-0.9091286489	 0.083988
H	 4.4400235435	-0.9472352556	 1.2033529387	 0.105818
179.1915	220.9683	250.8761	363.9841	379.5224	443.2712	489.5873	549.8448	569.8159	626.1536	722.4545	740.0817	804.7075	818.935	858.1867	901.8474	929.025	944.5301	962.1685	965.3618	986.0777	1009.9416	1039.6246	1055.2611	1067.7686	1080.3667	1109.5016	1146.9716	1194.7171	1198.8991	1224.1365	1246.6154	1281.4034	1306.0373	1331.1067	1373.6303	1398.5254	1428.5732	1480.2352	1490.8915	1503.5452	3046.4863	3065.5642	3112.4589	3116.5518	3135.3031	3152.8145	3204.119	3211.0776	3229.8242	3767.4003
CC1(O)C2C3CC1OC23	C[C@]1(O)[C@@H]2[C@@H]3C[C@H]1O[C@H]23	
InChI=1S/C7H10O2/c1-7(8)4-2-3-5(7)6(3)9-4/h3-6,8H,2H2,1H3	InChI=1S/C7H10O2/c1-7(8)4-2-3-5(7)6(3)9-4/h3-6,8H,2H2,1H3/t3-,4+,5+,6-,7+/m0/s1
