19
gdb 526	2.3695419	1.9351966	1.827124	1.1168	73.05	-0.25013	0.0769	0.32703000000000004	909.8601	0.158187	-422.522397	-422.515052	-422.514108	-422.553973	29.332	
C	 0.0810698678	 2.1193122937	 0.7600121879	-0.29344
C	 1.3109127433	 1.6118750526	-0.0821695515	-0.29344
C	 0.322594684	 1.0258711101	-1.1241672426	 0.369836
C	-0.125170582	 1.8832230472	-2.3429947625	-0.30183
C	-1.3551722919	 2.3907464721	-1.5006977257	-0.301829
C	-0.867004333	 1.5167085127	-0.3095469668	 0.369835
O	-1.5963950533	 0.366115696	 0.0544052984	-0.308264
C	-1.1426312013	-0.6577730409	-0.825628919	-0.011973
O	 0.2080028554	-0.3783919207	-1.1812085883	-0.308263
H	-0.0271629347	 1.6365448185	 1.7322502661	 0.117019
H	 0.0130227258	 3.2018011765	 0.8893090434	 0.101385
H	 1.9788760235	 2.3906828482	-0.4568877089	 0.101385
H	 1.9040316186	 0.8397302707	 0.4097940587	 0.11702
H	 0.5827549506	 2.6519862267	-2.6618105309	 0.10288
H	-0.3963502008	 1.2779039351	-3.2109438166	 0.111836
H	-1.3903308339	 3.4661250676	-1.3106336778	 0.102881
H	-2.3254200568	 2.0738918424	-1.8899366476	 0.111836
H	-1.1834162345	-1.619055745	-0.3059776972	 0.122304
H	-1.7743108967	-0.6889084437	-1.7293255292	 0.090823
91.3533	186.8725	265.1327	321.4157	332.5139	401.0541	530.7933	651.7008	660.235	666.7287	725.9108	730.2167	750.307	876.551	879.5528	898.6138	920.1113	953.0933	992.9761	1002.3929	1007.2204	1069.479	1129.4875	1159.2376	1175.5873	1186.4643	1209.6264	1218.2763	1222.8334	1234.5242	1246.1018	1253.0357	1277.1459	1282.8891	1285.6077	1420.3951	1458.5306	1466.5765	1469.0487	1484.4945	1541.9099	2959.3463	3061.461	3066.7542	3069.3116	3075.0056	3091.2722	3110.8725	3124.7029	3128.6694	3141.3269
C1CC23CCC12OCO3	C1C[C@]23CC[C@]12OCO3	
InChI=1S/C7H10O2/c1-2-7-4-3-6(1,7)8-5-9-7/h1-5H2	InChI=1S/C7H10O2/c1-2-7-4-3-6(1,7)8-5-9-7/h1-5H2/t6-,7+
