19
gdb 1025	4.2535774	0.6563129	0.6043674	1.691	83.27	-0.24433	0.02844	0.27277	1888.68	0.153049	-422.508954	-422.498097	-422.497153	-422.546599	37.015	
C	 1.539987742	-0.0335182366	-0.0205230244	-0.501697
C	 0.0859098306	-0.0728944138	-0.0241999528	 0.142905
C	-1.1181385833	-0.1031485458	-0.0212073954	 0.050589
C	-2.5539282876	-0.136965381	-0.0500531335	-0.175974
O	-3.2609291848	 0.6025909655	 0.9729010081	-0.245987
C	-3.3495824155	-0.817993324	 0.988754145	 0.051943
C	-4.7124011936	-1.416781412	 0.6941217753	 0.100192
C	-5.6709707563	-1.2163551715	 1.866643854	-0.411156
O	-4.581887592	-2.7856149345	 0.3283910114	-0.424583
H	 1.9657550938	-1.0073855028	 0.2451234015	 0.150876
H	 1.9315121287	 0.245016494	-1.0049130495	 0.152719
H	 1.9102471454	 0.7002202481	 0.7038254462	 0.155144
H	-3.0061041588	-0.0464006679	-1.0375745763	 0.11504
H	-2.8003661223	-1.2941224659	 1.8055907454	 0.089397
H	-5.1177478964	-0.9182469251	-0.1935994369	 0.096952
H	-5.287323003	-1.7073331726	 2.7703704613	 0.106992
H	-5.7880023378	-0.1515461824	 2.0879509872	 0.139896
H	-6.6506171865	-1.6419890805	 1.6338883561	 0.126191
H	-4.3560989324	-3.283735941	 1.1218316771	 0.280559
27.7063	57.8489	73.1478	97.3435	178.8369	226.2183	257.8528	273.5479	289.0853	333.7954	367.4821	452.5985	483.4248	514.2967	545.1223	793.2195	841.0895	878.6218	920.0644	957.3822	1049.6497	1051.9538	1056.1363	1094.1027	1096.6851	1139.75	1176.1082	1186.0679	1263.7534	1278.7269	1326.2156	1378.0831	1398.7226	1408.8648	1413.6857	1472.2673	1475.5874	1477.2025	1492.1717	1496.5458	2372.0479	3024.2195	3028.6703	3051.637	3077.9355	3089.961	3092.2741	3099.7251	3111.2578	3126.4017	3800.8608
CC#CC1OC1C(C)O	CC#C[C@@H]1O[C@H]1[C@H](C)O	
InChI=1S/C7H10O2/c1-3-4-6-7(9-6)5(2)8/h5-8H,1-2H3	InChI=1S/C7H10O2/c1-3-4-6-7(9-6)5(2)8/h5-8H,1-2H3/t5-,6-,7-/m0/s1
