19
gdb 5254	3.5128466	1.2727727	1.1933145	1.8923	74.4	-0.22946	0.07403	0.30349	1103.8252	0.158398	-422.525935	-422.518164	-422.51722	-422.558263	30.223	
O	 0.8476433585	 0.6685622701	-0.4535620934	-0.41357
C	 0.0990899028	-0.2815271648	 0.2942102118	-0.179606
C	-0.4135983739	 0.2843432424	 1.5835992769	 0.278517
C	-1.4616053188	 1.3914476245	 1.7254451901	-0.279058
C	-1.7953804267	 0.8470739653	 3.1521769295	-0.075113
C	-0.9272154947	 1.5539035458	 4.1910405746	-0.078487
O	 0.418208205	 1.3266481573	 3.7412377787	-0.268355
C	 0.3741263426	 0.2044639376	 2.8884732273	 0.058191
C	-0.9682933276	-0.4313835125	 2.8276103627	-0.189155
H	 1.5321624783	 1.0153272477	 0.1287930151	 0.284111
H	-0.7335032414	-0.5731468247	-0.356922968	 0.107734
H	 0.6870329754	-1.1934093793	 0.4949521703	 0.082051
H	-1.118244579	 2.4288513169	 1.65744405	 0.100941
H	-2.2898061714	 1.2387291524	 1.0281628417	 0.102618
H	-2.8461239388	 0.7449792265	 3.4192932786	 0.077209
H	-1.0953529397	 2.6349773645	 4.2326240413	 0.108807
H	-1.0675096827	 1.1318706041	 5.1978901487	 0.092563
H	 1.2817290788	-0.3889636216	 2.9066063815	 0.099715
H	-1.2138064466	-1.4685419223	 3.0151339327	 0.090887
87.4913	128.4193	242.1864	265.053	335.5564	383.7122	399.4645	469.0944	622.6631	711.1555	733.4901	767.6306	841.0537	861.6686	892.0327	904.8295	933.6569	955.2051	969.6925	1019.2502	1026.5716	1051.4638	1056.2562	1076.6175	1106.8779	1150.4709	1163.7738	1188.1482	1219.3388	1238.9384	1240.5708	1279.9501	1290.6047	1320.6968	1363.6281	1375.1628	1417.0333	1432.8388	1493.2603	1503.2292	1512.8443	2958.4207	2988.4204	3044.4089	3053.6202	3075.0804	3099.6522	3127.4249	3176.8291	3197.017	3806.2617
OCC12CC3COC1C23	OC[C@]12C[C@@H]3CO[C@H]1[C@H]23	
InChI=1S/C7H10O2/c8-3-7-1-4-2-9-6(7)5(4)7/h4-6,8H,1-3H2	InChI=1S/C7H10O2/c8-3-7-1-4-2-9-6(7)5(4)7/h4-6,8H,1-3H2/t4-,5-,6+,7+/m1/s1
