19
gdb 1357	2.209786	1.3174665	0.8786385	1.7274	76.7	-0.24079	0.0534	0.29419	1318.8296	0.154481	-422.499383	-422.489501	-422.488557	-422.535329	35.044	
O	 4.5194106117	-1.2619574687	-0.625928832	-0.431413
C	 3.0991787988	-1.2760317001	-0.5573294129	 0.081644
C	 2.5812314568	 0.0561512209	 0.0351522129	-0.383962
C	 1.1702461665	 0.0649818556	 0.3961702602	 0.326028
C	 0.0175646444	 0.0731532099	 0.7343552041	-0.454579
C	 2.6533633724	-1.5161209162	-1.9963281899	 0.180477
C	 2.9610956462	-2.9068512926	-2.5881980631	-0.290154
C	 1.4315226796	-3.0134038695	-2.7513784689	-0.06386
O	 1.233574792	-1.7244941555	-2.129132094	-0.285497
H	 4.8665514231	-1.2196793744	 0.270398618	 0.287403
H	 2.7372097087	-2.1076196924	 0.0661453298	 0.077975
H	 3.1768069027	 0.2709462868	 0.9338014219	 0.114744
H	 2.8042076106	 0.863057427	-0.6743829341	 0.136153
H	-1.008958787	 0.0766315546	 1.0045985145	 0.193421
H	 2.9961867689	-0.6735592777	-2.6139825279	 0.077955
H	 3.5438942639	-2.9123821306	-3.5094739917	 0.112978
H	 3.4070391008	-3.6056059478	-1.8787190334	 0.114251
H	 1.0671278233	-3.0233500192	-3.7860531174	 0.102047
H	 0.9345884164	-3.8160557302	-2.1938925261	 0.104388
35.9201	69.8064	86.5175	149.7498	184.3307	264.6046	313.1387	341.1028	357.8242	411.2692	472.1899	549.6866	623.4626	644.3563	760.6401	805.8263	861.0617	937.3843	951.907	974.405	994.3347	1040.9993	1043.3876	1081.2879	1104.9224	1117.378	1162.7661	1204.638	1211.0166	1251.7998	1255.1127	1283.001	1303.4779	1357.4267	1363.7948	1378.594	1442.4408	1469.4704	1493.5661	1531.2264	2242.5234	2987.3462	3004.4519	3006.247	3018.2028	3050.4233	3057.3706	3087.4932	3142.2138	3508.778	3823.2745
OC(CC#C)C1CCO1	O[C@@H](CC#C)[C@H]1CCO1	
InChI=1S/C7H10O2/c1-2-3-6(8)7-4-5-9-7/h1,6-8H,3-5H2	InChI=1S/C7H10O2/c1-2-3-6(8)7-4-5-9-7/h1,6-8H,3-5H2/t6-,7+/m0/s1
