19
gdb 5933	1.7626641	1.2676688	0.8424517	1.8993	76.59	-0.26018	0.04491	0.30509000000000003	1397.0786	0.153761	-422.499834	-422.489685	-422.488741	-422.535925	36.231	
O	 2.5812465756	 3.8206625633	 2.2625121108	-0.414761
C	 3.0238328972	 2.7064100177	 1.5072242915	-0.058398
C	 2.7002821867	 1.3726456162	 2.1914044167	-0.29401
C	 3.1584495752	 0.1555681084	 1.4116893316	 0.414937
C	 2.5038000102	-0.0947609883	 0.051493553	-0.427302
C	 1.0456842469	-0.1135108649	 0.0977028597	 0.310005
C	-0.1550736591	-0.1167625296	 0.1429485913	-0.442133
C	 4.502201751	-0.3992993073	 1.6364698413	-0.23342
O	 3.3464322208	-1.0267219668	 2.1967136625	-0.272399
H	 3.0431464186	 3.8072451439	 3.1069795108	 0.28174
H	 2.4992498268	 2.7801423513	 0.5490901148	 0.120067
H	 4.1035186919	 2.7683713546	 1.2927128037	 0.085711
H	 3.1818777408	 1.3400610111	 3.176121435	 0.096136
H	 1.619319719	 1.3130269294	 2.3554130253	 0.132435
H	 2.8361042411	 0.6765707506	-0.6560235882	 0.137015
H	 2.8747485823	-1.0519572159	-0.3311148224	 0.1402
H	-1.2162721551	-0.1282437185	 0.1790788342	 0.200466
H	 5.0011637754	-0.9578462461	 0.8450896421	 0.112484
H	 5.1698631547	 0.078835971	 2.3523110662	 0.111227
33.3558	85.7474	97.335	149.8453	168.9838	291.4071	324.9339	333.4477	356.3433	363.5396	428.2859	444.5076	561.7255	624.1627	647.7599	764.8895	787.2357	845.583	901.2379	942.6384	968.7438	988.9696	1029.4622	1073.6714	1095.8505	1131.1547	1149.1828	1165.1861	1220.4283	1276.1044	1302.6965	1315.1999	1326.5549	1396.2779	1424.4249	1426.9442	1455.7505	1483.1199	1513.3453	1531.932	2240.2614	2969.1667	3022.3632	3035.9655	3068.7589	3073.4003	3078.2302	3094.5308	3162.3075	3505.7946	3814.5271
OCCC1(CC#C)CO1	OCC[C@@]1(CC#C)CO1	
InChI=1S/C7H10O2/c1-2-3-7(4-5-8)6-9-7/h1,8H,3-6H2	InChI=1S/C7H10O2/c1-2-3-7(4-5-8)6-9-7/h1,8H,3-6H2/t7-/m0/s1
