19
gdb 5272	2.8489027	1.3505553	1.0782605	3.2707	75.92	-0.23822	-0.02024	0.21797999999999998	1163.5449	0.155317	-422.53615	-422.527343	-422.526399	-422.569964	32.591	
C	 1.3720563526	 0.039221408	-0.0373273419	-0.263474
O	-0.0419718974	 0.0666416842	-0.0069767	-0.288936
C	-0.566918092	 0.6456437343	 1.144169148	 0.446263
C	-0.4571065822	-0.13115824	 2.4848459879	-0.290193
C	-1.9876498013	 0.0547441378	 2.7069854348	-0.232841
C	-2.1273876971	 0.7392215394	 1.3042407482	-0.231229
C	-1.988402411	 2.2565526651	 1.4100921314	 0.421005
O	-2.7675428205	 3.1542156182	 1.5525576936	-0.302992
C	-0.4529903481	 2.2014038669	 1.2651329501	-0.42522
H	 1.787657092	-0.5384902342	 0.8007918573	 0.112531
H	 1.6630096775	-0.4397385476	-0.9745945223	 0.132259
H	 1.8006095168	 1.051738115	-0.0073446235	 0.111394
H	-0.1891753034	-1.1768472922	 2.3154808887	 0.113527
H	 0.2077784332	 0.2859158385	 3.245316477	 0.099734
H	-2.5419964667	-0.8819445847	 2.777968737	 0.120543
H	-2.2742555858	 0.6860189197	 3.5509459676	 0.119208
H	-2.8470991246	 0.3187604623	 0.6026471482	 0.097858
H	-0.1393122042	 2.6529931156	 0.317643127	 0.139864
H	 0.1341790622	 2.6340848434	 2.0798523208	 0.1207
55.5553	114.9848	162.1715	187.1234	221.3987	325.2572	379.6129	389.4409	444.822	533.6798	581.2945	632.3644	727.7958	760.2147	839.7761	894.6647	916.6571	939.3882	956.2753	996.4741	1025.2957	1056.32	1122.1616	1126.0597	1138.611	1173.055	1182.7696	1199.6609	1212.8651	1227.0288	1239.1997	1262.0564	1277.0769	1318.3739	1421.9485	1473.2053	1481.8228	1487.489	1495.3767	1507.358	1887.4335	2987.5773	3037.579	3050.1991	3060.8008	3075.1111	3109.0377	3110.7592	3122.7872	3124.5093	3133.9883
COC12CCC1C(=O)C2	CO[C@]12CC[C@H]1C(=O)C2	
InChI=1S/C7H10O2/c1-9-7-3-2-5(7)6(8)4-7/h5H,2-4H2,1H3	InChI=1S/C7H10O2/c1-9-7-3-2-5(7)6(8)4-7/h5H,2-4H2,1H3/t5-,7-/m0/s1
