19
gdb 5445	3.8745598	1.1271681	1.0767839	0.8203	74.91	-0.23932	0.06313	0.30245	1197.7087	0.15679	-422.471313	-422.463317	-422.462373	-422.503942	30.454	
C	 1.4366571258	-0.0325077477	 0.0790195202	-0.240032
O	 0.0266017281	-0.0057363089	 0.1873360895	-0.256151
C	-0.4169562573	 0.7267806613	 1.2857193055	 0.109655
C	-1.8131959442	 1.2318516201	 1.1219366735	-0.120331
C	-0.6105386939	 2.2056119366	 1.0552592174	-0.109289
C	-1.1223309793	 2.8877807772	 2.3366193138	 0.09898
O	-0.6284913835	 2.3633270461	 3.6000259135	-0.302703
C	-1.813355129	 1.5388598998	 3.7675912601	-0.108292
C	-2.346046728	 1.9530039704	 2.3799048315	-0.083027
H	 1.9008343739	-0.4872066964	 0.966844419	 0.110587
H	 1.6791949379	-0.6380189795	-0.7971850487	 0.127065
H	 1.854841519	 0.9757048516	-0.0510026932	 0.109922
H	-0.0339064919	 0.3764001658	 2.2434854996	 0.102834
H	-2.4222704408	 0.8558968413	 0.3094668521	 0.099943
H	-0.1692320971	 2.6973802096	 0.196763459	 0.089237
H	-1.1792669318	 3.978824251	 2.3271487327	 0.080703
H	-1.5696977036	 0.4820565204	 3.9256770339	 0.104787
H	-2.4252757093	 1.8976449968	 4.604297149	 0.102666
H	-3.366241595	 2.3252239244	 2.3048124915	 0.083445
95.3626	152.9328	176.4418	210.4677	250.2501	383.9047	429.1326	440.8836	561.9444	694.0943	785.0664	797.2064	844.3077	862.479	882.6313	928.3283	965.5076	976.5022	985.2592	999.7038	1025.7962	1056.7839	1072.8698	1100.4968	1146.3883	1158.6588	1166.2021	1183.8424	1193.0308	1216.5925	1238.9013	1258.3464	1283.3939	1295.7929	1330.767	1350.1444	1419.7047	1484.1032	1486.1017	1508.817	1520.5864	2986.7506	3017.5464	3038.0019	3064.3829	3080.1744	3108.4757	3120.5234	3128.1857	3182.8829	3195.815
COC1C2C1C1OCC21	CO[C@@H]1[C@@H]2[C@H]1[C@@H]1OC[C@H]21	
InChI=1S/C7H10O2/c1-8-7-4-3-2-9-6(3)5(4)7/h3-7H,2H2,1H3	InChI=1S/C7H10O2/c1-8-7-4-3-2-9-6(3)5(4)7/h3-7H,2H2,1H3/t3-,4+,5+,6-,7-/m1/s1
