19
gdb 1908	2.6279998	1.5363027	1.1787906	2.1929	76.36	-0.23618	-0.0146	0.22158	1096.784	0.156926	-422.571103	-422.562777	-422.561833	-422.603827	32.024	
C	-2.7803110336	-2.2372158113	 1.3903900957	-0.446815
C	-2.2697500246	-1.206990851	 0.4133158129	 0.404756
C	-1.9737192045	-1.5515594375	-1.0085752727	-0.331684
C	-0.817290116	-1.2413959089	-0.0466892235	-0.185177
C	-0.0421249419	 0.0289867581	-0.1451211192	 0.390957
O	 1.1653615779	 0.0363613493	-0.2434633383	-0.327935
C	-0.8641004893	 1.3030445738	-0.0099703869	-0.318201
C	-1.9718770482	 1.0817973631	 1.0281894676	-0.09683
O	-2.8566456203	 0.0592397864	 0.6002507817	-0.296113
H	-2.5239968691	-1.9594226211	 2.417952651	 0.125037
H	-3.8699216536	-2.3133873471	 1.3201866555	 0.132308
H	-2.3511063101	-3.2216402106	 1.1835344216	 0.119362
H	-2.0549731847	-2.5807265497	-1.3399516868	 0.123824
H	-2.2260451253	-0.8063984821	-1.7538326257	 0.128041
H	-0.2102668377	-2.0911132989	 0.2466833603	 0.108464
H	-0.1922348772	 2.1201518871	 0.2652615887	 0.124233
H	-1.3314082313	 1.55318545	-0.970416273	 0.127786
H	-1.5316788342	 0.836952768	 2.0072672228	 0.101584
H	-2.5851606063	 1.9784839824	 1.1502697585	 0.116403
89.1079	133.447	221.2544	232.2956	321.2177	341.2529	410.0494	434.8674	463.2417	501.5677	571.9512	658.3385	721.6806	760.7787	844.5268	871.8342	890.607	927.2824	942.6137	1002.8811	1030.3764	1052.659	1074.9394	1104.3987	1116.0624	1126.0972	1197.1717	1230.6808	1253.602	1274.5927	1298.4758	1336.1975	1389.2178	1404.7045	1421.3919	1451.4119	1478.1726	1481.594	1497.7247	1507.2645	1798.7211	2988.0116	3036.6532	3039.9219	3093.6249	3104.9478	3109.5629	3116.6059	3140.4651	3173.7534	3233.555
CC12CC1C(=O)CCO2	C[C@]12C[C@H]1C(=O)CCO2	
InChI=1S/C7H10O2/c1-7-4-5(7)6(8)2-3-9-7/h5H,2-4H2,1H3	InChI=1S/C7H10O2/c1-7-4-5(7)6(8)2-3-9-7/h5H,2-4H2,1H3/t5-,7-/m0/s1
