19
gdb 4092	2.6576681	1.4379306	1.0704984	1.9945	76.45	-0.24192	0.01407	0.25599	1144.338	0.157564	-422.559814	-422.551505	-422.550561	-422.592561	32.122	
O	-0.7711114207	 2.79456411	 3.5068327873	-0.436528
C	-1.6024546805	 2.1554537916	 2.5622008159	 0.12578
C	-2.7042884278	 3.0076047538	 1.8697666199	-0.282171
C	-2.1637320525	 2.5284026599	 0.4869386946	-0.065875
C	-2.7979795909	 1.2933760007	-0.0901384733	-0.073277
C	-2.0382113895	 0.2051255811	 0.0420455155	-0.071996
C	-0.7206090793	 0.4931920749	 0.7239331634	 0.072561
O	 0.3266170917	 0.3124710368	-0.2283757251	-0.444257
C	-0.8983783975	 1.9480220071	 1.1980173407	-0.057422
H	-1.2772227599	 2.9226601243	 4.3157243491	 0.281487
H	-1.998420634	 1.2106149879	 2.9628067081	 0.064175
H	-3.7473426579	 2.7842366807	 2.1096550665	 0.0922
H	-2.5144371049	 4.0723239656	 2.030554983	 0.104308
H	-2.0383459763	 3.3190739932	-0.2582227258	 0.080041
H	-3.7745610297	 1.3115540187	-0.5644911274	 0.093294
H	-2.2866626498	-0.7879018576	-0.3148737921	 0.096608
H	-0.5574522034	-0.1775360761	 1.584427197	 0.065544
H	 1.1632095139	 0.3931878563	 0.2415280842	 0.279385
H	 0.0150488591	 2.5404786009	 1.1246535185	 0.076142
84.6189	160.531	222.2296	266.2252	288.74	302.6229	355.0124	399.0029	471.1715	555.4081	639.329	747.0879	788.967	803.2251	827.7197	876.4628	914.6105	934.4358	982.1017	997.4032	1005.9673	1029.5211	1044.9536	1078.9878	1113.3595	1138.3295	1148.3514	1177.105	1214.976	1219.8177	1233.7486	1256.9894	1278.842	1304.6645	1326.5753	1343.3949	1369.3374	1422.9129	1430.7406	1478.3559	1674.9064	2955.5157	2986.4298	3052.2671	3062.5424	3105.9503	3113.0382	3174.1311	3207.183	3809.6749	3811.7392
OC1CC2C=CC(O)C12	O[C@H]1C[C@@H]2C=C[C@@H](O)[C@H]12	
InChI=1S/C7H10O2/c8-5-2-1-4-3-6(9)7(4)5/h1-2,4-9H,3H2	InChI=1S/C7H10O2/c8-5-2-1-4-3-6(9)7(4)5/h1-2,4-9H,3H2/t4-,5+,6-,7+/m0/s1
