19
gdb 4625	3.9764498	0.6361641	0.5838537	1.4068	82.08	-0.25098	0.02618	0.27715999999999996	1904.3615	0.155049	-422.503664	-422.493487	-422.492543	-422.541018	34.919	
C	 5.5403364678	-1.3931868066	 1.3768667406	-0.409432
C	 4.7201965392	-1.2652024401	 0.1131269875	 0.169189
O	 5.5316329362	-1.0938714522	-1.0719920022	-0.291258
C	 4.7108689532	-0.0089964029	-1.538402652	-0.077932
C	 3.9807252776	 0.0792730127	-0.170653172	-0.242841
C	 2.5355221211	 0.1138223468	-0.1390959862	 0.05427
C	 1.3295944052	 0.1228349688	-0.1367266788	 0.065738
C	-0.1313039124	 0.1555533333	-0.0756383046	-0.192745
O	-0.6466842046	 1.2782076781	 0.6268871879	-0.401061
H	 6.162903446	-2.2924954598	 1.3364925111	 0.132248
H	 6.1967334604	-0.5267783616	 1.5032697479	 0.121157
H	 4.8836861401	-1.4707993751	 2.2501452396	 0.122101
H	 4.0452780437	-2.1248645937	-0.0032207395	 0.079442
H	 5.3028493462	 0.8616070476	-1.838476943	 0.110896
H	 4.0533401727	-0.3092086869	-2.3638575986	 0.107356
H	 4.3968728112	 0.8821592978	 0.4465380048	 0.106822
H	-0.5491462103	 0.2210807216	-1.0865235668	 0.141247
H	-0.4977627024	-0.7899424772	 0.3560730842	 0.117839
H	-0.2058903809	 1.3087784796	 1.4823627001	 0.286963
16.7209	65.8853	85.8633	123.8587	191.0851	212.172	247.2814	291.9769	338.7321	413.6129	481.1466	501.4138	551.9615	650.1987	802.4353	877.3888	895.1678	930.5304	988.5081	1011.1106	1033.9859	1051.6503	1092.5319	1119.6595	1134.5052	1170.3026	1186.2152	1215.5818	1228.3731	1279.7433	1324.3984	1357.9723	1364.9926	1392.4101	1408.2158	1419.4525	1479.7954	1491.2315	1493.707	1525.4426	2354.8164	2973.0304	3003.4533	3021.311	3034.5584	3052.1295	3061.0771	3079.5294	3108.4174	3113.9377	3817.4751
CC1OCC1C#CCO	C[C@@H]1OC[C@H]1C#CCO	
InChI=1S/C7H10O2/c1-6-7(5-9-6)3-2-4-8/h6-8H,4-5H2,1H3	InChI=1S/C7H10O2/c1-6-7(5-9-6)3-2-4-8/h6-8H,4-5H2,1H3/t6-,7+/m0/s1
