19
gdb 5515	2.6712601	1.5188916	1.2065631	2.1452	76.3	-0.22639	0.01398	0.24037	1093.4245	0.156467	-422.520713	-422.512323	-422.511379	-422.553523	32.48	
C	 1.2042556634	-0.1627020889	-0.1504620081	-0.243858
O	-0.1449599626	 0.1511034303	 0.1284640501	-0.270424
C	-0.3393122336	 0.818482302	 1.3435838225	 0.113426
C	-0.2688062388	 2.4060693389	 1.3384855099	-0.139611
C	-1.6417264824	 2.3623261263	 0.5897422366	-0.27818
C	-1.861040207	 1.1441884044	 1.5598096464	 0.352913
O	-2.8495917072	 0.1869433175	 1.4058715217	-0.497189
C	-1.7683453154	 1.8293989384	 2.9187509399	-0.121437
C	-0.7242058257	 2.6541572527	 2.7755916124	-0.092444
H	 1.6466930704	-0.7748615483	 0.6493871968	 0.112296
H	 1.2196202451	-0.7315447106	-1.0830225154	 0.129224
H	 1.8172223925	 0.7410218806	-0.2752792467	 0.113337
H	 0.1873649655	 0.3148255855	 2.166125035	 0.063849
H	 0.5892118042	 2.9493311379	 0.9480294332	 0.065955
H	-2.3048364555	 3.2209353006	 0.7108295571	 0.09346
H	-1.5496119303	 2.0627651053	-0.4566623551	 0.101731
H	-2.6441800337	-0.301358075	 0.6000088823	 0.288024
H	-2.4014582564	 1.6180787965	 3.7681113956	 0.107523
H	-0.2586287925	 3.3128468861	 3.4947062561	 0.101404
79.1297	146.6555	178.6703	260.5596	300.2187	370.5611	390.7087	433.181	476.1865	546.0557	580.7055	661.1434	692.5013	705.062	853.3508	868.5594	909.268	928.407	953.4617	981.6081	997.7868	1024.9138	1054.2613	1082.6679	1102.9283	1135.0349	1155.5639	1183.9554	1202.8583	1219.5851	1228.9139	1248.4071	1285.8885	1314.1363	1373.1253	1408.1192	1478.9497	1487.5902	1491.4508	1508.2693	1621.2586	2986.566	3014.0305	3039.584	3068.7701	3118.2031	3138.8607	3139.9742	3223.2181	3251.1728	3796.7836
COC1C2CC1(O)C=C2	CO[C@H]1[C@H]2C[C@]1(O)C=C2	
InChI=1S/C7H10O2/c1-9-6-5-2-3-7(6,8)4-5/h2-3,5-6,8H,4H2,1H3	InChI=1S/C7H10O2/c1-9-6-5-2-3-7(6,8)4-5/h2-3,5-6,8H,4H2,1H3/t5-,6+,7-/m1/s1
