19
gdb 5424	1.8706227	1.3602136	0.8689358	2.8762	78.6	-0.25879	0.04029	0.29908	1338.5395	0.154709	-422.513926	-422.504017	-422.503073	-422.548861	36.204	
O	 0.9398681019	 1.2396299826	-0.2678032854	-0.420603
C	 0.2288233365	 0.1618971909	 0.318146736	-0.091693
C	-0.9729999477	 0.6280969918	 1.1179605444	-0.003883
C	-1.8726081271	-0.3808853268	 1.8580936742	 0.099963
O	-3.0030695703	-0.7764135082	 1.1230206345	-0.431594
C	-2.0320830839	 0.6485197404	 3.0108823742	-0.287074
C	-0.7249525117	 1.3325716401	 2.4974414021	-0.196839
C	-0.5936000703	 2.7731463814	 2.5323595773	 0.30566
C	-0.4785663409	 3.9711047417	 2.5336861599	-0.442109
H	 1.1038622733	 1.895851317	 0.4184255366	 0.288635
H	-0.097766357	-0.4752469108	-0.5113571669	 0.118214
H	 0.8861170743	-0.450428005	 0.960431559	 0.07686
H	-1.6088550771	 1.2674884713	 0.4977178932	 0.106035
H	-1.287278878	-1.2508724157	 2.1943932784	 0.068342
H	-3.4738233731	-1.4522958875	 1.6207775514	 0.285406
H	-2.9010168582	 1.2844472462	 2.8271146355	 0.1234
H	-2.0428935924	 0.2919905389	 4.0429594143	 0.102681
H	 0.1426672159	 0.8710601576	 2.9855946737	 0.100985
H	-0.3851729842	 5.0288260942	 2.5417377374	 0.197615
72.1696	89.4262	121.8499	193.9587	212.8258	262.2309	282.915	311.0008	359.4437	444.6583	484.6571	499.9578	526.283	587.9632	621.0953	634.8709	791.1381	857.6697	901.7358	992.2585	1013.5647	1044.5364	1056.6649	1098.2216	1103.0954	1129.8757	1142.5727	1199.2127	1206.3704	1225.0748	1245.2186	1277.6851	1312.8997	1336.2855	1364.5339	1386.3844	1428.1679	1444.0465	1489.3896	1509.5778	2230.1976	2947.8933	2980.0111	3023.8847	3063.231	3068.9642	3079.6981	3133.4498	3503.7377	3803.5448	3819.3817
OCC1C(O)CC1C#C	OC[C@H]1[C@H](O)C[C@@H]1C#C	
InChI=1S/C7H10O2/c1-2-5-3-7(9)6(5)4-8/h1,5-9H,3-4H2	InChI=1S/C7H10O2/c1-2-5-3-7(9)6(5)4-8/h1,5-9H,3-4H2/t5-,6+,7+/m0/s1
