19
gdb 1636	3.4377711	1.1495279	1.0093102	4.0848	75.34	-0.27321	0.01062	0.28383	1224.8105	0.156262	-422.576715	-422.568026	-422.567082	-422.610257	32.561	
C	-3.9206816409	-1.1394597448	-1.2702056654	-0.467745
C	-2.888932135	-0.0290365609	-1.207993269	 0.334449
C	-2.3073127397	 0.4992140901	-2.4969536051	-0.310482
C	-3.2728531198	 1.3448735108	-1.6983340955	-0.304345
C	-2.00095428	-0.127897023	 0.0075340311	 0.058783
C	-0.858351044	-1.1670121369	 0.0043954414	-0.429255
C	 0.041082921	 0.0621445811	 0.1098867835	 0.447228
O	 1.1998176115	 0.3098302839	 0.1906312489	-0.314543
O	-1.0056316249	 0.9537438767	 0.0949616683	-0.252568
H	-4.5759378256	-1.1242736378	-0.3910167308	 0.120694
H	-4.552546069	-1.0326010001	-2.1563231514	 0.123997
H	-3.4484374908	-2.1279425824	-1.3170853464	 0.120095
H	-1.2703765675	 0.81486234	-2.5080979281	 0.129943
H	-2.652745183	 0.0543009669	-3.4239172082	 0.111868
H	-2.8609042555	 2.2016424095	-1.1780266024	 0.133896
H	-4.279437623	 1.4824749691	-2.0783995463	 0.112176
H	-2.5981666589	-0.1300677392	 0.925323369	 0.097215
H	-0.7992649912	-1.8431715752	 0.8584203404	 0.142985
H	-0.7352751036	-1.7270153479	-0.9244194642	 0.145609
77.4472	85.8747	188.8828	216.9514	264.5979	305.632	338.6464	427.195	480.4733	521.2188	543.4185	673.7003	770.4731	794.302	851.5148	878.8959	915.1807	927.6451	951.9232	969.7526	1027.5608	1042.5551	1052.2076	1068.3378	1091.9401	1112.3029	1126.9969	1151.398	1193.3454	1221.221	1278.4196	1300.383	1359.9607	1393.3232	1420.524	1451.0707	1461.5814	1491.3302	1497.3296	1510.565	1940.9833	3022.4299	3055.8377	3079.9272	3089.47	3107.1441	3136.1745	3139.4254	3148.4154	3219.2815	3232.0218
CC1(CC1)C1CC(=O)O1	CC1(CC1)[C@H]1CC(=O)O1	
InChI=1S/C7H10O2/c1-7(2-3-7)5-4-6(8)9-5/h5H,2-4H2,1H3	InChI=1S/C7H10O2/c1-7(2-3-7)5-4-6(8)9-5/h5H,2-4H2,1H3/t5-/m1/s1
