19
gdb 764	2.5373731	1.6490624	1.131001	2.7472	75.73	-0.2322	-0.02048	0.21172	1096.2575	0.157945	-422.566535	-422.558455	-422.557511	-422.599326	31.001	
O	 0.7749945335	 0.0936034691	-0.9477111752	-0.326763
C	-0.2352260113	 0.0384055698	-0.2788154176	 0.300975
C	-0.8588028588	 1.3257754315	 0.2678144855	-0.181109
O	-1.7326875911	 1.1626741376	 1.3630641177	-0.242819
C	-2.7108534167	 0.1613822875	 1.1306167055	-0.085143
C	-2.0426917315	-1.2093167179	 1.0573555665	-0.298401
C	-0.9874182539	-1.2357809062	-0.0402754331	 0.233353
C	-1.2532527438	-2.0268612424	-1.3274675286	-0.282957
C	-0.2432210982	-2.5178673516	-0.3451538096	-0.297838
H	-0.0553104345	 1.9972152283	 0.5792184806	 0.139652
H	-1.3787904196	 1.8029430445	-0.5838314467	 0.115498
H	-3.411641793	 0.2163209498	 1.9679814566	 0.111801
H	-3.2685013453	 0.375632222	 0.2029541177	 0.089391
H	-1.5752731288	-1.4094418988	 2.0293454606	 0.115266
H	-2.790508111	-1.9933574223	 0.8906340822	 0.097744
H	-2.2108609757	-2.5321537341	-1.3956890773	 0.117384
H	-0.888432807	-1.5932131968	-2.2513612103	 0.136092
H	-0.4909481074	-3.3783715816	 0.2670854868	 0.116017
H	 0.8027305542	-2.4089993684	-0.6067743914	 0.141856
61.1202	133.9766	252.0827	275.2115	292.9206	368.4506	385.3103	462.8904	500.7648	580.7845	634.3684	669.7908	790.5169	817.0453	855.5668	880.4897	943.3516	965.4118	992.6506	1019.6033	1027.3817	1061.4879	1090.3908	1117.9051	1131.8305	1167.5701	1203.37	1223.1991	1241.1098	1300.1009	1310.1605	1345.5959	1360.868	1385.3012	1408.8018	1451.0162	1458.9406	1478.191	1486.1099	1500.9991	1790.4347	2940.4965	2965.3609	3026.3251	3068.4324	3092.0643	3108.5698	3133.823	3137.5756	3223.4093	3237.7444
O=C1COCCC11CC1	O=C1COCCC21CC2	
InChI=1S/C7H10O2/c8-6-5-9-4-3-7(6)1-2-7/h1-5H2	InChI=1S/C7H10O2/c8-6-5-9-4-3-7(6)1-2-7/h1-5H2
