19
gdb 2837	3.2243342	1.4282758	1.1990717	2.6542	75.21	-0.24693	0.06469	0.31162	1082.1938	0.15639	-422.497345	-422.489099	-422.488155	-422.529518	32.626	
C	-0.7837637006	-0.4092522339	 0.2132775962	-0.4193
C	-0.2412079475	-1.6077706831	 0.9751536306	-0.070682
C	 1.2295181272	-1.6091560001	 1.4737695293	-0.068664
C	 1.3241590621	-3.1704082178	 1.4647693193	-0.166836
C	 2.6224547734	-3.1509757819	 0.6279585559	 0.141638
O	 2.9153174003	-4.2390041866	-0.2066076615	-0.456423
C	 1.8109899875	-1.9656964525	 0.0596316847	-0.139439
C	 0.4666437277	-2.7475235702	 0.2114963483	 0.372457
O	-0.0109424202	-3.5835429133	-0.7938077277	-0.482951
H	-1.0017168422	 0.4228461102	 0.8914490136	 0.116144
H	-0.0721259065	-0.0518703176	-0.5375949872	 0.119606
H	-1.7142298044	-0.6636545681	-0.3059121455	 0.117549
H	-0.959242422	-1.9550974791	 1.7306279781	 0.059239
H	 1.6977642486	-0.9534437353	 2.204207175	 0.081902
H	 1.0105570169	-3.8374727015	 2.2700954998	 0.06701
H	 3.5448536913	-2.902252059	 1.1612871716	 0.077767
H	 2.1163437758	-4.4337764195	-0.7132681608	 0.286133
H	 2.0681815711	-1.2684752928	-0.7376320088	 0.077707
H	-0.7283440084	-4.1180189277	-0.4343312411	 0.287145
166.9943	177.7948	195.2897	211.4792	306.4	343.61	387.817	433.1093	510.1711	520.025	566.4471	671.7011	736.9672	759.1447	830.4417	875.5466	887.7856	910.378	916.184	962.5087	1031.6716	1044.4476	1070.5495	1076.9548	1091.4903	1111.2332	1117.6987	1146.005	1172.3016	1205.0697	1221.7187	1234.7463	1267.3449	1300.5385	1325.3783	1355.1803	1408.5078	1419.7711	1462.9102	1493.4378	1499.1639	3012.8948	3031.7256	3068.8807	3093.4249	3097.7748	3104.233	3117.4271	3145.9367	3769.7092	3796.5451
CC1C2C3C(O)C2C13O	C[C@@H]1[C@H]2[C@@H]3[C@@H](O)[C@H]2[C@]13O	
InChI=1S/C7H10O2/c1-2-3-4-6(8)5(3)7(2,4)9/h2-6,8-9H,1H3	InChI=1S/C7H10O2/c1-2-3-4-6(8)5(3)7(2,4)9/h2-6,8-9H,1H3/t2-,3-,4+,5-,6+,7-/m1/s1
