19
gdb 4707	2.5540556	1.0527569	0.8409855	1.4337	78.33	-0.25884	0.00487	0.26371	1444.8289	0.153388	-422.556255	-422.545433	-422.544489	-422.593371	36.989	
C	 2.7140310606	-2.7032025291	-0.3708825584	-0.396327
C	 3.0234482869	-1.2586631528	-0.7633709712	-0.169931
C	 2.4689017382	-0.2276494315	 0.2430321574	-0.263621
C	 1.0108446343	-0.2696967094	 0.3472752367	 0.348308
C	-0.1890867666	-0.3071085748	 0.4033594665	-0.484806
C	 2.9005881614	 1.1955021612	-0.1411390247	 0.446646
O	 3.2891579805	 1.5322330607	-1.2286825178	-0.352899
O	 2.7884464871	 2.0222361361	 0.9120176456	-0.230497
C	 3.1229547999	 3.3930518228	 0.6548927509	-0.242161
H	 3.1505967934	-2.9554597614	 0.6022067765	 0.112724
H	 1.6352865076	-2.8726725537	-0.3072513985	 0.132677
H	 3.123749764	-3.3984947532	-1.1092549431	 0.116919
H	 4.1056478214	-1.1066282115	-0.833930356	 0.107362
H	 2.6151171136	-1.0288644087	-1.7513033342	 0.125958
H	 2.8877670735	-0.4256622883	 1.2386242121	 0.126364
H	-1.2487368077	-0.3388785878	 0.4651011616	 0.200996
H	 2.9743002857	 3.9159023933	 1.599434929	 0.136091
H	 4.161696582	 3.4807567534	 0.3267905314	 0.141804
H	 2.4728057241	 3.8075458947	-0.1194982336	 0.144393
26.2531	89.5778	103.6401	116.9992	153.6721	167.7611	212.5331	258.7447	298.2376	339.7791	399.0579	425.3124	544.9754	623.2929	640.4785	675.8471	771.8039	790.5207	870.8809	921.0744	968.6597	1028.079	1057.1776	1125.4175	1130.977	1178.4292	1198.2249	1219.5857	1268.5488	1312.5049	1339.0888	1368.8367	1415.2901	1472.2688	1481.634	1484.4581	1496.5296	1498.7662	1508.3617	1826.9012	2234.6365	3024.3972	3035.4055	3053.3155	3054.3157	3090.961	3109.842	3119.1846	3128.632	3162.0563	3504.2089
CCC(C#C)C(=O)OC	CC[C@H](C#C)C(=O)OC	
InChI=1S/C7H10O2/c1-4-6(5-2)7(8)9-3/h1,6H,5H2,2-3H3	InChI=1S/C7H10O2/c1-4-6(5-2)7(8)9-3/h1,6H,5H2,2-3H3/t6-/m0/s1
