19
gdb 5190	3.3516751	1.5187103	1.2953501	2.1968	73.29	-0.21526	0.07593	0.29119	1033.5411	0.15709	-422.514143	-422.506352	-422.505408	-422.546311	30.412	
C	 1.0202743664	 1.0103945718	-0.0385963432	-0.382556
C	 1.014251048	-0.5175402538	-0.1387188045	-0.290649
C	 1.7693595361	-1.0554268718	-1.3314725554	 0.392531
C	 1.8487844061	-2.5713425953	-1.4982224367	-0.099658
O	 2.4676850272	-2.7663508571	-2.7750436298	-0.269196
C	 2.3992312851	-1.5392870732	-3.459109288	 0.080444
C	 3.0021605858	-0.3205107942	-2.7830639607	 0.05687
O	 3.1678375786	-0.5847527242	-1.3927166316	-0.331643
C	 1.5097181571	-0.5427963476	-2.7771225311	-0.258624
H	 0.5098379091	 1.3403509668	 0.8706042156	 0.112666
H	 2.0463794986	 1.3848000664	-0.0154308731	 0.139238
H	 0.5119529918	 1.468889581	-0.8927442203	 0.116152
H	 1.4615148573	-0.948969045	 0.7660393731	 0.112455
H	-0.0150814504	-0.8957917022	-0.1879645199	 0.104839
H	 2.4796649371	-3.0255530664	-0.7280961609	 0.116927
H	 0.8521199652	-3.0393673784	-1.4783187165	 0.089668
H	 2.4354000244	-1.6345256006	-4.5376722565	 0.108463
H	 3.6363264483	 0.4276465482	-3.2452588822	 0.103394
H	 0.6568902382	-0.0023285844	-3.1645351584	 0.09868
89.2697	169.5647	196.0354	245.3953	328.3814	372.6093	426.8951	542.3134	613.3499	695.857	737.3108	763.4104	781.3103	804.0988	857.8436	864.9961	945.3134	967.9158	981.8588	1010.0143	1031.8171	1039.6593	1046.5886	1081.7176	1089.8169	1119.0867	1147.1254	1174.163	1196.1358	1223.3817	1267.7772	1292.0178	1323.3232	1364.4283	1392.1403	1402.8835	1413.4847	1470.9082	1494.8791	1498.8658	1510.2326	2983.3015	3022.3987	3044.3003	3057.4991	3083.3193	3110.1348	3129.9022	3175.3063	3191.6132	3204.0375
CCC12COC3C(O1)C23	CC[C@]12CO[C@@H]3[C@H](O1)[C@H]23	
InChI=1S/C7H10O2/c1-2-7-3-8-5-4(7)6(5)9-7/h4-6H,2-3H2,1H3	InChI=1S/C7H10O2/c1-2-7-3-8-5-4(7)6(5)9-7/h4-6H,2-3H2,1H3/t4-,5+,6-,7-/m1/s1
