19
gdb 4104	3.0443026	1.3422132	1.1224024	3.3749	75.14	-0.2278	-0.0316	0.19619999999999999	1142.4963	0.156883	-422.573074	-422.564835	-422.56389	-422.606269	31.222	
C	-2.929718538	-2.1454199803	-2.808899721	-0.406151
C	-2.1244328475	-1.2081559132	-1.9287444482	 0.130468
C	-2.9355841833	-0.1246831838	-1.1843739197	-0.236292
C	-2.109584027	 0.1619515022	 0.0794346043	-0.064268
C	-0.8950915975	 1.1249590749	-0.0766455519	-0.367048
C	 0.0308842359	-0.1039838155	-0.1629203336	 0.374618
O	 1.1874377713	-0.2574920674	-0.4201457586	-0.284977
C	-1.1529780952	-1.0823467932	 0.138751673	 0.001076
O	-1.5033316415	-1.975000698	-0.8864317638	-0.258431
H	-3.7082244077	-2.6435006891	-2.2228650356	 0.12374
H	-3.4056827301	-1.5896635393	-3.6226034036	 0.118114
H	-2.2840937052	-2.9109716206	-3.2472956933	 0.132157
H	-1.3374052218	-0.7260681708	-2.5322774482	 0.079667
H	-3.1029838672	 0.7625785155	-1.8013241882	 0.10526
H	-3.9137370385	-0.5313291893	-0.9067607258	 0.106194
H	-2.7269192573	 0.3464431338	 0.9576711269	 0.08204
H	-0.8816918197	 1.7742307332	-0.9579396259	 0.127972
H	-0.6911169119	 1.7418999996	 0.8042807789	 0.134263
H	-1.0540436377	-1.6344979089	 1.0774671144	 0.101597
55.5532	108.7212	207.7495	230.7906	289.8537	353.529	416.6291	467.0498	544.1158	577.7583	619.5641	740.308	761.4074	832.2524	845.0879	859.5846	892.0017	932.8951	968.7655	1027.2096	1038.3236	1071.8651	1088.488	1138.5793	1140.6475	1152.0129	1167.1489	1210.8065	1226.3416	1256.0258	1289.8374	1328.234	1335.2117	1366.5663	1394.0451	1414.5655	1434.2689	1481.9433	1486.2867	1499.6437	1894.1658	2960.3726	3041.8542	3048.7737	3051.0491	3078.3148	3099.4494	3100.4624	3116.0765	3119.1894	3122.6133
CC1CC2CC(=O)C2O1	C[C@H]1C[C@@H]2CC(=O)[C@@H]2O1	
InChI=1S/C7H10O2/c1-4-2-5-3-6(8)7(5)9-4/h4-5,7H,2-3H2,1H3	InChI=1S/C7H10O2/c1-4-2-5-3-6(8)7(5)9-4/h4-5,7H,2-3H2,1H3/t4-,5+,7+/m0/s1
