19
gdb 5292	2.3222002	1.6414114	1.1918367	3.2875	75.29	-0.24471	-0.02823	0.21648	1091.1752	0.156715	-422.549551	-422.540935	-422.539991	-422.583127	32.178	
O	-1.0992571971	 2.7279356282	 0.0623455906	-0.423059
C	-0.1763202271	 1.6603690888	-0.0649796884	-0.17306
C	-0.343675783	 0.6861261883	 1.0850972151	 0.224434
C	 0.1066477152	 1.1337697699	 2.5160491684	-0.275969
C	 0.9098819666	-0.18864874	 2.6903954687	-0.218691
C	 0.3779570751	-0.7067797473	 1.3323571237	-0.107914
C	-1.0086983062	-1.4147742911	 1.4060265884	-0.356257
C	-1.6709139108	-0.0601444696	 1.1055262657	 0.372431
O	-2.7921253522	 0.2881331467	 0.8412844157	-0.326338
H	-1.9771743352	 2.3277437737	 0.1222365978	 0.297454
H	-0.2949562565	 1.1334492744	-1.0265713662	 0.087194
H	 0.8253445573	 2.1056245256	-0.0588146885	 0.105097
H	 0.7225743103	 2.0351640048	 2.4857482206	 0.122007
H	-0.7029710971	 1.3048667003	 3.2290434108	 0.114602
H	 1.9904145064	-0.0274730159	 2.6920595737	 0.109354
H	 0.65798021	-0.8025448099	 3.5595352262	 0.102434
H	 1.0896474616	-1.1329823359	 0.6257671285	 0.078667
H	-1.1960316976	-2.1434513575	 0.6106417509	 0.13745
H	-1.2756253397	-1.8771463334	 2.3612795284	 0.130164
64.839	106.6485	135.5416	199.7342	275.5607	310.553	412.1409	461.9719	496.9181	515.0899	590.0917	698.5029	738.2776	780.206	829.2441	876.8401	911.0443	944.2661	966.9448	1014.4186	1030.2825	1047.8864	1054.9267	1075.2391	1119.7623	1143.712	1180.918	1214.7847	1222.0786	1238.8456	1257.0821	1278.8271	1307.1361	1324.8129	1375.8775	1430.3794	1441.8872	1478.0657	1493.8425	1510.8164	1854.0863	2963.4445	3051.9421	3054.63	3058.0551	3069.3771	3100.6461	3102.1653	3116.2774	3124.4715	3758.0337
OCC12CCC1CC2=O	OC[C@]12CC[C@H]1CC2=O	
InChI=1S/C7H10O2/c8-4-7-2-1-5(7)3-6(7)9/h5,8H,1-4H2	InChI=1S/C7H10O2/c8-4-7-2-1-5(7)3-6(7)9/h5,8H,1-4H2/t5-,7+/m0/s1
