19
gdb 421	2.7695957	1.6052606	1.23144	0.7287	74.59	-0.2609	0.07628	0.33718000000000004	1054.3623	0.15843	-422.536509	-422.528914	-422.52797	-422.568449	29.918	
C	 0.5571261568	 0.8107963617	-0.7348398489	-0.24836
O	 0.0558236096	-0.1269382002	 0.2229832776	-0.282794
C	 1.4680622352	 0.1522951316	 0.2090626375	 0.425365
C	 2.0175173295	 0.8730127086	 1.4226999512	-0.29012
C	 2.3300516329	-0.1411153148	 2.5329988168	-0.211968
C	 3.4062181711	-1.1564846779	 2.1067826782	-0.22813
C	 3.2350891113	-1.6546536931	 0.6809030708	 0.042028
O	 3.6943386587	-0.7746148697	-0.3575366699	-0.261085
C	 2.2892082685	-1.0145543457	-0.252234389	-0.014613
H	 0.5196243574	 0.4841073224	-1.773566881	 0.114524
H	 0.2727455289	 1.8486760036	-0.5651732128	 0.114097
H	 2.9255188207	 1.4159483508	 1.1361394897	 0.116067
H	 1.2789584996	 1.6050416169	 1.7619689603	 0.105489
H	 2.6491986793	 0.3765614109	 3.4430421376	 0.097188
H	 1.4041343202	-0.6739596127	 2.7807181077	 0.115063
H	 4.404679362	-0.7084990555	 2.1821029664	 0.116967
H	 3.397302516	-2.0141452229	 2.7879446482	 0.103164
H	 3.4921562771	-2.6984218074	 0.5002269046	 0.095392
H	 1.8493937852	-1.5976221667	-1.0615296649	 0.091725
93.3609	197.9766	227.6969	314.4732	354.4542	378.8594	442.8751	471.9977	522.6202	653.6339	721.5497	785.1682	813.2108	855.8084	876.4268	891.4457	936.4043	952.9348	992.9627	999.5694	1042.1278	1079.7816	1100.453	1131.5982	1144.1816	1159.3594	1187.6969	1221.7612	1272.0014	1284.7122	1305.3791	1332.5555	1367.2886	1374.8527	1382.3539	1423.8648	1460.1382	1476.5655	1483.7976	1498.509	1531.5047	3032.3087	3035.0437	3043.5789	3071.5516	3078.9525	3084.5025	3096.4476	3104.541	3116.8892	3165.3526
C1OC11CCCC2OC12	C1O[C@@]21CCC[C@@H]1O[C@H]21	
InChI=1S/C7H10O2/c1-2-5-6(9-5)7(3-1)4-8-7/h5-6H,1-4H2	InChI=1S/C7H10O2/c1-2-5-6(9-5)7(3-1)4-8-7/h5-6H,1-4H2/t5-,6-,7+/m0/s1
