19
gdb 5128	2.9180173	1.2104794	1.0134981	1.891	76.8	-0.2366	0.00485	0.24145	1240.5838	0.155946	-422.5536	-422.544724	-422.54378	-422.587072	33.339	
C	 1.3455796904	 0.8061030652	 0.3509193555	-0.486189
C	-0.0487484188	 0.2719566043	 0.2856485988	 0.312683
C	-1.1557477538	 0.9314021042	-0.0817233021	-0.191662
C	-2.3605838134	 0.0700666813	 0.0791531691	-0.071025
O	-2.5922831839	-0.3596950412	 1.4471559426	-0.302979
C	-1.8903164137	-1.2429834132	 0.5686046865	 0.372633
C	-2.5685176925	-2.5601560669	 0.2777474548	-0.166108
O	-2.0542029382	-3.1845776889	-0.8896798332	-0.408097
C	-0.3710868593	-1.1582694478	 0.689835482	-0.373705
H	 1.7265387517	 0.7890234556	 1.3799541881	 0.132703
H	 2.0331576273	 0.1925830718	-0.2449967415	 0.127095
H	 1.4001065048	 1.8356651033	-0.0126872449	 0.125784
H	-1.1949951987	 1.9622666489	-0.4129516171	 0.094356
H	-3.2648816206	 0.2101287931	-0.5072737391	 0.089151
H	-2.383862247	-3.2664052457	 1.0950375618	 0.116907
H	-3.6542242965	-2.3959529916	 0.2238060812	 0.100825
H	-2.2390401718	-2.6037092278	-1.6352620153	 0.284871
H	-0.0365026666	-1.380078685	 1.7108148545	 0.119609
H	 0.1078147207	-1.8892022897	 0.0261863383	 0.123148
90.2472	111.5877	179.0146	214.3252	238.9369	325.8526	342.3648	391.6541	425.4783	480.9164	525.38	569.3568	686.1689	744.9876	821.197	863.2574	880.5284	900.6612	948.7129	970.5054	992.0963	1032.2932	1058.2223	1073.8766	1095.8895	1165.4315	1179.066	1191.4542	1240.8047	1278.2612	1318.3164	1343.9973	1362.5554	1413.0596	1416.0534	1442.8097	1459.1487	1478.9353	1486.3606	1503.0973	1695.3978	3005.4779	3018.1998	3030.1591	3064.3185	3066.756	3069.3019	3112.7365	3148.4158	3203.1003	3810.0888
CC1=CC2OC2(CO)C1	CC1=C[C@@H]2O[C@]2(CO)C1	
InChI=1S/C7H10O2/c1-5-2-6-7(3-5,4-8)9-6/h2,6,8H,3-4H2,1H3	InChI=1S/C7H10O2/c1-5-2-6-7(3-5,4-8)9-6/h2,6,8H,3-4H2,1H3/t6-,7-/m0/s1
