19
gdb 4001	3.3805116	1.0928837	1.0099395	2.8808	77.75	-0.24303	-0.03376	0.20927	1253.9551	0.155341	-422.537964	-422.529131	-422.528187	-422.571169	33.529	
C	 3.4167031401	 3.0199579725	 0.0569888537	-0.404551
C	 2.3257346809	 2.2348022694	 0.7762203517	 0.001638
C	 1.9305332093	 0.892002984	 0.063600686	-0.270875
C	 2.4653987599	 0.1120942362	 1.2678987879	-0.110927
C	 2.8425197315	 1.4133746557	 1.9684100886	-0.115274
C	 1.7952595842	 0.4942019466	 2.5815599193	 0.352608
O	 2.2688725229	-0.2291341383	 3.6714239009	-0.484471
C	 0.3636728069	 0.836290647	 2.7077479974	 0.072715
O	-0.2754884682	 0.493894343	 3.6821557661	-0.2954
H	 3.7679530872	 3.8589153034	 0.6672389538	 0.119833
H	 4.2794110395	 2.3811306773	-0.1623944385	 0.120107
H	 3.0445289882	 3.4238757449	-0.8905799021	 0.117739
H	 1.488830747	 2.9043821476	 1.0018671619	 0.0738
H	 0.8807979024	 0.7446783466	-0.2064738131	 0.101844
H	 2.536865041	 0.7262871264	-0.830775229	 0.113089
H	 2.9909110071	-0.8349077978	 1.2554544923	 0.108585
H	 3.7097648988	 1.6354368579	 2.5796934085	 0.105669
H	 1.4960115157	-0.3251356046	 4.2512321879	 0.296087
H	-0.1040180345	 1.4096102122	 1.8884855466	 0.097784
91.8957	146.9787	200.0684	225.9093	264.6936	276.2935	334.9364	398.0838	444.0102	454.6853	477.6394	553.2325	702.2058	805.7483	830.553	850.2372	889.3457	904.3089	930.4703	946.358	998.5532	1014.9432	1049.0916	1061.3181	1110.3654	1117.7949	1154.9866	1191.9655	1236.5372	1247.2087	1285.8815	1289.3428	1344.1492	1368.0107	1389.7837	1410.0049	1479.5874	1492.3887	1494.9994	1501.7194	1772.8216	2977.2548	3026.8464	3038.7565	3053.7258	3095.7276	3099.2096	3103.2339	3181.7033	3195.0913	3686.5705
CC1CC2C1C2(O)C=O	C[C@H]1C[C@H]2[C@@H]1[C@@]2(O)C=O	
InChI=1S/C7H10O2/c1-4-2-5-6(4)7(5,9)3-8/h3-6,9H,2H2,1H3	InChI=1S/C7H10O2/c1-4-2-5-6(4)7(5,9)3-8/h3-6,9H,2H2,1H3/t4-,5-,6+,7+/m0/s1
