19
gdb 6059	5.0167786	0.5021885	0.4617501	3.5255	85.61	-0.257	-0.04759	0.20941	2348.6051	0.152594	-422.527004	-422.515837	-422.514893	-422.565651	36.647	
C	-5.9888913264	-2.5016852958	 1.2487611917	-0.387576
C	-4.6408243814	-3.1934801098	 1.1537745665	-0.020898
O	-3.6572334726	-2.2164749602	 0.8583312733	-0.241408
C	-2.3649139472	-2.7704911792	 0.7506294404	-0.208973
C	-1.3909115804	-1.7332698464	 0.4481008508	-0.019369
C	-0.5546811458	-0.9002743035	 0.197017088	 0.131125
C	 0.4430494173	 0.1087955278	-0.1054000675	 0.243768
C	-0.0858814092	 1.5218454733	-0.2412608434	-0.477714
O	 1.614388663	-0.1763291848	-0.2370661182	-0.276372
H	-5.9763701028	-1.7445569994	 2.0375741262	 0.13125
H	-6.2344809511	-2.0093812775	 0.3038020777	 0.131247
H	-6.7732623577	-3.2293541852	 1.4766775867	 0.118704
H	-4.3957404272	-3.7020953171	 2.1015494705	 0.090625
H	-4.6537885498	-3.9668210465	 0.3671319071	 0.090624
H	-2.073674423	-3.2772190686	 1.6878369552	 0.127366
H	-2.3305014357	-3.5403743439	-0.0406033174	 0.12738
H	-0.5819088806	 1.828287257	 0.685961218	 0.148759
H	 0.7386693596	 2.1993609551	-0.4675315765	 0.142697
H	-0.839151689	 1.5665382847	-1.0351614892	 0.148767
32.2829	52.2431	63.125	106.0975	118.9241	148.8556	152.7756	245.9974	269.6649	328.1225	376.8333	448.3923	534.2249	597.0576	601.6108	704.9739	823.9555	906.1603	958.0582	1013.9705	1025.7147	1043.0994	1061.5695	1135.4677	1157.7901	1187.9239	1247.2953	1250.793	1297.6183	1375.5093	1381.1752	1407.2002	1445.839	1459.7126	1467.0223	1483.9498	1487.2726	1500.1611	1530.3771	1768.4757	2334.5562	2944.7029	2958.6181	2963.1192	2982.2703	3040.108	3047.7046	3104.5757	3122.4221	3125.7313	3152.4192
CCOCC#CC(C)=O	CCOCC#CC(=O)C	
InChI=1S/C7H10O2/c1-3-9-6-4-5-7(2)8/h3,6H2,1-2H3	InChI=1S/C7H10O2/c1-3-9-6-4-5-7(2)8/h3,6H2,1-2H3
