19
gdb 4289	3.8359083	1.1958475	1.0054591	2.6307	77.91	-0.22713	0.01456	0.24169	1193.0029	0.158396	-422.566274	-422.55829	-422.557346	-422.599116	30.623	
O	-0.1042738277	 1.4423767634	 0.150791699	-0.427734
C	 0.0033926956	 0.0346943393	 0.0424657203	 0.126757
C	-1.4115347591	-0.5839838443	 0.0888172258	-0.253425
C	-1.1414894383	-2.0044876093	 0.6063901279	 0.073699
O	-2.1967218852	-2.6806757842	 1.2685865826	-0.284197
C	-1.7226851597	-3.126074692	 2.545730887	-0.111391
C	-0.4306206667	-2.3749310645	 2.7779906073	-0.270479
C	-0.0936704696	-1.7480618137	 1.6584138119	 0.335198
C	 0.8088805055	-0.6349346282	 1.2187988669	-0.372603
H	 0.7592874677	 1.8261810014	-0.0305660158	 0.282951
H	 0.483250022	-0.2326170977	-0.9110885781	 0.070232
H	-2.0070049803	-0.040319507	 0.8297800036	 0.119504
H	-1.9211512827	-0.5347909358	-0.8758670069	 0.101609
H	-0.7610337687	-2.6324080017	-0.2199627003	 0.07115
H	-2.4810081173	-2.8962285436	 3.3069979399	 0.109796
H	-1.5879388856	-4.2212147205	 2.5417927414	 0.09922
H	 0.0637326534	-2.3343396336	 3.7405425214	 0.100402
H	 1.7908952664	-0.9830429173	 0.8779725158	 0.107946
H	 0.9755964604	 0.0968890693	 2.0150432801	 0.121366
55.0094	135.1721	225.5118	287.125	316.8734	338.5754	436.1063	458.8708	520.6337	619.2759	657.1947	767.7639	796.2781	836.9063	843.3045	913.1047	936.882	967.174	1008.6742	1030.9267	1040.8384	1045.2079	1094.4877	1118.7158	1150.0998	1180.8441	1196.0809	1198.3073	1234.8398	1255.8845	1281.1975	1290.2412	1339.4843	1346.8643	1368.561	1390.2545	1435.0176	1471.0939	1493.0402	1520.1122	1745.1679	2927.8033	2957.1851	2978.1492	3017.2374	3035.1756	3059.3147	3086.3656	3117.6302	3212.2134	3819.1524
OC1CC2OCC=C2C1	O[C@@H]1C[C@@H]2OCC=C2C1	
InChI=1S/C7H10O2/c8-6-3-5-1-2-9-7(5)4-6/h1,6-8H,2-4H2	InChI=1S/C7H10O2/c8-6-3-5-1-2-9-7(5)4-6/h1,6-8H,2-4H2/t6-,7-/m0/s1
