19
gdb 2268	2.7984267	1.611186	1.3350577	2.7639	74.09	-0.23136	-0.01698	0.21438000000000001	1023.3389	0.157871	-422.603132	-422.595325	-422.594381	-422.635109	30.86	
C	-3.4751677171	-1.2448206773	 0.6119702883	-0.477676
C	-2.326698133	-0.4662763463	 0.0133098864	 0.38634
C	-2.582788302	 0.1779242289	-1.3772259695	-0.252458
C	-1.6154290913	 1.3966018908	-1.3567392472	-0.238186
C	-0.9671564044	 1.232680928	 0.0426319235	-0.041861
O	-2.0284204759	 0.6927980376	 0.8313006034	-0.289314
C	-0.0081651548	 0.037512589	-0.0564795054	 0.422832
O	 1.187204482	 0.0481275186	-0.1709886324	-0.318841
C	-0.9525461317	-1.1755672688	-0.0059430315	-0.375371
H	-3.2216440756	-1.6003413603	 1.6147850845	 0.12781
H	-4.3661134333	-0.6141657115	 0.6841453428	 0.128017
H	-3.7152804442	-2.112246588	-0.010476375	 0.122884
H	-2.3816545051	-0.5159736991	-2.1973255753	 0.105119
H	-3.6242556636	 0.4979770184	-1.4563396095	 0.108033
H	-0.8796646678	 1.3892636944	-2.1648683246	 0.119328
H	-2.1601816569	 2.3419413868	-1.4018867155	 0.116789
H	-0.5470488136	 2.1281059844	 0.496463086	 0.098258
H	-0.7770108203	-1.8529865149	-0.8452324847	 0.125314
H	-0.7906631614	-1.7295098306	 0.9247855357	 0.132983
103.6301	205.1509	207.8855	279.395	305.1419	389.1616	459.2748	508.8722	546.4254	589.7272	625.0021	699.4053	787.0642	826.8724	838.0548	880.1195	893.299	908.9724	949.9183	975.1156	1013.0117	1033.9449	1063.8102	1088.3222	1159.7145	1171.3422	1197.7588	1215.0298	1232.0687	1267.548	1277.3133	1308.9635	1319.9438	1347.0524	1414.7293	1444.8711	1480.9286	1485.5474	1494.7726	1504.6912	1866.6871	3041.4421	3056.4695	3063.7963	3073.1193	3103.9569	3112.3243	3115.7628	3117.9914	3124.1506	3148.4796
CC12CCC(O1)C(=O)C2	C[C@@]12CC[C@@H](O1)C(=O)C2	
InChI=1S/C7H10O2/c1-7-3-2-6(9-7)5(8)4-7/h6H,2-4H2,1H3	InChI=1S/C7H10O2/c1-7-3-2-6(9-7)5(8)4-7/h6H,2-4H2,1H3/t6-,7+/m1/s1
