19
gdb 1385	2.8410034	0.8540198	0.744215	2.8678	78.69	-0.24468	-0.01166	0.23302	1572.2526	0.151662	-422.530271	-422.519351	-422.518406	-422.567917	37.575	
C	-3.7541863381	-1.0414143734	 1.6625582779	-0.396933
C	-2.8608678615	-1.3497914307	 0.4608824203	-0.021106
O	-1.7251133254	-0.4974633752	 0.5584504531	-0.247734
C	-0.7042935449	-0.7719158499	-0.3763835895	-0.163196
C	 0.4372621076	 0.2363558142	-0.2488973439	 0.353819
C	 0.1663233534	 1.4998473242	 0.5350437747	-0.46773
O	 1.4917924963	 0.0038054039	-0.7913648848	-0.29703
C	-3.5733214019	-1.168749793	-0.8116714389	 0.342833
C	-4.1562818811	-1.0131227347	-1.851381596	-0.488704
H	-4.6312242175	-1.6927851051	 1.660305016	 0.130985
H	-3.191088424	-1.1994199218	 2.5856094931	 0.127282
H	-4.0876262163	-0.0017469655	 1.6236017967	 0.137815
H	-2.526432241	-2.3992785851	 0.5202590286	 0.100086
H	-0.2894900019	-1.7823598562	-0.2426754841	 0.119387
H	-1.0852424345	-0.7097465238	-1.4083607107	 0.132896
H	-0.0937714734	 1.2486287049	 1.5680871919	 0.150537
H	 1.046851723	 2.1422557164	 0.5073203903	 0.135379
H	-0.7027935685	 2.0221965614	 0.1213041658	 0.145475
H	-4.6723718403	-0.8806794504	-2.7704954506	 0.20594
22.44	53.1814	117.4768	121.1329	143.2982	182.1719	214.7047	259.1816	288.7678	351.4929	451.3016	504.265	515.6357	568.3716	605.9785	634.4515	682.4965	790.1905	817.8807	870.1276	919.318	998.2889	1050.6213	1095.031	1103.0577	1141.0543	1159.7426	1241.0214	1249.7071	1332.8272	1354.686	1380.8806	1394.3951	1405.7744	1454.1797	1465.0211	1481.4791	1483.2297	1495.2947	1819.2402	2230.6248	2961.3105	2982.8239	3020.7913	3046.0714	3054.4986	3108.5344	3136.0087	3138.8793	3158.5951	3500.9193
CC(OCC(C)=O)C#C	C[C@H](OCC(=O)C)C#C	
InChI=1S/C7H10O2/c1-4-7(3)9-5-6(2)8/h1,7H,5H2,2-3H3	InChI=1S/C7H10O2/c1-4-7(3)9-5-6(2)8/h1,7H,5H2,2-3H3/t7-/m0/s1
