19
gdb 5715	2.552388	0.982704	0.808045	2.3397	77.55	-0.25685	0.04423	0.30108	1466.7287	0.153707	-422.500905	-422.490669	-422.489725	-422.536633	36.484	
C	 3.0725450942	-2.2710065956	 2.99878269	-0.394282
C	 2.0306206601	-2.7466605593	 1.9658599031	-0.188039
C	 2.6091493388	-3.6722596596	 0.9933585243	 0.323871
C	 3.0961758307	-4.4080521492	 0.1767590796	-0.477784
C	 1.4131966939	-1.555775546	 1.2434313325	 0.073956
O	 0.4968895712	-0.7675960909	 2.0009044305	-0.258647
C	-0.0072018151	-1.5043104586	 0.8798794163	 0.034431
C	-0.5359338175	-0.7013868105	-0.2929409851	-0.113614
O	 0.3995133187	 0.1922361783	-0.8632604401	-0.403259
H	 3.4858932677	-3.1187846491	 3.550419794	 0.126341
H	 3.8982601413	-1.7516979698	 2.5033190489	 0.126816
H	 2.5997516185	-1.5833960931	 3.7048662383	 0.137268
H	 1.2214419018	-3.257745744	 2.5034952618	 0.110877
H	 3.5219059394	-5.0722381624	-0.5340489568	 0.198137
H	 2.1143175937	-0.9663454976	 0.6525603901	 0.098864
H	-0.6358254054	-2.3543121115	 1.1561680667	 0.092367
H	-0.9398551736	-1.4043216691	-1.038519588	 0.095541
H	-1.3719788831	-0.0842852711	 0.0555305088	 0.128462
H	 1.0371136049	-0.325895011	-1.3641782148	 0.288691
58.9728	68.6342	117.7082	168.2514	193.5172	229.648	248.7759	289.8396	348.1264	353.2396	482.269	498.6365	545.9947	632.2793	638.5195	647.3627	794.0504	853.0666	887.6019	940.5595	975.1189	985.2637	1068.1642	1077.2513	1108.041	1123.0776	1157.602	1176.3138	1236.6289	1276.2166	1277.1014	1323.4683	1358.0592	1398.2	1403.668	1413.4025	1486.3263	1491.5213	1495.6414	1501.8705	2234.6788	2984.8289	3024.3993	3046.1096	3068.2715	3084.5054	3115.9869	3122.3292	3131.0567	3503.58	3823.2759
CC(C#C)C1OC1CO	C[C@H](C#C)[C@@H]1O[C@H]1CO	
InChI=1S/C7H10O2/c1-3-5(2)7-6(4-8)9-7/h1,5-8H,4H2,2H3	InChI=1S/C7H10O2/c1-3-5(2)7-6(4-8)9-7/h1,5-8H,4H2,2H3/t5-,6+,7+/m1/s1
