19
gdb 669	2.8394848	1.5979033	1.3977774	4.5594	73.79	-0.25554	0.01601	0.27155	999.6284	0.160488	-422.622709	-422.615503	-422.614559	-422.654498	28.612	
O	 1.1097411866	-0.0477651429	-0.308229109	-0.329025
C	-0.0604400443	-0.0213814686	-0.0398640325	 0.404693
C	-0.8489190465	 1.2842738832	 0.0709572154	-0.344578
C	-2.2744961517	 1.1390395582	 0.621933489	-0.019862
C	-2.272290392	 0.7195212379	 2.114209924	-0.217969
C	-2.146755737	-0.8342677249	 2.0920888655	-0.225684
C	-2.0998886363	-1.1950514479	 0.596738214	 0.126199
C	-2.9041097929	-0.081144401	-0.0719585757	-0.242994
O	-0.7302602208	-1.1898171142	 0.1245150343	-0.240761
H	-0.2422436959	 1.9738812117	 0.6655266628	 0.134427
H	-0.8726837609	 1.6992936863	-0.9441329702	 0.136301
H	-2.8285744115	 2.067128617	 0.4599908414	 0.072499
H	-1.462112741	 1.1986691473	 2.6706496688	 0.107323
H	-3.2085318576	 1.021692543	 2.5921618385	 0.104345
H	-1.2561167472	-1.2075678377	 2.6018650722	 0.122751
H	-3.0138789084	-1.3081206279	 2.5613983146	 0.107207
H	-2.4500672183	-2.2049885778	 0.3803754531	 0.090717
H	-2.8021196759	-0.0779954314	-1.1608094972	 0.109316
H	-3.9651948483	-0.1874210003	 0.1774306811	 0.105095
87.2049	121.4517	334.4068	372.6018	404.7249	441.3256	497.1906	560.4275	587.7871	729.3471	745.5245	798.3494	836.4899	848.437	886.1537	906.2916	935.7821	970.0844	991.9612	1014.5874	1032.459	1074.6545	1089.9971	1140.6614	1180.9591	1196.0311	1209.634	1241.1315	1264.1054	1281.3462	1311.7982	1326.3646	1352.7666	1356.3488	1375.5258	1403.6944	1457.0084	1482.1096	1486.3652	1511.1069	1843.3031	3042.5593	3049.6715	3053.3438	3064.5535	3076.5096	3090.2689	3094.375	3102.7426	3109.5482	3118.8633
O=C1CC2CCC(C2)O1	O=C1C[C@@H]2CC[C@@H](C2)O1	
InChI=1S/C7H10O2/c8-7-4-5-1-2-6(3-5)9-7/h5-6H,1-4H2	InChI=1S/C7H10O2/c8-7-4-5-1-2-6(3-5)9-7/h5-6H,1-4H2/t5-,6+/m1/s1
