19
gdb 818	2.9371186	1.3552365	1.2851708	2.8281	74.86	-0.24357	-0.02484	0.21873	1070.7025	0.15918	-422.581689	-422.574111	-422.573167	-422.614043	29.148	
O	 0.7391702387	-1.1364577049	-0.6226086712	-0.263612
C	 0.6958130239	-0.0893590479	-0.0243316548	 0.134206
C	 0.4858754644	 1.2446494365	-0.6901817755	-0.081303
C	-0.8541155261	 1.976565585	-0.3674426166	-0.059374
C	-0.6660378589	 3.286091969	-1.1694257162	-0.222405
C	 0.8451791063	 3.6118319499	-0.938146555	-0.221099
C	 1.3058854383	 2.4101925385	-0.0908178512	 0.084381
O	 0.7699222798	 2.5408870004	 1.2327461373	-0.278853
C	-0.6480705848	 2.3110515192	 1.119437501	-0.085678
H	 0.8215818242	-0.0555645877	 1.0792508521	 0.093419
H	 0.6248624018	 1.1198591917	-1.7669186384	 0.092712
H	-1.7702047812	 1.4265055613	-0.5839453901	 0.083165
H	-0.885038709	 3.1275109856	-2.2289360079	 0.106166
H	-1.329842487	 4.0773742462	-0.8100669124	 0.105523
H	 1.4019215997	 3.6781019509	-1.8773962648	 0.105087
H	 1.0030309038	 4.5404663772	-0.3851186409	 0.114432
H	 2.3847622	 2.2766114255	-0.0036337085	 0.084627
H	-0.9359403481	 1.4933492068	 1.7912272868	 0.105064
H	-1.1988400758	 3.2107441268	 1.4202278363	 0.103542
69.4687	165.4233	199.0181	258.4993	363.7297	374.0682	479.7154	507.1122	609.8251	752.0382	800.5831	834.8653	858.495	880.7191	907.8753	943.0854	953.5683	970.569	974.4664	1021.0254	1039.8265	1070.0513	1090.9016	1110.0573	1156.5066	1183.4114	1206.4995	1228.3258	1234.5145	1268.3085	1299.781	1308.1818	1317.1289	1323.086	1356.9699	1385.1566	1432.251	1481.7343	1502.0475	1537.1296	1820.3366	2902.673	3017.9799	3052.6576	3054.8757	3064.1231	3090.2435	3095.1006	3115.2356	3117.6205	3120.102
O=CC1C2CCC1OC2	O=C[C@H]1[C@@H]2CC[C@H]1OC2	
InChI=1S/C7H10O2/c8-3-6-5-1-2-7(6)9-4-5/h3,5-7H,1-2,4H2	InChI=1S/C7H10O2/c8-3-6-5-1-2-7(6)9-4-5/h3,5-7H,1-2,4H2/t5-,6+,7-/m1/s1
