19
gdb 5442	3.562267	1.0155137	0.845833	2.5411	78.22	-0.23521	-0.00914	0.22607	1390.8665	0.154863	-422.530928	-422.521641	-422.520696	-422.565115	33.537	
C	 1.4457149247	 0.1103023446	-0.0369320028	-0.242434
O	 0.0347577451	 0.0609314106	 0.0878223137	-0.245944
C	-0.4380850862	 0.7022101329	 1.2197044293	 0.111612
C	-1.7667120931	 0.2724340692	 1.6856763629	-0.108906
C	-0.5046470059	-0.1795020165	 2.4872393267	-0.219509
C	-0.9921511925	 0.6245095598	 3.643958921	 0.412364
O	-0.6868907312	 0.6921747097	 4.8027884069	-0.329754
C	-2.2242672373	 1.1647890515	 2.8569679333	-0.132142
C	-3.54496626	 0.7844773066	 3.521823924	-0.407988
H	 1.9437678872	-0.4011892982	 0.7980498437	 0.117598
H	 1.6997285012	-0.3928401216	-0.9718632532	 0.134647
H	 1.8082529745	 1.1475458939	-0.0778756426	 0.114842
H	-0.1280759351	 1.7467403562	 1.3092551413	 0.09549
H	-2.4069201388	-0.3613961389	 1.0862880624	 0.114109
H	 0.0258182777	-1.1235873941	 2.4968146267	 0.112288
H	-2.198564705	 2.2396989477	 2.6411029196	 0.091239
H	-3.6451910555	 1.3029988075	 4.4791082201	 0.138814
H	-4.3962823357	 1.0556292714	 2.8899329133	 0.119888
H	-3.5936122242	-0.2919195423	 3.7167769434	 0.123786
87.9197	123.9615	153.5243	165.2089	201.6193	220.0508	254.8943	332.6846	418.5263	461.3512	499.8296	621.2627	740.6457	790.945	821.7001	862.2223	898.3663	909.5997	991.2512	1006.4523	1045.6706	1067.514	1088.1449	1112.3434	1124.9608	1165.9001	1170.5854	1184.8738	1229.8395	1234.7897	1250.982	1293.3721	1344.5485	1406.3606	1419.4117	1486.2552	1486.7708	1493.4489	1497.1123	1507.4916	1870.6249	2993.3274	3034.3152	3037.8437	3048.4024	3062.5535	3106.1804	3120.3422	3129.4265	3197.9227	3210.9738
COC1C2C1C(=O)C2C	CO[C@H]1[C@H]2[C@@H]1C(=O)[C@@H]2C	
InChI=1S/C7H10O2/c1-3-4-5(6(3)8)7(4)9-2/h3-5,7H,1-2H3	InChI=1S/C7H10O2/c1-3-4-5(6(3)8)7(4)9-2/h3-5,7H,1-2H3/t3-,4-,5-,7+/m1/s1
