19
gdb 1821	2.5769182	1.9403477	1.4385321	1.2464	73.66	-0.23267	0.07671	0.30938	951.0212	0.15835	-422.530476	-422.523202	-422.522257	-422.561458	30.507	
O	 0.4065301519	 0.6902690946	 0.1441641125	-0.487459
C	-0.9763842488	 0.9148520659	 0.2146620088	 0.403832
C	-1.5224041865	 2.1038745603	-0.6194814276	-0.2728
C	-2.6305011073	 2.1870131273	 0.4710566011	 0.117664
C	-1.5841877983	 1.6204453391	 1.4652350181	-0.319298
O	-3.6982131926	 1.2659059099	 0.2515601059	-0.273778
C	-3.2918034868	-0.0032713946	-0.1918753252	 0.1175
C	-2.7276274279	-1.0359163303	 0.7571671511	-0.347055
C	-1.8163257465	-0.2914195768	-0.2017320042	-0.13916
H	 0.6044825051	-0.116222132	 0.6332282038	 0.276708
H	-0.8605436923	 2.9710917963	-0.5631241135	 0.108623
H	-1.8216656071	 1.9152134141	-1.6526692454	 0.099706
H	-3.1011422433	 3.1471794671	 0.6793458357	 0.082251
H	-0.9013150421	 2.4014988178	 1.8084170271	 0.108175
H	-1.9393227015	 1.0397070726	 2.3174518134	 0.096443
H	-3.916753682	-0.3530708459	-1.0075553902	 0.099721
H	-2.6937923003	-0.8054017436	 1.8146038579	 0.122489
H	-2.9414843001	-2.0761294911	 0.5343261235	 0.111869
H	-1.3999065935	-0.8300200709	-1.0484673529	 0.094569
226.3547	235.5714	276.0064	335.8741	384.1248	441.547	451.882	494.3575	509.0769	616.4563	667.0868	758.3023	815.5529	831.5991	839.7519	893.9222	928.5979	945.1284	964.0161	969.05	998.7679	1018.0373	1045.9638	1057.8568	1084.7846	1126.9557	1148.8883	1163.6763	1179.5921	1211.6907	1225.8447	1236.107	1254.7376	1263.8242	1340.7626	1370.7876	1374.1008	1405.6544	1460.8684	1482.9797	1507.9408	3066.5798	3074.2475	3120.5713	3130.2877	3133.3039	3139.1097	3144.3699	3156.3606	3228.5955	3799.7859
OC12CC(C1)OC1CC21	O[C@]12C[C@H](C1)O[C@@H]1C[C@H]21	
InChI=1S/C7H10O2/c8-7-2-4(3-7)9-6-1-5(6)7/h4-6,8H,1-3H2	InChI=1S/C7H10O2/c8-7-2-4(3-7)9-6-1-5(6)7/h4-6,8H,1-3H2/t4-,5-,6+,7-/m0/s1
