19
gdb 4158	2.1814259	1.9923964	1.4603669	2.9346	73.72	-0.23247	-0.00989	0.22258	971.7072	0.159068	-422.605646	-422.598033	-422.597089	-422.637585	30.299	
O	-0.854201123	-1.2643775304	 2.5003390011	-0.433498
C	-1.7033377517	-1.3969628698	 1.3736697029	 0.136893
C	-2.6853031976	-0.1902819177	 1.3338684366	-0.225347
C	-2.3513111731	 0.5005751004	-0.0062476299	-0.022055
C	-2.0681742935	-0.7276882088	-0.907967393	-0.241045
C	-0.9616811959	-1.3026666389	 0.0031092886	-0.178491
C	-0.0297342143	-0.0971706643	 0.1338830612	 0.447249
O	 1.1687325138	-0.1103248233	 0.2339876738	-0.34019
C	-0.948748388	 1.1364195097	 0.0995581808	-0.328482
H	-0.1173114316	-1.8774631243	 2.4040259641	 0.289617
H	-2.2513906185	-2.3490463534	 1.4163476137	 0.07428
H	-3.7247250677	-0.5286698093	 1.3525031891	 0.099198
H	-2.5221583496	 0.4499599329	 2.204129234	 0.117171
H	-3.1230508041	 1.184236792	-0.362569457	 0.067848
H	-2.9299703318	-1.3945979507	-1.0061340299	 0.103279
H	-1.7105991007	-0.4679901418	-1.9091371334	 0.105507
H	-0.452251163	-2.2166121304	-0.3031571256	 0.073297
H	-0.7940079739	 1.7611346154	 0.9835685572	 0.130643
H	-0.7047605259	 1.7408192226	-0.7819345241	 0.124126
101.9411	120.1249	293.4115	334.4977	388.6317	424.6059	442.1606	486.1953	517.1231	608.5058	671.3506	763.4639	804.6701	825.3078	875.0819	909.05	924.6363	942.2103	963.0738	968.0219	1018.3034	1047.5433	1077.99	1097.2369	1133.5415	1151.2521	1176.8785	1212.8985	1218.1251	1260.5185	1273.1503	1284.8525	1300.6313	1326.2665	1345.5687	1364.3497	1412.6292	1445.7116	1487.7487	1508.5527	1854.9405	2988.0395	3046.0914	3051.1514	3063.8738	3099.2461	3102.1564	3102.8692	3114.5309	3117.2045	3809.1837
OC1CC2CC1C(=O)C2	O[C@H]1C[C@@H]2C[C@H]1C(=O)C2	
InChI=1S/C7H10O2/c8-6-2-4-1-5(6)7(9)3-4/h4-6,8H,1-3H2	InChI=1S/C7H10O2/c8-6-2-4-1-5(6)7(9)3-4/h4-6,8H,1-3H2/t4-,5+,6-/m0/s1
