19
gdb 2697	3.2014614	1.0639373	0.8629315	4.3516	76.31	-0.26408	0.01512	0.2792	1360.3661	0.156554	-422.574475	-422.565581	-422.564637	-422.608629	32.381	
C	-0.8730271057	-2.0448222974	 1.2738510245	-0.414092
C	-0.8697325797	-1.0642171845	 0.1079647335	-0.211748
C	-2.0204326116	-0.0383190268	-0.0298119885	 0.125764
O	-1.04059477	 1.0633519004	 0.0994493232	-0.262713
C	-0.0009698328	 0.1867427184	 0.2643856652	 0.449418
O	 1.1418539119	 0.4427603717	 0.4741586089	-0.328992
C	-2.786596443	 0.0274953501	-1.3097506117	 0.006998
C	-4.1435875814	-0.6344902511	-1.3936925409	-0.273255
C	-4.0369615816	 0.8664034383	-1.3989952735	-0.266422
H	-1.613773288	-2.835038677	 1.1189637187	 0.126178
H	 0.1095990375	-2.5138962196	 1.3759397241	 0.143609
H	-1.1029841257	-1.5396965556	 2.2172386392	 0.1292
H	-0.6576632359	-1.578227883	-0.8348629445	 0.111369
H	-2.6913667976	-0.0139505013	 0.8356848208	 0.088066
H	-2.1664006211	-0.0167710979	-2.2008773922	 0.09307
H	-4.4021557565	-1.1420576079	-2.3157130595	 0.121355
H	-4.5329031427	-1.1136872385	-0.5012428047	 0.116903
H	-4.2246538965	 1.395973537	-2.3256876725	 0.122781
H	-4.3493900596	 1.4025329648	-0.5092002504	 0.122511
74.5923	81.6216	154.6599	199.6597	213.4204	239.6987	330.0285	386.3602	418.9791	554.0866	694.2626	739.6171	779.4306	827.8	835.0756	871.768	888.3572	925.0957	943.2555	1007.8555	1063.9897	1070.4922	1083.0455	1094.2673	1123.6852	1132.3567	1142.6317	1196.7316	1202.6568	1225.6006	1251.3871	1278.8717	1323.4342	1357.5347	1412.6826	1446.9467	1472.0503	1496.5056	1497.67	1508.3761	1932.0925	3040.2027	3053.5374	3067.5789	3111.5211	3118.6331	3135.2014	3140.1718	3147.2974	3214.7189	3229.8013
CC1C(OC1=O)C1CC1	C[C@H]1[C@@H](OC1=O)C1CC1	
InChI=1S/C7H10O2/c1-4-6(5-2-3-5)9-7(4)8/h4-6H,2-3H2,1H3	InChI=1S/C7H10O2/c1-4-6(5-2-3-5)9-7(4)8/h4-6H,2-3H2,1H3/t4-,6+/m0/s1
