19
gdb 1854	2.6728328	1.8647711	1.5555727	0.8029	75.	-0.22839	0.00974	0.23813	946.0086	0.158292	-422.563881	-422.556397	-422.555453	-422.595145	30.302	
C	 0.0253129891	 0.3695377262	 0.5761551892	-0.465345
C	 1.4720180331	 0.3257832875	 0.1251549377	 0.300594
C	 1.6698915423	-0.4056581224	-1.2234468989	-0.089413
O	 3.0409864275	-0.444108964	-1.6004569018	-0.258881
C	 3.9253592623	-0.8302855159	-0.5561215124	-0.074466
C	 3.5931741411	-0.068578197	 0.7405739363	-0.004743
O	 2.2491538994	-0.4338523205	 1.0731531927	-0.288834
C	 3.4762676644	 1.4242462571	 0.4665211886	-0.074731
C	 2.2230825246	 1.6556666553	 0.0929243259	-0.104128
H	-0.042530395	 0.8177249425	 1.5709031462	 0.131379
H	-0.5795700445	 0.9626023146	-0.1168943757	 0.117127
H	-0.3942073907	-0.6398638489	 0.6246670528	 0.126241
H	 1.2651346871	-1.4248082711	-1.1165546033	 0.092008
H	 1.1483810037	 0.0979202147	-2.0440018943	 0.10316
H	 3.8442338217	-1.9092764531	-0.350805482	 0.09546
H	 4.9355372978	-0.6128291399	-0.9178419167	 0.105005
H	 4.2571341659	-0.3554735756	 1.561157621	 0.080539
H	 4.3049684475	 2.1195148526	 0.4890194245	 0.106285
H	 1.7913942928	 2.5844222578	-0.2567706898	 0.102745
188.129	222.9165	262.575	279.0398	346.6972	373.399	412.9975	461.1853	601.4256	642.1048	652.5606	742.0252	830.0095	838.6113	853.7394	875.3391	894.697	932.8471	939.8424	977.7565	1012.6524	1021.794	1068.9423	1102.3362	1123.9887	1179.3497	1198.186	1232.12	1249.7602	1279.4796	1312.5135	1330.2771	1346.9866	1377.0129	1408.2318	1410.2039	1477.5724	1483.7391	1490.2708	1495.886	1670.5122	2977.6953	2985.4837	3041.4617	3072.5739	3075.6482	3079.4563	3113.4444	3122.2723	3209.0051	3234.7409
CC12COCC(O1)C=C2	C[C@]12COC[C@H](O1)C=C2	
InChI=1S/C7H10O2/c1-7-3-2-6(9-7)4-8-5-7/h2-3,6H,4-5H2,1H3	InChI=1S/C7H10O2/c1-7-3-2-6(9-7)4-8-5-7/h2-3,6H,4-5H2,1H3/t6-,7+/m1/s1
