19
gdb 3703	4.6196906	1.0237757	0.9502074	2.9113	76.74	-0.22969	0.06101	0.2907	1290.1374	0.155146	-422.488942	-422.480297	-422.479353	-422.521859	33.213	
C	 2.4055138811	-0.4546139883	-1.2897341948	-0.426233
C	 1.7247059709	-0.0937502694	 0.0123708489	-0.034636
C	 2.1336979961	 1.1797207718	 0.6858454532	 0.08243
O	 1.274023687	 1.4746916562	 1.8011793533	-0.329682
C	 1.7324384044	 0.2666889371	 2.4526634907	 0.408855
C	 0.8615888684	-0.4428485177	 3.4424509844	-0.389511
C	 2.0518873234	 0.3953376046	 3.9048421497	 0.047523
O	 1.835528848	 1.6362607076	 4.4956301604	-0.433108
C	 2.5748828018	-0.1416411785	 1.2748255677	-0.242557
H	 2.4307783985	-1.5396333946	-1.4348464266	 0.126103
H	 1.8826605383	-0.011639571	-2.1436118009	 0.12575
H	 3.4402913164	-0.0952458664	-1.3094759603	 0.117598
H	 0.6774485115	-0.3769930782	 0.0959848295	 0.096919
H	 2.6718203902	 2.0029029384	 0.2307158256	 0.1084
H	-0.1228855841	-0.0200824657	 3.6144783887	 0.129171
H	 0.9260747101	-1.5241173962	 3.5127765867	 0.116475
H	 2.917009914	-0.1283345868	 4.305592451	 0.098168
H	 1.6747592531	 2.2542678341	 3.7679040808	 0.294714
H	 3.5514868409	-0.6053452072	 1.3197081918	 0.10362
100.973	152.2426	192.9648	232.4152	257.5839	296.0716	347.0266	394.3407	446.1692	472.8922	590.5518	638.1149	781.1387	808.3766	847.9321	857.4568	873.8118	900.3932	953.4411	993.8867	1014.6694	1020.74	1023.976	1043.5468	1067.6201	1094.1025	1112.6365	1144.2685	1157.4356	1174.9455	1205.0091	1244.4294	1288.1278	1315.9253	1390.047	1413.9129	1415.4579	1417.7822	1491.2887	1493.2034	1502.6991	3030.2062	3094.3377	3098.8196	3125.4775	3130.146	3130.386	3181.2907	3200.6513	3221.5791	3727.5545
CC1C2OC3(CC3O)C12	C[C@@H]1[C@H]2O[C@@]3(C[C@@H]3O)[C@@H]12	
InChI=1S/C7H10O2/c1-3-5-6(3)9-7(5)2-4(7)8/h3-6,8H,2H2,1H3	InChI=1S/C7H10O2/c1-3-5-6(3)9-7(5)2-4(7)8/h3-6,8H,2H2,1H3/t3-,4-,5-,6+,7+/m0/s1
