19
gdb 3538	2.321289	1.6065037	1.2580175	2.7451	75.61	-0.24152	-0.02058	0.22094000000000003	1081.8525	0.156443	-422.584085	-422.575507	-422.574563	-422.616977	33.112	
C	-2.9765332122	-1.1713151696	-1.2268661608	-0.39858
C	-2.3666076753	-0.8007214353	 0.1295854364	 0.008708
C	-0.8692784706	-1.2108680043	 0.2139735513	-0.36063
C	-0.1043776267	 0.057787298	-0.1471495435	 0.344556
O	 0.9558124669	 0.1504305165	-0.7262129459	-0.35525
C	-0.9407079892	 1.2426969374	 0.1827373892	 0.359148
O	-0.5758225578	 2.4327466039	-0.4134103405	-0.477668
C	-1.6211702786	 1.2412597009	 1.5371267402	-0.368413
C	-2.3645704919	 0.7191586414	 0.3389657627	-0.101489
H	-2.9743362952	-2.2554961487	-1.3769092799	 0.117861
H	-4.0117511453	-0.8225305384	-1.2999650074	 0.118898
H	-2.4124780038	-0.7166791336	-2.0493425983	 0.126336
H	-2.9439657947	-1.2893619406	 0.9236005132	 0.07884
H	-0.5820001719	-1.5292828105	 1.2229046398	 0.130223
H	-0.6025783751	-2.0224283405	-0.4661719554	 0.131046
H	 0.2622897331	 2.2371106548	-0.8611514379	 0.294534
H	-1.2969725032	 0.565405436	 2.3229110963	 0.115077
H	-1.8919124245	 2.2352701936	 1.8761295123	 0.134685
H	-3.197163224	 1.3007587788	-0.041858882	 0.102119
90.8476	113.5118	243.0353	267.5143	297.635	347.6725	358.3246	388.9854	442.5827	477.1032	536.1495	625.5527	669.2079	708.1042	779.022	861.3259	869.9331	911.7024	920.8398	965.2012	1014.1566	1029.7814	1061.3753	1072.1519	1078.1369	1118.4559	1146.5541	1202.126	1219.4771	1250.258	1297.3461	1326.12	1358.1984	1399.8573	1412.2442	1432.1897	1458.7143	1489.9844	1497.4947	1498.6415	1810.7201	3026.1625	3029.7737	3049.4596	3098.8453	3104.5156	3114.5263	3121.9666	3172.5184	3217.0672	3704.9588
CC1CC(=O)C2(O)CC12	C[C@H]1CC(=O)[C@]2(O)C[C@H]12	
InChI=1S/C7H10O2/c1-4-2-6(8)7(9)3-5(4)7/h4-5,9H,2-3H2,1H3	InChI=1S/C7H10O2/c1-4-2-6(8)7(9)3-5(4)7/h4-5,9H,2-3H2,1H3/t4-,5+,7-/m0/s1
