19
gdb 2502	2.7401434	1.9382031	1.3522614	1.726	74.66	-0.24013	0.07022	0.31035	966.2159	0.158836	-422.516867	-422.509554	-422.50861	-422.548119	29.625	
O	 0.07758533	 0.266362142	 0.5086177266	-0.484313
C	-1.0206971227	 1.0661045836	 0.131567409	 0.421891
C	-1.225925443	 2.2086965045	 1.1274850581	-0.16544
O	-1.9108561147	 3.3073436392	 0.5611899854	-0.241499
C	-2.9847468789	 2.9036870496	-0.2714786938	-0.116633
C	-2.60768185	 1.706998261	-1.1298768773	-0.01481
C	-2.2990410442	 0.3540500027	-0.4181979766	-0.134231
C	-1.467545756	-0.037888253	-1.6713988317	-0.245543
C	-1.0843530376	 1.4418299887	-1.3785955679	-0.095927
H	-0.1205029642	-0.1358562538	 1.3612234234	 0.281328
H	-1.7547979392	 1.8302018857	 2.023355646	 0.074023
H	-0.248143903	 2.5810565202	 1.4474051324	 0.116766
H	-3.8823479962	 2.6697674999	 0.3289602452	 0.084836
H	-3.2232219692	 3.772304251	-0.8941255312	 0.109404
H	-3.2438198101	 1.6149536682	-2.0147527428	 0.072084
H	-3.0026439943	-0.2644465758	 0.1446573307	 0.062187
H	-0.6847398839	-0.7800879215	-1.527077415	 0.112239
H	-2.0383810898	-0.2108254263	-2.5877990819	 0.086682
H	-0.383618383	 2.0746916742	-1.9238419486	 0.076956
185.4216	202.8424	221.4692	342.0411	365.3437	407.2428	427.3377	495.0132	580.8175	666.2528	761.0092	770.7661	818.8133	851.9065	894.6252	904.1466	963.3326	1009.6564	1015.218	1024.8182	1052.5634	1070.8051	1088.5391	1099.5053	1136.332	1161.9822	1189.84	1196.3165	1207.9856	1228.4265	1243.2798	1248.2361	1265.3193	1299.7232	1346.0865	1381.578	1382.7409	1426.7699	1499.435	1507.5316	1510.3239	2920.4951	2945.2594	3061.4724	3064.0607	3073.1354	3080.21	3083.5191	3112.8451	3157.681	3803.9224
OC12COCC3C1CC23	O[C@]12COC[C@@H]3[C@H]1C[C@H]23	
InChI=1S/C7H10O2/c8-7-3-9-2-4-5(7)1-6(4)7/h4-6,8H,1-3H2	InChI=1S/C7H10O2/c8-7-3-9-2-4-5(7)1-6(4)7/h4-6,8H,1-3H2/t4-,5-,6+,7-
