19
gdb 3977	2.682999	1.4885213	1.1210012	1.7297	75.68	-0.2422	-0.02927	0.21293	1138.3658	0.155417	-422.54666	-422.537789	-422.536845	-422.580378	32.664	
C	-0.6530502278	 1.4866488216	 2.6140022622	-0.405323
C	-1.4529919319	 1.5749823728	 1.3318590753	 0.142745
O	-2.518624495	 0.5922414952	 1.2370457744	-0.310236
C	-2.1012740216	 0.1808048519	-0.0775007967	 0.107021
C	-1.2256242645	-1.1015449935	-0.0463137471	-0.1333
C	-1.2055276598	-1.9432171752	-1.3242267256	-0.409439
C	 0.0066188091	-0.172690548	 0.0803755259	 0.409679
O	 1.1851362828	-0.3760498699	 0.1367512315	-0.309966
C	-0.8442921785	 1.1039566885	-0.0183433237	-0.248086
H	-0.1949432989	 0.5015570516	 2.7356349802	 0.131625
H	 0.1415728311	 2.240063638	 2.615997039	 0.127278
H	-1.3046652366	 1.6738846595	 3.4732051744	 0.130732
H	-1.8781400921	 2.5819743297	 1.2215889257	 0.086838
H	-2.8940829454	 0.2488835702	-0.8257290286	 0.083284
H	-1.4132802907	-1.7238659584	 0.8339216293	 0.109927
H	-0.3783884462	-2.6576994798	-1.2941765393	 0.141069
H	-2.1415182071	-2.4980918207	-1.4387985404	 0.126413
H	-1.072034646	-1.318072529	-2.2140321296	 0.120833
H	-0.5481861709	 1.8631897953	-0.7410282668	 0.098907
59.674	125.6374	187.0665	213.9844	216.5872	232.8077	334.0277	391.3181	429.7481	466.1253	611.9257	697.2917	749.6245	816.1289	838.8922	880.887	896.3083	901.8423	992.3162	1010.9943	1023.0712	1064.272	1086.4877	1102.3532	1110.3844	1146.0894	1171.5117	1203.744	1226.1111	1247.9415	1272.6303	1312.1488	1338.0018	1385.364	1404.5602	1412.4003	1481.9951	1492.9533	1494.7347	1497.055	1882.4754	3004.4496	3035.0564	3040.3459	3069.9628	3087.4826	3103.3607	3111.4648	3119.5481	3123.0104	3126.8593
CC1OC2C(C)C(=O)C12	C[C@@H]1O[C@@H]2[C@@H](C)C(=O)[C@H]12	
InChI=1S/C7H10O2/c1-3-6(8)5-4(2)9-7(3)5/h3-5,7H,1-2H3	InChI=1S/C7H10O2/c1-3-6(8)5-4(2)9-7(3)5/h3-5,7H,1-2H3/t3-,4-,5-,7+/m0/s1
