19
gdb 2520	2.7061143	1.5735852	1.0674595	2.2873	78.59	-0.23315	0.00902	0.24217	1137.1587	0.157885	-422.554268	-422.546019	-422.545075	-422.587222	30.478	
C	-0.0429734579	 1.4515766893	 0.1245115873	-0.497047
C	-0.0277598524	-0.0366879274	-0.0025525842	 0.122012
C	-1.028269141	-0.8892676607	-0.2000020865	 0.177439
C	-2.5164331784	-0.9324044386	-0.0872282775	-0.166268
O	-2.7925905168	-2.2544978454	 0.4192905876	-0.275719
C	-1.5729910675	-2.8969248323	 0.814113542	-0.096399
C	-0.5260395284	-2.3041695477	-0.1407907108	 0.051117
O	 0.8152146864	-2.2137847899	 0.302824584	-0.278744
C	 1.241767019	-0.8549348322	 0.1593912661	-0.152172
H	 0.5119041743	 1.9277894244	-0.6939137404	 0.135494
H	-1.0621090447	 1.8465343949	 0.1077323461	 0.129746
H	 0.4371217894	 1.7733443099	 1.0569422447	 0.131339
H	-2.9069990534	-0.1676577796	 0.5987384029	 0.108982
H	-3.0421592731	-0.8256238479	-1.044910049	 0.114439
H	-1.2979098536	-2.6574529365	 1.8523885207	 0.095496
H	-1.7321863645	-3.9738873344	 0.7208635745	 0.10913
H	-0.5743207799	-2.8233028448	-1.112745857	 0.080927
H	 1.9269199257	-0.7556872155	-0.7001472771	 0.10066
H	 1.8040030967	-0.5594255856	 1.0566144069	 0.109568
100.3385	152.5858	168.2376	181.482	216.9226	285.3769	400.7734	451.3939	572.7898	603.663	645.762	687.2331	830.6561	905.5108	921.3316	958.732	968.5379	1003.6728	1018.4862	1058.0749	1087.2432	1094.8375	1109.4237	1132.2164	1173.8648	1197.9689	1210.608	1211.8239	1260.8519	1298.9358	1322.8508	1367.235	1373.1017	1395.0212	1416.1262	1479.0903	1488.8385	1507.5263	1517.4985	1517.8941	1784.7349	2953.3968	2958.6115	2993.9585	3002.0665	3013.9048	3020.0657	3030.4846	3066.2673	3099.5824	3112.5682	100.338	152.5876	168.2369	181.4819	216.9225	285.3769	400.7734	451.394	572.7897	603.663	645.762	687.2331	830.6561	905.5103	921.3316	958.732	968.5378	1003.6728	1018.4862	1058.0743	1087.243	1094.8375	1109.4237	1132.2165	1173.8647	1197.9688	1210.6081	1211.824	1260.8519	1298.9358	1322.851	1367.235	1373.1016	1395.0212	1416.1259	1479.0897	1488.8379	1507.5265	1517.4984	1517.894	1784.7349	2953.3968	2958.6115	2993.9584	3002.0664	3013.9048	3020.0658	3030.4845	3066.2673	3099.5823	3112.5682
CC1=C2COCC2OC1	C[C]1[C]2COC[C@@H]2OC1	
InChI=1S/C7H10O2/c1-5-2-9-7-4-8-3-6(5)7/h7H,2-4H2,1H3	InChI=1S/C7H10O2/c1-5-2-9-7-4-8-3-6(5)7/h7H,2-4H2,1H3/t7-/m0/s1
