19
gdb 5115	2.5437684	1.6490902	1.2101938	1.2052	75.07	-0.22634	0.06806	0.2944	1081.7273	0.154274	-422.466391	-422.457488	-422.456544	-422.499647	33.498	
C	 1.3878077444	 0.1387092401	-0.1281190206	-0.256579
O	-0.0196939334	-0.0249535889	-0.0196333853	-0.277079
C	-0.5589871879	 0.5743777891	 1.09460797	 0.37789
C	-0.7298485627	 2.059928207	 1.262352221	-0.351276
C	-1.9470933112	 1.1518936618	 1.2421342755	-0.197349
C	-2.0949095136	 0.3736350918	 2.5851708303	-0.060802
O	-1.0373313569	 0.7557491993	 3.4878279131	-0.285555
C	-0.7616500566	-0.207392876	 2.4580807485	 0.346934
C	-0.1712110218	-1.5314609115	 2.8082246052	-0.510247
H	 1.9172602695	-0.3167775275	 0.7197240941	 0.112672
H	 1.694754013	-0.3614900901	-1.0492643643	 0.127476
H	 1.6620749223	 1.2004911328	-0.18134633	 0.116598
H	-0.4349417565	 2.5712619039	 2.1698806576	 0.134047
H	-0.5964158538	 2.616593754	 0.339463121	 0.114539
H	-2.7279900952	 1.2323881909	 0.498515167	 0.103191
H	-3.0091192504	-0.0086195553	 3.0240484277	 0.105394
H	-0.6999866495	-1.9736349474	 3.6568823553	 0.133363
H	-0.2387216678	-2.2106405784	 1.9530593344	 0.137943
H	 0.8862486181	-1.4319815857	 3.0788834893	 0.128841
96.682	144.0765	163.24	199.4617	228.1879	248.1878	387.3414	419.6532	431.4197	444.1881	556.9586	604.2032	677.9447	765.1066	803.6211	849.4787	870.0967	922.5162	949.8586	980.9594	1005.7646	1016.8981	1052.3661	1068.1586	1090.8479	1101.7229	1152.3186	1180.0315	1216.922	1225.2845	1249.61	1267.527	1357.283	1400.5422	1453.0319	1469.2382	1481.734	1486.5638	1491.2721	1503.0142	1505.7664	3000.3304	3033.6977	3057.4068	3098.2568	3123.1435	3123.7768	3136.0555	3184.105	3213.7443	3232.2886
COC12CC1C1OC21C	CO[C@@]12C[C@@H]1[C@@H]1O[C@]21C	
InChI=1S/C7H10O2/c1-6-5(9-6)4-3-7(4,6)8-2/h4-5H,3H2,1-2H3	InChI=1S/C7H10O2/c1-6-5(9-6)4-3-7(4,6)8-2/h4-5H,3H2,1-2H3/t4-,5+,6+,7+/m1/s1
