19
gdb 3366	2.269881	1.7012376	1.1696883	2.3375	76.13	-0.24175	-0.02153	0.22022	1104.9563	0.15578	-422.55516	-422.546224	-422.54528	-422.588717	33.349	
C	-1.077946112	 2.0136006679	 1.0545990637	-0.405105
C	-1.0802324325	 0.8959887226	 0.0173003388	-0.102545
C	-2.2158138224	-0.1767497858	 0.0722887298	-0.112857
C	-2.7266406355	-0.6256000171	-1.3093844764	-0.226356
C	-1.5258326197	-1.6046405858	-1.4513264147	-0.282897
C	-1.0885191727	-1.3511279671	 0.0174853172	 0.329018
O	-0.9770212558	-2.4938216496	 0.7857171266	-0.470055
C	-0.0915819076	-0.2475133465	 0.3024729603	 0.302258
O	 0.9210382827	-0.294703737	 0.9537543691	-0.332411
H	-1.2083498572	 1.6132685829	 2.0648137741	 0.123448
H	-0.126498394	 2.552643359	 1.0341714294	 0.135123
H	-1.8840659371	 2.7281466364	 0.8628907586	 0.119705
H	-0.9638775503	 1.3106490487	-0.9904429355	 0.094926
H	-2.9084199796	-0.0715096985	 0.9068500037	 0.083283
H	-3.6818709233	-1.1533132198	-1.2597144547	 0.110648
H	-2.8078907855	 0.1648372759	-2.0607104256	 0.100496
H	-1.8148073841	-2.6494286455	-1.5778227304	 0.128688
H	-0.7797492274	-1.3571945972	-2.2103902589	 0.110677
H	-0.3211148561	-2.3130902737	 1.4730264151	 0.293954
65.2317	138.76	189.2297	206.6838	243.8579	253.1696	344.5532	355.5048	410.2598	490.5863	537.558	671.7632	724.2142	763.3753	784.1369	827.6618	877.8418	951.0293	957.5529	968.4634	994.0987	1025.0116	1058.8158	1077.7454	1108.6418	1144.7115	1162.5587	1208.237	1233.0351	1248.1224	1269.5095	1285.6827	1334.3093	1351.6866	1388.5682	1408.7139	1470.6085	1492.5056	1493.2127	1495.6534	1836.4352	3039.7629	3042.1431	3058.0567	3069.5712	3104.4695	3110.4857	3115.4696	3121.3572	3131.3314	3750.9199
CC1C2CCC2(O)C1=O	C[C@@H]1[C@H]2CC[C@@]2(O)C1=O	
InChI=1S/C7H10O2/c1-4-5-2-3-7(5,9)6(4)8/h4-5,9H,2-3H2,1H3	InChI=1S/C7H10O2/c1-4-5-2-3-7(5,9)6(4)8/h4-5,9H,2-3H2,1H3/t4-,5-,7+/m1/s1
