19
gdb 5059	2.5448218	1.5317917	1.1161993	2.1984	75.98	-0.245	0.00276	0.24776	1132.5608	0.155776	-422.556572	-422.547699	-422.546755	-422.590001	33.533	
C	-2.6529568211	-1.9413636346	 0.2618043631	-0.486363
C	-1.9269848822	-1.5195028631	 1.5107827462	 0.33152
C	-2.7289391748	-1.1727732061	 2.7708246675	-0.332863
C	-1.8085784041	-0.2485103296	 3.5386752747	-0.083883
C	-0.6729552806	-0.0120064489	 2.8800397455	-0.123355
C	-0.6507939027	-0.77095215	 1.5904365726	 0.294376
C	 0.2417597126	-0.3587468247	 0.4531466105	-0.164255
O	 1.6085201444	-0.5460078964	 0.7899408901	-0.419491
O	-0.7070061446	-2.2164387956	 1.810012209	-0.348184
H	-3.2190832711	-2.8613523876	 0.4461153146	 0.129519
H	-3.3626285624	-1.1704115703	-0.0558294999	 0.123699
H	-1.9558007316	-2.1365800846	-0.555424988	 0.130939
H	-3.6792564921	-0.6860986986	 2.5148408912	 0.110493
H	-2.9788590825	-2.0769716982	 3.3394463052	 0.124559
H	-2.0590894822	 0.133628892	 4.5218024657	 0.101938
H	 0.1520365555	 0.606821762	 3.2089332896	 0.112193
H	-0.0262579444	-0.9121635293	-0.4574149764	 0.092262
H	 0.1223036536	 0.7102792955	 0.2470084919	 0.112694
H	 1.7033728604	-1.4719683518	 1.0418277569	 0.294203
66.4446	144.3301	173.8099	213.0121	265.0859	295.5274	355.2236	399.2365	431.6058	497.7948	525.4612	593.5329	700.9634	727.0281	742.9753	830.204	869.2001	929.7547	941.6826	953.7782	959.4066	977.5017	1036.4594	1075.6847	1093.177	1140.8157	1188.7552	1192.8451	1213.3691	1261.5946	1315.1873	1362.9456	1380.781	1409.0443	1426.7911	1447.587	1460.7907	1486.0295	1490.921	1500.3212	1666.678	3008.839	3023.4222	3036.856	3059.7547	3076.1141	3096.5253	3130.7761	3193.3364	3224.5867	3797.329
CC12CC=CC1(CO)O2	C[C@]12CC=C[C@@]1(CO)O2	
InChI=1S/C7H10O2/c1-6-3-2-4-7(6,5-8)9-6/h2,4,8H,3,5H2,1H3	InChI=1S/C7H10O2/c1-6-3-2-4-7(6,5-8)9-6/h2,4,8H,3,5H2,1H3/t6-,7-/m0/s1
