19
gdb 3987	4.1847342	1.0602985	0.9528866	2.1904	75.66	-0.2423	-0.03168	0.21061999999999997	1266.0379	0.155637	-422.53091	-422.522208	-422.521264	-422.565087	31.626	
C	 1.8418191832	-0.5501185928	-1.2001641525	-0.403872
C	 1.4139874372	 0.0806147555	 0.1154764752	 0.02153
C	 1.9828462884	 1.4882352605	 0.5017364798	-0.27499
C	 2.4695089491	 0.9241750158	 1.864775685	-0.080715
C	 3.8771424465	 0.3151169265	 1.8201481065	 0.041955
O	 3.3827076631	-0.9414133719	 1.3011012279	-0.310983
C	 2.0072867283	-0.4960652318	 1.4264069795	 0.102588
C	 4.5594611075	 0.0971736485	 3.1580123428	 0.127811
O	 4.5641996034	 0.9020901384	 4.0527094345	-0.240736
H	 1.4181444197	-1.5535931363	-1.3161094263	 0.117263
H	 1.5072827062	 0.055291302	-2.049145079	 0.114153
H	 2.9304879252	-0.6415226998	-1.2487089136	 0.128491
H	 0.3209617374	 0.0864620205	 0.1946318454	 0.076786
H	 2.7852027589	 1.8582936325	-0.1439959	 0.100527
H	 1.2245607742	 2.2694645512	 0.5844129723	 0.107936
H	 2.1810755244	 1.4294224438	 2.784012132	 0.097881
H	 4.5954844171	 0.7966112315	 1.1378130739	 0.103862
H	 1.4114620142	-1.1966010233	 2.0174123691	 0.078553
H	 5.0570154759	-0.8953140808	 3.2432029675	 0.091958
45.8762	82.5717	149.2918	201.6062	224.9873	277.8834	347.5899	403.2145	515.9044	602.2077	656.718	770.7069	781.251	836.092	878.4697	883.7415	931.0629	960.3874	979.2724	1014.1514	1035.342	1066.0352	1086.8175	1110.5355	1131.1699	1168.2091	1196.2934	1217.2752	1237.7734	1267.2203	1288.6554	1292.5308	1324.5881	1349.0943	1362.0137	1397.2112	1408.5727	1485.1148	1492.3554	1499.5693	1831.2924	2885.9574	2983.7179	3033.2801	3039.8882	3054.4315	3074.725	3097.5404	3110.7034	3116.6244	3141.3052
CC1CC2C(OC12)C=O	C[C@@H]1C[C@@H]2[C@H](O[C@H]12)C=O	
InChI=1S/C7H10O2/c1-4-2-5-6(3-8)9-7(4)5/h3-7H,2H2,1H3	InChI=1S/C7H10O2/c1-4-2-5-6(3-8)9-7(4)5/h3-7H,2H2,1H3/t4-,5-,6-,7-/m1/s1
