19
gdb 2462	2.7835601	1.7986257	1.438119	0.5766	73.13	-0.2234	0.07632	0.29972	960.3302	0.159331	-422.558402	-422.551122	-422.550178	-422.589664	29.607	
O	 0.3551700537	 0.1714831416	 0.5385240413	-0.478128
C	-0.8664799546	 0.737859637	 0.9067602509	 0.363169
C	-0.9716412458	 2.2524672595	 1.10177656	-0.292046
C	-2.2847172763	 2.6514297518	 0.3846813796	-0.202592
C	-3.1452538428	 1.364550063	 0.3411784787	-0.063008
C	-3.8093684104	 1.0575982438	 1.6954715898	-0.075357
O	-2.7725418362	 0.5104174199	 2.5213991347	-0.2604
C	-1.8520384244	-0.1272361746	 1.6696322968	 0.018021
C	-2.1178239787	 0.2208459708	 0.230337709	-0.162176
H	 0.9107358159	 0.1249767584	 1.3245610777	 0.282921
H	-0.9998095264	 2.513846677	 2.1646210532	 0.108573
H	-0.0971308811	 2.7333126651	 0.6561275518	 0.103266
H	-2.8034513259	 3.4851004228	 0.868934228	 0.093588
H	-2.0593162633	 2.9589157882	-0.6417422676	 0.102213
H	-3.8757288796	 1.3767420967	-0.4706738016	 0.075145
H	-4.2082617791	 1.9422152913	 2.2012474504	 0.105104
H	-4.621059377	 0.3242148293	 1.5757481112	 0.091642
H	-1.5504249436	-1.122812611	 1.9810449898	 0.094224
H	-2.1056427845	-0.5021350607	-0.5747626737	 0.09584
148.5332	213.6379	266.1394	318.4517	359.4968	389.5273	491.8738	542.9847	572.6989	720.0218	753.5349	780.0033	801.2879	847.5735	882.1229	903.6563	947.5966	949.1229	971.8394	992.4557	1017.9025	1038.2261	1063.242	1092.7932	1111.8051	1163.2357	1181.6857	1212.5608	1228.5325	1263.227	1271.66	1282.5119	1292.2017	1316.1184	1332.2983	1351.4742	1381.91	1431.0135	1482.6838	1499.9554	1515.6546	2989.4546	3042.1159	3051.1026	3080.1485	3085.5611	3090.301	3105.0115	3155.4399	3198.7765	3793.3873
OC12CCC3COC1C23	O[C@]12CC[C@@H]3CO[C@H]1[C@H]23	
InChI=1S/C7H10O2/c8-7-2-1-4-3-9-6(7)5(4)7/h4-6,8H,1-3H2	InChI=1S/C7H10O2/c8-7-2-1-4-3-9-6(7)5(4)7/h4-6,8H,1-3H2/t4-,5-,6+,7+/m1/s1
