19
gdb 4448	2.8111786	1.4412653	1.066535	3.4439	75.76	-0.23745	-0.03265	0.20479999999999998	1158.7485	0.156499	-422.570386	-422.561764	-422.56082	-422.603756	32.213	
C	-0.1581183638	 2.4590949988	-0.5045704709	-0.405027
C	-1.0017968111	 1.2722939046	-0.0508775152	-0.090315
C	-1.9913327349	 0.6793935556	-1.0771088462	-0.236263
C	-2.2860783294	-0.7487748697	-0.5640847763	-0.32882
C	-0.955442447	-1.1902411956	 0.0162407107	 0.355929
C	-0.217052053	-2.4145113583	-0.3491693073	-0.233368
O	-0.8769895487	-2.3016297315	 0.9046954778	-0.267648
C	-0.1754902317	 0.0615818361	 0.3876573151	 0.344275
O	 0.9083183506	 0.0768735636	 0.9133460798	-0.324951
H	 0.5826987012	 2.7092519499	 0.2592502577	 0.140492
H	 0.3815864932	 2.2229589386	-1.4278716471	 0.119487
H	-0.7798636551	 3.3393998797	-0.6918590327	 0.115084
H	-1.5745951495	 1.5588104159	 0.8462896542	 0.11029
H	-2.8964605284	 1.2809377307	-1.1878436973	 0.109001
H	-1.5091131252	 0.6315421426	-2.0612796173	 0.107214
H	-3.0322775218	-0.7204471476	 0.2389898186	 0.120552
H	-2.6631122204	-1.4178244032	-1.3407975922	 0.110912
H	-0.6688108805	-3.1026647881	-1.0629134058	 0.117977
H	 0.8703382256	-2.405021572	-0.3022400458	 0.135178
57.9119	152.4116	194.6577	224.546	256.6369	274.8004	345.223	393.7502	460.0247	509.3423	572.6237	678.4127	732.2262	800.6633	866.7201	879.8326	907.1314	943.0701	969.9381	976.5643	1010.4543	1070.9236	1108.6312	1134.264	1141.3871	1170.8838	1184.7214	1210.8109	1252.0215	1302.3636	1305.0448	1317.3547	1354.4344	1406.2914	1413.4704	1487.1825	1494.741	1497.9936	1502.4073	1509.7796	1842.2328	2981.8986	3035.2785	3040.062	3043.1216	3082.3271	3099.1769	3104.9397	3107.2237	3123.9547	3181.1769
CC1CCC2(CO2)C1=O	C[C@H]1CC[C@@]2(CO2)C1=O	
InChI=1S/C7H10O2/c1-5-2-3-7(4-9-7)6(5)8/h5H,2-4H2,1H3	InChI=1S/C7H10O2/c1-5-2-3-7(4-9-7)6(5)8/h5H,2-4H2,1H3/t5-,7+/m0/s1
