19
gdb 2426	2.4943032	1.9902571	1.5927564	2.6178	72.94	-0.22204	0.08176	0.30379999999999996	930.2617	0.158691	-422.542797	-422.535473	-422.534529	-422.574181	29.288	
C	 1.2611752475	 1.8866070715	-1.0250326541	-0.484362
C	 1.8905389534	 0.667472987	-0.3600314069	 0.236871
C	 1.3240198959	-0.6740425661	-0.876381242	-0.097382
O	 2.3193738584	-1.6644044493	-0.6238412723	-0.255064
C	 3.5656643461	-1.0236556092	-0.5777423105	 0.059998
C	 3.8774843697	-0.1906328898	 0.6543853768	 0.05999
O	 2.8956117536	-0.1249589192	 1.6531591583	-0.255064
C	 1.8453659252	 0.7186904235	 1.183519178	-0.097386
C	 3.4072312225	 0.4738934983	-0.6130030827	-0.211952
H	 1.7302883265	 2.8119938809	-0.6766312336	 0.123881
H	 1.3667669444	 1.8406146745	-2.1133919706	 0.123883
H	 0.1910724385	 1.9525809248	-0.798885247	 0.122098
H	 0.4044372106	-0.9800330883	-0.367467391	 0.10779
H	 1.1212098165	-0.609336756	-1.9571376237	 0.087331
H	 4.3599245606	-1.5505051708	-1.0968101986	 0.09733
H	 4.8960970271	-0.1181145357	 1.0218366271	 0.09733
H	 0.9027056539	 0.3511760123	 1.6013471633	 0.10779
H	 2.0047924231	 1.7508407642	 1.5336664478	 0.08733
H	 3.9807226067	 1.1610945174	-1.2227446681	 0.089588
134.6607	211.0529	243.5648	270.5442	325.8738	399.4254	560.978	579.2336	580.0769	730.0452	733.7377	772.977	794.8237	828.3347	887.3462	940.5253	971.6115	976.3428	987.3213	1002.5274	1043.2726	1075.938	1088.9028	1102.9174	1115.7252	1174.1852	1177.9996	1197.2357	1203.961	1262.3758	1267.0331	1272.6944	1314.1348	1376.1664	1381.4747	1409.1144	1424.3128	1495.2639	1496.6893	1505.7235	1521.043	2975.8477	2979.2808	3032.4453	3073.5671	3080.7146	3096.6115	3107.4094	3157.7222	3164.6632	3183.7463
CC12COC3C(OC1)C23	C[C@]12CO[C@@H]3[C@H](OC1)[C@H]23	
InChI=1S/C7H10O2/c1-7-2-8-5-4(7)6(5)9-3-7/h4-6H,2-3H2,1H3	InChI=1S/C7H10O2/c1-7-2-8-5-4(7)6(5)9-3-7/h4-6H,2-3H2,1H3/t4-,5+,6-,7+
