19
gdb 4011	4.4384799	1.1359269	1.0381913	3.1089	76.14	-0.24089	0.05605	0.29694	1204.3498	0.156208	-422.499463	-422.491293	-422.490349	-422.532403	31.064	
C	 0.2631026108	 0.2088000309	-0.439225252	-0.406564
C	 1.0384583538	-0.424872499	 0.6993412816	 0.159754
O	 2.4636391584	-0.488738401	 0.405009509	-0.304145
C	 2.4516250247	-1.9267722054	 0.377711821	 0.00351
C	 0.9566538878	-1.9590044131	 0.829930679	-0.091257
C	 1.3857643669	-2.4989686999	 2.2266301704	-0.362495
C	 2.8331704817	-2.5728865407	 1.7104254143	 0.466419
C	 3.8394959271	-3.6098688715	 1.9547699005	-0.264781
O	 3.9940457024	-2.2738803222	 2.4511851538	-0.256329
H	-0.806561047	 0.2407476311	-0.2034573917	 0.114222
H	 0.6098693446	 1.2330159439	-0.6072512471	 0.130031
H	 0.3991353065	-0.354869563	-1.367664374	 0.119807
H	 0.8601462208	 0.1207654851	 1.6358271493	 0.079403
H	 2.8721701228	-2.3322333356	-0.5470292912	 0.075114
H	 0.1622216119	-2.4799535931	 0.2984615015	 0.078426
H	 1.2311897316	-1.7963016338	 3.0502526333	 0.117221
H	 0.9553479933	-3.4647625524	 2.5023434577	 0.109697
H	 3.6521397068	-4.3722254309	 2.7103806885	 0.114785
H	 4.5312534649	-3.8961753594	 1.1631523963	 0.117181
54.5315	149.887	222.686	243.907	277.072	340.1407	361.2227	410.0632	541.4886	577.2653	765.2823	779.7801	821.705	866.6613	875.1813	881.7705	912.3721	942.4926	988.2036	996.5203	1035.3943	1076.0599	1099.1854	1115.3117	1130.3832	1141.4075	1155.3339	1177.8778	1202.0901	1229.4296	1251.0439	1271.2765	1288.7565	1326.5957	1385.7592	1404.9762	1432.9264	1475.6576	1483.9134	1492.0983	1531.4735	3012.157	3031.9242	3058.0686	3067.1821	3076.9239	3104.5679	3109.9701	3112.9126	3129.7525	3164.496
CC1OC2C1CC21CO1	C[C@@H]1O[C@@H]2[C@H]1C[C@]12CO1	
InChI=1S/C7H10O2/c1-4-5-2-7(3-8-7)6(5)9-4/h4-6H,2-3H2,1H3	InChI=1S/C7H10O2/c1-4-5-2-7(3-8-7)6(5)9-4/h4-6H,2-3H2,1H3/t4-,5-,6+,7+/m0/s1
