19
gdb 542	3.2183843	1.5972606	1.3175121	1.1866	74.11	-0.24384	0.06678	0.31062	1000.0771	0.159207	-422.523498	-422.516325	-422.515381	-422.555051	28.294	
C	-0.0515826342	 2.4782089322	-2.3960711053	-0.16435
O	 0.0809848437	 3.7576265502	-1.728796407	-0.298657
C	 0.8870350966	 3.1848551046	-0.6702655278	 0.086659
C	 0.0961062705	 2.8924017837	 0.6186510103	-0.253421
C	-0.3028358448	 1.4976173565	 0.0444271589	-0.083112
C	 0.3634145105	 0.2648684106	 0.6680169521	-0.09655
O	 1.6765657983	 0.1889886429	 0.1106288168	-0.253475
C	 1.5751904293	 0.610547974	-1.2463179164	-0.203062
C	 0.5960090886	 1.7603147147	-1.2151790675	 0.297975
H	-1.0949046378	 2.2308021907	-2.6277727282	 0.102168
H	 0.5364590289	 2.4514025044	-3.3247811732	 0.099114
H	 1.8759514889	 3.6488117894	-0.6042328908	 0.074504
H	 0.7343253351	 2.8236180786	 1.5053691382	 0.10538
H	-0.7225766277	 3.5878750612	 0.8149168461	 0.11056
H	-1.3694458853	 1.3488792723	-0.1353126404	 0.073888
H	 0.4709916579	 0.3160109578	 1.7553589866	 0.110769
H	-0.2093466118	-0.6427498839	 0.4173537362	 0.089584
H	 2.578806965	 0.8821425374	-1.5862365137	 0.113728
H	 1.1992804983	-0.2052970972	-1.8892737149	 0.088295
101.9673	194.3315	241.7655	330.5777	351.2408	401.317	460.0531	636.9316	693.7006	729.7636	796.3834	849.1009	872.2634	882.854	933.4515	950.0825	976.3576	999.784	1011.1064	1038.1088	1081.0042	1092.2572	1131.7169	1136.9816	1153.5335	1183.3042	1191.0809	1222.1651	1246.857	1260.9279	1269.9165	1287.8486	1302.527	1334.5118	1349.9933	1381.6053	1399.1197	1458.9087	1499.9533	1512.791	1521.8075	2946.9327	2972.463	2993.4827	3046.3439	3049.9167	3063.7135	3082.9085	3086.4629	3087.3869	3119.5801
C1OC2CC3COCC123	C1O[C@H]2C[C@@H]3COC[C@]123	
InChI=1S/C7H10O2/c1-5-2-8-3-7(5)4-9-6(1)7/h5-6H,1-4H2	InChI=1S/C7H10O2/c1-5-2-8-3-7(5)4-9-6(1)7/h5-6H,1-4H2/t5-,6+,7-/m1/s1
