19
gdb 4504	2.2373478	1.8596412	1.4723517	1.9594	74.76	-0.23771	-0.01469	0.22302	988.8971	0.158078	-422.565855	-422.557961	-422.557016	-422.598031	30.628	
C	-0.5706782501	-1.9035874109	-2.3060729155	-0.402864
C	-1.6155353106	-1.337044525	-1.3458712768	 0.119051
O	-2.2268608667	-0.1497558849	-1.8544493563	-0.264905
C	-1.6123740374	 1.0809153469	-1.5110189134	-0.092868
C	-1.0796552903	 1.0574767628	-0.0550077759	-0.160981
C	-1.9337777502	 0.028559878	 0.7518951602	-0.250529
C	-1.0597828734	-1.0810035665	 0.0842054627	-0.16369
C	 0.0234547725	-0.0017511401	-0.0166699228	 0.436681
O	 1.2209686172	 0.0141730504	 0.0152759844	-0.333224
H	-0.1879601677	-2.8595897736	-1.9336110894	 0.120471
H	-1.0201639307	-2.0697621366	-3.2885008873	 0.125624
H	 0.280977223	-1.226809675	-2.4208128673	 0.135754
H	-2.4450647052	-2.0499391527	-1.2599123003	 0.091601
H	-0.7949129011	 1.3356490373	-2.2026121197	 0.109578
H	-2.3919474342	 1.8426318947	-1.616840231	 0.117465
H	-0.8823644999	 2.061470187	 0.3237827782	 0.090542
H	-1.7653899772	 0.1016705491	 1.8274148236	 0.113141
H	-3.00110117	 0.0025856729	 0.5286496716	 0.11944
H	-0.8392965381	-2.0162067738	 0.6012716448	 0.089712
117.9012	133.7258	217.8208	238.2713	336.424	393.7363	430.1735	466.2433	514.0073	543.7446	717.2297	769.6077	792.4454	827.1341	850.4079	889.7257	910.6577	972.3427	992.1078	1010.693	1037.6725	1086.3984	1098.2492	1103.8546	1130.1137	1146.8126	1167.9733	1225.7306	1244.8067	1264.5502	1269.7313	1292.65	1349.9614	1379.3723	1404.5869	1409.7512	1486.3642	1489.6479	1495.883	1518.2788	1884.5206	2988.823	3027.3826	3041.657	3067.3293	3081.0715	3106.3596	3108.8734	3113.2388	3125.3341	3145.0216
CC1OCC2CC1C2=O	C[C@@H]1OC[C@H]2C[C@@H]1C2=O	
InChI=1S/C7H10O2/c1-4-6-2-5(3-9-4)7(6)8/h4-6H,2-3H2,1H3	InChI=1S/C7H10O2/c1-4-6-2-5(3-9-4)7(6)8/h4-6H,2-3H2,1H3/t4-,5+,6-/m0/s1
