19
gdb 1166	4.180789	0.9568315	0.8744578	3.4672	76.3	-0.23847	-0.01021	0.22826	1361.0598	0.155111	-422.530719	-422.521775	-422.520831	-422.565271	32.582	
C	 0.3533906505	-3.8718039812	-2.9861226956	-0.481991
C	 0.0047054626	-2.4071876867	-2.8355426015	 0.383849
O	-1.1206734351	-1.9820058463	-2.9595515707	-0.305527
C	 1.1551316308	-1.4708211833	-2.4590839921	-0.305968
C	 1.2417377599	-1.3176211317	-0.9416921557	 0.131845
O	 1.6467242478	-2.5693534381	-0.2998964895	-0.30241
C	 2.873428151	-1.9666160613	 0.1246463013	 0.109072
C	 2.6109301441	-0.8383871512	 1.0691274845	-0.305963
C	 2.4950319202	-0.6128446508	-0.4254963321	-0.136825
H	 1.0521623427	-4.0070882001	-3.82046309	 0.133535
H	 0.8690514494	-4.2090184883	-2.0804538356	 0.163866
H	-0.547643951	-4.4604904441	-3.1621087577	 0.13588
H	 2.1145796724	-1.8385056903	-2.836745609	 0.10478
H	 0.9467574958	-0.4870325335	-2.8922354258	 0.122644
H	 0.2817771163	-0.9654911177	-0.545261537	 0.102912
H	 3.7768368081	-2.5630945993	 0.0775423774	 0.106802
H	 1.7243437149	-0.8620363703	 1.6967439868	 0.121618
H	 3.4898701442	-0.3927943329	 1.5250215108	 0.118892
H	 3.0721171852	 0.122995747	-0.9690279387	 0.10299
45.6459	80.6368	127.5047	180.2876	198.7456	276.5888	386.3647	430.0646	469.592	535.2277	606.444	758.2234	772.31	794.0083	844.4588	883.3943	918.6515	925.0055	966.787	982.7734	1024.0388	1037.709	1048.1735	1066.4952	1068.6522	1087.1102	1113.6713	1172.6256	1206.1068	1232.7775	1249.6466	1287.239	1310.7494	1358.3919	1379.2867	1385.5677	1459.6093	1471.8998	1472.7291	1475.1977	1813.5297	3033.2121	3039.6949	3046.9335	3098.5645	3105.1923	3116.7061	3154.0693	3181.942	3202.1627	3212.2851
CC(=O)CC1OC2CC12	CC(=O)C[C@H]1O[C@@H]2C[C@H]12	
InChI=1S/C7H10O2/c1-4(8)2-6-5-3-7(5)9-6/h5-7H,2-3H2,1H3	InChI=1S/C7H10O2/c1-4(8)2-6-5-3-7(5)9-6/h5-7H,2-3H2,1H3/t5-,6-,7-/m1/s1
