19
gdb 884	2.4928744	1.4002904	0.966574	3.8734	75.51	-0.24227	-0.02742	0.21485	1216.9888	0.157132	-422.605726	-422.597099	-422.596155	-422.639624	31.646	
O	 0.4557413429	 0.2418489051	-0.8732021266	-0.245979
C	 0.2028697753	-0.1758707085	 0.2276386043	 0.154202
C	-0.5143916532	 0.6378130922	 1.2918411501	-0.203881
C	-1.0043855359	 2.0090480533	 0.7867449403	-0.195569
C	-1.7517164711	 2.780178916	 1.8800764574	-0.212271
C	-2.9315375216	 1.9674022488	 2.4277464795	-0.201014
C	-2.4711611551	 0.5957611647	 2.9622687832	-0.291941
C	-1.6553823311	-0.1670511983	 1.9317815278	 0.384865
O	-1.8850159034	-1.3149946831	 1.6280047681	-0.304914
H	 0.4968896599	-1.1971614421	 0.5419757061	 0.101971
H	 0.2192999853	 0.8016987721	 2.1009359347	 0.115101
H	-0.1497698319	 2.5776740309	 0.4103727364	 0.118407
H	-1.663429495	 1.8482231042	-0.0746397744	 0.120221
H	-1.0611183912	 3.0222033208	 2.6999736669	 0.096336
H	-2.107821362	 3.73608248	 1.4816106986	 0.104632
H	-3.4449325409	 2.5154535377	 3.2243410564	 0.10591
H	-3.6682360005	 1.8116331409	 1.6293506859	 0.112588
H	-1.8288661422	 0.7521730571	 3.8411201216	 0.117742
H	-3.3103831482	-0.032755962	 3.2694459737	 0.123593
65.5262	77.905	145.9019	216.1413	289.9102	303.7923	349.4873	420.9594	472.6185	542.6214	638.3132	669.6686	733.9326	818.0216	851.8898	861.2894	897.4917	941.4105	970.2199	1041.9384	1054.5245	1077.3071	1103.2276	1130.2062	1150.2322	1217.943	1252.4932	1269.0784	1301.3375	1305.3067	1340.6483	1369.1667	1373.9361	1379.7513	1422.7434	1465.8006	1487.1616	1490.4711	1502.0858	1804.3991	1829.1851	2935.6781	2967.8238	3012.9301	3013.5953	3030.184	3044.7206	3072.9282	3078.2756	3095.7078	3107.1211
O=CC1CCCCC1=O	O=C[C@H]1CCCCC1=O	
InChI=1S/C7H10O2/c8-5-6-3-1-2-4-7(6)9/h5-6H,1-4H2	InChI=1S/C7H10O2/c8-5-6-3-1-2-4-7(6)9/h5-6H,1-4H2/t6-/m1/s1
