19
gdb 3580	2.6584247	1.2162921	0.9945998	2.4362	77.77	-0.2421	-0.03635	0.20575000000000002	1267.6335	0.153931	-422.589288	-422.579492	-422.578548	-422.624821	34.623	
C	-0.3355012734	-2.1638295308	 0.9588135457	-0.404824
C	-0.9068857567	-1.0914781061	 0.0376166964	-0.083799
C	-2.3138207758	-0.4769029975	 0.3352260058	-0.275583
C	-1.7416271724	 0.9600079075	 0.2409206068	-0.221127
C	-1.9370409623	 1.900670452	 1.422505743	 0.372008
C	-1.231924353	 3.2337002822	 1.3028698788	-0.485508
O	-2.569294024	 1.5683127695	 2.397903829	-0.293089
C	-0.3234441551	 0.3229495204	 0.1597390875	 0.381681
O	 0.7819056817	 0.770920493	 0.2553073614	-0.296064
H	-0.8749471493	-3.108202237	 0.8375797323	 0.124396
H	 0.7206601756	-2.341051522	 0.7357217374	 0.135968
H	-0.4134201437	-1.8621784098	 2.0080836596	 0.130179
H	-0.8272713315	-1.4118363134	-1.0094865038	 0.106729
H	-3.1018207535	-0.723958477	-0.3763569791	 0.108705
H	-2.6643108278	-0.6827002685	 1.3487084754	 0.137686
H	-1.9651094119	 1.4891116353	-0.6923880419	 0.11621
H	-1.3442145921	 3.8038750028	 2.2256674696	 0.14075
H	-0.1717892384	 3.0610863436	 1.0830573829	 0.168882
H	-1.6434881062	 3.8056072758	 0.4632165931	 0.1368
39.7778	67.4471	136.7012	165.678	194.4236	206.7155	241.6174	336.0649	358.0305	461.2145	530.5563	586.2244	591.6987	664.2172	752.4156	808.796	890.0878	913.7221	936.2363	970.165	997.316	1021.1187	1083.1553	1101.8822	1121.4622	1134.4026	1175.455	1197.4885	1235.2833	1264.1129	1294.9742	1336.9906	1385.4597	1406.0504	1467.895	1474.4871	1487.5899	1494.7878	1496.2828	1806.425	1876.5567	3028.4938	3032.7791	3038.6476	3056.8677	3084.4278	3096.2016	3109.3887	3115.5789	3142.55	3153.2597
CC1CC(C(C)=O)C1=O	C[C@H]1C[C@@H](C(=O)C)C1=O	
InChI=1S/C7H10O2/c1-4-3-6(5(2)8)7(4)9/h4,6H,3H2,1-2H3	InChI=1S/C7H10O2/c1-4-3-6(5(2)8)7(4)9/h4,6H,3H2,1-2H3/t4-,6-/m0/s1
