19
gdb 2599	2.0187043	1.7837923	1.109756	2.3358	76.12	-0.24346	-0.02581	0.21765	1132.8414	0.154741	-422.548431	-422.538936	-422.537991	-422.582697	34.551	
C	-1.0033669261	-2.2384555025	 1.0176426484	-0.408074
C	-0.9041323931	-1.0388001032	 0.0881258064	-0.17642
C	-0.0508536403	 0.1529223279	 0.5622051465	 0.3257
O	 0.821626944	 0.266500418	 1.3781994838	-0.308251
C	-1.0346371518	 1.1812183393	-0.0181235572	-0.00891
O	-1.277163322	 2.3517007484	 0.7022818215	-0.426678
C	-2.0456750136	 0.0022647814	-0.0108407266	 0.28398
C	-3.3657267861	-0.0679867412	-0.7062089297	-0.338658
C	-3.3028703659	 0.0245681333	 0.804490651	-0.309425
H	-1.746262492	-2.9581747913	 0.658865717	 0.119864
H	-0.0395497803	-2.7516898828	 1.0809545421	 0.134851
H	-1.2837608877	-1.9294326574	 2.0286435443	 0.12686
H	-0.5906048025	-1.3505492094	-0.916940247	 0.102387
H	-0.7786481479	 1.457167991	-1.0494393526	 0.110168
H	-0.941337039	 2.2181689582	 1.5968604166	 0.294991
H	-3.6977307148	 0.8052236377	-1.2592849103	 0.12106
H	-3.6647991894	-1.0158117073	-1.1433251691	 0.114383
H	-3.5696343474	 0.9698656143	 1.2658202338	 0.126101
H	-3.569045374	-0.8556901943	 1.3802252211	 0.116072
66.462	129.9755	173.1517	189.8287	206.0784	212.0364	227.2138	283.6859	411.4883	473.3651	527.4041	587.2672	623.0414	750.7176	790.2295	828.5322	832.7576	915.8106	947.2586	956.6374	979.9995	1043.4402	1052.5899	1081.9601	1088.4872	1120.1234	1133.4099	1174.3044	1190.913	1229.1962	1246.3126	1311.1499	1347.3078	1379.4028	1406.2701	1416.1148	1461.3417	1492.1044	1494.019	1503.4701	1870.0385	3021.1414	3029.9592	3039.6099	3108.4118	3117.8502	3120.8498	3128.8697	3201.4111	3218.8387	3788.1385
CC1C(=O)C(O)C11CC1	C[C@@H]1C(=O)[C@H](O)C21CC2	
InChI=1S/C7H10O2/c1-4-5(8)6(9)7(4)2-3-7/h4,6,9H,2-3H2,1H3	InChI=1S/C7H10O2/c1-4-5(8)6(9)7(4)2-3-7/h4,6,9H,2-3H2,1H3/t4-,6+/m1/s1
