19
gdb 4021	3.529996	1.4478062	1.3306688	1.8665	74.84	-0.2127	0.07657	0.28927	1045.8187	0.156588	-422.521625	-422.51371	-422.512766	-422.553536	31.114	
C	-0.0121432083	 0.1951254891	 0.3859967585	-0.403803
C	 1.3847025625	-0.1005482944	-0.1310838869	 0.144488
O	 2.1123560503	-0.8608236905	 0.8575582233	-0.28093
C	 3.4317346834	-0.3773574622	 0.8770220795	 0.029811
C	 3.7163898213	 0.5727384299	-0.2535712921	-0.266006
C	 2.2775309462	 1.121858639	-0.3416649532	 0.045065
O	 2.4110873257	 1.7905679148	 0.9519680957	-0.331718
C	 3.6517392714	 1.1027485346	 1.1653728513	 0.44229
C	 4.6436710008	 1.7167209947	 2.0935701866	-0.502422
H	 0.0482052355	 0.8338216457	 1.2695992204	 0.141792
H	-0.6051882844	 0.7003696646	-0.3835098398	 0.108904
H	-0.5204128777	-0.7349214426	 0.6535259978	 0.125687
H	 1.3349388673	-0.6823063767	-1.0671806607	 0.067584
H	 4.1632626568	-1.1047096805	 1.2099582279	 0.10427
H	 4.4849370982	 0.5271366219	-1.0133883137	 0.09764
H	 1.9911770093	 1.8079242869	-1.1399250031	 0.084557
H	 4.2282079684	 1.7853300784	 3.1048838803	 0.137342
H	 5.5513633007	 1.1075608221	 2.1389711642	 0.125155
H	 4.9174202726	 2.7246356951	 1.765321344	 0.130294
140.0212	198.9081	217.6002	246.7684	272.2879	307.597	397.9904	508.2405	549.1737	613.3553	707.4592	749.9832	781.0911	832.3011	844.124	885.0606	892.5336	907.1992	950.2465	971.2259	1026.485	1037.4473	1073.2353	1088.8859	1105.1678	1118.6826	1146.9428	1174.7043	1233.0063	1243.9374	1280.5211	1304.1153	1346.6991	1377.5499	1403.9666	1405.7851	1452.3983	1472.8058	1486.7359	1498.3618	1502.0888	2960.1776	3033.1835	3045.0135	3099.5463	3109.5386	3113.1737	3115.1183	3141.353	3184.0214	3198.88
CC1OC2C3C1OC23C	C[C@@H]1O[C@H]2[C@H]3[C@@H]1O[C@@]23C	
InChI=1S/C7H10O2/c1-3-5-4-6(8-3)7(4,2)9-5/h3-6H,1-2H3	InChI=1S/C7H10O2/c1-3-5-4-6(8-3)7(4,2)9-5/h3-6H,1-2H3/t3-,4+,5+,6-,7+/m0/s1
