19
gdb 5613	2.7267598	1.3242806	0.9962846	3.4422	76.91	-0.24921	-0.03092	0.21828999999999998	1219.9052	0.156615	-422.590997	-422.58205	-422.581106	-422.62495	33.139	
C	-0.5316581491	-2.2110808161	-1.1264751026	-0.39341
C	-0.8849736803	-1.2222260171	-0.0063728231	-0.141427
C	-2.2953987818	-0.6834070642	-0.0085177344	-0.082529
C	-2.3452238359	 0.6494679467	 0.0350036163	-0.097362
C	-0.9795768901	 1.284158877	 0.0753198403	-0.177285
C	-0.6746050885	 2.3391720422	-1.0111896244	-0.058636
O	 0.6062199788	 2.8991094333	-0.8461657447	-0.423726
C	-0.0555708467	 0.0695695557	-0.078678546	 0.396269
O	 1.1327421075	 0.1258549969	-0.3018864502	-0.339845
H	-1.0833640556	-3.1480112464	-1.0079059036	 0.118955
H	-0.7771366805	-1.7933991829	-2.1077221277	 0.123698
H	 0.5388888853	-2.43018671	-1.1064855032	 0.141488
H	-0.6567296801	-1.7029392267	 0.9582707742	 0.114455
H	-3.1599806668	-1.33763973	-0.032187101	 0.104159
H	-3.2562343115	 1.2375044123	 0.0509949834	 0.10567
H	-0.7750361906	 1.7651210011	 1.0434011018	 0.118079
H	-0.8009038069	 1.8781557943	-2.0050780313	 0.087533
H	-1.3984947304	 3.1583891813	-0.9390838286	 0.10732
H	 1.2235827831	 2.1554882527	-0.7913380253	 0.296593
47.3942	140.5996	177.4215	206.3198	219.0432	266.7423	306.2305	389.5688	505.0618	548.93	556.8782	573.3767	662.6336	731.4164	758.7851	801.6938	896.6747	954.9005	982.8353	1008.0201	1025.5281	1036.6901	1088.3849	1089.4312	1122.3441	1143.0245	1156.1054	1198.8928	1245.5124	1279.5069	1299.576	1306.1504	1378.8876	1380.4829	1406.5958	1456.7728	1494.1526	1500.1554	1513.6854	1674.1435	1815.243	2963.8627	2984.0203	3005.6946	3042.6452	3063.2096	3113.3708	3127.2947	3182.8709	3205.9402	3730.0824
CC1C=CC(CO)C1=O	C[C@@H]1C=C[C@H](CO)C1=O	
InChI=1S/C7H10O2/c1-5-2-3-6(4-8)7(5)9/h2-3,5-6,8H,4H2,1H3	InChI=1S/C7H10O2/c1-5-2-3-6(4-8)7(5)9/h2-3,5-6,8H,4H2,1H3/t5-,6-/m1/s1
