19
gdb 3314	3.7589297	1.1132674	0.9261408	0.9213	78.91	-0.22454	0.01835	0.24289	1283.2485	0.156485	-422.541552	-422.53288	-422.531935	-422.574533	32.909	
C	 1.2750531313	 0.8505940443	-0.0277255657	-0.480767
C	-0.0128380926	 0.0922665886	 0.1062082258	 0.293303
C	-0.0952368859	-1.2366518707	 0.1971775725	-0.186922
C	-1.4033801341	-1.9044344748	 0.3925919784	-0.118596
C	-2.3271796033	-2.2031965263	-0.7682569267	 0.049841
O	-3.0638038598	-3.3833420072	-0.6677382992	-0.422068
C	-2.6256745116	-1.0504166111	 0.1591482438	 0.025447
O	-2.4295209553	 0.2353313107	-0.3508107318	-0.257122
C	-1.2856945773	 0.9131562029	 0.155624547	-0.156696
H	 1.3885020101	 1.586593053	 0.7792101827	 0.125702
H	 2.1382281924	 0.1804568935	 0.0052679302	 0.124707
H	 1.3121420128	 1.4139738158	-0.9692398369	 0.12655
H	 0.798272719	-1.8546454383	 0.1489946127	 0.085971
H	-1.4714453865	-2.6258957249	 1.2024574308	 0.105468
H	-1.973087505	-1.9287796726	-1.7618994123	 0.094777
H	-3.9217038786	-3.2335847546	-1.0801989992	 0.288945
H	-3.4715554803	-1.150570539	 0.8380374607	 0.089296
H	-1.182794112	 1.8095869436	-0.4657584838	 0.110709
H	-1.4659678134	 1.2585633971	 1.188504071	 0.101455
108.4555	145.8414	189.8544	236.8865	302.466	306.2633	345.618	353.8376	413.7284	443.8548	528.28	540.237	744.1123	835.4476	848.116	890.4456	905.8072	939.6332	966.9852	1004.9649	1034.2324	1061.964	1081.5729	1089.1482	1105.0573	1140.4309	1174.2947	1198.0126	1216.1406	1272.4255	1282.1498	1315.3837	1339.5496	1366.1231	1400.3492	1412.1792	1458.7972	1477.7545	1489.3033	1493.456	1736.0085	2955.012	3012.58	3057.4078	3061.8258	3107.198	3110.9177	3111.3341	3145.3126	3153.8315	3796.126
CC1=CC2C(O)C2OC1	CC1=C[C@@H]2[C@@H](O)[C@@H]2OC1	
InChI=1S/C7H10O2/c1-4-2-5-6(8)7(5)9-3-4/h2,5-8H,3H2,1H3	InChI=1S/C7H10O2/c1-4-2-5-6(8)7(5)9-3-4/h2,5-8H,3H2,1H3/t5-,6-,7-/m1/s1
