19
gdb 4041	3.0948592	1.4792982	1.43112	2.2109	74.47	-0.21431	0.07004	0.28435	1029.4552	0.156637	-422.516808	-422.508809	-422.507865	-422.548888	31.086	
C	-0.1469172617	-0.2532210494	-0.051115426	-0.40696
C	 1.3080921803	 0.1809047984	-0.0294151441	 0.146903
O	 1.9817567195	-0.3418727685	-1.1946148107	-0.282587
C	 3.2674447528	-0.7408421618	-0.7915591706	 0.026021
C	 3.3655437242	-1.7794469273	 0.3193234485	 0.010907
O	 2.1211230396	-1.8334033643	 1.0178652534	-0.299847
C	 2.1428782303	-0.3748080777	 1.1222117765	-0.002907
C	 3.6065496771	-0.314205798	 0.6096679257	 0.216153
C	 4.7548250111	 0.4980096693	 1.1240426113	-0.518944
H	-0.6943516506	 0.2030083541	 0.7802446248	 0.109197
H	-0.6200958953	 0.0600648613	-0.9853748825	 0.126115
H	-0.209338518	-1.3402103727	 0.0314775745	 0.143252
H	 1.3820872949	 1.2824227295	-0.033348462	 0.066134
H	 4.0070529433	-0.7257308472	-1.5843519514	 0.10357
H	 4.003481145	-2.6566030965	 0.3362961108	 0.102444
H	 1.8949071917	-0.0227139165	 2.1253716182	 0.082483
H	 4.934870324	 0.3130844224	 2.1889890247	 0.126187
H	 5.6754547579	 0.2544804888	 0.5842011595	 0.126307
H	 4.5732913538	 1.5714514959	 0.9938628094	 0.125574
140.1435	180.7922	210.5127	236.8014	245.3376	302.8956	397.2749	500.3519	554.4376	615.3834	659.8107	761.0294	784.7138	831.8339	867.4971	884.9408	918.1656	931.7317	965.6826	1012.9977	1021.2195	1038.5364	1066.6761	1094.0488	1104.5613	1136.7872	1155.693	1195.6445	1217.2355	1254.5877	1277.86	1304.6396	1354.2071	1376.2103	1405.8549	1414.7906	1466.4513	1486.2266	1487.0543	1497.1197	1501.6146	2951.4138	3023.0261	3045.7961	3083.0619	3098.572	3101.3491	3115.5513	3141.3027	3170.6244	3184.1316
CC1OC2C3OC1C23C	C[C@@H]1O[C@@H]2[C@@H]3O[C@H]1[C@]23C	
InChI=1S/C7H10O2/c1-3-4-7(2)5(8-3)6(7)9-4/h3-6H,1-2H3	InChI=1S/C7H10O2/c1-3-4-7(2)5(8-3)6(7)9-4/h3-6H,1-2H3/t3-,4+,5+,6-,7+/m0/s1
