19
gdb 1311	4.8551107	0.5822029	0.5442874	1.6776	82.77	-0.24587	0.02296	0.26883	2004.4088	0.154254	-422.502302	-422.492016	-422.491072	-422.539554	35.821	
C	-3.1034049477	-3.3312665715	 1.1338211203	-0.403449
C	-3.1756382114	-2.4912937172	 2.4055615345	 0.138966
O	-4.3526154505	-2.7601188628	 3.1546326817	-0.422245
C	-3.0734234293	-0.9701105195	 2.1258144529	-0.371554
C	-1.8060137422	-0.5656203768	 1.5342156099	 0.076113
C	-0.7450856732	-0.2684503517	 1.04516685	 0.106458
C	 0.5320650527	 0.0895344868	 0.491535533	-0.117462
C	 0.6508826224	 0.8952889223	-0.7403445538	-0.159255
O	 0.902913505	-0.5028281226	-0.7668894351	-0.216465
H	-3.1714460504	-4.3944463509	 1.3787331321	 0.126147
H	-3.9318767075	-3.0803178206	 0.4579423124	 0.104096
H	-2.1691611764	-3.1502472659	 0.595679232	 0.1433
H	-2.3497065701	-2.7662646919	 3.0706884955	 0.102563
H	-5.1044709886	-2.6972741578	 2.5550340053	 0.277886
H	-3.904223857	-0.6752969763	 1.4685369463	 0.116935
H	-3.2282456189	-0.4468803287	 3.0764519294	 0.140091
H	 1.3542057484	 0.1420245725	 1.2047151274	 0.11622
H	-0.2571681664	 1.2199848359	-1.2447903738	 0.122942
H	 1.5213911011	 1.5370158268	-0.8722143502	 0.118712
18.7689	61.1499	75.4063	143.3288	184.3064	248.405	280.2943	324.1127	339.7508	384.8678	452.5114	457.2374	516.1937	568.5805	745.0198	831.1259	834.315	889.5965	909.1484	950.7264	997.8119	1064.9852	1085.8358	1110.3401	1128.1819	1149.1259	1160.4569	1185.0471	1218.8987	1274.2635	1287.391	1338.4009	1369.2044	1405.0669	1408.5884	1423.9275	1466.0244	1494.0948	1495.2704	1519.6556	2361.5789	3006.516	3022.3856	3053.0783	3066.8173	3084.2255	3100.8242	3113.169	3130.005	3177.6742	3799.0493
CC(O)CC#CC1CO1	C[C@H](O)CC#C[C@@H]1CO1	
InChI=1S/C7H10O2/c1-6(8)3-2-4-7-5-9-7/h6-8H,3,5H2,1H3	InChI=1S/C7H10O2/c1-6(8)3-2-4-7-5-9-7/h6-8H,3,5H2,1H3/t6-,7+/m0/s1
