19
gdb 429	3.2020965	1.2585554	1.0648691	2.0772	74.48	-0.26036	0.07425	0.33460999999999996	1177.691	0.156021	-422.493708	-422.48516	-422.484216	-422.527343	31.856	
C	 0.7522365247	-0.9469148542	 0.58135507	-0.261082
C	 1.8039470866	-0.4390529859	-0.3715078115	-0.274385
C	 0.4345312739	 0.18330811	-0.3706473773	-0.085469
C	-0.5098010603	-0.0550121786	-1.514302274	 0.358391
C	-0.0825422443	 0.1265315875	-2.911571012	-0.216908
O	-0.2213086088	-1.1833806153	-2.3406489394	-0.274405
C	-1.9676346578	 0.1199003887	-1.1698433869	 0.013019
C	-2.9080517142	-1.0079000194	-1.2123872507	-0.172394
O	-2.905223091	-0.0043476781	-2.2327825276	-0.237245
H	 0.3173118172	-1.9159219875	 0.3631845119	 0.124322
H	 0.847611518	-0.7194263864	 1.6369979458	 0.11218
H	 2.6279137244	 0.1430947515	 0.0250806881	 0.110482
H	 2.0525839607	-1.0774269564	-1.2113907487	 0.130857
H	 0.3454274224	 1.1736870236	 0.0682357607	 0.089052
H	-0.8279259676	 0.3723567348	-3.6631304097	 0.134066
H	 0.941071493	 0.43338339	-3.1182476712	 0.113065
H	-2.1705755319	 0.9401938266	-0.4794243734	 0.090416
H	-2.5388518836	-1.9801388497	-1.5284286146	 0.132404
H	-3.7807479314	-1.0098544012	-0.5613308494	 0.113635
69.8225	80.3482	170.0033	206.3217	254.1827	284.664	388.5225	406.6801	542.8207	585.1103	685.5569	790.5103	816.5462	828.4908	865.7885	882.2902	914.9262	939.3855	955.3529	990.0993	1027.619	1064.5059	1091.9015	1098.627	1111.7862	1129.5482	1133.8739	1155.6104	1167.2463	1182.0573	1188.6058	1203.3034	1228.9432	1287.1507	1378.9237	1414.3617	1437.1213	1459.1474	1497.7583	1506.6199	1521.3498	3092.4983	3097.4225	3100.9205	3137.1864	3138.4522	3143.8905	3193.4143	3198.1166	3220.0862	3234.723
C1CC1C1(CO1)C1CO1	C1CC1[C@]1(CO1)[C@@H]1CO1	
InChI=1S/C7H10O2/c1-2-5(1)7(4-9-7)6-3-8-6/h5-6H,1-4H2	InChI=1S/C7H10O2/c1-2-5(1)7(4-9-7)6-3-8-6/h5-6H,1-4H2/t6-,7+/m0/s1
