19
gdb 2887	2.5625728	1.5118393	1.4097645	0.841	75.13	-0.22941	0.07532	0.30473	1053.6284	0.154555	-422.485823	-422.477042	-422.476098	-422.518562	33.689	
C	-0.2480115207	 0.1921291858	-0.0309253861	-0.421605
C	 1.2720965831	 0.1229242603	-0.0205469837	-0.063488
C	 1.978365878	-0.8492070727	 0.9627729138	-0.143207
C	 1.7551477498	-2.0870328343	 0.0461127097	-0.012667
O	 3.1547998035	-2.4935715808	 0.0400980031	-0.37225
C	 3.216984737	-1.0267451868	 0.0254577322	 0.374935
C	 4.5496804589	-0.3521031906	 0.0224174602	-0.528539
C	 1.9761297807	-0.8829816719	-0.9417821154	 0.338663
O	 1.9431110013	-0.8590366308	-2.3141950179	-0.47089
H	-0.6226827864	 0.7533457451	 0.831647276	 0.115882
H	-0.6089060578	 0.6921689563	-0.9355297687	 0.127502
H	-0.6978008223	-0.8059529933	-0.0008580474	 0.114772
H	 1.7119983377	 1.1269053038	-0.04378142	 0.071617
H	 1.9908579969	-0.849021141	 2.0506251553	 0.083923
H	 0.9908857041	-2.8617437221	 0.0817438462	 0.092821
H	 5.1344013999	-0.6430377459	 0.9004992138	 0.135989
H	 5.116414118	-0.6227346947	-0.8743281692	 0.13082
H	 4.4242716909	 0.7351000081	 0.0333114593	 0.132456
H	 2.4432796173	-1.6205782843	-2.6340971813	 0.293266
164.9812	175.9583	184.9197	196.8544	209.2789	289.2474	300.3694	357.0804	439.7021	525.1553	564.4922	669.9339	704.0243	732.1971	762.7975	821.7839	826.3791	897.3111	908.3498	931.4302	962.1738	1032.4021	1056.953	1070.1878	1101.8886	1127.9626	1148.391	1151.5548	1199.1738	1218.2489	1263.5947	1302.5319	1354.6627	1382.0065	1414.19	1416.2908	1438.0087	1472.9224	1490.9904	1492.7001	1502.1973	3032.169	3035.8769	3038.5418	3098.5054	3102.4911	3106.8964	3113.3302	3130.6437	3148.5431	3778.5674
CC1C2C3OC2(C)C13O	C[C@H]1[C@H]2[C@@H]3O[C@@]2(C)[C@]13O	
InChI=1S/C7H10O2/c1-3-4-5-7(3,8)6(4,2)9-5/h3-5,8H,1-2H3	InChI=1S/C7H10O2/c1-3-4-5-7(3,8)6(4,2)9-5/h3-5,8H,1-2H3/t3-,4-,5-,6+,7-/m0/s1
