19
gdb 549	3.4105272	1.6804101	1.509573	0.2299	72.75	-0.24091	0.08224	0.32315	928.674	0.160958	-422.55266	-422.546187	-422.545243	-422.583214	26.866	
C	-0.206331227	 1.2777652717	-0.7412092317	-0.113417
O	-0.0555992756	-0.146131944	-0.526312754	-0.304371
C	 1.1504338448	 0.0470321561	 0.2450529845	 0.13836
C	 1.134804907	 1.5768321866	-0.0492625503	-0.062321
C	 2.3957258818	 1.7309136751	-0.9189856664	 0.08726
C	 2.4690707251	 0.4174469866	-1.7129943555	-0.248944
C	 2.4399426055	-0.4435514478	-0.4327107072	-0.078201
C	 3.5843234753	 0.2243937943	 0.3549971133	-0.07971
O	 3.5098559985	 1.6176509189	-0.016164106	-0.281577
H	-0.2848174598	 1.5287565684	-1.8066616827	 0.101134
H	-1.0871530443	 1.6714257325	-0.2187740105	 0.103559
H	 1.0350572562	-0.3036142103	 1.2763760397	 0.074572
H	 1.1228028346	 2.2797798839	 0.7825347266	 0.086383
H	 2.4936946554	 2.6674497432	-1.4691012311	 0.076262
H	 1.6205845666	 0.2299023341	-2.3713767635	 0.120615
H	 3.4014163836	 0.3330413965	-2.2755506246	 0.103578
H	 2.5312306951	-1.5238042681	-0.5476543514	 0.075265
H	 3.4690359867	 0.1260838376	 1.4421497475	 0.09941
H	 4.5674686607	-0.1734364154	 0.0752386033	 0.102144
180.8795	266.3199	277.5204	374.7491	428.339	503.1317	584.7469	752.4535	794.0582	829.8374	862.0306	875.9347	891.281	905.0042	936.7867	945.2944	961.5463	971.5395	999.6787	1023.1951	1053.733	1063.414	1071.4073	1089.6302	1135.8733	1163.1868	1181.2199	1201.0699	1225.7003	1254.1603	1273.4624	1283.6409	1293.7005	1311.0064	1337.2578	1348.4003	1365.5771	1383.909	1490.0999	1524.3267	1528.6149	3009.9899	3013.0771	3046.6745	3050.9379	3051.4711	3082.232	3113.2598	3119.	3126.2158	3142.7297
C1OC2C1C1CC2CO1	C1O[C@@H]2[C@H]1[C@@H]1C[C@H]2CO1	
InChI=1S/C7H10O2/c1-4-2-8-6(1)5-3-9-7(4)5/h4-7H,1-3H2	InChI=1S/C7H10O2/c1-4-2-8-6(1)5-3-9-7(4)5/h4-7H,1-3H2/t4-,5+,6-,7-/m0/s1
