19
gdb 5116	2.4668102	1.6647058	1.1938167	2.0153	74.69	-0.20998	0.05783	0.26781	1056.6619	0.155949	-422.480885	-422.472243	-422.471299	-422.513804	33.631	
O	 1.6545748258	 0.5901117046	-0.0205460726	-0.421333
C	 0.4269313199	 0.0466435223	 0.4495113713	-0.173571
C	-0.6022688611	 1.1100673437	 0.7106289954	 0.270153
C	-1.7554658928	 1.4798530639	-0.1777026836	-0.360566
C	-2.0276939249	 0.9491397658	 1.2130347711	-0.116861
C	-1.7492294434	 1.9522760357	 2.3677840702	-0.115377
C	-1.2823694232	 3.3135322596	 1.885255919	-0.373454
C	-0.3411201828	 2.1499421064	 1.8475949483	 0.342525
O	 0.8809922872	 2.12984083	 2.518698742	-0.464391
H	 2.0099175032	 1.0912862009	 0.7224059787	 0.279666
H	 0.0689716305	-0.6429540744	-0.3223902857	 0.104631
H	 0.5937629935	-0.5414637474	 1.3654414941	 0.092985
H	-1.9747344071	 2.5009431269	-0.4696071984	 0.111343
H	-1.9535055272	 0.7606939559	-0.9687043808	 0.113464
H	-2.5638829089	 0.0218855849	 1.3714940945	 0.092231
H	-2.1057875452	 1.8066445276	 3.3789710372	 0.098443
H	-1.6773202886	 3.8091538673	 1.0044671412	 0.115129
H	-1.0760848621	 3.9916534355	 2.7099911992	 0.112799
H	 1.316416987	 2.9757979707	 2.369101039	 0.292183
90.1209	123.8848	193.428	263.5785	272.2386	375.1015	393.6646	420.045	449.1466	477.7375	504.9132	601.5355	679.6404	790.3454	812.1507	860.9843	874.844	899.5071	931.2085	956.817	963.5487	989.4513	1012.0084	1040.2694	1051.9582	1067.7674	1088.3502	1095.3947	1153.1075	1188.571	1240.5059	1257.0166	1285.5878	1325.3377	1367.476	1380.4616	1403.6562	1429.7253	1484.5811	1495.0585	1513.8456	2979.5383	3068.7252	3111.4093	3124.3385	3184.562	3192.3157	3199.2384	3203.5015	3797.3139	3802.6434	90.1197	123.8842	193.4271	263.5778	272.2384	375.1015	393.6643	420.0449	449.1466	477.7366	504.9131	601.5354	679.6405	790.3453	812.1505	860.9842	874.8439	899.5067	931.2084	956.8169	963.5487	989.4512	1012.0083	1040.2693	1051.958	1067.7673	1088.3503	1095.3948	1153.1076	1188.5712	1240.5057	1257.0165	1285.5881	1325.3377	1367.4761	1380.4621	1403.6565	1429.7259	1484.5812	1495.0592	1513.8458	2979.5382	3068.7251	3111.4093	3124.3385	3184.562	3192.3156	3199.2384	3203.5015	3797.3134	3802.6432
OCC12CC1C1CC21O	OC[C@@]12C[C@@H]1[C@@H]1C[C@]21O	
InChI=1S/C7H10O2/c8-3-6-1-4(6)5-2-7(5,6)9/h4-5,8-9H,1-3H2	InChI=1S/C7H10O2/c8-3-6-1-4(6)5-2-7(5,6)9/h4-5,8-9H,1-3H2/t4-,5+,6+,7-/m1/s1
