19
gdb 3607	2.3183596	1.3265431	0.9069693	1.6452	80.92	-0.24637	-0.06699	0.17938	1303.9024	0.154987	-422.577005	-422.567599	-422.566655	-422.611578	33.657	
C	-1.6325579406	 3.4956502002	-1.163872308	-0.391437
C	-1.1929425987	 2.6278914249	 0.0187895562	 0.090482
O	-1.936661502	 1.4045958499	 0.0414087315	-0.296256
C	-1.0681751516	 0.2659202154	 0.0250488595	 0.029468
C	-1.3148498342	-0.6002653256	 1.261766265	-0.396211
C	 0.3225207033	 0.8600226417	-0.0560339871	 0.200914
C	 1.5696191076	 0.0811247623	-0.1496347598	 0.070843
O	 2.6780682631	 0.5665082681	-0.1902354651	-0.261084
C	 0.2403397477	 2.1932042244	-0.0371809392	-0.182073
H	-1.4165308845	 2.9937201959	-2.1112278481	 0.12419
H	-2.7083389367	 3.6806107129	-1.1041798009	 0.132442
H	-1.1140085041	 4.459790685	-1.1492505274	 0.117723
H	-1.3917459645	 3.184063693	 0.9507164254	 0.093373
H	-1.2948722779	-0.3309700135	-0.8732654955	 0.088601
H	-0.7032647455	-1.5085633363	 1.2314272627	 0.115893
H	-1.0734556593	-0.0463022594	 2.1736753724	 0.122552
H	-2.366099379	-0.898064571	 1.3020114164	 0.131458
H	 1.4343949936	-1.022544535	-0.1879934713	 0.072247
H	 1.0820060333	 2.8736428368	-0.0699996268	 0.136875
63.9038	102.1424	148.2787	180.4833	225.245	235.9214	251.3883	318.7479	382.9911	455.0459	497.1121	560.2361	709.3938	730.705	828.4754	866.0162	885.8077	901.9787	963.434	1029.5962	1036.6834	1075.0267	1088.7353	1099.0733	1116.3196	1136.1732	1201.2848	1262.7226	1327.2815	1352.789	1360.9154	1381.8679	1399.2044	1401.7999	1446.9966	1485.5948	1486.3656	1494.714	1495.4623	1678.4326	1790.6149	2883.9009	2955.1012	2967.6442	3036.7794	3040.4481	3109.7007	3116.0624	3123.7452	3126.2455	3224.7581
CC1OC(C)C(C=O)=C1	C[C@H]1O[C@H](C)C(=C1)C=O	
InChI=1S/C7H10O2/c1-5-3-7(4-8)6(2)9-5/h3-6H,1-2H3	InChI=1S/C7H10O2/c1-5-3-7(4-8)6(2)9-5/h3-6H,1-2H3/t5-,6-/m1/s1
