19
gdb 5731	3.9618811	1.013334	0.8828172	1.1696	78.93	-0.24265	0.00097	0.24362	1342.8948	0.156012	-422.531803	-422.523079	-422.522135	-422.565926	32.138	
C	 1.4954421735	-0.2977012882	 0.1186953384	-0.234052
O	 0.1113133621	-0.0418507369	 0.046104551	-0.247681
C	-0.3748410009	 0.7567483846	 1.1111647371	 0.081542
C	-0.0414354401	 2.2695154179	 0.9717846066	-0.337336
C	-1.3726750675	 2.9931444472	 1.1843787943	 0.415954
C	-1.6079856529	 4.407503023	 0.8679284472	-0.24733
O	-1.4532847153	 3.98882084	 2.2244904645	-0.278891
C	-2.4225167475	 1.9408696284	 1.16182754	-0.141283
C	-1.8848081513	 0.7240790374	 1.1118566844	-0.098949
H	 1.7677303947	-0.7916254538	 1.0651227024	 0.104634
H	 1.7457073498	-0.9625786515	-0.7115318416	 0.127578
H	 2.0961866062	 0.6198256953	 0.0265544851	 0.10646
H	 0.015515935	 0.3503354799	 2.0607093214	 0.074834
H	 0.7065681946	 2.6274414303	 1.6822884659	 0.117297
H	 0.331958902	 2.4408231893	-0.0426916104	 0.119596
H	-0.7905650052	 5.005952369	 0.4647825784	 0.110658
H	-2.6059122319	 4.7474347347	 0.5901315035	 0.110356
H	-3.4788576451	 2.1768135138	 1.2133966972	 0.107156
H	-2.4235440601	-0.2156594504	 1.0898217648	 0.109458
39.0315	102.4736	165.1177	193.4837	279.9123	318.3982	352.2972	409.7847	450.8619	492.7046	592.0161	709.3128	794.4429	801.4961	835.917	863.5126	907.0228	970.0332	975.7614	987.5232	1035.0642	1059.9135	1116.2372	1127.7215	1145.1672	1163.2744	1181.7747	1199.8663	1217.307	1246.5425	1263.5827	1330.2861	1339.8174	1379.0145	1429.804	1466.7124	1478.8644	1489.104	1509.7339	1528.5271	1682.6951	2943.025	2972.7548	3019.1491	3058.668	3069.1145	3113.9885	3116.8261	3153.1574	3196.6305	3220.6376
COC1CC2(CO2)C=C1	CO[C@H]1C[C@@]2(CO2)C=C1	
InChI=1S/C7H10O2/c1-8-6-2-3-7(4-6)5-9-7/h2-3,6H,4-5H2,1H3	InChI=1S/C7H10O2/c1-8-6-2-3-7(4-6)5-9-7/h2-3,6H,4-5H2,1H3/t6-,7-/m1/s1
