19
gdb 4846	2.7794849	1.5688431	1.2969418	1.5367	74.71	-0.24401	-0.00575	0.23826	1046.7224	0.156635	-422.521337	-422.513231	-422.512286	-422.553748	32.148	
C	 0.6605768736	 1.4563306236	 0.182636878	-0.38062
C	 1.2807852118	 0.0537030048	 0.1656141017	-0.252145
C	 2.1635781104	-0.1778618864	-1.0480489552	 0.48535
O	 1.3525236357	-0.0882901827	-2.1810609969	-0.488352
C	 3.5753107555	 0.5431185616	-1.2517768967	-0.063124
O	 3.8984649386	-0.5684288747	-2.1623683525	-0.313162
C	 3.2101041745	-1.3791166786	-1.1438812732	-0.069689
C	 4.0828383594	-1.1599988507	 0.08085621	-0.083222
C	 4.3316269858	 0.1538915074	 0.0074761882	-0.082435
H	-0.0037553324	 1.5758880865	 1.0434298202	 0.110623
H	 1.4335089834	 2.2301843083	 0.2506558406	 0.109366
H	 0.0830542465	 1.6368369801	-0.7267860336	 0.138701
H	 1.8549694589	-0.117219582	 1.0779978703	 0.104083
H	 0.484037802	-0.6992585808	 0.1364697625	 0.107167
H	 1.9458430482	-0.2308786011	-2.9322263395	 0.286073
H	 3.6808982928	 1.5325151141	-1.6948977014	 0.08304
H	 2.9340912101	-2.3797594486	-1.4744663776	 0.081713
H	 4.3633423672	-1.8916518682	 0.8238654301	 0.113349
H	 4.8746852681	 0.8085506876	 0.6727935249	 0.113284
77.6612	165.0846	209.237	284.0078	308.0107	397.9458	403.4553	504.8317	564.2683	619.2083	625.933	641.6731	728.0084	771.3927	793.8695	834.5405	857.7789	904.1202	921.9094	928.1228	953.1608	972.9664	999.3889	1029.3287	1086.4252	1121.7389	1141.583	1142.5075	1168.8009	1236.5806	1241.0556	1300.9693	1317.5541	1322.0086	1344.4916	1405.9848	1429.3991	1480.0758	1497.3004	1510.8176	1603.4846	3036.8413	3043.1026	3099.4804	3109.1994	3132.8222	3133.3875	3136.897	3232.3995	3258.1052	3744.3866
CCC1(O)C2OC1C=C2	CC[C@@]1(O)[C@@H]2O[C@H]1C=C2	
InChI=1S/C7H10O2/c1-2-7(8)5-3-4-6(7)9-5/h3-6,8H,2H2,1H3	InChI=1S/C7H10O2/c1-2-7(8)5-3-4-6(7)9-5/h3-6,8H,2H2,1H3/t5-,6+,7-
