19
gdb 3641	2.6985134	1.2207209	1.036412	2.0355	76.45	-0.257	0.03862	0.29562	1208.0308	0.15562	-422.540853	-422.531268	-422.530323	-422.575966	35.499	
O	-2.1808662174	 2.2081737138	-1.5633307121	-0.437126
C	-2.4694761454	 2.7181339568	-0.2676539467	 0.10578
C	-2.7575704979	 1.5967212184	 0.744837035	-0.276462
C	-1.3506534974	 1.0831895485	 1.22162549	-0.163168
C	-0.3244224178	 2.0983937086	 0.6157178585	-0.250327
C	-1.1562886749	 3.3345335833	 0.2461666627	 0.133327
O	-1.3798957902	 4.2188475971	 1.3361562294	-0.448586
C	-1.0775919787	-0.2957953421	 0.8450288447	 0.319218
C	-0.8551202266	-1.4346191005	 0.5293946594	-0.468392
H	-2.9061730601	 1.636940527	-1.8336097852	 0.28633
H	-3.2713986981	 3.4676948296	-0.3023735022	 0.069225
H	-3.3236450473	 1.9934686794	 1.5944143857	 0.101558
H	-3.360586309	 0.7955435373	 0.3104875401	 0.109715
H	-1.3117891629	 1.1378917525	 2.3160455009	 0.102261
H	 0.4844852457	 2.3410398741	 1.3084007709	 0.106744
H	 0.1115601811	 1.6749837973	-0.2904483681	 0.135024
H	-0.682984363	 3.9380982315	-0.5313980535	 0.09786
H	-1.6719383418	 3.7074192431	 2.0973622355	 0.283129
H	-0.6544177784	-2.4394904658	 0.2518392951	 0.193889
19.738	135.8829	172.0722	207.7565	222.6342	251.598	266.7934	349.847	407.5623	474.3027	506.2175	527.3297	614.084	629.2016	657.5846	771.7662	790.9126	840.8173	874.7801	923.6461	980.7125	997.5674	1043.7485	1055.3809	1072.7615	1106.5644	1157.3042	1188.4795	1198.6969	1255.894	1277.3832	1295.8371	1310.4653	1337.9768	1353.0715	1367.2336	1397.7763	1429.7826	1472.9931	1489.755	2235.1612	3014.8512	3022.1253	3053.5919	3078.5338	3098.483	3103.3101	3134.1219	3504.8997	3819.2875	3823.237
OC1CC(CC1O)C#C	O[C@H]1C[C@H](C[C@@H]1O)C#C	
InChI=1S/C7H10O2/c1-2-5-3-6(8)7(9)4-5/h1,5-9H,3-4H2	InChI=1S/C7H10O2/c1-2-5-3-6(8)7(9)4-5/h1,5-9H,3-4H2/t6-,7-/m0/s1
