19
gdb 5395	3.3229343	1.0960904	0.8786354	1.5667	82.03	-0.22207	-0.02931	0.19276	1323.2986	0.157774	-422.548785	-422.540106	-422.539162	-422.582473	32.278	
O	 0.9741413073	 0.3811084042	-0.291752771	-0.407747
C	 0.6304974728	 0.0309429066	 1.0452251947	-0.158787
C	-0.8638278831	-0.1257985201	 1.2411546586	 0.259239
C	-1.4977660461	 0.6110967794	 2.1660764769	-0.184041
C	-2.9696401062	 0.5211106428	 2.4640113797	-0.147028
O	-3.4278496055	-0.8147618108	 2.6340451704	-0.234632
C	-3.7942399199	-1.4741408495	 1.4477617895	-0.138947
C	-2.7407934685	-1.6058274927	 0.3861348027	-0.07957
C	-1.5141578776	-1.0699452689	 0.3257807599	-0.119727
H	 0.5122994854	 1.2005675448	-0.4994753764	 0.282252
H	 1.1413703693	-0.9219987627	 1.2265761726	 0.118445
H	 1.0264788999	 0.7596733124	 1.767350439	 0.091835
H	-0.9187530915	 1.3064982418	 2.7701532394	 0.085235
H	-3.1903609334	 1.0366452673	 3.4040451166	 0.112868
H	-3.5528075275	 1.0225391244	 1.6734488329	 0.103039
H	-4.0992009203	-2.4805182883	 1.7653856958	 0.123066
H	-4.6950674633	-1.0136559676	 0.9987460164	 0.096806
H	-3.0441831407	-2.2612029889	-0.4298588044	 0.094328
H	-0.8990362411	-1.3361359242	-0.5303666234	 0.103368
75.3893	81.5441	175.8368	232.6253	283.0655	329.3148	364.5207	393.2191	412.9547	503.8483	575.9225	649.644	729.233	781.7639	835.4231	879.5912	891.3346	931.5853	986.4972	1009.5204	1024.366	1031.9883	1057.4364	1093.242	1153.9035	1191.4221	1206.419	1250.8979	1269.2049	1327.7033	1344.0641	1378.0159	1390.0855	1413.185	1418.3442	1451.7408	1472.8388	1482.7576	1499.8545	1688.9637	1720.5615	2920.6945	2965.2327	2996.9783	3031.891	3059.0055	3072.0627	3129.7772	3147.2553	3162.8796	3805.3264
OCC1=CCOCC=C1	OCC1=CCOCC=C1	
InChI=1S/C7H10O2/c8-6-7-2-1-4-9-5-3-7/h1-3,8H,4-6H2	InChI=1S/C7H10O2/c8-6-7-2-1-4-9-5-3-7/h1-3,8H,4-6H2
