19
gdb 3790	4.5514506	0.8847787	0.8092045	2.0561	75.92	-0.25374	0.08883	0.34257000000000004	1441.1963	0.155596	-422.494519	-422.485944	-422.484999	-422.528366	31.656	
C	-0.9341056788	-4.2610427988	 1.535517411	-0.418569
C	-1.0195242417	-3.1732365548	 0.4968509735	 0.068029
O	-0.2736804171	-3.3762533952	-0.7104853456	-0.264863
C	 0.1167297024	-2.3042486304	 0.1565650229	 0.05075
C	-0.0541755987	-0.9102215833	-0.3778564185	-0.046071
C	 1.1652701111	-0.3970562946	-1.2360846587	-0.274101
C	 1.4074171208	 0.6795279497	-0.1703292523	 0.035623
O	 0.2042080597	 1.4498230657	-0.0673392445	-0.244828
C	 0.269941798	 0.2080848649	 0.6370263811	 0.013196
H	-1.3146791523	-3.9052549701	 2.4991114808	 0.121786
H	-1.5344667549	-5.1264945533	 1.2362966334	 0.13156
H	 0.0994706485	-4.5923689334	 1.6673847524	 0.126816
H	-2.019175563	-2.7687094113	 0.3249154428	 0.090189
H	 1.0581801593	-2.4877131443	 0.6815326594	 0.084749
H	-1.0335579967	-0.8053697843	-0.8514951195	 0.088366
H	 1.9643096417	-1.1405075711	-1.294722349	 0.114147
H	 0.94036193	-0.0208154872	-2.236095045	 0.115342
H	 2.3309027724	 1.1671263215	 0.1195588578	 0.104607
H	 0.0905082991	 0.2319089702	 1.7063541279	 0.103271
60.6936	112.7972	122.5896	196.681	257.9647	321.8603	352.8168	430.6589	491.5274	521.2286	762.0504	786.6749	832.4095	850.367	862.1701	893.2879	920.9265	968.4894	979.6946	995.0996	1011.2471	1036.7802	1063.0593	1093.4372	1132.4506	1160.4271	1176.0646	1193.6961	1206.6726	1228.881	1237.8682	1272.7514	1285.8503	1293.6302	1382.6315	1386.8298	1412.853	1473.733	1476.4765	1490.9875	1512.3656	3035.968	3066.4687	3071.0238	3081.6315	3089.3766	3101.1298	3122.3814	3127.5757	3174.257	3192.0319
CC1OC1C1CC2OC12	C[C@@H]1O[C@H]1[C@@H]1C[C@H]2O[C@@H]12	
InChI=1S/C7H10O2/c1-3-6(8-3)4-2-5-7(4)9-5/h3-7H,2H2,1H3	InChI=1S/C7H10O2/c1-3-6(8-3)4-2-5-7(4)9-5/h3-7H,2H2,1H3/t3-,4-,5+,6+,7-/m0/s1
