19
gdb 2858	2.3557847	1.9523978	1.5082459	2.4643	72.48	-0.23594	0.07206	0.308	959.1883	0.158291	-422.531768	-422.524258	-422.523314	-422.563324	30.329	
C	 1.0138519416	-0.3382552997	-0.9508765276	-0.417464
C	 0.7899400568	 0.2039460433	 0.4624320416	-0.017556
C	 1.6695129994	-0.5007803977	 1.4894755312	 0.079673
O	 1.4590666361	 0.154473681	 2.7968570648	-0.327495
C	 2.6771627096	 0.8847087112	 2.5964974699	 0.078347
C	 3.0741295225	 0.1338139564	 1.3703827877	-0.151041
C	 2.6388073087	 1.5853668429	 1.254320111	-0.112251
C	 1.2391078837	 1.6941562287	 0.6322542849	 0.121693
O	 0.344868527	 2.459220312	 1.4202531069	-0.448694
H	 0.7514673368	-1.3993470402	-1.0195629871	 0.115514
H	 0.4010831056	 0.2064727575	-1.6756309626	 0.12467
H	 2.0614955349	-0.2322865604	-1.2548650453	 0.121454
H	-0.267948174	 0.1251780996	 0.7330896999	 0.084702
H	 1.5748393051	-1.5846506546	 1.5745820353	 0.082748
H	 3.2199428768	 1.2183920603	 3.4723751015	 0.108392
H	 4.0051454583	-0.3096135774	 1.0482766696	 0.100519
H	 3.3829464053	 2.3534148137	 1.0780671055	 0.092655
H	 1.2797546315	 2.1997399157	-0.3371506302	 0.07876
H	 0.278720114	 1.9912985677	 2.2627732428	 0.285374
127.7147	214.2755	225.2421	275.9992	321.8029	458.0096	481.3644	526.7783	559.9195	684.2113	746.0736	776.6195	800.6077	827.9	844.6574	882.323	897.5668	956.8104	984.3138	991.914	1017.5813	1028.6162	1051.154	1066.5634	1076.7003	1100.8317	1109.0375	1121.6585	1224.7027	1232.8597	1248.4973	1276.6593	1290.1312	1300.5905	1335.281	1369.0848	1395.3518	1411.8024	1450.7359	1497.2741	1500.968	3029.2641	3060.99	3065.7325	3095.5744	3102.0236	3104.5267	3183.6569	3191.9593	3217.5741	3769.9082
CC1C2OC3C2C3C1O	C[C@H]1[C@@H]2O[C@H]3[C@@H]2[C@H]3[C@@H]1O	
InChI=1S/C7H10O2/c1-2-5(8)3-4-6(2)9-7(3)4/h2-8H,1H3	InChI=1S/C7H10O2/c1-2-5(8)3-4-6(2)9-7(3)4/h2-8H,1H3/t2-,3+,4-,5-,6+,7-/m1/s1
