19
gdb 1898	3.351739	1.0256563	0.8959257	3.1885	77.11	-0.24311	-0.02526	0.21785	1338.7471	0.153996	-422.539086	-422.529726	-422.528782	-422.574	33.668	
C	-1.2893102189	 3.4704527529	 2.9460681142	-0.499242
C	-1.6089874616	 2.9664640519	 1.5771102761	 0.341851
C	-2.9405490903	 3.053327066	 0.808887	-0.278486
C	-2.5224257624	 1.766144484	 0.0172764092	-0.28486
C	-1.2145907134	 1.7525257557	 0.827107557	 0.331615
C	-0.3289579163	 0.5877286291	 1.1608753019	-0.393282
C	 0.4903705926	 0.1376128565	-0.0384766693	 0.160373
O	 0.5628937903	-0.9998312018	-0.4241878269	-0.236797
O	-0.5740660144	 3.0196239052	 0.5770430704	-0.326975
H	-2.0549088145	 3.1584835204	 3.6635792013	 0.126443
H	-0.3183900792	 3.0959202326	 3.2817859557	 0.131224
H	-1.2479742019	 4.5655971294	 2.9530022332	 0.13586
H	-3.8168413285	 2.8916712503	 1.4415012583	 0.105848
H	-3.0734957469	 3.9679127404	 0.2263808936	 0.111133
H	-3.170421998	 0.9122585313	 0.2294848395	 0.110025
H	-2.3973019635	 1.8688944453	-1.0631787494	 0.113065
H	 0.3793225188	 0.8987310757	 1.940792678	 0.129813
H	-0.9070295541	-0.2644461302	 1.5298186583	 0.124172
H	 1.0394342821	 0.9603997952	-0.546657761	 0.098221
50.6937	67.2866	137.5287	183.3207	202.7533	244.2655	323.5807	337.7007	444.7704	498.0411	507.3611	605.9216	711.0849	721.1468	775.8648	831.682	878.5787	899.7546	936.5651	969.7605	998.1043	1049.7567	1087.031	1101.3665	1159.1954	1183.6645	1205.1717	1217.9831	1223.0561	1269.3798	1288.9474	1318.3064	1408.9341	1421.032	1439.9915	1462.4277	1464.0599	1479.5334	1490.1693	1516.7073	1834.4301	2898.3706	3025.454	3034.3102	3062.7135	3069.9424	3096.9842	3100.6767	3114.1545	3117.9391	3130.3222
CC12CCC1(CC=O)O2	C[C@]12CC[C@@]1(CC=O)O2	
InChI=1S/C7H10O2/c1-6-2-3-7(6,9-6)4-5-8/h5H,2-4H2,1H3	InChI=1S/C7H10O2/c1-6-2-3-7(6,9-6)4-5-8/h5H,2-4H2,1H3/t6-,7-/m0/s1
