19
gdb 501	2.9181064	1.8572271	1.4342525	0.8784	73.92	-0.24413	0.07933	0.32346	942.7775	0.15994	-422.512867	-422.506166	-422.505222	-422.543485	28.118	
C	-0.0635225897	 1.2902319417	 0.5599299641	-0.154472
O	-0.127934774	-0.0214662981	-0.079014961	-0.349503
C	 1.2667630878	 0.0715441337	-0.3810554204	 0.464708
C	 2.1094083937	-0.2980321426	-1.6109029552	-0.319926
C	 3.2931666453	-0.0672804734	-0.5937518075	 0.128461
C	 2.3434676878	-0.5945808338	 0.5093713188	-0.324116
O	 3.6067074253	 1.3152946518	-0.4026924852	-0.285123
C	 2.6072967558	 2.0631681001	 0.3116801863	-0.119049
C	 1.2494816904	 1.5919175464	-0.1918932768	-0.063412
H	-0.9372359083	 1.9028286738	 0.3229015615	 0.112554
H	 0.0375676855	 1.1956721206	 1.649319833	 0.103084
H	 2.0596030993	-1.3505423344	-1.9038591071	 0.104564
H	 2.0453762754	 0.3535575986	-2.4849027107	 0.101173
H	 4.2369393225	-0.5757782885	-0.7877486214	 0.08877
H	 2.2655047652	-1.6835209882	 0.4766156549	 0.107643
H	 2.4893446497	-0.2660096779	 1.5396685448	 0.101761
H	 2.7139003978	 1.9142720662	 1.3949026556	 0.098377
H	 2.8146217682	 3.1146198317	 0.0986935518	 0.110697
H	 1.0131333724	 2.0686498324	-1.1477925454	 0.093809
194.1931	268.026	356.6885	387.0503	417.641	458.3059	500.0306	539.4837	577.2426	753.3813	806.0122	820.2278	832.8031	913.9158	925.9471	955.3358	959.4208	972.0845	983.932	1002.0236	1039.5882	1052.7439	1116.7409	1140.8501	1161.5609	1164.6708	1174.7794	1182.4637	1225.9016	1249.8305	1256.0803	1276.5024	1300.7539	1325.9263	1352.1413	1380.5402	1409.1502	1473.3042	1502.3542	1517.9404	1530.9146	3007.7236	3016.2182	3057.7445	3060.3046	3076.2392	3093.0993	3098.1728	3120.2475	3125.8808	3131.5822
C1OC23CC(C2)OCC13	C1O[C@]23C[C@H](C2)OC[C@H]13	
InChI=1S/C7H10O2/c1-6-2-7(1)5(3-8-6)4-9-7/h5-6H,1-4H2	InChI=1S/C7H10O2/c1-6-2-7(1)5(3-8-6)4-9-7/h5-6H,1-4H2/t5-,6-,7-/m1/s1
