19
gdb 1182	2.4338898	1.2667364	1.0256229	1.9941	77.23	-0.23217	0.03646	0.26863	1233.0102	0.153441	-422.510727	-422.500708	-422.499764	-422.545197	37.504	
C	-4.1566641628	-2.084323252	 3.3760417826	-0.387572
C	-3.8837368707	-1.1895436868	 2.1492223339	-0.2243
C	-2.638519301	-0.4334755646	 2.308582366	 0.288381
C	-1.6562422678	 0.240230161	 2.4792395305	-0.446747
C	-5.0302702603	-0.2132855576	 1.8946167549	 0.379536
O	-5.1804906772	 0.7766836442	 2.8854213103	-0.47981
C	-6.3297011069	-0.6849454291	 1.2979672607	-0.38532
C	-5.4140999398	 0.2364468689	 0.5071934772	 0.082474
O	-5.7585476265	 1.5699924149	 0.3177213445	-0.437259
H	-3.3173771951	-2.759306716	 3.5597088901	 0.123595
H	-4.310659232	-1.4680933802	 4.2647787217	 0.136949
H	-5.0582932894	-2.6803118918	 3.2096399716	 0.122682
H	-3.7913945366	-1.8276932852	 1.2608688136	 0.109638
H	-0.7671499449	 0.8073819414	 2.606974109	 0.20306
H	-4.3057817599	 1.1726120598	 3.0118084685	 0.290381
H	-6.4177847602	-1.7257183746	 1.0029264305	 0.111989
H	-7.2342091761	-0.2422909138	 1.7012542216	 0.125954
H	-4.8854541648	-0.1704854323	-0.3497811292	 0.102532
H	-5.7928766177	 1.9600075739	 1.203021962	 0.283838
71.722	110.6542	172.6919	194.0987	214.7219	261.9723	282.9418	327.5421	347.1835	394.1817	458.8798	531.1238	547.3923	552.684	635.3808	648.6936	664.376	747.3517	799.5707	864.9448	907.7748	935.2313	1000.4774	1008.7008	1042.0448	1075.5639	1096.7822	1114.495	1142.4421	1222.796	1265.0067	1309.7516	1320.1323	1333.5517	1401.4478	1409.5175	1430.85	1487.0371	1491.9922	1500.2824	2226.2206	3025.3296	3050.029	3124.9061	3126.4596	3135.3284	3154.3141	3221.0796	3501.3224	3724.8056	3736.9946
CC(C#C)C1(O)CC1O	C[C@H](C#C)[C@]1(O)C[C@H]1O	
InChI=1S/C7H10O2/c1-3-5(2)7(9)4-6(7)8/h1,5-6,8-9H,4H2,2H3	InChI=1S/C7H10O2/c1-3-5(2)7(9)4-6(7)8/h1,5-6,8-9H,4H2,2H3/t5-,6-,7-/m1/s1
