19
gdb 491	3.7589213	1.318643	1.1971745	2.984	74.59	-0.23908	0.06012	0.29919999999999997	1086.6703	0.157597	-422.499302	-422.491577	-422.490633	-422.532095	29.341	
C	 1.2747826351	 0.3533347949	-0.7420627262	-0.071349
C	-0.1087086642	-0.14727595	-0.288030304	-0.362227
C	-0.2612329378	 1.2612635436	 0.3242474431	 0.452488
C	-1.5028492827	 2.1518731259	 0.0331723498	-0.313868
C	-1.7392920877	 2.3062641845	 1.5538471522	 0.116365
O	-1.1114037703	 3.4836436393	 2.0945006733	-0.292429
C	 0.095995025	 2.7469899017	 2.4136631704	-0.084299
C	-0.4820213661	 1.4379281173	 1.8491359833	-0.159313
O	 1.0114501087	 1.6703713162	-0.212770146	-0.31017
H	 2.1331137729	-0.1202813108	-0.2503227835	 0.103947
H	 1.4531753624	 0.3771318474	-1.8228962245	 0.106873
H	-0.8069092121	-0.363396496	-1.0991913796	 0.113029
H	-0.1138122448	-0.9761995201	 0.4225338857	 0.110808
H	-1.2755017069	 3.0949134181	-0.4685741257	 0.123132
H	-2.2962264045	 1.6284451874	-0.5092701529	 0.099215
H	-2.7420511465	 2.1399695469	 1.9540431059	 0.075111
H	 0.9787885978	 3.1355495826	 1.8949025482	 0.122868
H	 0.2775262707	 2.736193193	 3.4948440182	 0.099088
H	-0.4539571591	 0.548257968	 2.4784515623	 0.070731
72.3113	76.0893	205.4068	253.3478	346.2087	379.6642	470.8843	517.4182	721.5917	763.3034	788.3655	827.4139	865.9052	885.1398	903.2908	926.2456	968.4793	977.5263	990.0275	1007.0955	1027.2956	1054.8649	1090.4652	1140.0613	1158.6063	1168.9439	1179.9805	1186.6482	1195.4663	1212.5155	1238.0279	1256.2822	1262.098	1304.3766	1323.0426	1356.8844	1360.5665	1446.3264	1487.3385	1520.8009	1532.2503	3021.3844	3023.8496	3052.6712	3063.8622	3072.3045	3078.3899	3081.4271	3108.4771	3123.4705	3127.5342
C1CC2(CC3OCC23)O1	C1C[C@]2(C[C@@H]3OC[C@H]23)O1	
InChI=1S/C7H10O2/c1-2-9-7(1)3-6-5(7)4-8-6/h5-6H,1-4H2	InChI=1S/C7H10O2/c1-2-9-7(1)3-6-5(7)4-8-6/h5-6H,1-4H2/t5-,6-,7+/m0/s1
