19
gdb 719	3.0520051	1.4658645	1.204842	4.4968	74.29	-0.25669	0.01665	0.27333999999999997	1070.3927	0.159367	-422.59301	-422.585428	-422.584483	-422.625249	29.502	
O	 1.2048993698	 0.0674232425	 0.2848110254	-0.32662
C	 0.08834216	-0.0197457261	-0.1472161025	 0.409547
C	-0.9932620527	 1.0255645981	 0.0660964657	-0.350962
C	-1.8437348676	 1.2325203114	-1.1954595569	-0.228823
C	-2.4862178355	-0.0794534773	-1.6408379186	-0.032923
C	-3.5872179841	-0.6683307622	-0.7052896121	-0.231829
C	-2.6045009556	-1.778394794	-0.2353166849	-0.251082
C	-1.5949817919	-1.3193319659	-1.319646649	 0.137407
O	-0.2454161583	-1.0958186756	-0.9089127647	-0.232144
H	-1.6251052872	 0.7054579538	 0.9042409814	 0.130895
H	-0.4904577512	 1.9410132555	 0.3822947348	 0.135667
H	-2.6116489321	 1.993316255	-1.0167112001	 0.10813
H	-1.2001259216	 1.6153385904	-1.9960567889	 0.115751
H	-2.7830187437	-0.014170529	-2.6902345375	 0.078344
H	-3.9503440212	 0.0062529749	 0.0749446285	 0.103832
H	-4.4525011241	-1.050995117	-1.2501710344	 0.10953
H	-2.2228353073	-1.6309504448	 0.7777990601	 0.116311
H	-2.9499641451	-2.8106850618	-0.3208168808	 0.11073
H	-1.5081922505	-2.0227467181	-2.1489531752	 0.098239
85.8899	124.7717	196.2205	333.5245	380.8793	438.3428	460.1124	495.0661	619.5367	693.4894	709.5805	748.2281	770.9899	822.3792	874.0834	935.598	943.1117	957.6642	969.325	1003.3206	1077.5281	1083.5587	1114.5652	1150.2921	1156.7357	1203.5642	1218.997	1237.5331	1258.1817	1265.9497	1289.1723	1299.1773	1336.8421	1359.0407	1377.3737	1407.329	1468.5559	1478.1091	1491.8991	1499.183	1849.1525	3032.3359	3039.5408	3060.5503	3069.3841	3072.3401	3076.0231	3096.9818	3108.9227	3120.8588	3128.7959
O=C1CCC2CCC2O1	O=C1CC[C@@H]2CC[C@@H]2O1	
InChI=1S/C7H10O2/c8-7-4-2-5-1-3-6(5)9-7/h5-6H,1-4H2	InChI=1S/C7H10O2/c8-7-4-2-5-1-3-6(5)9-7/h5-6H,1-4H2/t5-,6-/m0/s1
