19
gdb 5260	3.2233977	1.537306	1.3701519	1.3851	74.59	-0.24256	0.00296	0.24552	1022.3612	0.157554	-422.560947	-422.553124	-422.55218	-422.593062	30.767	
C	 2.0640332068	 1.2190007248	 0.4766884462	-0.383351
C	 1.4600163047	-0.1403116516	 0.1150622045	-0.292157
C	 2.0314995369	-0.7325567983	-1.1485804728	 0.475466
O	 1.7838177281	 0.1463750039	-2.2907120781	-0.313511
C	 2.8078573115	-0.1908785235	-3.2255816366	-0.0865
C	 3.5416304191	-1.3571157934	-2.4850503921	-0.036857
O	 3.4431246613	-0.8454697479	-1.1467021254	-0.26951
C	 2.5545821254	-2.5156822089	-2.4603855925	-0.102508
C	 1.598772525	-2.12482309	-1.61713183	-0.109947
H	 1.6049133873	 1.6135987424	 1.387476999	 0.106496
H	 3.1406582218	 1.1321486256	 0.6435314766	 0.131815
H	 1.9039335082	 1.9358727729	-0.3318788502	 0.133413
H	 1.6191428881	-0.8639660933	 0.9222844897	 0.112734
H	 0.3765574984	-0.0542628624	-0.0254254703	 0.11274
H	 2.3759731155	-0.4915356887	-4.1858051832	 0.101908
H	 3.4776595838	 0.6639440068	-3.3688570053	 0.108375
H	 4.5745976081	-1.5450457876	-2.770053755	 0.090489
H	 2.5830665746	-3.3803138255	-3.1089180024	 0.109814
H	 0.6494777354	-2.5904102052	-1.3911282221	 0.111091
89.2767	168.7238	195.7203	300.6662	311.9794	369.5062	442.9588	513.2501	620.465	655.1007	719.7277	728.2945	756.0486	818.4731	852.7955	859.3618	887.7503	909.8076	931.3837	969.5272	996.4516	1009.3115	1025.3701	1052.6343	1097.0863	1133.6905	1150.3143	1191.5475	1247.3406	1280.9766	1295.9629	1307.8144	1337.1269	1349.7732	1406.6851	1411.9556	1473.1323	1492.8265	1510.2976	1512.808	1638.443	3033.986	3043.2939	3051.3791	3080.4313	3083.3701	3121.2448	3134.4431	3148.9246	3219.0203	3244.5098
CCC12OCC(O1)C=C2	CC[C@@]12OC[C@@H](O1)C=C2	
InChI=1S/C7H10O2/c1-2-7-4-3-6(9-7)5-8-7/h3-4,6H,2,5H2,1H3	InChI=1S/C7H10O2/c1-2-7-4-3-6(9-7)5-8-7/h3-4,6H,2,5H2,1H3/t6-,7+/m0/s1
