19
gdb 5936	2.3496287	1.0362984	0.8617807	2.9427	78.16	-0.25875	0.02266	0.28141	1420.5781	0.152945	-422.505005	-422.494545	-422.493601	-422.540762	37.163	
C	-3.8858524383	-1.3604489347	-0.4282018539	-0.432527
C	-2.7997235866	-0.5045179532	-1.0217470096	 0.03948
O	-3.1566172579	 0.8133489479	-1.4375218546	-0.292825
C	-2.2174949355	 0.6858052181	-0.3502531259	 0.180618
C	-0.8008602624	 1.126082254	-0.6788427531	-0.27413
C	 0.2469081395	 0.5295636875	 0.2562556078	-0.075982
O	 1.5115549234	 1.0133239098	-0.167783876	-0.417639
C	-2.7155901932	 1.0915944202	 0.9447711182	 0.316231
C	-3.0837288972	 1.4487657967	 2.0325392475	-0.445687
H	-3.4539480039	-2.2493523594	 0.0438677019	 0.122774
H	-4.4555960596	-0.8063120134	 0.3201360083	 0.141232
H	-4.570921442	-1.6955832401	-1.2137564503	 0.131227
H	-2.1354063274	-1.0159653442	-1.7225926595	 0.090506
H	-0.5790279209	 0.8323800891	-1.7091346294	 0.12
H	-0.7385861878	 2.2184876798	-0.6302795781	 0.122782
H	 0.02912085	 0.8240618568	 1.2934198102	 0.102094
H	 0.2026831097	-0.5711152787	 0.2108965598	 0.084572
H	 2.1773475647	 0.6926911535	 0.447293694	 0.287375
H	-3.4240890347	 1.7644716103	 2.9879267828	 0.199901
66.4836	83.1394	120.2342	147.8977	172.8378	207.7288	257.8129	288.4308	301.619	352.378	427.2931	487.192	573.5189	595.7581	625.5965	660.9043	706.8934	793.3684	801.4606	911.6121	969.0196	1008.9586	1025.3748	1081.7758	1105.5065	1134.6446	1159.8372	1204.7319	1245.2506	1252.2801	1299.0701	1332.9441	1346.0674	1407.634	1447.9366	1463.1647	1485.7868	1489.5984	1497.4526	1530.2791	2233.054	2965.6444	3009.9504	3040.5625	3052.6638	3079.3613	3102.5615	3103.494	3140.0238	3500.1409	3832.8174
CC1OC1(CCO)C#C	C[C@H]1O[C@@]1(CCO)C#C	
InChI=1S/C7H10O2/c1-3-7(4-5-8)6(2)9-7/h1,6,8H,4-5H2,2H3	InChI=1S/C7H10O2/c1-3-7(4-5-8)6(2)9-7/h1,6,8H,4-5H2,2H3/t6-,7-/m1/s1
