19
gdb 4181	2.951502	1.6656744	1.412099	1.7458	74.6	-0.24122	0.00826	0.24947999999999998	995.2815	0.159157	-422.57739	-422.569984	-422.56904	-422.608986	29.518	
C	 0.2871866457	-0.3321233812	-0.2508375196	-0.406414
C	 0.9999702154	 0.7645667347	 0.5253570066	 0.131079
O	 2.2601921462	 1.0412447856	-0.1115331477	-0.276685
C	 3.2184561242	 1.0396489279	 0.9372164437	 0.134192
O	 2.7892345245	 0.0142126158	 1.809399801	-0.248121
C	 1.4103270277	 0.3589655623	 1.9755991462	 0.0307
C	 1.3085250906	 1.5185311331	 2.9770851018	-0.273684
C	 2.3169058688	 2.5860616277	 2.6206482638	-0.075097
C	 3.2194139169	 2.3732741858	 1.6649937306	-0.054077
H	-0.7125912413	-0.5110067748	 0.158878047	 0.110269
H	 0.1815305821	-0.0459266439	-1.300883592	 0.127274
H	 0.8609840022	-1.262497349	-0.2038405271	 0.130357
H	 0.3941559927	 1.6799360023	 0.5391659962	 0.078626
H	 4.1916872257	 0.7702794855	 0.5214000401	 0.09111
H	 0.8805299755	-0.5299190592	 2.3244611794	 0.084677
H	 0.2915906938	 1.9319365077	 2.9705690972	 0.109109
H	 1.4852678896	 1.1536615049	 3.9982482075	 0.115653
H	 2.284554945	 3.5234625006	 3.1693113454	 0.095705
H	 3.9379227049	 3.1273857242	 1.3614906398	 0.095328
100.3094	239.596	255.4238	289.5128	309.3134	417.4181	487.1104	516.0263	594.1232	700.572	709.1243	789.1812	800.5488	868.9112	879.2136	902.1072	937.7802	966.9128	978.6477	989.9481	1025.694	1048.4952	1077.3695	1091.0128	1130.2716	1134.68	1192.1586	1205.0554	1285.8277	1305.7702	1315.8468	1350.5258	1357.1391	1380.5741	1395.6496	1405.9265	1412.2508	1468.9126	1485.3362	1497.2559	1709.3341	3013.3913	3017.9931	3037.6612	3046.9111	3091.5919	3100.0403	3110.9953	3121.3499	3159.1739	3191.0725
CC1OC2OC1CC=C2	C[C@@H]1O[C@@H]2O[C@H]1CC=C2	
InChI=1S/C7H10O2/c1-5-6-3-2-4-7(8-5)9-6/h2,4-7H,3H2,1H3	InChI=1S/C7H10O2/c1-5-6-3-2-4-7(8-5)9-6/h2,4-7H,3H2,1H3/t5-,6-,7+/m0/s1
