19
gdb 2800	2.9009109	1.3799909	1.1895416	1.9823	74.32	-0.22786	0.06313	0.29099	1097.4273	0.156076	-422.499476	-422.491161	-422.490217	-422.5317	32.994	
O	 0.1971390969	 0.6876492739	 0.1835078854	-0.443119
C	-1.0780562143	 0.3383619672	 0.6441364538	 0.147365
C	-1.3487418604	 0.4246738909	 2.1181698914	-0.139985
C	-1.9846937224	 1.4355843255	 1.126255263	-0.224592
C	-3.3965772566	 0.9283695598	 1.5181163217	 0.437422
O	-4.3170640056	 1.9091817554	 1.8936668993	-0.479132
C	-4.0398544818	-0.2355346167	 0.719972036	-0.277464
C	-3.3794705371	-1.2661679567	 1.6969721621	-0.244337
C	-2.7508339489	-0.0941637479	 2.5106468939	-0.098953
H	 0.534109433	 1.4091599908	 0.7255115507	 0.283203
H	-1.4509047433	-0.4812059629	 0.0386968299	 0.106659
H	-0.5205767604	 0.559202904	 2.8071699774	 0.08151
H	-1.7460323808	 2.4751067934	 0.9178247997	 0.079163
H	-3.8648364512	 2.5486956779	 2.4556827927	 0.27744
H	-5.1281499531	-0.2032633261	 0.8024003664	 0.113336
H	-3.7707769843	-0.3086733171	-0.3362165116	 0.103246
H	-4.1083096245	-1.843088907	 2.2696546646	 0.103216
H	-2.6698055468	-1.9651323621	 1.248794187	 0.1054
H	-2.9709982983	-0.0460958426	 3.5779432766	 0.069621
171.0613	191.6925	196.7581	243.1735	292.5213	339.5096	349.2504	384.2845	457.9393	496.6665	608.7691	710.754	738.8154	790.3154	827.1605	852.404	898.6077	910.7384	933.942	948.2219	988.0036	1010.664	1042.5433	1073.5131	1097.2763	1105.1988	1115.3242	1125.7055	1131.3063	1206.9158	1217.8163	1241.6082	1254.6349	1270.5011	1302.5429	1313.2475	1349.6423	1373.3377	1452.6575	1470.9971	1491.8476	3066.6455	3071.7237	3100.0541	3113.2615	3130.7932	3142.3299	3155.9541	3163.7162	3793.0623	3808.973
OC1C2C1C1(O)CCC21	O[C@H]1[C@H]2[C@@H]1[C@@]1(O)CC[C@@H]21	
InChI=1S/C7H10O2/c8-6-4-3-1-2-7(3,9)5(4)6/h3-6,8-9H,1-2H2	InChI=1S/C7H10O2/c8-6-4-3-1-2-7(3,9)5(4)6/h3-6,8-9H,1-2H2/t3-,4+,5-,6-,7+/m0/s1
