19
gdb 2630	1.9830103	1.481765	1.2870066	1.3575	78.85	-0.23327	0.02862	0.26189	1134.7483	0.151904	-422.512	-422.501208	-422.500264	-422.546861	39.471	
C	 0.0215738733	-0.6231820115	-0.073137968	-0.449876
C	 1.4869946336	-0.263475139	 0.0645469462	 0.202201
C	 2.1476482579	-0.7518300083	 1.339211031	-0.458882
C	 2.3316001617	-0.2072051331	-1.1847870258	 0.026804
O	 1.741908921	-0.540754101	-2.399105139	-0.419798
C	 1.9712298696	 1.0966158454	-0.4921587207	 0.086155
O	 3.0612879473	 1.7266326666	 0.1332578398	-0.44709
C	 1.0428765912	 1.9872653978	-1.1337898778	 0.314663
C	 0.2902665006	 2.7611901888	-1.6666892064	-0.471077
H	-0.5675585629	-0.1587834618	 0.7251493388	 0.111619
H	-0.3833837375	-0.3071175952	-1.0340479747	 0.140286
H	-0.1051298778	-1.7088711633	 0.0042073745	 0.117345
H	 2.1320112104	-1.8467496091	 1.3758248414	 0.12145
H	 3.1843730057	-0.4183529752	 1.4117558005	 0.132531
H	 1.6108354849	-0.3848447464	 2.222015318	 0.112989
H	 3.3826133808	-0.4808169657	-1.0829587687	 0.100452
H	 1.8787489756	 0.1891239293	-3.0135494812	 0.294212
H	 2.7185783803	 2.2422375893	 0.8724597706	 0.288146
H	-0.3795224156	 3.4429068424	-2.1297575685	 0.197869
87.4029	133.7768	169.0822	176.7295	195.5233	218.8425	264.7669	271.0366	293.583	328.5837	354.2178	378.472	446.7366	538.5676	568.896	583.343	637.288	661.4619	677.5764	736.3617	860.3923	975.3099	980.8121	997.1372	1042.8769	1110.054	1148.2615	1173.7617	1199.7917	1279.9698	1303.0398	1329.7416	1353.9318	1406.0693	1417.7324	1444.1762	1483.1577	1487.8669	1505.4635	1511.0963	2223.1375	3028.451	3035.5637	3085.1337	3090.6591	3096.1324	3131.7088	3153.7557	3500.5047	3791.6115	3796.4637
CC1(C)C(O)C1(O)C#C	CC1(C)[C@@H](O)[C@@]1(O)C#C	
InChI=1S/C7H10O2/c1-4-7(9)5(8)6(7,2)3/h1,5,8-9H,2-3H3	InChI=1S/C7H10O2/c1-4-7(9)5(8)6(7,2)3/h1,5,8-9H,2-3H3/t5-,7+/m1/s1
