19
gdb 1964	4.0078494	1.1704699	1.0768522	2.6839	75.6	-0.23756	0.07777	0.31533	1168.5832	0.1562	-422.507135	-422.498801	-422.497856	-422.540122	32.001	
O	 4.2883668537	-0.1871851392	 2.1579683567	-0.463723
C	 2.9283400389	-0.2863056605	 1.9321604766	 0.40839
C	 2.2214485647	-1.6022797085	 1.7965686224	-0.348374
C	 2.2391526159	-0.637389459	 0.6230522478	-0.187642
C	 1.1955332225	 0.4511436801	 0.8626318268	 0.480448
C	-0.3243230322	 0.2138503602	 0.7290661025	-0.352879
C	-0.2613522719	 1.3273275704	-0.3324482492	-0.077596
O	 1.1573008785	 1.497695923	-0.1301189376	-0.32087
C	 1.9197893161	 0.8429926364	 2.1880795297	-0.377842
H	 4.4726235097	-0.5088291978	 3.0473124276	 0.284995
H	 2.8807659556	-2.4557829487	 1.6729739822	 0.115531
H	 1.2974037716	-1.8145131365	 2.3316044884	 0.103014
H	 2.653685003	-0.9041045767	-0.341153478	 0.099893
H	-0.6060586709	-0.7755356329	 0.36404331	 0.112482
H	-0.9104073564	 0.4505401688	 1.6190407544	 0.109359
H	-0.4928764998	 1.0212273461	-1.3597516305	 0.10236
H	-0.8189578049	 2.2425729642	-0.1012257496	 0.102589
H	 2.3755491764	 1.8273260769	 2.0596079536	 0.126579
H	 1.3460073595	 0.8149039537	 3.1216988664	 0.083287
72.332	104.1541	206.6791	243.8782	334.0617	371.9831	385.002	417.1451	448.8753	510.0389	665.9593	765.0088	786.7568	840.2784	861.7803	879.4322	889.4363	950.4772	962.6904	981.2567	995.7205	1021.2751	1029.1415	1071.0619	1092.1743	1140.1911	1154.7735	1174.5135	1174.7924	1213.2587	1224.5859	1249.8584	1273.6878	1291.3313	1331.1627	1353.187	1402.1364	1467.0729	1486.6809	1503.0041	1532.6387	3018.805	3033.0935	3058.1637	3075.1735	3097.8838	3118.0846	3129.8124	3193.3299	3201.2174	3794.717
OC12CC1C1(CCO1)C2	O[C@]12C[C@H]1[C@@]1(CCO1)C2	
InChI=1S/C7H10O2/c8-6-3-5(6)7(4-6)1-2-9-7/h5,8H,1-4H2	InChI=1S/C7H10O2/c8-6-3-5(6)7(4-6)1-2-9-7/h5,8H,1-4H2/t5-,6+,7-/m1/s1
