19
gdb 417	2.1014555	2.0506814	1.2531736	1.8186	74.3	-0.24793	0.05461	0.30254000000000003	1040.7366	0.157282	-422.529228	-422.521302	-422.520357	-422.561861	30.763	
C	-0.2064740554	 1.3436803453	-2.2241880295	-0.250137
O	 1.1933080026	 1.6419810285	-2.3129341887	-0.280822
C	 0.7245080552	 0.8931321309	-1.1865828341	 0.379712
C	 1.1834845528	-0.5533125028	-1.0072431755	-0.312316
C	 1.8470939411	-0.5792401852	 0.387832248	-0.220767
C	 1.0456772524	 0.459590148	 1.1963341208	-0.319755
C	 0.7989518497	 1.5622538656	 0.1782199358	 0.398792
C	 1.2817058135	 2.9407421895	 0.3265940292	-0.245735
O	-0.1096293254	 2.61794925	 0.4735750341	-0.295087
H	-0.8520660546	 2.194703793	-2.018260926	 0.129218
H	-0.5776319434	 0.6293598291	-2.9587842868	 0.110971
H	 0.3152276363	-1.2221745746	-1.0220543886	 0.110135
H	 1.8500758951	-0.8563186898	-1.8178230836	 0.1186
H	 1.8398118956	-1.5721156256	 0.8434124424	 0.103239
H	 2.8927236178	-0.2605609571	 0.310690305	 0.110299
H	 0.0815701095	 0.0389370826	 1.5089279833	 0.113566
H	 1.55901637	 0.8143225143	 2.0929775526	 0.107117
H	 1.7895992709	 3.2341529259	 1.2445168863	 0.111535
H	 1.5338100661	 3.5087215824	-0.5652932246	 0.131436
50.7454	177.3896	249.1842	261.4366	320.5294	377.4315	400.9857	498.4964	545.1846	554.8375	614.0474	786.1093	826.1488	859.0647	873.6578	901.2945	917.3835	929.9144	954.2061	979.2508	1013.7205	1082.902	1103.0111	1131.6724	1137.7706	1162.6658	1167.6339	1176.3597	1206.2825	1235.9304	1265.1456	1313.3343	1319.7997	1338.6703	1413.7377	1426.8537	1476.7237	1487.9968	1503.2609	1518.6452	1526.1365	3034.1272	3040.1275	3047.3918	3082.6602	3088.3484	3100.1493	3103.7877	3110.9088	3179.0589	3189.3962
C1OC11CCCC11CO1	C1O[C@@]21CCC[C@]12CO1	
InChI=1S/C7H10O2/c1-2-6(4-8-6)7(3-1)5-9-7/h1-5H2	InChI=1S/C7H10O2/c1-2-6(4-8-6)7(3-1)5-9-7/h1-5H2/t6-,7-/m1/s1
