19
gdb 1512	1.9110876	1.651562	1.0728191	3.5222	78.49	-0.24438	-0.03548	0.20889999999999997	1179.0226	0.153363	-422.57154	-422.561655	-422.56071	-422.605969	35.731	
C	 2.846233655	-1.066832038	-0.3546806591	-0.453858
C	 1.67152814	-0.1012263999	-0.3374772153	 0.2899
C	 0.9201067262	-0.0611961194	-1.6549222935	-0.463306
C	 0.9393238223	 0.1267559378	 0.9265937645	-0.35825
C	 1.8514106094	 1.2628837732	 0.4508698554	 0.07464
C	 1.2045613507	 2.5007970211	-0.0745406732	 0.090355
O	 0.047812871	 2.5789601476	-0.4228038039	-0.279467
C	 3.1383755348	 1.4913721087	 1.1617965354	 0.096824
O	 3.7769203657	 2.5151813884	 1.1040102689	-0.266229
H	 3.3209417807	-1.1879844653	 0.6206936826	 0.123001
H	 2.4880334161	-2.0533910225	-0.6690688685	 0.130532
H	 3.6110217521	-0.750716134	-1.0716506343	 0.134558
H	 0.5243737135	-1.0616464785	-1.86435786	 0.122543
H	 0.0884821128	 0.6416676782	-1.6344837486	 0.164626
H	 1.5884628056	 0.2088356556	-2.4794830115	 0.123033
H	-0.1173994225	 0.3673133174	 0.8757577605	 0.149547
H	 1.2565399933	-0.4022864035	 1.8205638623	 0.123666
H	 1.8786620245	 3.3762354421	-0.1046830465	 0.118738
H	 3.4867027188	 0.643684871	 1.7913658048	 0.079145
77.3719	124.5846	173.1937	192.047	215.6015	230.6996	254.5292	315.7202	324.3051	379.4322	421.6342	436.3402	493.1228	627.6406	670.9031	752.8737	819.268	931.6152	938.4298	973.0291	1008.0525	1025.4066	1050.0336	1063.7303	1088.9455	1134.2245	1168.5338	1241.858	1312.895	1359.7722	1408.9484	1419.8673	1422.5778	1439.7779	1472.9255	1486.6662	1487.6457	1510.7057	1513.3993	1791.5859	1804.9835	2882.9067	2974.1977	3033.9196	3039.4711	3090.9238	3097.6556	3122.702	3129.6808	3160.8404	3218.7051
CC1(C)CC1(C=O)C=O	CC1(C)CC1(C=O)C=O	
InChI=1S/C7H10O2/c1-6(2)3-7(6,4-8)5-9/h4-5H,3H2,1-2H3	InChI=1S/C7H10O2/c1-6(2)3-7(6,4-8)5-9/h4-5H,3H2,1-2H3
