19
gdb 4095	2.7734664	1.5908205	1.2885361	2.4891	75.68	-0.24004	0.00793	0.24797	1047.3796	0.156535	-422.558356	-422.549927	-422.548982	-422.591115	32.355	
C	 0.2165811847	-0.4207624176	-0.32552912	-0.399601
C	 0.8674551163	 0.7054929021	 0.4488218705	 0.125022
O	 2.2184131626	 0.9797947209	-0.0065292573	-0.31721
C	 2.7539745938	 0.844597347	 1.3350108611	 0.027399
C	 3.0489691606	 2.1525057811	 2.0113664023	-0.086152
C	 2.092566359	 2.4852127557	 2.8813063194	-0.065291
C	 0.98710602	 1.4601647111	 2.975537684	-0.349725
C	 1.3628010567	 0.4231543772	 1.8944478761	 0.340136
O	 1.1530486482	-0.916802182	 2.2605261956	-0.482888
H	-0.7984177107	-0.6040586783	 0.0415618118	 0.116213
H	 0.1568250982	-0.1470548902	-1.3835621129	 0.119894
H	 0.792518097	-1.3425582607	-0.228998376	 0.132904
H	 0.2543981351	 1.6160603501	 0.3898377869	 0.06913
H	 3.5706602824	 0.1137056678	 1.3579550374	 0.075932
H	 3.9286349577	 2.7459026305	 1.788841775	 0.101079
H	 2.0850774625	 3.3925838086	 3.4767514256	 0.100248
H	 0.9486627553	 0.990190647	 3.9692784793	 0.098193
H	-0.0064540203	 1.8954569251	 2.8103841714	 0.115209
H	 1.587681961	-1.0718679556	 3.1057151999	 0.279506
72.5189	200.2233	211.127	237.5215	250.549	286.2582	379.8027	425.4458	442.9011	519.4603	643.048	676.0763	732.3162	778.1261	811.7822	881.6845	916.1911	957.5917	973.6969	981.8544	1005.958	1021.2656	1054.9338	1085.0548	1111.3297	1124.1024	1151.6151	1153.6537	1198.6777	1263.6421	1292.5453	1313.3553	1334.8406	1363.0024	1373.7645	1401.2268	1406.477	1478.4185	1482.5837	1490.255	1673.5174	2998.5715	2999.8046	3040.0478	3043.5488	3044.4943	3110.0345	3142.0219	3177.8986	3205.0209	3809.3264
CC1OC2C=CCC12O	C[C@@H]1O[C@H]2C=CC[C@@]12O	
InChI=1S/C7H10O2/c1-5-7(8)4-2-3-6(7)9-5/h2-3,5-6,8H,4H2,1H3	InChI=1S/C7H10O2/c1-5-7(8)4-2-3-6(7)9-5/h2-3,5-6,8H,4H2,1H3/t5-,6-,7+/m0/s1
