19
gdb 3766	2.3927094	1.0611549	0.7814911	3.9648	77.6	-0.24573	-0.03651	0.20922000000000002	1459.1122	0.153352	-422.559414	-422.549272	-422.548328	-422.59603	34.733	
C	 1.4971819609	 3.0101149208	 2.6785964604	-0.410751
C	 0.9879445791	 2.9710016216	 1.2551386078	 0.001647
C	-0.2785385513	 3.6904402175	 0.8683256744	-0.295208
C	-0.2519437658	 2.1791656457	 0.9030614517	-0.026074
C	-0.3308866145	 1.3843294924	-0.3981250755	-0.208257
C	 0.2638702475	 0.0001460077	-0.1934985755	 0.14906
O	-0.3159207178	-1.031774671	-0.4141354776	-0.237526
C	-1.7696942572	 1.3109422732	-0.8873147574	 0.179253
O	-2.1691908211	 1.8667740498	-1.8762837514	-0.250539
H	 2.1312045698	 2.1450483776	 2.9015773637	 0.121971
H	 2.0882426239	 3.9143346334	 2.8595666142	 0.125741
H	 0.6679298076	 3.0086663095	 3.3937129637	 0.119042
H	 1.7687418258	 2.9690724686	 0.4980758794	 0.09012
H	-0.8334837395	 4.2010050092	 1.6481796659	 0.119419
H	-0.3300757853	 4.1704144639	-0.1029846173	 0.128331
H	-0.7687554222	 1.7121563441	 1.7385594208	 0.098076
H	 0.2607727024	 1.8986896294	-1.1669448074	 0.114658
H	 1.3039477021	 0.008516735	 0.2036168008	 0.088599
H	-2.4499306943	 0.7249388516	-0.2334377907	 0.092439
48.1896	56.4648	65.4058	125.4012	195.3605	219.3423	239.1593	298.6176	331.5245	362.7815	436.0064	517.4606	657.446	794.5632	808.2661	862.5536	885.8029	900.5958	964.5927	1014.0155	1029.7735	1069.1477	1085.7145	1109.5996	1117.476	1135.5417	1166.395	1201.4491	1218.1179	1253.8303	1282.892	1351.7589	1411.2817	1417.25	1427.7699	1435.6683	1490.25	1493.8117	1503.6416	1819.9049	1839.2854	2879.8546	2908.4894	3029.2962	3035.9835	3093.8711	3097.5403	3129.6035	3134.691	3137.6867	3219.7506
CC1CC1C(C=O)C=O	C[C@@H]1C[C@H]1C(C=O)C=O	
InChI=1S/C7H10O2/c1-5-2-7(5)6(3-8)4-9/h3-7H,2H2,1H3	InChI=1S/C7H10O2/c1-5-2-7(5)6(3-8)4-9/h3-7H,2H2,1H3/t5-,7-/m1/s1
