19
gdb 983	3.4146772	1.0128917	0.8831457	1.7858	77.08	-0.2453	0.00954	0.25484	1337.0581	0.157705	-422.594042	-422.585276	-422.584332	-422.62905	31.209	
O	 1.2703707964	 0.9551064307	-0.2344245183	-0.309295
C	 0.3243238116	 0.236906987	-0.4148064107	 0.190859
O	-0.963062976	 0.5976075044	-0.4800147329	-0.210187
C	-1.2883421543	 1.9973660614	-0.2953246707	-0.091311
C	-1.7164684871	 2.6317853693	-1.6230225871	-0.036223
C	-0.5408217359	 2.9098285747	-2.605742889	-0.238553
C	-0.2778661956	 4.4393567458	-2.5409980467	-0.249054
C	-1.5141908486	 4.9784375243	-1.8650051729	-0.054928
C	-2.2935361206	 4.0118295523	-1.3851974877	-0.084997
H	 0.384302263	-0.8538658714	-0.5548976566	 0.110421
H	-2.1144376928	 2.0059229425	 0.4214892189	 0.113546
H	-0.4273803758	 2.5110422306	 0.1368091272	 0.141911
H	-2.4566118538	 1.9570342663	-2.0711074253	 0.083061
H	 0.3497323486	 2.3283343931	-2.359587198	 0.123846
H	-0.8424335962	 2.630044894	-3.6188692125	 0.103458
H	 0.6218540944	 4.6832065335	-1.9602340678	 0.115111
H	-0.1211530473	 4.8730005334	-3.5353098137	 0.105488
H	-1.7157483559	 6.0407856408	-1.7772195329	 0.094903
H	-3.221082114	 4.1638380573	-0.8430203535	 0.091943
44.5036	53.6235	92.692	166.9014	270.8532	287.8547	339.4272	450.7038	468.3515	688.3883	720.0783	768.4864	792.2007	806.8853	871.2366	914.4013	935.0167	968.6114	981.5919	1000.8455	1006.4867	1044.3725	1090.7446	1106.3741	1137.2807	1181.808	1204.6383	1239.3227	1269.4057	1290.0029	1315.3293	1318.4795	1364.1668	1384.1346	1402.4986	1412.3503	1483.3317	1488.3209	1504.1493	1689.7605	1815.1069	3019.0245	3023.4129	3026.1669	3050.4644	3062.7447	3069.6499	3120.1532	3129.6788	3176.1103	3202.1906
O=COCC1CCC=C1	O=COC[C@@H]1CCC=C1	
InChI=1S/C7H10O2/c8-6-9-5-7-3-1-2-4-7/h1,3,6-7H,2,4-5H2	InChI=1S/C7H10O2/c8-6-9-5-7-3-1-2-4-7/h1,3,6-7H,2,4-5H2/t7-/m0/s1
