19
gdb 4822	1.8778362	1.3827924	0.9861159	1.8114	79.85	-0.23035	0.04878	0.27913	1282.7473	0.153636	-422.511965	-422.501732	-422.500788	-422.546726	37.74	
C	 1.399457679	 1.2167358325	-0.0599510787	-0.421925
C	 1.0970935921	-0.2588197486	 0.0771906655	-0.081279
C	 1.9486792658	-1.1553077489	 0.9863003095	-0.352567
C	 1.3503574674	-2.110814364	 1.8645892951	 0.333105
C	 0.8688337782	-2.923139894	 2.6105496767	-0.43054
C	 1.9007169461	-1.3454779314	-0.548934743	 0.396016
O	 1.1561243729	-2.4084657582	-1.0486275115	-0.458235
C	 3.1753183877	-1.1220003112	-1.3302713259	-0.141807
O	 3.9234678791	-2.3357763423	-1.3853046854	-0.422518
H	 0.9427288711	 1.7784286912	 0.7614028674	 0.12955
H	 2.4737197509	 1.4221168536	-0.039333796	 0.117295
H	 1.0014432979	 1.6147036851	-0.9996447212	 0.127753
H	 0.0398615391	-0.5070930015	 0.1085497115	 0.115955
H	 2.8535173163	-0.683434877	 1.3657909162	 0.100344
H	 0.4330374786	-3.6362624225	 3.2648795779	 0.190968
H	 1.7903624586	-3.1187142118	-1.217290477	 0.288056
H	 2.9368769445	-0.8797782519	-2.3709813815	 0.124279
H	 3.7694620542	-0.2995603314	-0.9124241265	 0.0952
H	 4.2269731203	-2.5288292278	-0.490703273	 0.290351
86.0836	126.9026	134.1747	165.9537	199.3698	225.3195	272.5868	342.7907	371.4028	387.8829	422.2928	490.4455	511.013	549.3216	568.4273	610.7898	646.7521	728.2852	830.4893	857.7166	944.1699	996.3589	1002.9592	1047.5498	1073.19	1077.6243	1125.8939	1142.4996	1191.6663	1240.1619	1259.2319	1349.7716	1357.8688	1380.4536	1416.7178	1419.346	1479.2362	1490.0913	1494.0632	1509.9857	2234.1753	3019.7662	3034.6547	3084.7282	3097.6145	3104.3994	3116.494	3159.6391	3505.6296	3756.9593	3796.7101
CC1C(C#C)C1(O)CO	C[C@@H]1[C@@H](C#C)[C@]1(O)CO	
InChI=1S/C7H10O2/c1-3-6-5(2)7(6,9)4-8/h1,5-6,8-9H,4H2,2H3	InChI=1S/C7H10O2/c1-3-6-5(2)7(6,9)4-8/h1,5-6,8-9H,4H2,2H3/t5-,6-,7+/m1/s1
