19
gdb 1695	2.3818595	1.3504979	1.1170153	2.7301	77.08	-0.23566	-0.01764	0.21802000000000002	1174.6732	0.154578	-422.574173	-422.564904	-422.56396	-422.608803	33.435	
C	-1.7105743835	 2.8393008567	-1.7800662694	-0.411058
C	-1.0837155581	 2.0093910751	-0.6506996043	 0.30308
C	-0.2256460228	 0.8671619723	-1.2447000744	-0.297084
C	 0.4331687181	 0.003275599	-0.1921769753	 0.156131
O	 0.4002484393	-1.2013437495	-0.1806700546	-0.248727
O	-0.2226861724	 2.8556532538	 0.136810272	-0.304413
C	-0.7190266285	 2.9901286945	 1.4669926908	-0.132694
C	-1.9116184457	 2.0789197673	 1.5315482427	-0.097124
C	-2.1140049126	 1.5218418111	 0.3442957352	-0.105421
H	-2.3706750961	 2.2245062339	-2.4004396164	 0.115743
H	-2.2956691726	 3.6620515414	-1.3605889956	 0.121672
H	-0.9276597394	 3.2590369215	-2.4185938716	 0.124909
H	-0.8202928526	 0.2278429331	-1.9033620638	 0.115715
H	 0.5709454825	 1.3309471935	-1.8427995584	 0.127687
H	 0.9831677269	 0.5713803966	 0.5886723028	 0.085821
H	 0.0678911303	 2.7103845311	 2.1837907787	 0.111078
H	-0.9838253779	 4.0398269568	 1.6706368732	 0.10985
H	-2.4967644886	 1.9300652977	 2.4301762227	 0.112903
H	-2.8972167661	 0.8247357941	 0.0746314355	 0.111931
59.4385	77.319	111.089	195.1473	222.1965	250.6326	321.6735	370.1299	398.4806	458.8537	555.5577	638.8513	747.4452	768.7375	812.5399	824.6584	895.1594	932.21	960.0349	961.5749	1012.2212	1021.6388	1046.1522	1070.3487	1114.2498	1136.3786	1169.8716	1202.4676	1209.4301	1265.6689	1308.4404	1362.4545	1379.7885	1400.9502	1418.3673	1446.6553	1485.7247	1490.0702	1518.618	1691.742	1829.5644	2902.806	2977.1985	2998.6409	3023.4078	3038.0266	3100.9238	3113.3181	3121.3541	3207.4928	3231.6381
CC1(CC=O)OCC=C1	C[C@@]1(CC=O)OCC=C1	
InChI=1S/C7H10O2/c1-7(4-5-8)3-2-6-9-7/h2-3,5H,4,6H2,1H3	InChI=1S/C7H10O2/c1-7(4-5-8)3-2-6-9-7/h2-3,5H,4,6H2,1H3/t7-/m1/s1
