19
gdb 4023	3.2960572	1.5727383	1.3230551	1.4494	73.86	-0.21478	0.0723	0.28708	1015.8627	0.158328	-422.516196	-422.508847	-422.507903	-422.54764	29.577	
C	 3.6471230553	-0.5186689034	-1.6234209884	-0.402531
C	 2.2477199308	-0.1516949926	-1.1548432401	 0.158982
C	 1.511011333	-1.3276591162	-0.4906296511	-0.240586
C	 0.2472686003	-0.8212166934	 0.1952654307	 0.075481
O	-0.4490845205	 0.152550175	-0.6493628653	-0.300598
C	-0.1344322346	 1.1918685701	 0.2754624587	 0.036942
C	 1.3424346056	 1.2813808541	 0.5758444981	 0.109224
O	 2.4026038211	 0.9724592864	-0.2749638631	-0.289036
C	 0.5188813559	 0.2388623061	 1.27181363	-0.197121
H	 4.2639700429	-0.8442171044	-0.7798120154	 0.11862
H	 3.6043996821	-1.3279026867	-2.3591255468	 0.112439
H	 4.1297025838	 0.3460753916	-2.0869004028	 0.12436
H	 1.6442198152	 0.1684003374	-2.0133722547	 0.093846
H	 1.2700283016	-2.065481534	-1.2638989568	 0.106842
H	 2.1477703854	-1.8220187659	 0.2539320146	 0.103981
H	-0.4398456397	-1.6180512295	 0.4916170422	 0.084337
H	-0.8507940642	 1.9995475768	 0.3823148588	 0.103475
H	 1.6106214632	 2.1384973656	 1.1873821601	 0.106808
H	 0.4265432628	 0.1055191328	 2.3418938314	 0.094535
127.5626	215.6144	240.7827	304.7904	345.7322	428.0564	468.8738	504.2713	658.49	704.4853	744.2186	771.4556	791.5145	826.0872	863.1272	911.9956	942.3265	955.9517	986.0709	1030.3154	1041.3912	1055.3676	1058.1354	1101.9411	1115.0098	1132.5529	1157.8679	1185.6394	1225.158	1250.1324	1299.4462	1306.8254	1342.9876	1350.6015	1387.1281	1398.6917	1408.6857	1440.7456	1470.4703	1483.1051	1500.4832	3023.9531	3030.4707	3039.9594	3070.4007	3079.5677	3113.3835	3119.4511	3155.5057	3168.5673	3192.2918
CC1CC2OC3C(O1)C23	C[C@H]1C[C@@H]2O[C@@H]3[C@H](O1)[C@H]23	
InChI=1S/C7H10O2/c1-3-2-4-5-6(8-3)7(5)9-4/h3-7H,2H2,1H3	InChI=1S/C7H10O2/c1-3-2-4-5-6(8-3)7(5)9-4/h3-7H,2H2,1H3/t3-,4-,5-,6+,7-/m0/s1
