19
gdb 2582	2.2249379	1.5794568	1.2659216	2.6351	78.2	-0.2287	-0.03246	0.19623999999999997	1096.7952	0.154132	-422.580066	-422.570471	-422.569527	-422.614402	34.423	
C	 1.4122430826	 0.7880285871	 0.1725159307	-0.499957
C	 0.0153385998	 0.2576144121	 0.1731033069	 0.286032
C	-1.1383755887	 0.9204311504	 0.136996845	-0.212266
C	-2.2999899794	-0.0274248398	 0.1320732419	-0.135514
O	-1.7100928919	-1.328221937	 0.1665857982	-0.310562
C	-0.2862341632	-1.2374166421	 0.2210282432	 0.20839
C	 0.3506742591	-2.0489549761	-0.9098007713	-0.426544
C	 0.1658212422	-1.7635915999	 1.5913492991	 0.12532
O	 1.2940996964	-2.0851306691	 1.8607859271	-0.255635
H	 1.9901050615	 0.3800692856	 1.0088764726	 0.152526
H	 1.9428251611	 0.4984554308	-0.7424411052	 0.136474
H	 1.4206612899	 1.8786679914	 0.2383565321	 0.12676
H	-1.2525726162	 1.9967570252	 0.0903689749	 0.10625
H	-2.9629708201	 0.1058182923	 1.0005979562	 0.10919
H	-2.925372636	 0.0720711771	-0.7686267649	 0.109686
H	-0.0587000545	-3.0627807503	-0.9105895068	 0.131565
H	 0.137908388	-1.5859049077	-1.8767432192	 0.118603
H	 1.4312566942	-2.1138146421	-0.7632633864	 0.139261
H	-0.6596136849	-1.7910906179	 2.3372814061	 0.09042
82.2135	90.359	164.4882	194.1179	211.6022	240.1468	254.4721	258.7956	382.2307	394.7217	461.4049	566.2576	632.2482	719.7618	773.1978	815.1484	877.9638	943.3137	948.7481	981.1211	1021.1765	1047.6398	1073.0353	1078.835	1133.6569	1170.7995	1176.3709	1208.313	1229.7072	1309.7755	1373.9858	1381.8505	1398.2484	1418.4293	1474.6363	1484.3104	1489.5354	1494.0835	1525.0372	1727.901	1822.8074	2890.3254	2980.2543	2997.3136	3030.9832	3049.095	3084.3248	3121.5515	3125.3889	3137.9862	3208.6654
CC1=CCOC1(C)C=O	CC1=CCO[C@]1(C)C=O	
InChI=1S/C7H10O2/c1-6-3-4-9-7(6,2)5-8/h3,5H,4H2,1-2H3	InChI=1S/C7H10O2/c1-6-3-4-9-7(6,2)5-8/h3,5H,4H2,1-2H3/t7-/m1/s1
