19
gdb 5888	5.2652429	0.5788742	0.5523973	2.0914	85.13	-0.26177	-0.02799	0.23378	2036.5476	0.154339	-422.5585	-422.547737	-422.546793	-422.597151	36.04	
C	 5.8279669565	-2.645559119	 0.5486311429	-0.385862
C	 5.1051115488	-2.0125116095	 1.7282922804	-0.054356
O	 3.7429596095	-1.6681534555	 1.3920988464	-0.233125
C	 3.5659590539	-0.4794766604	 0.7815181625	 0.257368
O	 4.4539313606	 0.2931492648	 0.5083310809	-0.365879
C	 2.1702730738	-0.2487039073	 0.500613545	-0.091625
C	 1.0215147115	 0.0042134364	 0.2369981363	 0.256615
C	-0.3612708775	 0.324510591	-0.0881553521	-0.331339
C	-0.5208768823	 1.6740374593	-0.8115622774	-0.368111
H	 6.8267097323	-2.9695476947	 0.8584190511	 0.120411
H	 5.2813508102	-3.5187382626	 0.1811597314	 0.127176
H	 5.9372254897	-1.9258794922	-0.2657391016	 0.146157
H	 5.00769849	-2.7137369024	 2.5602062251	 0.113183
H	 5.6228302434	-1.1132227264	 2.0699001053	 0.133098
H	-0.7748483384	-0.4831167257	-0.705727971	 0.141847
H	-0.9504229018	 0.3238234966	 0.837935626	 0.142137
H	-0.1434730228	 2.4928554513	-0.1938248643	 0.136375
H	 0.0337280539	 1.6779088913	-1.7533270387	 0.136032
H	-1.5758529514	 1.8622830851	-1.0298692383	 0.119898
10.9251	56.6553	71.0888	95.0474	157.792	175.7259	227.9085	242.3212	330.1419	385.3004	413.3353	453.2185	522.85	599.0611	771.0292	775.8736	781.2054	833.9315	873.8003	944.7286	1025.3534	1075.6442	1100.7372	1102.0696	1118.9323	1198.237	1271.0845	1282.9935	1330.0557	1347.7831	1398.7651	1411.392	1419.1551	1464.3949	1484.5968	1487.3585	1495.0427	1504.2699	1507.6513	1781.5442	2353.369	3023.6913	3045.5895	3048.6948	3052.1358	3070.1411	3112.6825	3120.8699	3123.4545	3129.5889	3141.7319	10.9108	56.6549	71.0882	95.049	157.7911	175.7252	227.9102	242.3212	330.1422	385.3014	413.338	453.2186	522.8502	599.0598	771.0295	775.8737	781.2059	833.9316	873.7998	944.7285	1025.3532	1075.6443	1100.7382	1102.07	1118.932	1198.2369	1271.0849	1282.995	1330.0554	1347.7839	1398.7646	1411.3926	1419.1549	1464.3967	1484.5962	1487.3579	1495.0436	1504.2708	1507.6503	1781.5468	2353.3699	3023.6912	3045.5895	3048.6947	3052.1357	3070.141	3112.6825	3120.8698	3123.4545	3129.5888	3141.7318
CCOC(=O)C#CCC	CCOC(=O)C#CCC	
InChI=1S/C7H10O2/c1-3-5-6-7(8)9-4-2/h3-4H2,1-2H3	InChI=1S/C7H10O2/c1-3-5-6-7(8)9-4-2/h3-4H2,1-2H3
