19
gdb 2508	2.6129727	1.9013767	1.3988105	2.3678	74.21	-0.23525	0.06978	0.30502999999999997	966.0175	0.158527	-422.525444	-422.517868	-422.516924	-422.556991	30.347	
O	-0.0408090656	 0.2215948219	 0.3345392323	-0.48459
C	-0.705281478	 1.0341997139	 1.2663868268	 0.420805
C	-1.1428382807	 2.3032354138	 0.5577194117	-0.124937
O	-1.8748427909	 3.1938223297	 1.378100133	-0.247284
C	-2.8951925015	 2.5700413488	 2.1439864488	-0.087524
C	-2.3071692692	 1.4942137396	 3.0513452656	-0.050356
C	-0.9194784039	 1.8889326913	 3.6671998168	-0.241526
C	-0.2366381568	 0.9193306407	 2.7019450972	-0.139239
C	-1.6116158976	 0.3694998766	 2.2520727447	-0.174687
H	 0.1210978847	-0.6398064254	 0.7333718503	 0.2834
H	-0.2737329249	 2.8609715872	 0.195211494	 0.115415
H	-1.7382160579	 1.9973287592	-0.3192016667	 0.094808
H	-3.3519760062	 3.376396169	 2.7267709562	 0.105978
H	-3.6705431174	 2.1374497034	 1.4886469597	 0.087578
H	-3.0417559893	 1.1474158973	 3.7807251861	 0.075043
H	-0.6362050403	 2.9424651968	 3.6148347212	 0.110646
H	-0.8340792978	 1.5400718581	 4.6995957614	 0.099235
H	 0.6775259536	 0.3711450557	 2.9072315027	 0.079198
H	-1.9623364205	-0.6503133875	 2.1337728781	 0.078039
139.5364	195.5062	253.9769	308.2808	338.2208	383.458	422.5831	472.2567	529.5662	612.6168	711.784	737.7472	812.9657	843.8017	891.4874	911.6578	923.6966	974.9959	988.1849	1009.7066	1046.7792	1056.8457	1079.2334	1100.595	1126.723	1140.2617	1169.648	1192.9013	1228.4422	1248.1746	1263.3474	1284.1719	1317.106	1322.2347	1335.0853	1394.8484	1425.5006	1461.2398	1489.1572	1494.7263	1501.6793	2961.4435	2967.8476	3059.3788	3072.2187	3077.7462	3089.1988	3114.4554	3154.0459	3167.0799	3812.2682
OC12COCC3CC1C23	O[C@]12COC[C@@H]3C[C@H]1[C@H]23	
InChI=1S/C7H10O2/c8-7-3-9-2-4-1-5(7)6(4)7/h4-6,8H,1-3H2	InChI=1S/C7H10O2/c8-7-3-9-2-4-1-5(7)6(4)7/h4-6,8H,1-3H2/t4-,5-,6+,7+/m0/s1
