19
gdb 5359	3.541163	1.2322858	1.1863413	1.7655	76.04	-0.23754	0.00674	0.24428	1146.2052	0.158197	-422.554904	-422.547	-422.546056	-422.587716	30.187	
C	 1.8378253261	-0.0099051353	 2.7619457959	-0.375172
C	 1.7221023632	 1.5248609177	 2.7558668768	-0.312311
C	 2.2436086364	 2.1523885268	 1.5054617969	 0.382231
C	 3.2144124154	 3.0491441864	 1.3028065251	-0.235625
C	 3.1275135405	 3.4121523362	-0.1711243578	-0.024148
C	 1.7992676804	 4.2196822708	-0.3377800842	-0.076784
O	 0.8139536067	 3.2119397391	-0.0831154962	-0.276749
C	 1.6023436105	 2.0103040518	 0.1186709819	 0.063283
O	 2.6869653835	 2.1712030806	-0.7609418161	-0.229709
H	 1.4288918268	-0.4242645795	 3.688293773	 0.116457
H	 1.2887874145	-0.456939531	 1.9270020335	 0.121254
H	 2.8826847328	-0.3233752804	 2.6786115251	 0.125923
H	 0.6659547777	 1.8042598889	 2.8750176731	 0.118985
H	 2.2520161291	 1.9391280945	 3.6206686816	 0.10606
H	 3.8358641746	 3.5462817481	 2.035607349	 0.103569
H	 4.0071745762	 3.8052352681	-0.6761319929	 0.091713
H	 1.7036430311	 5.0447965714	 0.3749466675	 0.102476
H	 1.6872484665	 4.5933910132	-1.3611012431	 0.109062
H	 0.9958948081	 1.1387607225	-0.119850189	 0.089485
61.6831	121.0873	190.517	251.8206	287.511	395.3672	442.2154	566.846	619.0553	649.6225	768.9294	781.5909	817.0656	828.9835	862.1244	866.9454	914.0181	925.5106	942.9673	981.1794	1002.0892	1040.0651	1062.1951	1089.6032	1113.9198	1188.136	1203.3283	1239.7753	1241.1836	1278.3895	1282.5106	1331.0353	1340.347	1350.8409	1356.3306	1408.3934	1477.4333	1497.7291	1504.7437	1511.8482	1689.7739	3013.3979	3037.2289	3038.8746	3063.0006	3087.8245	3108.7152	3114.2371	3147.7563	3151.9456	3221.5742
CCC1=CC2COC1O2	CCC1=C[C@@H]2CO[C@H]1O2	
InChI=1S/C7H10O2/c1-2-5-3-6-4-8-7(5)9-6/h3,6-7H,2,4H2,1H3	InChI=1S/C7H10O2/c1-2-5-3-6-4-8-7(5)9-6/h3,6-7H,2,4H2,1H3/t6-,7+/m1/s1
