19
gdb 1150	2.762539	1.1241923	0.9745701	1.4033	78.42	-0.26536	0.01206	0.27742	1275.304	0.151789	-422.564184	-422.553401	-422.552457	-422.600032	38.388	
C	 1.0452862849	 3.5163766022	 0.0071683319	-0.470905
C	 2.2059317707	 2.564110611	-0.1726742597	 0.441192
O	 3.3486689644	 2.8061484941	 0.1280808127	-0.359037
O	 1.7670167903	 1.4106052226	-0.7178206115	-0.289748
C	 2.6945725423	 0.30795303	-1.0000115712	 0.17554
C	 3.3315428567	-0.2076026982	 0.3012399252	-0.421691
C	 3.7460830132	 0.7392338541	-2.0359201442	-0.421692
C	 1.832695697	-0.7313035912	-1.5739089121	 0.343476
C	 1.1670690034	-1.6109882671	-2.0483542219	-0.466124
H	 1.4054224195	 4.445162285	 0.4479229777	 0.146396
H	 0.5726206372	 3.7173646121	-0.9582143995	 0.150858
H	 0.2862469331	 3.0643881238	 0.6516261797	 0.150849
H	 3.9089224257	-1.1103354696	 0.0857269537	 0.127802
H	 3.9885337231	 0.5505988699	 0.7262340452	 0.154111
H	 2.5522686085	-0.4637334438	 1.0231757864	 0.128453
H	 4.4034591972	 1.4983170146	-1.6131007727	 0.154111
H	 4.3376450381	-0.1311078957	-2.3313842464	 0.127803
H	 3.2528109443	 1.1363476688	-2.9264514907	 0.128452
H	 0.5705808205	-2.3836265925	-2.4671688427	 0.200156
57.6533	94.1899	111.195	128.612	187.648	234.5092	244.052	257.7883	310.0544	384.0072	392.2305	392.8285	553.0581	559.3399	611.7421	620.3532	625.1372	673.7469	746.3708	837.2355	937.3616	949.3685	964.338	1027.3148	1032.3877	1063.1838	1169.6968	1193.2835	1260.2003	1281.7549	1388.7173	1392.5021	1409.1656	1468.6163	1473.9769	1475.1804	1492.7254	1493.3196	1512.0381	1811.4749	2243.0653	3056.024	3057.7219	3059.6027	3123.6102	3127.4656	3130.5135	3162.7685	3165.5538	3168.278	3501.9054	57.6524	94.1897	111.1949	128.6119	187.6478	234.5092	244.0517	257.7878	310.0544	384.0072	392.2304	392.8285	553.0582	559.3399	611.7422	620.3532	625.1373	673.7469	746.3707	837.2355	937.3617	949.3685	964.338	1027.315	1032.3878	1063.1839	1169.697	1193.2836	1260.2005	1281.7551	1388.7175	1392.5022	1409.1658	1468.6165	1473.9773	1475.1805	1492.7258	1493.3199	1512.0384	1811.475	2243.0654	3056.024	3057.7219	3059.6027	3123.6102	3127.4656	3130.5135	3162.7685	3165.5538	3168.278	3501.9052
CC(=O)OC(C)(C)C#C	CC(=O)OC(C)(C)C#C	
InChI=1S/C7H10O2/c1-5-7(3,4)9-6(2)8/h1H,2-4H3	InChI=1S/C7H10O2/c1-5-7(3,4)9-6(2)8/h1H,2-4H3
