19
gdb 3756	3.6021911	1.2047731	1.017987	2.7031	79.2	-0.23922	0.0026	0.24181999999999998	1213.9142	0.156802	-422.541709	-422.533311	-422.532367	-422.574589	31.824	
C	 0.0909737439	 0.366320136	 0.1154354134	-0.427928
C	 1.080822038	-0.7660968658	 0.013147711	 0.013014
O	 2.2901438549	-0.6616912408	 0.7639000165	-0.299901
C	 2.3835091116	-0.7018329853	-0.681274145	 0.363986
C	 2.9460300292	-1.980390665	-1.2776922112	-0.161804
O	 4.3234802407	-1.8600855632	-1.5793953134	-0.243281
C	 4.5759615446	-0.8598967968	-2.5446469715	-0.128018
C	 3.8823554534	 0.4384196497	-2.2373505974	-0.087811
C	 2.8921568617	 0.5186916237	-1.348269423	-0.121655
H	-0.4497962966	 0.303116286	 1.0654827277	 0.132455
H	 0.5815644849	 1.3406164879	 0.0746088713	 0.130352
H	-0.645021243	 0.3070772724	-0.6935345607	 0.123784
H	 0.6229268504	-1.7587585664	 0.0650687563	 0.082621
H	 2.8507802638	-2.7966441782	-0.5576191131	 0.120456
H	 2.3749597406	-2.2407239199	-2.1864643954	 0.088554
H	 5.6622803493	-0.7160950676	-2.5573077503	 0.122789
H	 4.2893174938	-1.2100787258	-3.5553387028	 0.097859
H	 4.2311699492	 1.3198639222	-2.7687398855	 0.099932
H	 2.4386096596	 1.4717930371	-1.0996638069	 0.094596
87.3428	150.8938	192.7602	224.4281	290.1671	292.4321	385.8823	453.0797	472.8	498.6719	565.1379	688.7336	723.2071	761.7497	865.6568	903.4981	930.9994	971.662	979.0935	987.8462	1025.0176	1037.5907	1080.5572	1121.4629	1132.0681	1166.4548	1204.9109	1246.2677	1292.1967	1308.446	1327.924	1369.2607	1406.6273	1414.114	1426.7906	1464.8793	1476.016	1486.9108	1489.1194	1508.644	1711.5311	2919.152	2951.5299	3040.2781	3057.6318	3059.7116	3101.4806	3103.3386	3136.0203	3163.1164	3192.6979
CC1OC11COCC=C1	C[C@@H]1O[C@]21COCC=C2	
InChI=1S/C7H10O2/c1-6-7(9-6)3-2-4-8-5-7/h2-3,6H,4-5H2,1H3	InChI=1S/C7H10O2/c1-6-7(9-6)3-2-4-8-5-7/h2-3,6H,4-5H2,1H3/t6-,7-/m0/s1
