19
gdb 4695	3.6332685	0.8159722	0.7361904	1.4188	79.41	-0.26554	0.01254	0.27808	1604.0955	0.152886	-422.561407	-422.550678	-422.549734	-422.598648	37.096	
C	 0.7126577223	-0.812228018	 0.5617453361	-0.371871
C	 0.6666580545	 0.4563069513	-0.286276737	-0.302194
C	 1.9466344886	 1.2626609306	-0.208376737	 0.459153
O	 2.9174193141	 0.9759500985	 0.4472603117	-0.357701
O	 1.8562563549	 2.3671381463	-0.9839343724	-0.25686
C	 3.0145991707	 3.2432544397	-0.9934789381	-0.055117
C	 3.9701188663	 2.8205650321	-2.1118626283	-0.400904
C	 2.5271259091	 4.608053617	-1.1545729889	 0.329972
C	 2.1637499283	 5.7435996236	-1.2984674836	-0.445286
H	 0.878922652	-0.5734777652	 1.6151224282	 0.133592
H	-0.2282003508	-1.3626121337	 0.4757889769	 0.113176
H	 1.5272825215	-1.4673970845	 0.2430642503	 0.13207
H	 0.4823504875	 0.2292166316	-1.3429186476	 0.133699
H	-0.1565784742	 1.1144624963	 0.0156536903	 0.136566
H	 3.5164911932	 3.1334814398	-0.0273394649	 0.140848
H	 4.3288704935	 1.8064215409	-1.921706825	 0.139892
H	 3.4618450527	 2.8540370854	-3.078522255	 0.134292
H	 4.8278327018	 3.497485141	-2.1436798755	 0.133658
H	 1.836538514	 6.7471483474	-1.4163585001	 0.203014
30.8579	48.7949	81.2747	133.263	178.3509	204.0512	227.4415	254.5704	325.2922	361.6647	411.3397	540.3785	559.1712	587.3981	624.568	663.3464	676.7493	809.4	833.7767	885.2101	933.2494	1020.1442	1044.9818	1099.4211	1107.3397	1109.6506	1138.4822	1205.5093	1277.8808	1344.662	1359.1444	1388.9601	1402.3905	1416.7343	1457.9536	1487.8611	1493.2189	1493.8854	1500.4671	1812.9335	2245.7	3044.1429	3052.7583	3053.0436	3071.1418	3073.5897	3124.5457	3129.6817	3132.8766	3140.556	3503.6092
CCC(=O)OC(C)C#C	CCC(=O)O[C@@H](C)C#C	
InChI=1S/C7H10O2/c1-4-6(3)9-7(8)5-2/h1,6H,5H2,2-3H3	InChI=1S/C7H10O2/c1-4-6(3)9-7(8)5-2/h1,6H,5H2,2-3H3/t6-/m0/s1
