19
gdb 2921	2.2713844	1.8111473	1.3930239	0.9796	74.23	-0.22071	0.07097	0.29168	1017.1463	0.157318	-422.527394	-422.519442	-422.518498	-422.559337	31.366	
C	 1.1181952052	 1.1350368968	 0.1225937283	-0.414339
C	 1.0436460789	-0.3866428079	 0.1321075989	 0.031166
C	 1.8035168191	-1.0500606161	-1.0203498081	-0.150456
C	 2.0944003132	-2.5082213318	-0.6443978358	 0.005743
O	 1.2919391261	-3.137337441	 0.331786738	-0.270745
C	 1.5199402592	-2.4320186233	 1.5642026565	-0.097157
C	 2.0480324236	-1.0673479054	 1.1271014676	-0.15072
C	 2.9530809917	-1.427872729	-0.0967180892	 0.342671
O	 4.3092539502	-1.2342714712	-0.2477588485	-0.466345
H	 0.7083928763	 1.553797139	 1.0483744272	 0.111449
H	 2.1545827168	 1.4768824231	 0.0251693092	 0.124047
H	 0.5490634122	 1.5528815857	-0.7150616922	 0.114488
H	 0.0055843057	-0.7190844155	 0.2528041176	 0.072611
H	 1.82805358	-0.7214402575	-2.0541687865	 0.08529
H	 2.4456310401	-3.1720573958	-1.4257074206	 0.104363
H	 0.5700823293	-2.3859293737	 2.1065895976	 0.108616
H	 2.2540493617	-2.9725544378	 2.1837825847	 0.084813
H	 2.4613213816	-0.4403028919	 1.9170290798	 0.076934
H	 4.7702555793	-2.0167289469	 0.0749838356	 0.287572
138.3558	223.8799	244.5145	255.0616	279.5738	304.1352	367.3001	412.9693	547.6058	594.7704	668.9783	736.8296	759.9814	820.4867	870.4432	911.4795	929.8166	946.0992	978.2506	983.0002	1024.467	1045.4685	1058.6936	1080.6071	1106.2929	1140.2703	1159.767	1178.7538	1218.5397	1229.2737	1265.5364	1282.1388	1295.8792	1318.4376	1365.9665	1378.0684	1411.7959	1476.577	1494.9837	1499.6502	1513.8464	2970.2814	3025.0032	3031.3312	3072.6713	3092.8182	3097.3824	3120.2226	3167.6192	3191.7179	3790.3088
CC1C2C3OCC1C23O	C[C@H]1[C@@H]2[C@@H]3OC[C@H]1[C@]23O	
InChI=1S/C7H10O2/c1-3-4-2-9-6-5(3)7(4,6)8/h3-6,8H,2H2,1H3	InChI=1S/C7H10O2/c1-3-4-2-9-6-5(3)7(4,6)8/h3-6,8H,2H2,1H3/t3-,4-,5-,6+,7+/m1/s1
