19
gdb 1127	3.4556776	1.2866786	1.1269852	3.8906	74.62	-0.24125	-0.01069	0.23056	1137.3977	0.156888	-422.557554	-422.549227	-422.548283	-422.591881	30.896	
C	-1.1203006737	-1.298739543	-0.8287353837	-0.477774
C	-0.5087888425	-1.6786233413	 0.5091462366	 0.375819
O	-0.7069552034	-2.75865262	 1.015425757	-0.293512
C	 0.4105931043	-0.6508346543	 1.1595118431	-0.100727
C	-0.2239841233	 0.7527544322	 1.4695764504	-0.252635
C	 0.0409410655	 0.7428689156	 2.9914383017	 0.088622
C	 1.5034402335	 0.2667355229	 3.1221010563	-0.243182
C	 0.8031016795	-1.0108595098	 2.6102022742	 0.082341
O	-0.3881826102	-0.6034768255	 3.3554289215	-0.295333
H	-1.6650989225	-2.1500087898	-1.2384696034	 0.143139
H	-1.8045942738	-0.4514901791	-0.7127794371	 0.143543
H	-0.34123561	-0.9812092387	-1.5310725746	 0.132643
H	 1.2886582936	-0.5450964324	 0.5095587999	 0.092626
H	 0.26338138	 1.5775623978	 0.9437009314	 0.102976
H	-1.2963273513	 0.7909978725	 1.2655096058	 0.114359
H	-0.3957603673	 1.533837662	 3.6009817334	 0.082021
H	 2.2812700625	 0.7384753882	 2.5149473844	 0.091591
H	 1.8084064934	 0.1721596082	 4.1643669849	 0.115449
H	 1.1349237456	-2.0253621755	 2.815881518	 0.098036
20.2511	105.8989	127.4251	191.5269	326.0749	364.2947	413.3288	522.6333	559.8192	613.0647	718.442	778.6837	831.4066	846.813	872.2205	878.1108	936.7736	944.6763	958.2888	978.8126	992.5681	1027.2435	1047.358	1094.5039	1099.6804	1148.2125	1182.3768	1203.7568	1227.6818	1233.8135	1261.0396	1283.5074	1309.992	1325.9471	1353.9859	1383.0258	1462.185	1476.1736	1482.1212	1495.7392	1808.8908	3028.4556	3038.8785	3061.4424	3068.1122	3098.9697	3118.1028	3123.9604	3144.5621	3152.1542	3163.0687
CC(=O)C1CC2CC1O2	CC(=O)[C@H]1C[C@@H]2C[C@H]1O2	
InChI=1S/C7H10O2/c1-4(8)6-2-5-3-7(6)9-5/h5-7H,2-3H2,1H3	InChI=1S/C7H10O2/c1-4(8)6-2-5-3-7(6)9-5/h5-7H,2-3H2,1H3/t5-,6-,7-/m1/s1
