19
gdb 5274	2.7942687	1.5026628	1.2487444	3.0256	73.79	-0.24261	0.04952	0.29213	1076.8861	0.156205	-422.484372	-422.476294	-422.47535	-422.516918	30.963	
C	 1.2631850035	-0.3435358984	 1.0330430048	-0.383089
C	 1.0296194818	 0.1970490792	-0.3841876872	-0.294329
C	 1.6880323028	-0.6487525119	-1.4526372948	 0.274519
C	 1.1150207933	-2.0442099364	-1.8151613898	-0.123926
O	 1.0115465013	-1.6877561964	-3.2188373274	-0.28528
C	 1.5513050866	-0.3841377004	-2.9734854447	 0.014788
C	 3.1008888197	-0.2547013281	-3.0733447499	 0.000348
O	 3.670903737	-1.468684907	-2.5800064858	-0.223555
C	 3.2310038344	-0.508813002	-1.6228261794	-0.046088
H	 0.8589755386	-1.3554821313	 1.1426594397	 0.124024
H	 2.3303950051	-0.3864140251	 1.2750270225	 0.119931
H	 0.7779163787	 0.2909596669	 1.7804022876	 0.118567
H	-0.0473666918	 0.2544150566	-0.5851774558	 0.106062
H	 1.4091614219	 1.2254101327	-0.4532542403	 0.099375
H	 1.7752354704	-2.9016379219	-1.6596157868	 0.115763
H	 0.1244613097	-2.2452681096	-1.3879038579	 0.095325
H	 0.9680588023	 0.4361419721	-3.4019965147	 0.077646
H	 3.7040875213	 0.3289054253	-3.7601771759	 0.106579
H	 3.9585680436	-0.1531526842	-0.9009825842	 0.10334
95.6433	154.7792	184.1359	235.6041	290.2776	334.309	337.562	477.5568	570.1814	682.2755	717.7042	782.4422	816.0757	841.8447	849.9887	893.7046	907.4721	971.6374	988.523	991.9053	1001.4035	1016.7675	1037.716	1052.1848	1128.0024	1147.8112	1169.4869	1199.0846	1221.7902	1236.3419	1280.0696	1293.6805	1325.4358	1353.3442	1364.3714	1384.3307	1411.8568	1482.1167	1499.8431	1501.8328	1506.3952	3014.8858	3019.0111	3035.5453	3050.4762	3070.8858	3092.6915	3102.2097	3109.0034	3167.2865	3182.6674
CCC12COC1C1OC21	CC[C@@]12CO[C@@H]1[C@@H]1O[C@H]21	
InChI=1S/C7H10O2/c1-2-7-3-8-5(7)4-6(7)9-4/h4-6H,2-3H2,1H3	InChI=1S/C7H10O2/c1-2-7-3-8-5(7)4-6(7)9-4/h4-6H,2-3H2,1H3/t4-,5+,6-,7+/m0/s1
