19
gdb 3269	2.5815133	1.9153796	1.4602072	0.7088	74.27	-0.23122	0.06612	0.29734	957.6481	0.157667	-422.522144	-422.514521	-422.513577	-422.553588	30.773	
C	 0.0293596461	-1.6647874982	-2.3927218326	-0.521334
C	 0.0899223524	-0.1818652683	-2.1507656777	 0.332664
C	-1.0665472487	 0.7904018523	-2.6338202278	 0.029786
C	-0.2695040815	 1.0746278776	-3.9261888579	-0.253525
C	 0.9298340074	 0.8712507505	-2.9891076524	-0.103252
C	 0.6248213453	 1.7362524319	-1.6967826545	 0.021263
O	-0.7827666907	 1.9652341713	-1.8452234518	-0.272613
C	 0.6243733504	 0.4380497455	-0.8488533419	 0.052193
O	 1.8970943413	-0.1144084472	-0.5809290321	-0.440387
H	-0.7572931211	-2.1296470603	-1.7863685127	 0.117735
H	-0.1799635261	-1.8998590009	-3.4418031184	 0.116185
H	 0.9816309949	-2.1304729046	-2.1220326972	 0.139152
H	-2.1278361165	 0.5466520424	-2.6024381629	 0.075642
H	-0.3387180335	 0.265837535	-4.6580239794	 0.102394
H	-0.4386256998	 2.0432888261	-4.402723444	 0.09951
H	 1.9593741457	 0.7232076355	-3.3025446615	 0.081392
H	 1.1539481201	 2.6477006974	-1.4191025094	 0.071209
H	-0.0229471465	 0.4500368162	 0.0388702198	 0.064563
H	 2.3074851309	 0.4083437379	 0.1150477247	 0.287423
194.1681	211.3443	225.7237	273.6241	308.892	346.1282	448.523	512.459	528.4412	610.5571	662.6361	765.4512	838.1052	843.1844	853.9501	913.5189	917.8169	927.0311	970.8993	980.0215	1002.7846	1043.3455	1081.6713	1099.3274	1121.1512	1144.6522	1171.4841	1172.7947	1207.3818	1225.148	1242.1823	1245.6331	1255.937	1292.0313	1321.4362	1330.7116	1410.1484	1422.3626	1480.4293	1487.8335	1498.2297	3010.4007	3026.6458	3061.8179	3086.8305	3108.0257	3121.289	3122.3884	3128.7764	3159.9105	3817.819
CC12C3CC1C(O3)C2O	C[C@]12[C@@H]3C[C@H]1[C@@H](O3)[C@@H]2O	
InChI=1S/C7H10O2/c1-7-3-2-4(7)9-5(3)6(7)8/h3-6,8H,2H2,1H3	InChI=1S/C7H10O2/c1-7-3-2-4(7)9-5(3)6(7)8/h3-6,8H,2H2,1H3/t3-,4-,5+,6-,7+/m0/s1
