19
gdb 5639	2.5580431	1.4339096	1.0723961	1.8556	78.38	-0.22878	-0.02185	0.20693	1177.4723	0.156825	-422.572547	-422.563588	-422.562644	-422.606761	32.407	
C	 1.510532293	 0.0958428598	-0.050297858	-0.243019
O	 0.1445504542	-0.2096874479	 0.1764364114	-0.260279
C	-0.4633479068	 0.5855388395	 1.1986724433	-0.002477
C	-1.9514044826	 0.5544529353	 0.997172553	-0.074284
C	-2.7967711425	-0.0261908044	 1.8479823802	-0.052475
C	-2.3694209029	-0.7573448483	 3.0917808119	-0.268137
C	-0.8784379915	-1.1468914872	 3.0450367912	-0.304819
C	-0.0398992811	 0.0175121522	 2.562640565	 0.384266
O	 0.9215900098	 0.4502803055	 3.1560784068	-0.324163
H	 2.1247608021	-0.0549164924	 0.8462167848	 0.130693
H	 1.8538242541	-0.5757714328	-0.8406979518	 0.126906
H	 1.6354412721	 1.1369233146	-0.3835221281	 0.108799
H	-0.0853763014	 1.6175761937	 1.136016753	 0.084991
H	-2.3178805973	 1.0476725125	 0.1011095574	 0.099759
H	-3.8652206796	 0.0173125237	 1.6501527916	 0.097485
H	-2.5643112949	-0.1322705186	 3.9747127445	 0.126852
H	-2.9842863219	-1.654736653	 3.2258489978	 0.115547
H	-0.5071519532	-1.4875837319	 4.0134868377	 0.116517
H	-0.7513645496	-1.9547783104	 2.3131346683	 0.137839
50.2806	109.8247	139.0789	165.6206	236.7554	253.175	358.1561	420.9598	465.2137	483.4625	534.3263	655.5162	717.3347	748.8216	799.8903	885.3543	957.5281	983.7803	990.2137	1006.5365	1037.0746	1063.9022	1114.3246	1135.8429	1179.3151	1186.1168	1212.5084	1246.8314	1257.4642	1318.7309	1333.5177	1354.0338	1374.4922	1416.9923	1463.4016	1475.291	1483.7115	1484.5276	1513.5059	1722.9499	1814.4015	2987.6763	2992.9078	3013.2065	3036.3837	3056.7504	3057.0915	3118.5101	3120.2127	3150.2979	3174.5472
COC1C=CCCC1=O	CO[C@H]1C=CCCC1=O	
InChI=1S/C7H10O2/c1-9-7-5-3-2-4-6(7)8/h3,5,7H,2,4H2,1H3	InChI=1S/C7H10O2/c1-9-7-5-3-2-4-6(7)8/h3,5,7H,2,4H2,1H3/t7-/m0/s1
