19
gdb 907	3.0824053	1.3388722	1.178948	1.9189	75.07	-0.26878	0.00893	0.27771	1112.5488	0.156973	-422.55838	-422.550013	-422.549069	-422.592255	30.919	
O	 0.1651851067	 0.1395026428	 1.0241920773	-0.309649
C	 0.0756645863	-0.1263303832	-0.1438392676	 0.150356
O	-0.4969550127	 0.6354326005	-1.0852647461	-0.264149
C	-1.0482196103	 1.8767905039	-0.6355578179	 0.482238
C	-2.3495243128	 1.7995918905	 0.1929124027	-0.275875
C	-3.0357947157	 2.7758509524	-0.8144199633	-0.228091
C	-1.7361135901	 2.8292326638	-1.6650333117	-0.093718
C	-0.7428914475	 3.9530750698	-1.2577782158	-0.228069
C	-0.0427344883	 2.9849276318	-0.2521754234	-0.275852
H	 0.4585509172	-1.0457964658	-0.6142995443	 0.107529
H	-2.7853252291	 0.7984582987	 0.1775539995	 0.111465
H	-2.2649161126	 2.1253661413	 1.2314164491	 0.11123
H	-3.8870462219	 2.3321025262	-1.3351796262	 0.106486
H	-3.3513031149	 3.7378256265	-0.4022613098	 0.10147
H	-1.818838037	 2.5909036638	-2.7251349998	 0.073984
H	-0.0892591663	 4.2805736698	-2.0691073789	 0.106472
H	-1.2100792216	 4.8377275003	-0.8173910334	 0.101452
H	 0.9776016458	 2.7314284404	-0.5472466511	 0.11151
H	-0.0384415154	 3.2706643066	 0.8014505108	 0.111211
45.8363	67.8445	154.1111	246.1618	250.1955	348.7837	397.2136	449.3366	580.1735	621.3234	731.9987	750.8475	792.223	832.923	879.9079	899.0428	928.8702	952.6483	964.3147	1018.7242	1031.9212	1045.3966	1098.9468	1137.1723	1173.0649	1188.6943	1202.0283	1219.2002	1231.7283	1233.9724	1244.676	1276.7701	1287.4226	1298.5011	1307.227	1408.8156	1466.714	1477.9346	1482.7998	1500.0468	1813.6132	3022.9469	3060.5645	3061.853	3073.1938	3074.8114	3103.8151	3106.266	3118.4736	3129.3017	3133.7299
O=COC12CCC1CC2	O=CO[C@]12CC[C@H]1CC2	
InChI=1S/C7H10O2/c8-5-9-7-3-1-6(7)2-4-7/h5-6H,1-4H2	InChI=1S/C7H10O2/c8-5-9-7-3-1-6(7)2-4-7/h5-6H,1-4H2/t6-,7-
