19
gdb 1629	3.2075074	1.3500386	1.1583888	1.4104	75.38	-0.24257	0.0718	0.31437000000000004	1119.7738	0.155628	-422.504012	-422.495502	-422.494558	-422.537058	32.834	
O	 4.7916953658	-6.7308795703	-4.5318066533	-0.454633
C	 4.3459111392	-5.4509773642	-4.9033444008	 0.244475
C	 4.3034217862	-4.3739359864	-3.8436621979	-0.327195
C	 5.3878527276	-4.3756876824	-4.9010371832	-0.297981
C	 3.3073496036	-5.4691509718	-5.9683157691	 0.413647
C	 2.0615610006	-6.3751601028	-6.0630592374	-0.310208
C	 2.1350740472	-6.2307613281	-7.6242814255	-0.236148
C	 3.3705003089	-5.3424894485	-7.4378478657	-0.050972
O	 2.9679573111	-4.2359735363	-6.6095990077	-0.294635
H	 4.1329771687	-7.1129510106	-3.9418664158	 0.284478
H	 3.5268461432	-3.6204309548	-3.9103914764	 0.127772
H	 4.584266931	-4.6678439961	-2.8381461622	 0.112431
H	 5.3375048765	-3.6232312992	-5.678269235	 0.130589
H	 6.3820372529	-4.6822173395	-4.5985225092	 0.121393
H	 2.2533197433	-7.3994343714	-5.7356274061	 0.10532
H	 1.1672361118	-5.9879342609	-5.5690559602	 0.105836
H	 2.3555809296	-7.1769124241	-8.1234303893	 0.109281
H	 1.2873755405	-5.7461517586	-8.1139292958	 0.112051
H	 4.2123874923	-5.1759617741	-8.0999038396	 0.104498
63.9383	146.2249	184.7404	261.0682	287.026	308.3893	359.7822	446.3447	498.2344	521.3033	552.7647	741.3839	774.3638	778.9479	842.2788	881.4379	901.4	922.4298	930.8955	947.3607	950.1409	987.0529	1015.0263	1055.3964	1057.1124	1084.8359	1123.8941	1154.2763	1195.9243	1210.0443	1215.284	1234.5748	1259.0169	1273.1293	1312.9293	1362.3483	1441.3421	1461.3589	1464.7883	1483.8365	1501.8566	3064.1051	3071.9612	3117.0156	3133.2549	3134.4531	3148.7274	3188.3658	3225.0747	3245.8639	3801.7844
OC1(CC1)C12CCC1O2	OC1(CC1)[C@]12CC[C@H]1O2	
InChI=1S/C7H10O2/c8-6(3-4-6)7-2-1-5(7)9-7/h5,8H,1-4H2	InChI=1S/C7H10O2/c8-6(3-4-6)7-2-1-5(7)9-7/h5,8H,1-4H2/t5-,7+/m1/s1
