19
gdb 5558	2.1641056	1.7719697	1.0823238	2.2452	77.27	-0.23911	-0.00077	0.23834	1148.1931	0.155662	-422.530399	-422.521495	-422.520551	-422.564159	32.56	
C	 1.3644142397	-0.1554078148	 0.08077188	-0.232595
O	-0.0367512868	 0.0010390885	 0.0946869558	-0.241844
C	-0.5066964755	 0.8623031286	 1.1094141798	 0.036675
C	-0.1465597598	 2.3468216549	 0.9539224387	-0.007985
O	-0.6133057587	 2.9496249602	-0.2532319661	-0.251068
C	-1.4045189183	 3.1028823	 0.9493785356	 0.004382
C	-2.5153614373	 2.1084185796	 1.0487930179	-0.202837
C	-2.034055819	 0.8624572158	 1.0931317916	 0.283433
C	-2.784745314	-0.4271144036	 1.0733678185	-0.48831
H	 1.742555836	-0.5129847968	 1.0521712757	 0.100556
H	 1.5971378718	-0.8999319982	-0.6841216514	 0.129941
H	 1.8829483683	 0.7806978282	-0.1707952743	 0.116724
H	-0.1326879344	 0.5112789471	 2.0908261913	 0.064522
H	 0.7856031756	 2.7404725378	 1.3499411536	 0.095854
H	-1.4930772208	 4.1203122726	 1.3176187627	 0.097122
H	-3.5647171754	 2.3779937422	 1.0307673229	 0.098944
H	-2.5572683361	-1.0314941767	 1.9609751907	 0.123068
H	-3.8647192786	-0.2642782085	 1.0338976487	 0.122248
H	-2.4852976165	-1.0234999867	 0.2048240782	 0.15117
70.4197	123.6517	177.7774	187.5122	200.4548	248.6057	292.8226	395.7206	479.0543	529.084	542.6608	684.6002	720.5496	807.6695	839.5291	880.7126	904.471	923.7111	973.9518	1018.7638	1038.7248	1049.127	1072.014	1109.8307	1155.9091	1182.4125	1196.4271	1221.484	1253.5403	1287.6017	1310.1359	1347.0462	1361.8404	1407.3815	1421.8441	1473.5465	1478.6025	1486.854	1491.1477	1508.1344	1710.6514	2914.4313	2973.5905	3023.7772	3029.9867	3080.7335	3116.7373	3120.0785	3145.8034	3165.7705	3203.2279
COC1C2OC2C=C1C	CO[C@H]1[C@H]2O[C@H]2C=C1C	
InChI=1S/C7H10O2/c1-4-3-5-7(9-5)6(4)8-2/h3,5-7H,1-2H3	InChI=1S/C7H10O2/c1-4-3-5-7(9-5)6(4)8-2/h3,5-7H,1-2H3/t5-,6+,7-/m0/s1
