19
gdb 5517	2.8242762	1.4834846	1.2276842	3.0237	75.11	-0.2316	0.00616	0.23776	1066.8458	0.157358	-422.52906	-422.520865	-422.519921	-422.561371	32.579	
O	 1.084264876	-0.2464375187	 0.9777308127	-0.429552
C	 0.2353447355	 0.2026911848	-0.0665140922	-0.110301
C	-0.8906060245	 1.0665449841	 0.4933282104	 0.000818
C	-2.1786347418	 1.362150319	-0.374256038	-0.111623
C	-2.6718521833	-0.0759626225	 0.0113395977	-0.290629
C	-1.9728865962	 0.3294765328	 1.3567708882	 0.362299
O	-1.5253375634	-0.5902579702	 2.3120664273	-0.501006
C	-2.8520090655	 1.5228790777	 1.7728539181	-0.159708
C	-2.9828565331	 2.2019382096	 0.6303789182	-0.082096
H	 0.5159779892	-0.6880371038	 1.6214034931	 0.295486
H	 0.8610292341	 0.8034600485	-0.7367150633	 0.104287
H	-0.1456495583	-0.6414065867	-0.660090569	 0.083634
H	-0.4571851627	 1.9426830939	 0.9824336122	 0.079466
H	-2.1163954369	 1.6921857802	-1.4092983114	 0.070162
H	-3.7518807743	-0.236237092	 0.0390330751	 0.091578
H	-2.1700266949	-0.8842079554	-0.524144344	 0.103157
H	-2.275582979	-1.0923153021	 2.6474289979	 0.28579
H	-3.2179792054	 1.7248627833	 2.7697992962	 0.103062
H	-3.5028146454	 3.1264714973	 0.4227936006	 0.105176
105.4635	165.7989	206.1826	263.4827	349.5367	380.5336	394.4399	491.5387	496.9677	535.5676	578.8968	646.2246	688.187	711.2257	814.4363	855.0703	885.2708	901.8116	915.9624	957.3071	1000.1339	1028.936	1047.574	1056.3763	1083.8518	1099.2079	1118.0293	1153.8053	1200.9356	1218.202	1227.5858	1245.5952	1263.3049	1315.4831	1324.4571	1367.1925	1402.7622	1450.6874	1489.12	1518.6688	1624.6113	2990.3646	3053.9322	3068.9666	3082.044	3133.8565	3137.6307	3217.1065	3244.3828	3776.7719	3810.0992
OCC1C2CC1(O)C=C2	OC[C@H]1[C@H]2C[C@]1(O)C=C2	
InChI=1S/C7H10O2/c8-4-6-5-1-2-7(6,9)3-5/h1-2,5-6,8-9H,3-4H2	InChI=1S/C7H10O2/c8-4-6-5-1-2-7(6,9)3-5/h1-2,5-6,8-9H,3-4H2/t5-,6+,7-/m1/s1
