19
gdb 2192	2.9097263	1.8820996	1.647436	0.4755	72.95	-0.24039	0.084	0.32439	909.7461	0.15946	-422.572918	-422.566087	-422.565143	-422.603611	28.505	
C	 0.7307881083	-0.6329634721	 1.3111452632	-0.489492
C	 1.5448415561	-0.0913637982	 0.1643152016	 0.40264
C	 1.5196117431	 1.4353561975	-0.0780509749	-0.255321
C	 2.8783887592	 1.6174009255	-0.7933652676	 0.045107
C	 2.8896025511	 0.7744621423	-2.0905973283	-0.226959
C	 2.6542558718	-0.6202311414	-1.4835876153	 0.063578
O	 1.2696503568	-0.7677983366	-1.0964044745	-0.339601
C	 3.0785047125	-0.3691635656	-0.0039048937	 0.011149
O	 3.7623016889	 0.8598459898	 0.0576484639	-0.258112
H	 0.8484551662	-1.7176559257	 1.3881927362	 0.123961
H	 1.0474305192	-0.1767435977	 2.2544539891	 0.123163
H	-0.333319541	-0.4163430962	 1.1680470146	 0.128169
H	 0.6529537028	 1.7258709099	-0.6757768287	 0.108372
H	 1.5185646204	 1.9922253953	 0.8636785172	 0.103073
H	 3.2448589825	 2.63973532	-0.8787859041	 0.079992
H	 2.1089411233	 1.0369450231	-2.8075623972	 0.109537
H	 3.8695586945	 0.8438708342	-2.5719779809	 0.105526
H	 3.0212657594	-1.4696035652	-2.0613616366	 0.078703
H	 3.5687971149	-1.142477179	 0.5823817062	 0.086514
198.2934	241.9316	262.6447	375.3854	409.9043	479.6237	547.7754	561.9251	642.747	721.0434	791.2623	825.5646	860.5572	872.849	882.0786	914.7649	918.6195	946.0027	961.5869	985.9369	1003.4618	1029.2982	1078.7815	1110.0912	1125.491	1158.4841	1179.5765	1201.0922	1224.4445	1250.4887	1279.9324	1289.1124	1314.5476	1329.5812	1352.6008	1375.7014	1411.1086	1458.8589	1471.9119	1480.4171	1496.1305	3035.4166	3060.3997	3062.0171	3103.5893	3104.2492	3114.9981	3121.4642	3125.5993	3127.3071	3155.2257
CC12CC3CC(O1)C2O3	C[C@]12C[C@@H]3C[C@H](O1)[C@H]2O3	
InChI=1S/C7H10O2/c1-7-3-4-2-5(9-7)6(7)8-4/h4-6H,2-3H2,1H3	InChI=1S/C7H10O2/c1-7-3-4-2-5(9-7)6(7)8-4/h4-6H,2-3H2,1H3/t4-,5-,6+,7+/m0/s1
