19
gdb 849	2.3959842	1.4529205	1.0903194	3.7585	75.91	-0.24026	-0.01841	0.22185	1160.5428	0.156125	-422.535714	-422.52704	-422.526096	-422.569904	31.445	
O	 0.9189718329	-0.7142829535	-0.2612979261	-0.260188
C	 0.0537599195	 0.0242790109	 0.1335738949	 0.185236
C	-1.1393798145	 0.4513164608	-0.6813684359	-0.181381
C	-1.4683394843	 1.9732001462	-0.5358410168	-0.24497
C	-2.5734517363	 1.6257104299	 0.495873085	-0.297144
C	-2.4958696729	 0.1538743868	 0.0470009242	 0.461471
C	-3.6378344186	-0.5288573934	-0.7347658359	-0.352984
C	-3.5225796607	-1.6266174573	 0.3408198914	-0.074606
O	-2.515939419	-0.8715275621	 1.0514502718	-0.307893
H	 0.0950950404	 0.4565179012	 1.1596812548	 0.075006
H	-1.0360693777	 0.0485078692	-1.6910830314	 0.085906
H	-0.6534756878	 2.6116463612	-0.1869269399	 0.113152
H	-1.8603388498	 2.3899585161	-1.4653730133	 0.116629
H	-2.2245509532	 1.7238571032	 1.5279797023	 0.122381
H	-3.5414565149	 2.1252526175	 0.4045167627	 0.102875
H	-4.5787485251	 0.0251576927	-0.7288359846	 0.11517
H	-3.4011936628	-0.8303051706	-1.7564540007	 0.11865
H	-4.410971249	-1.7992452636	 0.9577222473	 0.109398
H	-3.1358147262	-2.5903355652	-0.0094248799	 0.113291
60.719	85.0761	100.0378	172.4103	267.4002	300.9022	379.7471	437.3818	486.8492	512.0917	717.959	781.8052	852.8635	862.3754	870.0275	910.9885	928.738	947.7285	973.0964	992.9343	1026.759	1030.8161	1129.8959	1155.6842	1162.2256	1171.4795	1179.1864	1208.8614	1224.5153	1243.1767	1260.6636	1269.0382	1288.4156	1307.6988	1357.7277	1437.0058	1473.5113	1488.8247	1495.4501	1532.5199	1828.257	2868.0638	3029.8501	3056.9211	3071.4233	3072.6886	3076.1182	3092.2878	3106.6257	3127.8828	3131.8065
O=CC1CCC11CCO1	O=C[C@@H]1CC[C@]21CCO2	
InChI=1S/C7H10O2/c8-5-6-1-2-7(6)3-4-9-7/h5-6H,1-4H2	InChI=1S/C7H10O2/c8-5-6-1-2-7(6)3-4-9-7/h5-6H,1-4H2/t6-,7+/m0/s1
