19
gdb 3234	1.9753863	1.7835197	1.5508497	0.9421	74.76	-0.22141	0.06579	0.2872	1021.9001	0.155324	-422.494073	-422.485391	-422.484447	-422.526696	33.394	
C	 1.2959482539	 1.1124372542	 0.0228000221	-0.418543
C	 1.0070373483	-0.3772652786	-0.1114921624	-0.04309
C	 1.9625693208	-1.1244386208	-1.0822111441	-0.020446
O	 1.4698455434	-2.4894858636	-1.0809408807	-0.2883
C	 1.941710778	-2.5924747342	 0.2589910436	-0.074633
C	 1.6424816903	-1.2401921159	 0.9872690518	 0.261102
C	 1.4846475926	-1.1422336939	 2.4743272674	-0.515512
C	 2.9023169842	-1.4507547788	 0.1725734175	 0.265791
O	 4.2074433554	-1.228280782	 0.5160302268	-0.452103
H	 0.7509805442	 1.5484673897	 0.8665672133	 0.118373
H	 2.3640314778	 1.2954131312	 0.186304445	 0.126686
H	 0.9935513462	 1.6528974927	-0.8807829558	 0.113816
H	-0.0532510423	-0.5611622493	-0.323265328	 0.069249
H	 2.217918253	-0.7467499657	-2.071389061	 0.082342
H	 1.9569768686	-3.5564536344	 0.7512476882	 0.107694
H	 2.1650843339	-1.8292450544	 2.9887546853	 0.123852
H	 1.7091454911	-0.1322210555	 2.8349197022	 0.126371
H	 0.4625219646	-1.3897532735	 2.7826740306	 0.122828
H	 4.766039486	-1.8356392771	 0.0161069482	 0.294523
153.2484	178.4972	189.8211	204.2942	233.1502	315.1666	335.6081	364.3492	409.9145	505.7275	577.027	611.6724	658.5325	740.8264	798.0095	818.2204	882.9299	910.4652	936.2994	976.6221	1008.5501	1027.7756	1046.3064	1086.6188	1113.9243	1133.8564	1154.0365	1190.1137	1222.1308	1242.4629	1275.0679	1303.1706	1335.4506	1370.8944	1411.2361	1417.8342	1482.641	1487.4233	1496.657	1502.4936	1510.7877	3024.546	3027.0017	3034.8918	3086.12	3093.3103	3094.2678	3097.357	3131.6744	3204.1973	3776.4942
CC1C2OC3C1(C)C23O	C[C@H]1[C@@H]2O[C@@H]3[C@@]1(C)[C@]23O	
InChI=1S/C7H10O2/c1-3-4-7(8)5(9-4)6(3,7)2/h3-5,8H,1-2H3	InChI=1S/C7H10O2/c1-3-4-7(8)5(9-4)6(3,7)2/h3-5,8H,1-2H3/t3-,4-,5+,6-,7-/m0/s1
