19
gdb 1934	3.1099376	1.4015853	1.2807533	0.5095	74.18	-0.24665	0.07876	0.32541	1072.2374	0.156268	-422.541122	-422.532896	-422.531952	-422.573162	32.728	
C	 0.0179475865	 0.0101148847	 0.4975242034	-0.480156
C	 1.3918628285	 0.0652938085	-0.112559845	 0.418737
C	 2.1067468102	 1.4095445182	-0.2875175773	-0.300701
C	 3.1121638795	 1.2164252056	-1.4255658974	-0.091729
C	 4.2461639401	 0.21509938	-1.2873849377	-0.349014
C	 2.9669239882	-0.17950722	-1.9783624012	 0.376148
O	 2.906921511	-0.3986143724	-3.3536907821	-0.467793
C	 1.9250724648	-0.8731895123	-1.1164287865	-0.120339
O	 2.2869774377	-1.0014177422	 0.2663962425	-0.293969
H	 0.0329662444	 0.3924796482	 1.5243943995	 0.127078
H	-0.6888703043	 0.6184368292	-0.0764001754	 0.123116
H	-0.3462577364	-1.0198455538	 0.5257527365	 0.129925
H	 1.3725266956	 2.1735484742	-0.5670619614	 0.105758
H	 2.5717170434	 1.7333642588	 0.6504247726	 0.11247
H	 3.2781513943	 2.0404655665	-2.1097821937	 0.095973
H	 5.1012249041	 0.3891272396	-1.932596879	 0.10726
H	 4.4632339733	-0.2181405216	-0.3188352039	 0.132709
H	 3.4066180896	-1.1987669156	-3.5497558177	 0.284836
H	 1.3552336596	-1.6957495357	-1.5428903961	 0.08969
159.2753	192.6027	208.531	288.9084	303.5957	355.818	370.7927	402.3318	428.5401	527.1392	575.7713	619.5055	718.7479	759.1801	835.3116	845.7852	874.07	899.0767	923.6835	954.0216	999.0257	1019.9354	1058.3886	1068.4117	1084.8016	1096.4069	1117.3012	1217.6292	1223.8442	1229.1851	1257.1554	1289.9828	1323.2465	1347.5343	1394.2279	1409.9755	1437.4696	1474.3179	1481.4886	1487.0524	1496.5318	3033.0807	3040.0445	3077.198	3096.2474	3122.8963	3135.1137	3141.5176	3178.7936	3233.6499	3794.852
CC12CC3CC3(O)C1O2	C[C@]12C[C@H]3C[C@@]3(O)[C@H]1O2	
InChI=1S/C7H10O2/c1-6-2-4-3-7(4,8)5(6)9-6/h4-5,8H,2-3H2,1H3	InChI=1S/C7H10O2/c1-6-2-4-3-7(4,8)5(6)9-6/h4-5,8H,2-3H2,1H3/t4-,5-,6-,7-/m0/s1
