19
gdb 5381	3.4765902	1.1147707	0.9422125	2.3975	77.29	-0.24505	0.01528	0.26033	1265.0165	0.157898	-422.5551	-422.546763	-422.545818	-422.588342	31.504	
O	 1.8299706867	 0.5687824921	 0.0105940499	-0.412738
C	 0.4338948916	 0.8539175859	 0.094560651	-0.158735
C	-0.3129718302	 0.4481364482	-1.149602924	 0.287216
C	-1.31703264	-0.4292333877	-1.0996158361	-0.158096
C	-2.1147711722	-0.9053380778	-2.281693826	-0.289498
C	-1.8378443472	-0.1359488013	-3.5522867402	 0.050472
O	-2.0811597104	 1.2729127139	-3.503232805	-0.259978
C	-0.7267895357	 0.8234011199	-3.6244277104	 0.048618
C	 0.1706069572	 1.0730251412	-2.436303335	-0.3184
H	 1.9165942295	-0.3840565945	-0.1008812362	 0.280206
H	-0.0197568408	 0.3819643116	 0.9785138288	 0.089945
H	 0.3786928894	 1.9405750599	 0.2353280996	 0.113888
H	-1.6014503661	-0.8471855898	-0.1355470415	 0.08183
H	-1.9078944764	-1.9704456604	-2.4653527664	 0.112403
H	-3.1891170273	-0.8536918957	-2.0554980034	 0.121549
H	-2.1769338663	-0.612261507	-4.4730574892	 0.086805
H	-0.2806171305	 1.0290233599	-4.5982704626	 0.087284
H	 1.1793959538	 0.704972926	-2.6651892414	 0.119023
H	 0.2886226447	 2.1574366356	-2.296635522	 0.118205
71.8499	96.1258	187.6445	284.5354	319.7208	336.0233	362.7859	407.2057	473.4734	565.4187	590.3426	725.02	778.752	820.3032	841.1915	904.9051	924.3067	940.3598	972.3226	996.8059	1037.8029	1038.9257	1079.1886	1091.0935	1149.8277	1171.72	1199.4451	1233.9334	1242.7859	1295.614	1322.3215	1365.2534	1372.2701	1383.9431	1411.5867	1417.0374	1463.0057	1464.429	1485.8673	1497.6318	1745.0141	2993.4996	2999.3696	3008.6391	3025.773	3040.5293	3052.2102	3094.5887	3107.4955	3139.989	3806.2318
OCC1=CCC2OC2C1	OCC1=CC[C@H]2O[C@H]2C1	
InChI=1S/C7H10O2/c8-4-5-1-2-6-7(3-5)9-6/h1,6-8H,2-4H2	InChI=1S/C7H10O2/c8-4-5-1-2-6-7(3-5)9-6/h1,6-8H,2-4H2/t6-,7+/m1/s1
