19
gdb 2495	2.2393284	1.9036931	1.4242361	2.279	75.41	-0.24314	0.01099	0.25412999999999997	991.8452	0.158963	-422.579138	-422.571441	-422.570497	-422.611256	30.357	
O	 0.1879938093	 0.1813455016	 0.6201798823	-0.48133
C	-0.6041321812	 1.3391619865	 0.856924398	 0.36224
C	-2.0110426937	 1.0501963754	 0.2802071926	-0.117461
O	-2.9352045139	 1.6230321964	 1.1863301827	-0.247587
C	-2.4056355879	 1.372581051	 2.4829938358	-0.100751
C	-0.9012030585	 1.6583413578	 2.3694041846	-0.080323
C	-0.4904994992	 3.1387221908	 2.586005486	-0.279874
C	 0.1123669687	 3.5565914761	 1.2685660101	-0.059518
C	 0.0380338036	 2.6021002376	 0.3440167087	-0.161915
H	 1.0997294246	 0.4059302387	 0.8347357489	 0.273868
H	-2.1816289696	 1.4906589654	-0.7049488761	 0.106873
H	-2.1339253162	-0.0423452801	 0.2130579255	 0.098186
H	-2.9338194895	 2.0170172118	 3.1909620429	 0.10502
H	-2.5783338132	 0.3228448114	 2.7715097751	 0.090682
H	-0.3204151	 0.988212321	 3.007069487	 0.076084
H	-1.3597128113	 3.7635153924	 2.8287683295	 0.115741
H	 0.2133481291	 3.2639188731	 3.4182610721	 0.103683
H	 0.5295499295	 4.5460082487	 1.1113127581	 0.098855
H	 0.3807406993	 2.6789487144	-0.6826868638	 0.097524
71.1115	183.357	253.3317	313.3377	349.6241	379.7267	433.886	459.9166	588.2904	612.3075	686.1724	745.2435	774.4806	813.3161	860.9203	948.6864	951.7198	968.4303	970.9498	987.9011	1033.5379	1045.978	1073.463	1102.2911	1127.8892	1156.0088	1177.6424	1194.9016	1205.9034	1254.2082	1286.2348	1313.6059	1322.033	1337.9258	1367.4862	1389.0156	1401.9491	1482.1766	1499.9602	1517.3516	1688.0658	2970.8576	2985.2927	3020.3312	3045.3046	3085.321	3089.5454	3100.4066	3175.6352	3200.9501	3806.3888
OC12COCC1CC=C2	O[C@@]12COC[C@@H]1CC=C2	
InChI=1S/C7H10O2/c8-7-3-1-2-6(7)4-9-5-7/h1,3,6,8H,2,4-5H2	InChI=1S/C7H10O2/c8-7-3-1-2-6(7)4-9-5-7/h1,3,6,8H,2,4-5H2/t6-,7-/m0/s1
