19
gdb 2896	3.1541675	1.5646663	1.3052963	1.2767	74.53	-0.25044	0.06118	0.31162	1012.2289	0.159087	-422.529863	-422.522371	-422.521427	-422.561697	29.921	
O	 0.537344759	 0.2743767019	 0.7161128444	-0.447703
C	-0.7316984136	 0.8346694944	 0.4510193113	 0.087974
C	-1.2988970224	 1.7095848295	 1.5649886333	-0.033108
C	-1.9834049333	 0.8081254606	 2.6476795572	-0.060903
C	-3.039517821	 1.9160742652	 2.8742161449	-0.238057
C	-2.8394096271	 1.85339942	 1.3411386833	-0.076632
C	-2.8185077898	 0.2920896231	 1.4293747068	-0.000189
C	-1.8709605677	-0.2506967817	 0.3759140215	 0.034456
O	-1.4022275248	-1.5343625953	 0.7809692101	-0.439047
H	 0.3720763545	-0.4905812383	 1.2835530505	 0.27898
H	-0.6338705738	 1.3917114777	-0.4872569711	 0.077205
H	-0.7190673752	 2.5769724985	 1.884631152	 0.067592
H	-1.4879445703	 0.1941936564	 3.4004675683	 0.074925
H	-4.0137714491	 1.5970075539	 3.2563185676	 0.089833
H	-2.6998193027	 2.8264223727	 3.3762018062	 0.090898
H	-3.333493626	 2.4537866063	 0.5742611108	 0.067642
H	-3.7484749291	-0.2483366894	 1.6121361087	 0.068784
H	-2.3332249482	-0.3106501679	-0.6177746057	 0.067123
H	-0.8732117195	-1.8927882375	 0.0599839698	 0.29023
101.3639	158.523	213.4877	314.7037	344.6826	458.8713	499.6328	567.9106	584.0663	682.048	737.9926	809.425	822.4497	859.1186	885.9879	899.9633	915.8246	953.1031	974.1058	1009.4034	1043.56	1066.6421	1075.3922	1093.5494	1099.5817	1116.8474	1137.8411	1155.0415	1190.7254	1216.2199	1228.9811	1237.5503	1258.3276	1267.0959	1288.7956	1312.9985	1332.9974	1366.3796	1426.0594	1446.4758	1520.3896	3015.7109	3045.2034	3050.6821	3086.1181	3102.0379	3104.5355	3107.8063	3115.7694	3753.162	3810.4734
OC1C2C3CC2C3C1O	O[C@@H]1[C@@H]2[C@H]3C[C@@H]2[C@H]3[C@@H]1O	
InChI=1S/C7H10O2/c8-6-4-2-1-3(4)5(2)7(6)9/h2-9H,1H2	InChI=1S/C7H10O2/c8-6-4-2-1-3(4)5(2)7(6)9/h2-9H,1H2/t2-,3+,4-,5+,6-,7+
