19
gdb 4696	2.8406826	0.9257559	0.8119922	1.6627	77.87	-0.26198	0.0139	0.27588	1500.9805	0.153461	-422.559766	-422.549044	-422.5481	-422.596892	36.873	
C	 1.4411806906	 0.3734381025	-0.382736378	-0.240904
O	 0.1696140603	-0.1226198168	 0.0573302702	-0.229571
C	-0.2611748011	 0.367134241	 1.2353593374	 0.453248
O	 0.3592354747	 1.1602650697	 1.8982184606	-0.361352
C	-1.6310154766	-0.1792568309	 1.5877630303	-0.32397
C	-1.8290523176	-0.3202568364	 3.1118716239	-0.129579
C	-3.3094962385	-0.5589525376	 3.4639443868	-0.399457
C	-0.9826224182	-1.3866003746	 3.6465609005	 0.341168
C	-0.3045965976	-2.2833283245	 4.0722738856	-0.488114
H	 2.2195926727	 0.1318980005	 0.3450153306	 0.144492
H	 1.6390632235	-0.1208478471	-1.3338057569	 0.132979
H	 1.4080422499	 1.4580293532	-0.5138003917	 0.139683
H	-2.3687918592	 0.5334260541	 1.19709475	 0.129852
H	-1.7960497749	-1.1291407379	 1.0744751692	 0.131393
H	-1.5047426237	 0.6261466222	 3.560981202	 0.131816
H	-3.4388659082	-0.6463746215	 4.5454203067	 0.130071
H	-3.9247635546	 0.2732958195	 3.1075423806	 0.114954
H	-3.676622508	-1.4817236614	 3.0044085447	 0.126548
H	 0.3051505565	-3.0621664342	 4.4583715675	 0.196741
27.0592	59.6984	111.7188	127.0171	157.6116	212.4042	222.8594	256.5384	298.9795	320.0551	406.7897	529.4131	558.7878	606.964	626.9386	642.6269	719.0002	811.0363	898.1253	914.143	956.7555	1028.0445	1076.1956	1091.8873	1153.5889	1178.9708	1188.4222	1211.1608	1244.3633	1299.1536	1360.7241	1378.0746	1409.8636	1461.2763	1473.6304	1481.1596	1491.6473	1496.9039	1501.396	1819.2415	2235.5565	3035.9689	3040.0109	3043.77	3052.7663	3109.7651	3114.4348	3124.3082	3127.9164	3159.9675	3504.9149
COC(=O)CC(C)C#C	COC(=O)C[C@@H](C)C#C	
InChI=1S/C7H10O2/c1-4-6(2)5-7(8)9-3/h1,6H,5H2,2-3H3	InChI=1S/C7H10O2/c1-4-6(2)5-7(8)9-3/h1,6H,5H2,2-3H3/t6-/m0/s1
