19
gdb 2418	2.8916139	1.8446122	1.326968	1.265	74.73	-0.23664	0.06527	0.30191	985.3132	0.157093	-422.527286	-422.519498	-422.518554	-422.558787	31.483	
C	-0.176334545	 0.3056771422	 0.0775923447	-0.488382
C	 1.3033528745	 0.0651015655	-0.0263644064	 0.48803
O	 2.0011061945	 1.3158476522	-0.042965694	-0.318491
C	 3.3664854305	 0.926267399	-0.1655996028	-0.157678
C	 3.2208077049	-0.5935038802	-0.1885395184	 0.380891
O	 4.3540853475	-1.3781139933	-0.3696674283	-0.482292
C	 1.9639340599	-0.9165686169	-1.0508878462	-0.157748
C	 1.6523454371	-2.0997056041	-0.1023260049	-0.271673
C	 2.0904654891	-0.9604099462	 0.8479781602	-0.195465
H	-0.4043036165	 0.8595870385	 0.9933357556	 0.128784
H	-0.5210672849	 0.9036350779	-0.771503676	 0.129732
H	-0.7361419059	-0.6322625739	 0.0914449276	 0.124311
H	 3.8079737655	 1.321037516	-1.0892964044	 0.105167
H	 3.9525010284	 1.2909295822	 0.6900490276	 0.088638
H	 4.9388347949	-1.2511197776	 0.3852557843	 0.285885
H	 1.901318569	-0.8786680076	-2.1394430519	 0.072582
H	 0.6149726642	-2.4354629434	-0.0401484661	 0.091621
H	 2.3384013513	-2.9442046257	-0.1713559607	 0.111136
H	 2.1735433009	-0.9708578347	 1.9367428099	 0.06495
189.8718	212.4004	270.1729	274.6005	302.0977	342.4124	421.7225	440.4983	479.0632	591.0925	681.7045	691.7014	719.9111	734.3014	846.0755	884.6798	892.7365	922.2634	1004.1177	1014.9125	1046.1679	1059.3345	1074.8109	1108.4656	1119.9528	1138.152	1153.9049	1159.7252	1179.4251	1199.8766	1227.5928	1265.7586	1272.8258	1331.0887	1349.8163	1394.635	1423.8018	1477.9267	1495.5898	1514.4114	1521.8832	3000.6461	3045.5471	3046.4906	3071.0632	3092.9104	3107.0817	3110.1728	3127.9447	3139.0265	3805.1079
CC12OCC3(O)C1CC23	C[C@]12OC[C@]3(O)[C@H]1C[C@H]23	
InChI=1S/C7H10O2/c1-6-4-2-5(6)7(4,8)3-9-6/h4-5,8H,2-3H2,1H3	InChI=1S/C7H10O2/c1-6-4-2-5(6)7(4,8)3-9-6/h4-5,8H,2-3H2,1H3/t4-,5+,6-,7-
