19
gdb 4280	2.7855921	1.5091889	1.1476337	3.0652	74.33	-0.2489	-0.02917	0.21973	1095.535	0.158198	-422.578824	-422.570813	-422.569869	-422.611533	30.856	
O	-0.6247729649	 2.3467985545	 0.6980060524	-0.443397
C	-0.9908407491	 1.2000139377	-0.016237494	 0.05423
C	-2.4071298489	 0.6722697579	 0.2628853891	-0.256202
C	-2.3498225528	-0.8204055158	-0.1267001743	-0.017406
C	-2.2810810017	-1.1476305376	-1.6497319286	-0.226576
C	-0.8358223232	-1.6927517722	-1.4756368376	-0.234039
C	-0.8566526818	-1.2778093048	 0.0347194707	-0.128258
C	-0.1096905378	-0.0013347866	 0.3482829884	 0.376506
O	 0.9614222104	 0.1264309759	 0.892966497	-0.34431
H	 0.2569404049	 2.1555007513	 1.0546468196	 0.289356
H	-0.8734559134	 1.3693814008	-1.1030958162	 0.090659
H	-2.6028692316	 0.7813419359	 1.3358803493	 0.11449
H	-3.1839154735	 1.2207166273	-0.2771550071	 0.108615
H	-3.0863638209	-1.4132688678	 0.417093717	 0.078533
H	-3.0089755001	-1.8850552896	-1.9944852284	 0.106579
H	-2.3614977796	-0.2701208302	-2.2972304305	 0.106067
H	-0.7537013835	-2.7738482087	-1.6012600274	 0.117285
H	-0.0606176743	-1.2218390796	-2.0852456813	 0.112791
H	-0.6039479882	-2.0640765283	 0.7464692617	 0.095075
73.0365	123.7925	194.1888	277.6658	322.7622	390.8487	409.7072	455.499	578.2236	595.4117	703.0752	731.7717	765.7197	783.8239	849.8844	878.8986	922.2555	957.7417	969.0088	979.6638	1014.304	1054.4329	1110.5822	1132.0812	1162.8149	1193.4709	1196.7827	1225.3263	1250.7869	1255.9933	1263.0606	1275.0444	1300.5836	1309.323	1331.079	1382.315	1422.111	1479.9631	1491.3586	1497.2383	1828.1393	2929.2335	3044.2532	3059.3509	3067.7569	3091.4528	3097.0611	3107.226	3110.5521	3127.0048	3695.8801
OC1CC2CCC2C1=O	O[C@@H]1C[C@H]2CC[C@H]2C1=O	
InChI=1S/C7H10O2/c8-6-3-4-1-2-5(4)7(6)9/h4-6,8H,1-3H2	InChI=1S/C7H10O2/c8-6-3-4-1-2-5(4)7(6)9/h4-6,8H,1-3H2/t4-,5-,6-/m1/s1
