19
gdb 3640	2.3874163	1.3639094	1.1135272	1.6062	76.64	-0.25745	0.03476	0.29221	1191.1123	0.154696	-422.529377	-422.519885	-422.518941	-422.564252	34.637	
C	 0.7746254671	 1.1924589717	 0.5423003444	-0.416319
C	 1.1737582408	-0.2631396271	 0.685964103	 0.100749
O	 2.4166604213	-0.3474155032	 1.3887514693	-0.245079
C	 2.4575327743	-1.6502623817	 1.9138905122	-0.020512
O	 1.13060457	-1.9889652798	 2.2790157093	-0.269093
C	 0.2356463156	-1.1320943504	 1.55203768	 0.122242
C	-0.7781959093	-1.9533151109	 0.7704483534	-0.404403
C	 3.00377378	-2.6231318211	 0.9460687802	 0.349632
C	 3.4662792203	-3.4158537732	 0.1703572348	-0.456284
H	 0.6898836559	 1.6652706162	 1.5250828943	 0.129397
H	 1.5185061924	 1.7389278507	-0.0432082696	 0.133136
H	-0.18906903	 1.2725124064	 0.0294934903	 0.122258
H	 1.2866841954	-0.7277663006	-0.3059304133	 0.081169
H	 3.0798250196	-1.6304134611	 2.8154138597	 0.116483
H	-0.280005014	-0.4969199486	 2.2859335635	 0.079377
H	-1.3675392128	-2.5784095015	 1.4463439724	 0.130221
H	-1.4668981637	-1.2962632096	 0.2276493211	 0.115285
H	-0.2724420267	-2.6043242134	 0.0515609346	 0.131383
H	 3.8759254938	-4.1180592228	-0.5134783597	 0.200357
31.1942	92.4832	179.3886	212.1325	226.3676	252.5336	270.23	329.2158	384.6319	490.5956	529.3809	575.9143	619.7966	654.8911	667.378	795.2687	827.0548	875.8541	889.2784	949.2469	987.2963	1002.3313	1078.1318	1113.9958	1115.0433	1129.6441	1168.0099	1184.7393	1307.9645	1334.2517	1355.2974	1374.5203	1380.1136	1406.117	1407.7709	1414.9431	1483.1716	1485.2724	1496.9733	1500.5485	2232.0132	2982.7666	3005.3179	3037.5733	3043.8588	3052.7056	3109.1937	3116.9595	3124.338	3125.4971	3500.4184
CC1OC(OC1C)C#C	C[C@H]1O[C@@H](O[C@@H]1C)C#C	
InChI=1S/C7H10O2/c1-4-7-8-5(2)6(3)9-7/h1,5-7H,2-3H3	InChI=1S/C7H10O2/c1-4-7-8-5(2)6(3)9-7/h1,5-7H,2-3H3/t5-,6-/m1/s1
