19
gdb 2389	2.6559165	1.4784282	1.2459228	3.3664	74.56	-0.24007	-0.01875	0.22132000000000002	1080.0809	0.156662	-422.577637	-422.569361	-422.568416	-422.61073	31.39	
C	-3.1632928397	-1.4311916132	-0.9595892916	-0.484407
C	-2.239703625	-0.7680373015	 0.048977103	 0.271455
C	-2.7918965444	-0.583579962	 1.4828640519	-0.111106
O	-2.5373060233	 0.8358980099	 1.4584113939	-0.295205
C	-2.150820763	 0.7989230073	 0.0665904049	 0.091177
C	-0.7049574485	 1.2179945917	-0.1278119243	-0.338639
C	 0.1097055028	-0.0330527444	 0.2246781941	 0.392012
O	 1.2537765008	-0.0556168047	 0.5912163414	-0.300289
C	-0.7857740216	-1.2632366543	 0.007443701	-0.390731
H	-3.2530498785	-2.5063543598	-0.7665627116	 0.124106
H	-4.1690145559	-0.9998111554	-0.9208910613	 0.121873
H	-2.7844723337	-1.3110368758	-1.9808738473	 0.118441
H	-3.8626817155	-0.8043348954	 1.5867224041	 0.098156
H	-2.2443689719	-1.0848976319	 2.290387835	 0.106267
H	-2.8663836956	 1.3382339109	-0.5646871811	 0.072637
H	-0.5040925676	 1.4728953027	-1.1775337057	 0.124422
H	-0.4162977513	 2.072360392	 0.4879509046	 0.142474
H	-0.5396671464	-1.6699780678	-0.982753538	 0.126873
H	-0.5515597416	-2.0422736083	 0.7376077969	 0.130484
69.8608	89.1175	219.6095	246.6747	317.7621	354.6618	392.6114	442.2061	478.1763	564.5069	629.8918	678.8167	771.8185	794.9778	860.7251	884.5875	898.2517	948.1189	985.0518	1009.5014	1029.1438	1044.2005	1098.9534	1128.1322	1158.6523	1164.3115	1192.0111	1231.2469	1249.8361	1273.9593	1291.1328	1302.462	1361.7582	1371.9368	1414.8384	1432.1315	1451.3581	1492.9838	1496.0122	1526.4585	1853.2031	3003.8084	3023.2554	3026.1966	3028.3362	3042.7387	3052.2773	3089.6578	3097.4056	3100.5892	3119.6687
CC12COC1CC(=O)C2	C[C@]12CO[C@H]1CC(=O)C2	
InChI=1S/C7H10O2/c1-7-3-5(8)2-6(7)9-4-7/h6H,2-4H2,1H3	InChI=1S/C7H10O2/c1-7-3-5(8)2-6(7)9-4-7/h6H,2-4H2,1H3/t6-,7-/m0/s1
