19
gdb 1855	2.667829	1.8997313	1.5824574	1.9434	74.57	-0.24866	0.00278	0.25144	939.5301	0.158501	-422.57517	-422.56778	-422.566835	-422.606307	30.271	
C	 0.0928214216	-0.351546448	 0.108162817	-0.460004
C	 1.5392369908	 0.0554296526	-0.0434015261	 0.419755
O	 2.3522055013	-0.662744392	 0.872450926	-0.264965
C	 3.5933949492	 0.0530656613	 0.8350948051	 0.021223
C	 4.2636681913	-0.3685290622	-0.4874694167	-0.221103
C	 3.3143969794	-0.0134498422	-1.6534514672	-0.073653
O	 1.9380545479	-0.2821285202	-1.3719475588	-0.29188
C	 3.137498283	 1.5057719347	 0.7756875174	-0.106272
C	 1.9102758917	 1.5092926569	 0.2665388375	-0.120918
H	-0.2521492024	-0.1301359348	 1.1205593495	 0.126828
H	-0.5267232811	 0.1884055462	-0.6118772542	 0.124559
H	-0.005661995	-1.4233871384	-0.0785338794	 0.135395
H	 4.1834916428	-0.2136977576	 1.7151846517	 0.080562
H	 5.2291310289	 0.1266133483	-0.6421933953	 0.096345
H	 4.4370121251	-1.4480072663	-0.4418504371	 0.114535
H	 3.438891227	 1.0473125553	-1.9087115634	 0.096402
H	 3.5543009309	-0.5997449817	-2.5444748538	 0.108137
H	 3.7612280242	 2.3543755595	 1.0252666865	 0.107191
H	 1.2941646235	 2.3572204887	-0.0012490287	 0.107863
194.808	218.6401	279.9538	298.4465	342.1339	375.4522	463.5708	503.127	608.8621	635.3168	657.3309	751.0653	792.3308	836.3967	847.4592	863.3455	898.1589	919.0551	932.1349	947.2037	962.4495	1030.2038	1065.3503	1082.8155	1120.4138	1141.7219	1178.8611	1218.668	1249.8223	1287.7238	1307.5903	1344.8805	1347.6233	1366.9914	1410.9189	1415.2932	1471.7112	1480.0106	1486.2772	1505.0313	1664.9734	3013.8365	3041.388	3057.2615	3083.7603	3084.4437	3097.2404	3136.9152	3140.6539	3209.3847	3235.751
CC12OC(CCO1)C=C2	C[C@@]12O[C@@H](CCO1)C=C2	
InChI=1S/C7H10O2/c1-7-4-2-6(9-7)3-5-8-7/h2,4,6H,3,5H2,1H3	InChI=1S/C7H10O2/c1-7-4-2-6(9-7)3-5-8-7/h2,4,6H,3,5H2,1H3/t6-,7+/m1/s1
