19
gdb 4843	3.2691612	1.2853115	1.1167887	4.1012	75.88	-0.23673	0.01815	0.25488	1147.9065	0.155533	-422.529373	-422.52058	-422.519635	-422.562529	33.599	
C	 1.6104980496	 1.4303141573	-0.1276713271	-0.374646
C	 1.3613541506	-0.0819478695	-0.1672998664	-0.275016
C	 2.0413660318	-0.7655633335	-1.3527573643	 0.462137
O	 3.4462761618	-0.619844313	-1.2642851854	-0.477898
C	 1.5375006763	-2.1872128139	-1.8257371364	-0.257175
C	 0.3406450162	-1.4411637254	-2.5106288879	-0.263196
C	 1.5597187546	-0.5052115939	-2.8192455773	-0.21844
C	 2.2754076703	-1.8380496173	-3.1339391903	 0.462219
O	 2.9392908613	-2.3474989835	-3.9781696955	-0.324923
H	 1.1987247051	 1.8697706474	 0.7855006295	 0.113527
H	 2.6807610546	 1.6480159676	-0.164112772	 0.13194
H	 1.138876263	 1.9284477326	-0.9809090562	 0.120925
H	 1.7606154393	-0.5454596438	 0.7466563582	 0.091659
H	 0.2877968198	-0.2846283469	-0.1503826987	 0.107607
H	 3.7371479725	-0.9620603776	-0.4118761344	 0.282374
H	 1.5135164206	-3.1177888356	-1.2611106174	 0.086824
H	-0.1180101925	-1.9386337371	-3.3653573255	 0.123137
H	-0.414451028	-1.0327391916	-1.8419379623	 0.114012
H	 1.566640683	 0.4349931776	-3.3658689305	 0.094932
88.5526	139.5756	162.7041	214.8667	277.9098	311.8002	365.1511	412.5674	439.8797	479.6377	528.4086	646.4422	703.5113	765.7336	777.1439	789.0635	815.8204	881.42	957.7697	977.616	993.5209	1017.2614	1055.0799	1068.2303	1097.057	1098.9636	1130.8598	1145.2414	1190.0099	1206.0372	1211.5968	1228.5329	1277.0626	1361.0042	1384.7386	1408.7592	1481.4542	1495.316	1508.8353	1528.6114	1931.2626	3006.7216	3042.9685	3086.3458	3098.4661	3108.6994	3127.3633	3136.7457	3150.91	3165.742	3803.7557
CCC1(O)C2CC1C2=O	CC[C@@]1(O)[C@H]2C[C@@H]1C2=O	
InChI=1S/C7H10O2/c1-2-7(9)4-3-5(7)6(4)8/h4-5,9H,2-3H2,1H3	InChI=1S/C7H10O2/c1-2-7(9)4-3-5(7)6(4)8/h4-5,9H,2-3H2,1H3/t4-,5+,7+
