19
gdb 4898	2.289625	1.3271856	1.0363449	2.7153	77.87	-0.25361	0.02261	0.27622	1238.8232	0.154304	-422.510012	-422.500313	-422.499368	-422.544706	35.727	
C	 0.3202714686	 0.5138248142	-0.0049252528	-0.399264
C	 1.0183421359	-0.7705991249	-0.3992316385	 0.165989
C	 1.3282579971	-1.8016616471	 0.7069843132	-0.363801
C	 2.8123790678	-1.6133392878	 0.2935286115	 0.167731
C	 3.4188094631	-2.7751619931	-0.5073755152	-0.088292
O	 4.4985469269	-2.3291892903	-1.2902397853	-0.415985
O	 2.4376885578	-0.5644177782	-0.6549891975	-0.339287
C	 3.7167031144	-1.120553828	 1.3222353186	 0.339012
C	 4.4440525345	-0.7333603745	 2.1971602087	-0.450199
H	 0.7903662221	 0.9524136342	 0.880191355	 0.129395
H	 0.3726965566	 1.2425619558	-0.819807851	 0.129848
H	-0.7357440867	 0.3216656826	 0.2149430603	 0.118163
H	 0.5374457811	-1.2107482034	-1.2824455114	 0.080239
H	 1.1034290355	-1.4579065848	 1.7167152217	 0.12295
H	 0.9329683934	-2.8087318764	 0.5626775199	 0.114191
H	 3.7946319516	-3.5503535904	 0.1678780895	 0.11612
H	 2.6195342321	-3.2151894956	-1.1267275543	 0.080147
H	 4.1772199546	-1.5461965055	-1.7564505906	 0.293519
H	 5.0983829735	-0.3870347069	 2.9587699981	 0.199525
50.2413	102.4536	158.2618	177.231	212.7981	239.3243	321.7283	336.8856	432.6931	462.3622	478.8526	521.839	549.267	623.4057	666.3071	684.3907	777.0756	870.0574	897.0813	901.9882	937.1432	978.1957	1033.567	1072.6073	1090.3914	1114.6173	1167.1662	1187.7901	1215.5268	1251.5878	1281.6788	1310.2625	1380.3718	1390.3259	1410.1616	1432.9774	1482.1654	1487.2865	1495.9072	1497.1776	2234.737	2964.9806	3015.8813	3034.8373	3082.4071	3082.915	3106.8763	3118.0385	3144.286	3500.7625	3768.2824
CC1CC(CO)(O1)C#C	C[C@@H]1C[C@@](CO)(O1)C#C	
InChI=1S/C7H10O2/c1-3-7(5-8)4-6(2)9-7/h1,6,8H,4-5H2,2H3	InChI=1S/C7H10O2/c1-3-7(5-8)4-6(2)9-7/h1,6,8H,4-5H2,2H3/t6-,7+/m1/s1
