19
gdb 1556	2.8260173	1.7908144	1.5773167	1.6304	73.9	-0.24137	-0.00081	0.24056	943.282	0.157054	-422.562353	-422.554599	-422.553655	-422.593824	31.39	
C	 0.1551601046	 0.6048065869	 0.1687358754	-0.425203
C	 1.6060216845	 0.1405750507	 0.0262204324	 0.409667
C	 2.2785699046	-0.0246076901	 1.3857048898	-0.437733
O	 1.6215932954	-1.1250223327	-0.6841060562	-0.329842
C	 2.2326566652	-0.8175125803	-1.9565151221	 0.138436
O	 1.8112721594	 0.5021231698	-2.2220880253	-0.237496
C	 2.3791606603	 1.0462949981	-1.0131990618	-0.057369
C	 3.8136923022	 0.5442066106	-1.0883366077	-0.100311
C	 3.7292225679	-0.6388359825	-1.6981710126	-0.085639
H	-0.4264845276	-0.1518605189	 0.7032235374	 0.120951
H	 0.1000458071	 1.5411491279	 0.7351283137	 0.105251
H	-0.2926938946	 0.7563183896	-0.8147726658	 0.134182
H	 1.7011411115	-0.7196577337	 2.002652955	 0.125027
H	 3.2897400647	-0.4216090811	 1.2828324928	 0.123074
H	 2.3258403019	 0.9335089779	 1.9151088944	 0.110082
H	 1.8892768477	-1.5237433043	-2.7096891819	 0.093566
H	 2.1973758785	 2.1164722948	-0.9353537348	 0.087216
H	 4.6702040011	 1.014028248	-0.6260615319	 0.113279
H	 4.4935737154	-1.3843302106	-1.8652551407	 0.112863
182.2015	204.5208	239.9074	250.0406	342.1621	363.7434	433.7455	456.4983	540.3108	601.6051	668.7511	723.8947	773.5925	816.8858	850.6986	858.5632	881.5575	902.8308	931.0838	938.153	944.0295	967.1239	1003.6353	1018.0288	1066.4741	1143.0598	1158.0066	1202.4006	1232.4233	1265.6519	1277.7934	1308.1597	1330.7443	1333.7263	1394.3861	1413.2718	1476.7809	1487.7959	1495.6234	1509.89	1635.3029	3035.6735	3042.1525	3101.9409	3108.9494	3137.2814	3140.5964	3143.9003	3151.7587	3223.4727	3249.2729
CC1(C)OC2OC1C=C2	CC1(C)O[C@H]2O[C@@H]1C=C2	
InChI=1S/C7H10O2/c1-7(2)5-3-4-6(8-5)9-7/h3-6H,1-2H3	InChI=1S/C7H10O2/c1-7(2)5-3-4-6(8-5)9-7/h3-6H,1-2H3/t5-,6-/m1/s1
