19
gdb 1875	2.4348948	1.829465	1.3552398	0.5931	73.95	-0.25434	0.07636	0.3307	1016.8534	0.155742	-422.547133	-422.538739	-422.537795	-422.579508	32.424	
C	 0.7596251434	 2.1691505651	 2.2672791088	-0.487167
C	 1.3627340783	 0.8108991053	 2.0356964531	 0.35656
C	 2.7504980911	 0.5055408526	 2.6078462802	-0.316363
C	 3.2854336258	-0.5958778495	 1.7070292806	 0.057624
O	 3.4758009062	-0.1853059072	 0.3432802663	-0.26273
C	 2.2993697539	-0.9382558834	 0.679248673	-0.041578
C	 1.0867624857	-0.061292708	 0.8742969315	 0.332657
C	 0.1866858876	 0.239541315	-0.2900289543	-0.502398
O	 0.469776596	-0.3173819009	 2.1529529952	-0.340936
H	 0.6480259831	 2.3560361186	 3.3412298767	 0.128862
H	 1.4048712858	 2.9525621821	 1.8563873102	 0.127517
H	-0.2282907692	 2.2506382092	 1.8097323973	 0.129762
H	 3.3995506261	 1.3873762412	 2.583284143	 0.113384
H	 2.6726081611	 0.1683132765	 3.6472902718	 0.113759
H	 4.0108547051	-1.3152696082	 2.0762490772	 0.098494
H	 2.2174954159	-1.9227141635	 0.2244622709	 0.09691
H	-0.294803694	-0.6777006274	-0.6469174392	 0.128764
H	-0.5990959331	 0.9470293647	-0.0180846459	 0.129694
H	 0.7695463212	 0.6582226179	-1.1170103665	 0.137188
159.1124	174.8727	177.2503	202.8174	253.0661	342.1444	371.2311	435.5056	468.3025	502.9725	565.6128	653.6095	715.3338	763.1991	823.3981	867.3006	883.5121	906.7256	942.0203	977.4346	999.1916	1023.6837	1083.7162	1090.2251	1128.7886	1143.7614	1203.1286	1228.0494	1241.4925	1263.8753	1316.7028	1351.3079	1407.6074	1413.8542	1435.6339	1454.5868	1467.3769	1476.807	1485.3544	1496.8948	1511.9659	3036.0608	3038.3329	3044.6352	3087.8804	3097.4883	3099.499	3128.5291	3134.8979	3140.3284	3158.8078
CC12CC3OC3C1(C)O2	C[C@]12C[C@@H]3O[C@@H]3[C@@]1(C)O2	
InChI=1S/C7H10O2/c1-6-3-4-5(8-4)7(6,2)9-6/h4-5H,3H2,1-2H3	InChI=1S/C7H10O2/c1-6-3-4-5(8-4)7(6,2)9-6/h4-5H,3H2,1-2H3/t4-,5-,6-,7+/m0/s1
