19
gdb 3851	2.5479985	1.5478836	1.1636482	1.9459	78.47	-0.22769	0.0123	0.23999	1103.6037	0.15664	-422.542767	-422.534193	-422.533249	-422.575584	33.15	
O	-0.2218487605	 1.4390647889	 0.0894845008	-0.426071
C	-0.0067919464	 0.0542975192	 0.0284320991	 0.028352
C	 0.2668452449	-0.6399259804	-1.3727663024	-0.336867
C	-0.7107235858	-1.7873520926	-0.9293961941	 0.356924
O	-0.0156583505	-2.8588528644	-0.2992263154	-0.495763
C	-1.9702911282	-2.2334317772	-1.7063110163	-0.286896
C	-3.1503167386	-1.8641777821	-0.7488715279	-0.245915
C	-2.567373351	-0.7562538573	 0.125267319	-0.221091
C	-1.2420864262	-0.7996158824	 0.0746995082	 0.270743
H	 0.628588749	 1.8733476809	 0.2049865331	 0.285629
H	 0.7505681347	-0.2746478333	 0.7527762937	 0.090056
H	-0.1414223338	-0.0252327378	-2.1780658048	 0.10936
H	 1.2994296776	-0.9295971238	-1.589698012	 0.086549
H	 0.4694138992	-3.3305111222	-0.9850890955	 0.274353
H	-2.0696424525	-1.6714014794	-2.6405628004	 0.10004
H	-1.9397523177	-3.2982851738	-1.9547673066	 0.091187
H	-4.0285353991	-1.5150893686	-1.3025829621	 0.103076
H	-3.4816406025	-2.7269800784	-0.1560780674	 0.113907
H	-3.1768617925	-0.0071575353	 0.616830861	 0.102427
102.1001	127.8396	247.4825	255.0346	279.4389	304.0536	329.9394	370.1992	438.7295	537.1042	591.7607	663.4068	690.5327	750.9636	814.7033	853.9016	871.	901.6713	925.43	944.3257	961.3392	999.9508	1032.4897	1093.0192	1107.3588	1142.8799	1180.0891	1196.3592	1201.142	1214.6144	1237.2633	1273.9577	1284.4536	1303.0888	1321.2663	1385.8166	1431.3943	1456.975	1469.5268	1490.5376	1746.1545	3009.7254	3021.0574	3046.1916	3049.6065	3065.8528	3098.4785	3127.1776	3202.7807	3798.5336	3826.8939
OC1CC2(O)CCC=C12	O[C@@H]1C[C@]2(O)CC[CH][C]12	
InChI=1S/C7H10O2/c8-6-4-7(9)3-1-2-5(6)7/h2,6,8-9H,1,3-4H2	InChI=1S/C7H10O2/c8-6-4-7(9)3-1-2-5(6)7/h2,6,8-9H,1,3-4H2/t6-,7-/m1/s1
