19
gdb 5567	2.5242455	1.584151	1.1808025	2.2344	73.89	-0.22866	0.05724	0.2859	1087.9056	0.156017	-422.489363	-422.480779	-422.479834	-422.522613	32.367	
C	-0.4085780621	-1.3789689833	 3.6715297362	-0.509677
C	-1.254129669	-1.2948245589	 2.4355470499	 0.268542
C	-2.4438179106	-0.324242436	 2.2785717123	 0.04743
O	-2.6643806555	-0.0900282933	 0.8878237253	-0.293631
C	-2.4024504768	-1.5147034622	 0.7029328834	 0.033738
C	-2.6848728548	-1.7944507526	 2.223539767	-0.196047
C	-0.8814317743	-1.6560972516	 0.9849725755	-0.051235
C	 0.0988510843	-0.8035679545	 0.1909018309	-0.106074
O	 1.4380102919	-0.944098599	 0.657912592	-0.422017
H	 0.0632474838	-2.3630825949	 3.7670304052	 0.129927
H	 0.3888169927	-0.6257263094	 3.6730402568	 0.112575
H	-1.0092072739	-1.2106510735	 4.572512809	 0.121854
H	-2.7195448689	 0.4404112846	 2.9934865828	 0.10699
H	-2.8930608179	-1.9350426064	-0.1724651138	 0.085868
H	-3.3193140248	-2.479220415	 2.7691945897	 0.099592
H	-0.590680458	-2.7116489278	 0.9406271354	 0.079609
H	 0.1135725269	-1.1347083899	-0.8542573594	 0.104114
H	-0.2274056194	 0.2438189314	 0.1993099036	 0.105521
H	 1.5021522762	-0.4905057379	 1.5033069282	 0.282922
68.2916	134.7758	204.0297	217.1869	257.8048	266.0417	308.811	388.059	541.8404	570.3608	657.9306	741.969	763.9466	798.6594	818.2616	879.8613	899.1987	921.8349	964.0841	981.694	1005.1205	1035.3797	1057.9347	1071.7924	1103.677	1116.9929	1147.8857	1163.5691	1199.6704	1202.8271	1234.7518	1280.0534	1294.3789	1344.7762	1391.942	1411.0794	1415.4333	1428.1352	1489.3526	1494.1349	1506.2109	3018.6416	3023.4558	3051.3003	3072.3894	3076.2818	3090.3219	3144.3899	3197.8407	3212.5869	3831.2493
CC12C3OC(C13)C2CO	C[C@]12[C@H]3O[C@H]([C@@H]13)[C@H]2CO	
InChI=1S/C7H10O2/c1-7-3(2-8)5-4(7)6(7)9-5/h3-6,8H,2H2,1H3	InChI=1S/C7H10O2/c1-7-3(2-8)5-4(7)6(7)9-5/h3-6,8H,2H2,1H3/t3-,4-,5+,6+,7-/m1/s1
