19
gdb 5135	3.370593	1.1671819	0.9791421	3.147	75.18	-0.24612	-0.01921	0.22691	1246.9777	0.155791	-422.581506	-422.572797	-422.571853	-422.615244	32.486	
C	 1.3276172831	 1.6460780499	-2.1652516911	-0.383144
C	 1.6648985429	 0.6569913987	-1.041672355	-0.277759
C	 2.0327353204	-0.7120934537	-1.5556459535	 0.418515
C	 3.289719077	-0.9414729178	-2.3736542422	-0.39615
C	 3.5578279509	-2.4544873255	-2.2829486922	 0.395411
O	 4.3696103292	-3.0554564273	-2.9327396775	-0.298115
C	 2.6399145787	-3.072180841	-1.2119469926	-0.355314
C	 1.6564614449	-1.975910617	-0.8882067577	-0.02799
O	 0.9411130084	-1.5177223626	-2.0446926605	-0.304424
H	 1.0225981635	 2.6122115955	-1.7534583738	 0.117229
H	 2.1874880678	 1.8203730495	-2.8200689622	 0.120374
H	 0.5074749037	 1.2628828148	-2.7795000177	 0.136808
H	 2.4953869139	 1.04355275	-0.4371513544	 0.100812
H	 0.8042086296	 0.5526830361	-0.3719079763	 0.108181
H	 3.1879617638	-0.6430764444	-3.4205493858	 0.14358
H	 4.1508412297	-0.4014538853	-1.959683208	 0.12886
H	 2.1696608228	-3.982207632	-1.5950051689	 0.145043
H	 3.2429600011	-3.3536191089	-0.339428055	 0.131087
H	 1.0871307887	-1.989606879	 0.0381855544	 0.096995
71.8926	78.225	151.4833	218.2611	276.1627	329.7246	391.495	429.0618	478.0638	481.6818	595.391	660.5781	713.6771	778.8402	785.3755	815.9864	863.5987	907.6651	961.3708	992.2808	1013.6067	1054.412	1078.4735	1103.6856	1145.0449	1150.0277	1210.6555	1221.5431	1270.1629	1283.1352	1295.6535	1343.2697	1369.3262	1409.6259	1432.7618	1438.0748	1461.4788	1475.2543	1500.5556	1509.0757	1855.0303	3026.9356	3040.1685	3041.1632	3043.4467	3070.1556	3100.2847	3101.872	3110.8635	3118.7908	3142.2247
CCC12CC(=O)CC1O2	CC[C@@]12CC(=O)C[C@@H]1O2	
InChI=1S/C7H10O2/c1-2-7-4-5(8)3-6(7)9-7/h6H,2-4H2,1H3	InChI=1S/C7H10O2/c1-2-7-4-5(8)3-6(7)9-7/h6H,2-4H2,1H3/t6-,7+/m0/s1
