19
gdb 3725	2.7720074	1.5189917	1.1560478	2.2352	76.19	-0.2534	0.01422	0.26762	1105.4529	0.156489	-422.556281	-422.547777	-422.546833	-422.589021	32.806	
C	 0.2990975801	 0.0098541324	-0.5791971739	-0.440122
C	 1.1459241143	 0.3892533425	 0.6086013811	 0.013403
O	 2.4859305766	 0.8635486723	 0.3465224436	-0.298806
C	 2.3126708837	-0.3768704235	 1.0553842729	 0.33921
C	 2.8440110922	-0.417526276	 2.4863987934	-0.341718
C	 4.0064207088	-1.3777706853	 2.3751136514	-0.075565
C	 4.0359518788	-2.0039988395	 1.2002719058	-0.095581
C	 2.8817541464	-1.6036965305	 0.3042736495	 0.022798
O	 3.231157313	-1.315098356	-1.0341480671	-0.436248
H	-0.5733650115	-0.5649435169	-0.2495087162	 0.122222
H	-0.0674238325	 0.9080693357	-1.0869632863	 0.126867
H	 0.8719242522	-0.5883807118	-1.2901245874	 0.151892
H	 0.6362524766	 0.9894255484	 1.3654626639	 0.088232
H	 3.1315986613	 0.5850167169	 2.82157634	 0.124731
H	 2.0827820089	-0.7849950281	 3.1882935788	 0.114482
H	 4.7075080481	-1.5322880637	 3.1877735122	 0.099773
H	 4.7606856502	-2.7454239145	 0.8855569611	 0.103851
H	 2.1366432076	-2.411842472	 0.2636204215	 0.090311
H	 3.3887964452	-0.3601893402	-1.0590322643	 0.290267
88.2398	181.7528	207.9467	227.8705	271.9917	305.5496	405.7796	429.4685	452.3343	490.3213	561.6793	584.9589	705.1427	756.4538	775.7178	839.1456	898.9049	943.9102	960.2976	980.5981	1008.839	1028.1268	1037.3873	1090.7909	1122.8917	1137.6571	1160.047	1173.9394	1224.9076	1254.8171	1286.8924	1314.3804	1360.844	1367.4561	1410.4791	1437.9986	1467.4085	1476.0136	1502.4868	1515.0453	1683.2138	2995.4877	3015.7056	3037.9424	3067.7057	3084.7849	3099.2423	3141.6312	3187.9972	3215.6425	3732.8034
CC1OC11CC=CC1O	C[C@@H]1O[C@]21CC=C[C@@H]2O	
InChI=1S/C7H10O2/c1-5-7(9-5)4-2-3-6(7)8/h2-3,5-6,8H,4H2,1H3	InChI=1S/C7H10O2/c1-5-7(9-5)4-2-3-6(7)8/h2-3,5-6,8H,4H2,1H3/t5-,6-,7-/m0/s1
