19
gdb 5371	3.0331003	1.1302507	0.8769593	3.0694	78.46	-0.23661	-0.04239	0.19422	1337.0583	0.156424	-422.596992	-422.587637	-422.586692	-422.631678	33.696	
C	 2.7331818651	 3.5174963638	 0.2179822009	-0.397355
C	 1.9305088929	 2.4486626702	-0.5271788053	-0.086965
C	 2.7560622013	 1.406339975	-1.3146865419	-0.286623
C	 2.2146482941	 0.0742479841	-0.8613919886	-0.153944
C	 1.2845437756	 0.1739569822	 0.0981753808	 0.154879
C	 0.5511483886	-0.9258379154	 0.8059764393	-0.168802
O	 1.066880089	-2.219504261	 0.5409225044	-0.409919
C	 1.070835098	 1.6042299957	 0.430808564	 0.324388
O	 0.3561924688	 2.0374857761	 1.3084628047	-0.345263
H	 2.0643978076	 4.1168163753	 0.8413360484	 0.141099
H	 3.4824868207	 3.0593222816	 0.8730008095	 0.11642
H	 3.2539948702	 4.1815703471	-0.4782150657	 0.114431
H	 1.22722747	 2.9489730575	-1.2053126915	 0.107753
H	 2.6688820623	 1.5240332922	-2.4013705163	 0.118139
H	 3.8281355325	 1.4858576001	-1.0894806175	 0.117817
H	 2.5600762868	-0.8663698856	-1.2771313271	 0.115849
H	 0.5212430862	-0.7005732161	 1.8827194193	 0.117819
H	-0.4942612936	-0.943524439	 0.4751743819	 0.136169
H	 1.942293764	-2.2706080737	 0.9382935806	 0.284108
49.2288	81.4691	165.435	205.2998	232.1974	242.276	301.7266	330.3843	354.0052	413.0617	545.0366	598.2856	673.8967	763.2481	780.5898	844.9509	894.4941	925.7019	947.0525	990.9949	1014.5111	1046.2889	1088.5323	1114.0414	1126.0743	1191.5131	1206.0087	1227.0963	1272.9465	1301.34	1311.1906	1341.6436	1392.8652	1404.4973	1416.5131	1477.4688	1486.8774	1496.4558	1500.963	1695.5433	1798.0723	2998.8638	3020.463	3026.6616	3036.2004	3054.9767	3056.0579	3103.0173	3123.1217	3195.495	3814.9265
CC1CC=C(CO)C1=O	C[C@H]1CC=C(CO)C1=O	
InChI=1S/C7H10O2/c1-5-2-3-6(4-8)7(5)9/h3,5,8H,2,4H2,1H3	InChI=1S/C7H10O2/c1-5-2-3-6(4-8)7(5)9/h3,5,8H,2,4H2,1H3/t5-/m0/s1
