19
gdb 4431	2.9726885	1.3547598	1.2119287	2.3095	76.12	-0.2366	0.03181	0.26841	1102.7972	0.156857	-422.551301	-422.542886	-422.541942	-422.584633	31.717	
O	 0.4417840695	 0.4335885364	 0.2130841587	-0.42343
C	-0.7045079656	-0.1658213632	 0.7625334832	-0.003248
C	-1.2967837775	 0.4066317174	 2.0663969829	-0.111721
O	-2.5877785054	 0.5447859706	 1.445007092	-0.317295
C	-2.0374022582	 0.28335646	 0.1183510028	 0.419167
C	-2.888980938	-0.7385772897	-0.6633155749	-0.328764
C	-3.5807234278	 0.088682226	-1.7169938865	-0.066917
C	-3.1033846939	 1.330998316	-1.7639737566	-0.0656
C	-2.0066129305	 1.5605358398	-0.7557914791	-0.30897
H	 1.2210761536	 0.0257253912	 0.6022371584	 0.290052
H	-0.61261425	-1.2596444309	 0.7868006297	 0.075497
H	-1.3289606676	-0.2443519401	 2.9476474385	 0.097176
H	-0.854617918	 1.3752650774	 2.3375256399	 0.097861
H	-2.2560114148	-1.5168280922	-1.1132253055	 0.105709
H	-3.5768023908	-1.2449827898	 0.0232074903	 0.117729
H	-4.3562190853	-0.3128695207	-2.359466493	 0.089913
H	-3.4312931505	 2.1028219073	-2.4515401606	 0.090187
H	-1.0287544605	 1.6841088885	-1.2364444498	 0.128482
H	-2.1691062088	 2.444347366	-0.1291650604	 0.114172
66.7567	85.0753	199.363	222.9925	273.5758	366.192	395.6346	410.4756	482.7424	547.0458	682.7665	728.9351	783.6359	793.2803	858.7731	907.913	927.9544	960.0617	974.7212	985.2671	1018.2775	1057.424	1070.3297	1107.3979	1113.277	1137.2378	1167.293	1171.4921	1190.71	1232.747	1245.1317	1290.3236	1309.5407	1331.8324	1349.1344	1368.6023	1442.5777	1462.2986	1467.9114	1516.0247	1689.5462	3004.3299	3005.5003	3014.037	3037.8643	3063.0679	3063.1193	3073.4601	3182.6573	3208.1105	3827.791
OC1COC11CC=CC1	O[C@H]1CO[C@@]21CC=CC2	
InChI=1S/C7H10O2/c8-6-5-9-7(6)3-1-2-4-7/h1-2,6,8H,3-5H2	InChI=1S/C7H10O2/c8-6-5-9-7(6)3-1-2-4-7/h1-2,6,8H,3-5H2/t6-/m0/s1
