19
gdb 1702	2.4697724	1.3384588	1.1497018	1.2768	76.05	-0.2452	-0.09275	0.15245	1160.4855	0.154635	-422.566809	-422.557311	-422.556367	-422.60143	33.984	
C	-2.0995200058	 2.0029242491	-1.1016520202	-0.473008
C	-0.9556576579	 2.1998289881	-0.0952949858	 0.248423
C	-1.4297210127	 2.0847728516	 1.3984078767	-0.258018
C	-1.4210697728	 3.6346939419	 1.4849356944	-0.213931
C	-0.6047831229	 3.6928735424	 0.1652827411	-0.265802
C	 0.2166538983	 1.3169455666	-0.4463502308	 0.224408
O	 1.3092280443	 1.7149048522	-0.7844990269	-0.287269
C	 0.0471783525	-0.2104338145	-0.3373178179	 0.092723
O	-0.9517830705	-0.7655853625	 0.0379813765	-0.224722
H	-2.4541252666	 0.9697874928	-1.1027677226	 0.14535
H	-2.9407516255	 2.651490475	-0.8371691662	 0.124614
H	-1.7807373144	 2.2693472827	-2.1152687809	 0.124362
H	-2.37766654	 1.5672681943	 1.5563866859	 0.114886
H	-0.675821881	 1.6265400817	 2.0444767834	 0.105676
H	-2.4211768599	 4.0625870323	 1.3810990703	 0.107246
H	-0.9537231268	 4.0709057267	 2.3700328775	 0.104776
H	-0.9338139728	 4.4035701539	-0.5966036778	 0.100756
H	 0.4663932046	 3.8287831342	 0.3265276671	 0.11989
H	 0.9714460299	-0.7513148586	-0.6347117838	 0.109641
64.0693	108.5663	113.5335	156.2546	210.878	252.2788	274.2543	318.3724	356.2167	468.9033	551.7103	607.8577	647.3134	705.533	797.1303	849.6233	876.1018	930.3482	938.2968	947.4718	992.7079	1010.3118	1054.8151	1120.3403	1162.078	1186.9182	1215.0848	1242.0605	1259.8664	1274.576	1278.9208	1320.6052	1366.5321	1404.6332	1476.3554	1484.2987	1495.3653	1506.1202	1506.6059	1787.5463	1821.6792	2914.0779	3035.3811	3061.3583	3065.7723	3072.1108	3099.9566	3107.3347	3121.7525	3130.5435	3132.3031
CC1(CCC1)C(=O)C=O	CC1(CCC1)C(=O)C=O	
InChI=1S/C7H10O2/c1-7(3-2-4-7)6(9)5-8/h5H,2-4H2,1H3	InChI=1S/C7H10O2/c1-7(3-2-4-7)6(9)5-8/h5H,2-4H2,1H3
