19
gdb 4219	3.1804309	1.344361	1.1044329	2.4141	75.59	-0.24542	0.06238	0.3078	1147.1497	0.156047	-422.502953	-422.494767	-422.493823	-422.53583	31.186	
C	 0.2974999023	-0.4463855923	-0.1119127997	-0.410704
C	 1.00791463	 0.8647950722	 0.1564771648	 0.155917
O	 2.4570100769	 0.7037702153	 0.138154039	-0.310987
C	 2.5759651964	 1.1201577732	 1.507413431	 0.118404
C	 2.840094568	 2.6430473527	 1.6543339855	-0.338879
C	 1.3186313351	 2.846576076	 1.7700090083	 0.448676
C	 0.5710815383	 3.8540933475	 2.5226459097	-0.270978
O	 0.5826824272	 3.8471202162	 1.0879071006	-0.266338
C	 1.0380610533	 1.3504664861	 1.6237375677	-0.206088
H	 0.5780377813	-1.2033313769	 0.6273326682	 0.118352
H	-0.7885949579	-0.3064287008	-0.0762076652	 0.116977
H	 0.5636504339	-0.8221009061	-1.1047763818	 0.128879
H	 0.6893591936	 1.6316628969	-0.5601471552	 0.096505
H	 3.1648831105	 0.4289785073	 2.1138550928	 0.079188
H	 3.3939239657	 2.9261873947	 2.5542512318	 0.107021
H	 3.309655392	 3.0923353298	 0.7766983845	 0.126215
H	-0.3816784721	 3.593955079	 2.983096381	 0.11488
H	 1.1016010242	 4.6837126062	 2.9892689748	 0.116663
H	 0.3699849916	 0.863661503	 2.3341645122	 0.076295
73.3262	121.8695	219.0217	237.969	296.5534	344.6728	376.6664	418.209	510.8468	551.38	748.0841	805.9239	828.1676	852.4492	854.4591	888.4163	911.7275	950.5613	961.2632	1007.9078	1041.9907	1077.8248	1090.8909	1117.5144	1127.3918	1139.5402	1147.9765	1171.9416	1188.7173	1221.6818	1249.7983	1264.1886	1290.7423	1336.0689	1387.8975	1403.1922	1429.5525	1456.7695	1481.5892	1492.0558	1533.3056	3031.3171	3033.5059	3057.8928	3076.0002	3086.4077	3105.6199	3110.617	3113.4951	3124.1188	3162.4944
CC1OC2CC3(CO3)C12	C[C@@H]1O[C@H]2C[C@]3(CO3)[C@@H]12	
InChI=1S/C7H10O2/c1-4-6-5(9-4)2-7(6)3-8-7/h4-6H,2-3H2,1H3	InChI=1S/C7H10O2/c1-4-6-5(9-4)2-7(6)3-8-7/h4-6H,2-3H2,1H3/t4-,5-,6-,7-/m0/s1
