19
gdb 5307	3.2728724	1.3896892	1.2116982	2.2452	73.87	-0.24068	0.07188	0.31256	1072.3092	0.158455	-422.528061	-422.520334	-422.51939	-422.560239	30.232	
O	 1.4939314706	 0.5773199976	 0.1731702727	-0.416465
C	 0.1523137867	 0.1067181361	 0.1450357447	-0.171441
C	-0.5674513319	 0.3463365602	 1.4456078447	 0.297136
C	-0.7651586715	 1.7846071882	 1.9267216481	-0.146935
O	-1.9648114168	 1.7701824564	 2.710186818	-0.263605
C	-2.2159842967	 0.414891909	 3.0351229341	 0.081831
C	-1.0393021338	-0.2206321253	 3.8497910104	-0.262471
C	-0.4818882507	-0.7386212232	 2.5221607416	-0.127642
C	-1.792745297	-0.4375941053	 1.8104916304	-0.142282
H	 1.9390720558	 0.1323536293	 0.9021782438	 0.282062
H	-0.3313175352	 0.6635204992	-0.6653497417	 0.114737
H	 0.1047263957	-0.9622636267	-0.1176511858	 0.087889
H	 0.0791096518	 2.1484456278	 2.5265172245	 0.100514
H	-0.9026989191	 2.4730265244	 1.0847394096	 0.106897
H	-3.2228048258	 0.3325573801	 3.4415993198	 0.085905
H	-0.4363176159	 0.4692802518	 4.4489497415	 0.098872
H	-1.3876310077	-1.0417768712	 4.4825180434	 0.104101
H	 0.1633727014	-1.6011129532	 2.3899839983	 0.081348
H	-2.3997208698	-1.0264082552	 1.135693172	 0.089548
91.5882	149.0017	219.6748	299.2792	336.9886	385.3738	412.1786	447.0604	645.3254	665.571	708.8469	804.3231	846.4184	853.8624	873.4303	898.2207	950.2701	975.1589	990.0693	1004.0137	1010.9039	1052.042	1060.7933	1087.8164	1100.6214	1118.9551	1175.6624	1183.1013	1208.3748	1224.7249	1258.7165	1275.5028	1287.8784	1332.7937	1355.8281	1382.1414	1415.9318	1427.138	1486.4845	1502.3361	1522.4155	2975.6273	3014.1839	3043.9761	3055.3029	3065.1779	3099.0254	3132.3007	3160.0692	3203.0025	3808.6307
OCC12COC3CC1C23	OC[C@]12CO[C@@H]3C[C@H]1[C@H]23	
InChI=1S/C7H10O2/c8-2-7-3-9-5-1-4(7)6(5)7/h4-6,8H,1-3H2	InChI=1S/C7H10O2/c8-2-7-3-9-5-1-4(7)6(5)7/h4-6,8H,1-3H2/t4-,5+,6-,7-/m0/s1
