19
gdb 4721	2.4224971	1.1568274	0.833261	2.2954	77.3	-0.24738	0.04767	0.29505	1377.3358	0.155073	-422.499301	-422.489453	-422.488509	-422.534771	34.868	
O	 2.5367769262	 2.1339195182	-1.2618465106	-0.414144
C	 3.0165092877	 1.4535808783	-0.1200801949	-0.072249
C	 2.4187394329	 0.0369568939	 0.0422252835	-0.227635
C	 0.9690489449	 0.061569565	 0.2028713121	 0.342949
C	-0.2191531394	 0.0681308044	 0.3852496979	-0.463548
C	 3.0710395568	-0.6833801306	 1.2314422037	 0.150066
C	 2.8413314123	-2.2026309875	 1.3715983335	-0.292472
C	 4.3748786802	-2.3005071468	 1.2416992341	-0.068286
O	 4.4898889035	-0.8758981859	 1.0265569506	-0.293669
H	 2.873774266	 1.6822437036	-2.0420474819	 0.283093
H	 4.1109383599	 1.3614396248	-0.1231716378	 0.115267
H	 2.7291602373	 2.0667369311	 0.7399608552	 0.117388
H	 2.6737074167	-0.5387380276	-0.8603566444	 0.092195
H	-1.2717150039	 0.0850424919	 0.5243720547	 0.196644
H	 2.8802249568	-0.1122122441	 2.150270554	 0.086588
H	 2.4154427038	-2.5357398276	 2.3181289475	 0.116874
H	 2.2770282278	-2.6458480126	 0.549282943	 0.118346
H	 4.9017311011	-2.615020002	 2.1507982971	 0.106106
H	 4.7610116696	-2.8750098967	 0.3919785227	 0.106486
73.007	76.799	101.2087	126.9314	167.9325	207.8552	301.8097	334.0022	358.2058	451.105	489.3697	575.7588	636.2989	644.3708	772.8475	831.4045	840.6234	908.2203	948.9101	985.7393	1023.6007	1026.9201	1064.9722	1094.1212	1101.398	1135.2307	1164.7411	1194.8629	1215.5166	1258.1261	1262.6616	1286.9242	1344.305	1362.9304	1382.5167	1396.8046	1417.8492	1492.3616	1505.8463	1533.6133	2234.9473	2991.3196	3012.882	3018.7822	3022.3366	3062.2547	3086.1159	3087.5689	3142.2109	3504.6275	3817.1481
OCC(C#C)C1CCO1	OC[C@H](C#C)[C@H]1CCO1	
InChI=1S/C7H10O2/c1-2-6(5-8)7-3-4-9-7/h1,6-8H,3-5H2	InChI=1S/C7H10O2/c1-2-6(5-8)7-3-4-9-7/h1,6-8H,3-5H2/t6-,7+/m0/s1
