19
gdb 3705	3.7565292	1.0014795	0.9730475	0.5717	76.18	-0.23926	0.0699	0.30916	1296.9102	0.154883	-422.501364	-422.492447	-422.491503	-422.53474	33.579	
C	 0.0695243298	 0.3596603597	-0.0777091179	-0.41641
C	 0.9912765865	-0.831619951	-0.0717204707	-0.02855
O	 2.1904869008	-0.7166150603	 0.7250266504	-0.301856
C	 2.3244175607	-0.817143849	-0.6818951509	 0.447253
C	 3.0710622657	 0.263480408	-1.4922733269	-0.335062
C	 3.8741618591	-0.8563639309	-2.1740238056	-0.121086
C	 2.9592872442	-1.8396684328	-2.8367748559	 0.152128
O	 3.5051274581	-2.854676443	-3.6269034625	-0.439502
C	 3.1201952309	-1.9234822198	-1.3374000969	-0.226903
H	-0.4748165905	 0.4315528702	 0.8698572638	 0.12986
H	 0.6289854315	 1.2877017812	-0.2207930131	 0.126925
H	-0.6684120269	 0.2681632098	-0.8822390054	 0.121686
H	 0.4999317497	-1.8016524227	 0.028611275	 0.088656
H	 2.4797549035	 0.9134865455	-2.146373102	 0.102009
H	 3.6810436063	 0.8790498071	-0.8266372252	 0.125302
H	 4.926069975	-0.8076324089	-2.4314732423	 0.090159
H	 2.0179219348	-1.5142771538	-3.2745757526	 0.10302
H	 4.3403527243	-3.1356569824	-3.2378709798	 0.285797
H	 3.4785471566	-2.8236874471	-0.8511823314	 0.096575
91.7992	163.3177	183.7267	198.0091	213.5957	276.8562	304.4725	407.4854	439.1775	464.7681	505.5366	573.0873	771.6077	791.4368	809.3875	877.9408	901.6648	913.2699	969.0435	977.2357	991.544	1034.3423	1070.5506	1082.3515	1112.0966	1125.5966	1128.2035	1140.7031	1173.2151	1198.3894	1241.9321	1255.2971	1293.0484	1332.3231	1358.7399	1409.9263	1448.3552	1469.0375	1480.7213	1491.8293	1523.9083	3035.5024	3043.4514	3086.2112	3098.824	3109.2328	3124.3139	3131.5739	3173.1649	3184.5178	3810.6495
CC1OC11CC2C(O)C12	C[C@@H]1O[C@@]21C[C@@H]1[C@@H](O)[C@H]21	
InChI=1S/C7H10O2/c1-3-7(9-3)2-4-5(7)6(4)8/h3-6,8H,2H2,1H3	InChI=1S/C7H10O2/c1-3-7(9-3)2-4-5(7)6(4)8/h3-6,8H,2H2,1H3/t3-,4-,5+,6+,7+/m0/s1
