19
gdb 5813	2.5693409	1.6078097	1.1958302	2.9082	74.91	-0.24729	-0.00552	0.24177	1071.363	0.158566	-422.548318	-422.54027	-422.539325	-422.580917	31.108	
O	 1.4389780566	 0.5043696906	-0.2895222191	-0.432243
C	 0.0570805975	 0.4171295558	-0.0117343332	-0.058982
C	-0.8192760649	 0.4463740987	-1.2813802662	-0.047293
C	-2.2999962525	 0.2107033648	-0.9050062109	-0.291448
C	-2.6552206322	-1.2484063102	-0.7517725031	-0.050696
C	-2.0148243686	-2.2269152227	-1.393483149	-0.077807
C	-0.9130962373	-1.919586426	-2.3383896347	 0.020128
O	 0.4110773589	-1.7008927747	-1.795915032	-0.27448
C	-0.3243830029	-0.5749242234	-2.3104168283	 0.017012
H	 1.691168627	-0.3490840536	-0.660734914	 0.299127
H	-0.1799708394	-0.4855195862	 0.5685280467	 0.09831
H	-0.1942006681	 1.2845148482	 0.6088295259	 0.101901
H	-0.7175868495	 1.4404732657	-1.7292869561	 0.080056
H	-2.5234855139	 0.741445563	 0.0287168593	 0.109905
H	-2.9627186156	 0.660646234	-1.6577323474	 0.117773
H	-3.4862426619	-1.4891418515	-0.0933481752	 0.098954
H	-2.3019649882	-3.266058557	-1.2634273742	 0.095538
H	-0.8963455525	-2.4873979272	-3.2679704078	 0.096642
H	 0.0963705076	-0.1727045081	-3.230175171	 0.097604
76.3053	147.2031	201.6221	260.1525	306.3652	360.3492	479.1705	486.726	513.568	557.6404	608.72	718.9306	762.0843	825.78	851.6161	885.2339	890.7631	951.9507	978.2569	1000.0168	1011.6583	1049.0056	1079.6307	1091.6362	1107.7103	1158.573	1191.1447	1205.0594	1249.013	1288.3624	1294.0783	1339.5412	1361.8791	1385.4361	1407.4177	1421.0239	1428.0522	1463.2992	1475.5427	1499.5153	1709.6088	3006.0802	3009.2134	3045.0682	3048.3319	3070.9366	3113.43	3127.1288	3153.8777	3179.8927	3799.8588
OCC1CC=CC2OC12	OC[C@@H]1CC=C[C@@H]2O[C@H]12	
InChI=1S/C7H10O2/c8-4-5-2-1-3-6-7(5)9-6/h1,3,5-8H,2,4H2	InChI=1S/C7H10O2/c8-4-5-2-1-3-6-7(5)9-6/h1,3,5-8H,2,4H2/t5-,6-,7+/m0/s1
