19
gdb 1949	2.652059	1.566857	1.3675408	0.7394	74.87	-0.2319	0.05985	0.29175	1038.385	0.155986	-422.500772	-422.492555	-422.491611	-422.532862	32.479	
C	-0.0702799643	 0.1857617069	-0.0670048978	-0.50661
C	 1.4176727097	-0.0186381427	-0.0606552408	 0.358446
C	 2.3148747514	 0.3642348294	 1.0789079039	-0.349679
C	 2.5750354019	 0.9813424588	-0.2687990487	-0.14653
C	 3.2772803541	 0.0136038058	-1.2415270568	 0.376006
O	 3.5552038215	 0.6318893583	-2.4554574272	-0.477657
C	 4.2308819325	-1.0639430648	-0.6693907074	-0.165836
O	 3.1065600289	-1.9254351197	-0.3550260712	-0.295288
C	 2.1597964258	-1.0223755672	-0.9832907676	-0.041177
H	-0.341108952	 1.1067857005	 0.4597416671	 0.119608
H	-0.4637847488	 0.2591663713	-1.0872785373	 0.118853
H	-0.5866047345	-0.6444206931	 0.4303826097	 0.124248
H	 1.8654339767	 1.0410528854	 1.7994686728	 0.109985
H	 2.9901076261	-0.3636779186	 1.5153611588	 0.127777
H	 2.5417563403	 2.0509337514	-0.4386482384	 0.094167
H	 3.8274227894	-0.0425467693	-3.0876592771	 0.282811
H	 4.8806289468	-1.5171269267	-1.4327095574	 0.088559
H	 4.8313266502	-0.8132688788	 0.212047392	 0.108783
H	 1.5636448844	-1.4961581969	-1.7682168466	 0.073535
140.9006	193.8714	253.0898	257.287	293.0986	328.1394	363.0417	375.2277	475.0594	503.4804	587.5948	649.0309	755.543	794.082	832.5914	884.3438	931.2966	940.9214	968.3004	981.2112	999.2941	1009.9815	1054.934	1066.7322	1087.2241	1094.1737	1114.0415	1147.231	1170.548	1218.5642	1247.9179	1276.3579	1284.0358	1356.8251	1389.4053	1399.0817	1419.6188	1485.2266	1495.2002	1498.1223	1513.3101	2991.9875	3019.6506	3064.0755	3074.1979	3078.9204	3095.2901	3128.873	3185.6618	3210.5541	3799.3581
CC12CC1C1(O)COC21	C[C@]12C[C@H]1[C@@]1(O)CO[C@@H]21	
InChI=1S/C7H10O2/c1-6-2-4(6)7(8)3-9-5(6)7/h4-5,8H,2-3H2,1H3	InChI=1S/C7H10O2/c1-6-2-4(6)7(8)3-9-5(6)7/h4-5,8H,2-3H2,1H3/t4-,5+,6+,7+/m1/s1
