19
gdb 4390	4.282754	0.9836663	0.8267153	3.696	81.25	-0.24916	-0.05547	0.19369	1381.5654	0.156521	-422.583044	-422.574287	-422.573343	-422.616503	32.355	
C	-3.4418405278	 3.018501828	 0.3472341908	-0.403737
C	-2.1932691717	 2.2795073298	-0.1068688484	 0.133355
C	-2.2621981495	 0.7652632911	 0.1519097044	-0.262998
C	-0.9054076738	 0.1426456105	 0.0215690145	-0.144202
C	 0.2130971566	 0.8792179172	-0.0091422301	 0.190499
C	 0.1626276442	 2.3799340556	 0.1282600195	-0.168878
O	-1.0903067643	 2.8411047423	 0.5939193248	-0.259136
C	 1.5217610849	 0.23436068	-0.1821221408	 0.095392
O	 2.5740601406	 0.8320817986	-0.2351999098	-0.278015
H	-3.5755179077	 2.9064614763	 1.4277274891	 0.126904
H	-3.3575847651	 4.0844842177	 0.1215745182	 0.127689
H	-4.3291262256	 2.6231074858	-0.1565979882	 0.115118
H	-2.0474740766	 2.4357013757	-1.1900911668	 0.069388
H	-2.6608813693	 0.5752568179	 1.1591988532	 0.125115
H	-2.9648665654	 0.2925243794	-0.5462177625	 0.114965
H	-0.8368262552	-0.9415042256	-0.0533959542	 0.103724
H	 0.9135420615	 2.7139941448	 0.8501948682	 0.135945
H	 0.4218426191	 2.8496119878	-0.8363676498	 0.110169
H	 1.4814056251	-0.8756473032	-0.2649873323	 0.068701
75.6717	147.2019	179.9276	207.9514	238.562	307.5483	314.134	387.0341	431.1874	468.9557	542.1256	588.2084	723.7934	787.4205	827.7786	888.1766	921.1515	933.867	1018.668	1035.346	1052.4279	1068.2266	1111.6357	1142.9535	1158.8356	1201.1984	1232.6133	1266.2404	1325.173	1344.8722	1385.544	1389.9365	1410.6082	1411.8004	1428.2631	1456.2244	1482.8902	1483.5068	1500.8881	1709.0967	1785.5537	2871.8699	2948.6405	2961.012	3007.0619	3042.8999	3048.3317	3086.8526	3115.8856	3125.1881	3141.8777
CC1CC=C(CO1)C=O	C[C@@H]1CC=C(CO1)C=O	
InChI=1S/C7H10O2/c1-6-2-3-7(4-8)5-9-6/h3-4,6H,2,5H2,1H3	InChI=1S/C7H10O2/c1-6-2-3-7(4-8)5-9-6/h3-4,6H,2,5H2,1H3/t6-/m1/s1
