19
gdb 5863	3.5711619	0.5533174	0.4935329	1.626	83.05	-0.24453	-0.02725	0.21728	2175.5131	0.153279	-422.536958	-422.525761	-422.524817	-422.576099	37.113	
C	 0.5027156958	 0.7622199986	-0.0228287585	-0.397152
C	 0.9934324014	-0.702541742	 0.0699891451	-0.212294
C	 1.8696917853	-0.8495637478	 1.3175314535	 0.173259
O	 1.5339298219	-1.4230550283	 2.317771298	-0.243223
C	 1.7605409097	-1.0999232524	-1.1063092567	 0.085312
C	 2.4342509795	-1.4139148143	-2.0549496714	 0.017297
C	 3.2336254174	-1.8292236022	-3.2001219558	-0.324961
C	 3.6594154628	-3.299913625	-3.1204301812	-0.063086
O	 4.4220098343	-3.5691105384	-4.2835835511	-0.414703
H	-0.1003900016	 1.0162299065	 0.8533364729	 0.132295
H	 1.3498422704	 1.4522497399	-0.0799992167	 0.131764
H	-0.103948646	 0.8968468703	-0.9212583588	 0.138177
H	 0.1321833735	-1.365050326	 0.2112158486	 0.122083
H	 2.8622461338	-0.3533930166	 1.2268454712	 0.085324
H	 2.6730134325	-1.6809230111	-4.1311241097	 0.140102
H	 4.1359988333	-1.2111568335	-3.281433698	 0.139175
H	 4.2429203104	-3.4619668026	-2.2019614808	 0.099842
H	 2.7640040746	-3.93632509	-3.061609446	 0.10025
H	 4.7013573609	-4.4886469351	-4.2564044047	 0.290538
16.485	43.2086	77.8566	87.9238	139.1351	168.1609	225.6264	237.4481	289.9205	330.7459	357.9815	407.4997	472.4685	527.9569	552.6611	792.5221	793.6291	887.7498	932.5922	999.1857	1050.7593	1082.1676	1084.9703	1087.7223	1126.603	1177.976	1222.1122	1238.1245	1270.1135	1304.3045	1324.2162	1334.9029	1398.531	1417.358	1454.8152	1476.6713	1492.1425	1497.7443	1528.2424	1839.0988	2362.0014	2882.2829	2984.7713	3015.7668	3031.959	3044.4255	3051.8728	3069.4386	3121.1234	3130.3122	3835.3277
CC(C=O)C#CCCO	C[C@H](C=O)C#CCCO	
InChI=1S/C7H10O2/c1-7(6-9)4-2-3-5-8/h6-8H,3,5H2,1H3	InChI=1S/C7H10O2/c1-7(6-9)4-2-3-5-8/h6-8H,3,5H2,1H3/t7-/m0/s1
