19
gdb 5414	3.9759925	0.6919889	0.6226111	2.9239	83.59	-0.22663	0.05013	0.27676	1806.6361	0.154534	-422.51331	-422.502675	-422.501731	-422.550745	36.807	
C	 1.5629694029	-0.3004074797	 0.0706419374	-0.499203
C	 0.1163595269	-0.1419525562	 0.030758765	 0.116937
C	-1.0814969398	-0.0113426752	-0.0073532265	 0.04137
C	-2.5047763398	 0.1478302143	-0.0386481214	-0.299825
C	-3.31901288	 0.1145644354	 1.2504850802	 0.083318
O	-4.6004899314	-0.4483669083	 1.243101352	-0.42432
C	-3.1801185974	 1.4072461757	 0.5180794082	-0.066479
C	-4.3989935364	 1.9691892075	-0.1895415072	-0.078859
O	-5.3797512592	 2.4255030599	 0.7260735154	-0.424093
H	 1.9276680754	-0.3666146659	 1.1019086154	 0.146686
H	 1.8770217333	-1.2132615976	-0.4479022691	 0.147398
H	 2.0740604387	 0.5432760389	-0.4068806218	 0.147334
H	-3.0155202619	-0.2840864942	-0.8963723259	 0.109766
H	-2.7597980945	-0.0150884232	 2.1751994487	 0.102226
H	-4.5197150761	-1.4074815625	 1.2637509595	 0.295552
H	-2.5226299056	 2.1408668799	 0.972529699	 0.105873
H	-4.1138463919	 2.8364398225	-0.7934770637	 0.110254
H	-4.8140536316	 1.214550854	-0.8722253275	 0.091896
H	-5.6716144317	 1.6456605648	 1.2127179022	 0.294168
19.0625	67.1355	85.9964	108.2553	184.2535	256.3802	274.2706	292.0894	301.5627	360.2539	383.9811	461.9476	475.968	483.1118	650.9375	792.817	830.7854	847.1976	963.9407	988.0161	1007.1946	1052.4402	1053.1438	1070.9985	1097.4724	1116.5138	1142.9127	1200.1312	1213.4068	1238.526	1284.1522	1317.2959	1359.8311	1404.9637	1415.4012	1431.6588	1470.9218	1477.3882	1480.02	1500.9716	2365.9679	3004.0294	3024.0466	3077.7181	3082.7258	3084.8805	3121.4704	3133.1456	3172.2214	3797.2837	3810.9201
CC#CC1C(O)C1CO	CC#C[C@H]1[C@H](O)[C@@H]1CO	
InChI=1S/C7H10O2/c1-2-3-5-6(4-8)7(5)9/h5-9H,4H2,1H3	InChI=1S/C7H10O2/c1-2-3-5-6(4-8)7(5)9/h5-9H,4H2,1H3/t5-,6-,7+/m1/s1
