19
gdb 2967	3.2426322	1.2216411	0.9867548	3.494	76.37	-0.24882	-0.02112	0.2277	1228.2706	0.157324	-422.583345	-422.574874	-422.57393	-422.616145	32.421	
C	-1.9491537052	-2.6396898206	-1.9106799844	-0.42206
C	-1.597869615	-1.2886000551	-1.3275241375	-0.015096
C	-2.3527209963	-0.7568854812	-0.1576238758	-0.060657
C	-2.3716513854	 0.758024078	 0.0633800424	-0.252186
C	-0.8994582993	 1.2001202563	-0.0399868728	 0.038201
O	-0.562322086	 2.2832191948	 0.7838542101	-0.447552
C	-0.1201784875	-0.0636034858	 0.3785785538	 0.388995
O	 0.9113999224	 0.0030420427	 1.008892197	-0.356887
C	-0.9151629576	-1.2642201252	 0.0441243136	-0.164212
H	-2.3091535011	-3.3233139174	-1.1352166023	 0.121894
H	-2.7387140208	-2.5423637944	-2.6633992115	 0.127071
H	-1.0814395726	-3.1035483025	-2.3905975099	 0.129258
H	-1.2380454946	-0.5682314915	-2.0578371288	 0.09813
H	-3.1791290053	-1.3460720774	 0.225591838	 0.097465
H	-3.0264750328	 1.2779016162	-0.6422529844	 0.108662
H	-2.7175739688	 0.9860754612	 1.0766564804	 0.123116
H	-0.6442753518	 1.4272350007	-1.0897675788	 0.089722
H	 0.2816727177	 2.0349697777	 1.1939420118	 0.289307
H	-0.6723111601	-2.2049811965	 0.5221020292	 0.106829
106.3002	158.3893	213.0682	224.169	275.3984	293.6324	383.4126	407.9324	437.1926	476.3507	622.2702	635.9011	728.0959	765.5279	801.8819	840.0178	892.9907	959.8107	984.0397	1007.7934	1019.4322	1063.1635	1085.5134	1112.4987	1128.3848	1153.8319	1191.7159	1208.5205	1221.304	1253.0441	1295.2012	1303.4555	1327.7838	1387.3653	1418.315	1421.8511	1441.5907	1491.3844	1494.9555	1502.3867	1817.143	2946.1677	3033.0204	3052.3659	3098.0861	3099.4961	3103.0371	3138.9776	3168.5535	3198.1834	3689.4592
CC1C2CC(O)C(=O)C12	C[C@H]1[C@@H]2C[C@@H](O)C(=O)[C@H]12	
InChI=1S/C7H10O2/c1-3-4-2-5(8)7(9)6(3)4/h3-6,8H,2H2,1H3	InChI=1S/C7H10O2/c1-3-4-2-5(8)7(9)6(3)4/h3-6,8H,2H2,1H3/t3-,4-,5+,6+/m0/s1
