19
gdb 2325	2.5983456	1.7044239	1.540829	1.5565	74.59	-0.23687	0.0629	0.29977	976.2554	0.156753	-422.500831	-422.492936	-422.491992	-422.532899	30.684	
C	-0.0205850347	-0.1505727547	 0.1770795705	-0.473498
C	 1.4598656636	 0.0732195978	 0.0314001507	 0.373412
C	 2.1299204889	 1.3920786782	 0.5100566089	-0.29736
C	 2.9637683743	 1.4142975445	-0.8022502068	-0.130056
C	 2.293053338	 1.9910895388	-2.0772569403	-0.109699
O	 1.8539201299	 0.6687985719	-2.5165363155	-0.326575
C	 2.285275894	 0.1179747764	-1.2915365893	 0.379608
C	 2.7655449253	-1.2759780547	-0.9562248646	-0.182882
O	 2.2537976558	-1.1023945962	 0.3940629046	-0.335466
H	-0.2869609263	-0.2630229475	 1.234376812	 0.127795
H	-0.5816785114	 0.6984503238	-0.2261923964	 0.120016
H	-0.335009213	-1.055798755	-0.3505235827	 0.126366
H	 1.4471633809	 2.2379026256	 0.6399400324	 0.097781
H	 2.7196487756	 1.2654762992	 1.4206242583	 0.114916
H	 4.0450784599	 1.5358087252	-0.7408500441	 0.080101
H	 1.443780147	 2.663624893	-1.9065680316	 0.106066
H	 2.9709665099	 2.4384736318	-2.8105418459	 0.114664
H	 2.2403359891	-2.0801880391	-1.4901758569	 0.108674
H	 3.8441598832	-1.467380219	-0.9747085233	 0.106138
112.3536	178.4833	199.5299	240.352	331.3384	347.8098	386.679	480.2649	523.8238	609.5213	697.0998	783.0044	810.912	837.1212	868.0448	897.7186	920.8554	964.8876	970.3796	991.1131	1025.8222	1067.392	1124.8997	1137.1404	1138.33	1161.145	1177.4454	1191.1101	1226.6406	1233.8244	1284.9534	1305.8123	1314.4767	1347.9513	1368.6161	1408.3072	1461.2961	1480.1109	1486.0876	1514.4815	1519.226	3005.1302	3026.2832	3031.3402	3050.1653	3065.8536	3081.6486	3098.5754	3108.0677	3113.3353	3119.3066
CC12CC3COC13CO2	C[C@]12C[C@@H]3CO[C@]13CO2	
InChI=1S/C7H10O2/c1-6-2-5-3-8-7(5,6)4-9-6/h5H,2-4H2,1H3	InChI=1S/C7H10O2/c1-6-2-5-3-8-7(5,6)4-9-6/h5H,2-4H2,1H3/t5-,6+,7+/m1/s1
