19
gdb 1868	2.7663247	1.4541935	1.2396761	1.2553	76.76	-0.22464	0.08115	0.30579	1093.4367	0.155328	-422.509229	-422.500512	-422.499568	-422.542075	33.547	
C	 0.1050283418	-0.7496795254	 0.227606	-0.500235
C	 1.5083350001	-0.2212933281	 0.2174694803	 0.255065
C	 2.7050137705	-1.0286765584	 0.6884749133	-0.379577
C	 2.7154510467	-0.5172200427	-0.7125612871	 0.318947
O	 2.8993216166	-1.3515052198	-1.7896340294	-0.455074
C	 3.0325160513	 0.9539047381	-0.7543853263	 0.364963
C	 4.2398284479	 1.6527462273	-1.1907822272	-0.274453
O	 3.0737856796	 1.5731422148	-2.0387327794	-0.292352
C	 1.8947188146	 1.2740017163	 0.2310251649	-0.377467
H	-0.3534144964	-0.6605650659	 1.2202702975	 0.120925
H	-0.5306407032	-0.2051613696	-0.4799965817	 0.118114
H	 0.0860236542	-1.8082226078	-0.0514211533	 0.126861
H	 3.3920413381	-0.6499148109	 1.4440407004	 0.1024
H	 2.5208186389	-2.0976684059	 0.7515285245	 0.121596
H	 2.740359571	-0.8129149235	-2.5766632795	 0.294488
H	 4.4605937011	 2.6495387503	-0.8122554691	 0.118639
H	 5.101566538	 1.0818489691	-1.5333202116	 0.120194
H	 2.181482929	 1.6960078422	 1.2002806071	 0.098775
H	 1.1475575103	 1.9192961598	-0.2392987536	 0.118192
103.5418	168.6419	194.718	204.7257	245.9101	335.8445	384.9944	412.1913	441.7585	481.2022	511.5606	572.871	650.5336	733.0202	781.6688	822.8345	852.8755	894.77	941.3665	961.429	992.8792	1025.2977	1060.0369	1089.5213	1112.037	1120.0147	1145.0801	1163.2781	1189.9256	1223.8435	1237.4928	1344.0022	1352.2766	1415.1395	1431.0931	1447.4747	1477.8156	1486.1447	1498.5421	1514.6359	1537.7832	3019.0553	3040.3473	3075.6689	3085.0053	3089.3629	3098.1739	3101.6538	3173.1645	3187.247	3760.9379
CC12CC1(O)C1(CO1)C2	C[C@@]12C[C@]1(O)[C@]1(CO1)C2	
InChI=1S/C7H10O2/c1-5-2-6(4-9-6)7(5,8)3-5/h8H,2-4H2,1H3	InChI=1S/C7H10O2/c1-5-2-6(4-9-6)7(5,8)3-5/h8H,2-4H2,1H3/t5-,6-,7-/m1/s1
