19
gdb 3488	3.0238395	1.4962063	1.2102711	2.9803	75.46	-0.23702	0.0044	0.24142	1064.487	0.159257	-422.577475	-422.569708	-422.568764	-422.610038	30.062	
O	 0.7324588479	 0.3895306064	 0.7626292936	-0.429539
C	-0.6889141073	 0.4918407645	 0.8354654413	 0.079919
C	-1.1825042698	 0.4803901309	 2.2606556249	-0.127491
C	-1.7150160641	 1.6500595465	 2.6165100831	-0.074338
C	-1.7754529403	 2.6466110922	 1.482197271	-0.098587
C	-3.2077260271	 3.0379637303	 1.0558100899	-0.22821
C	-3.5677555661	 1.9112878902	 0.0857221259	-0.076668
O	-2.3589773439	 1.6190609806	-0.605297315	-0.260231
C	-1.2468400932	 1.8285011245	 0.2639943353	 0.065952
H	 1.0971511983	 0.9727019064	 1.4375541095	 0.275018
H	-1.0656406876	-0.3393018352	 0.2315162406	 0.101249
H	-1.0436499225	-0.3768972595	 2.9105280001	 0.100762
H	-2.0912991063	 1.8894319238	 3.6066544461	 0.098778
H	-1.1776274812	 3.5376915248	 1.7014356878	 0.080506
H	-3.8995470287	 3.1177836437	 1.8987186365	 0.100614
H	-3.1942920819	 3.9979354085	 0.5307517881	 0.107736
H	-3.9341714514	 1.027011752	 0.629479382	 0.093666
H	-4.3190783006	 2.1918132786	-0.6577100263	 0.107503
H	-0.464023134	 2.3287166609	-0.3142282144	 0.08336
53.6041	164.8159	214.1217	289.9484	330.0431	367.7022	400.5388	549.2349	594.967	655.997	741.0324	784.2051	840.4717	856.1596	875.5541	914.9539	937.6745	957.4096	980.9961	991.8921	1029.4266	1048.4321	1066.268	1106.5145	1114.3506	1132.6525	1193.381	1222.2344	1230.8727	1260.0918	1283.1456	1295.1953	1313.3063	1330.3918	1352.8775	1380.5852	1394.0165	1420.0319	1485.102	1519.7818	1675.6231	2985.9142	3041.4577	3056.069	3066.396	3070.7965	3086.9255	3105.8166	3171.8331	3201.1192	3799.6827
OC1C=CC2CCOC12	O[C@H]1C=C[C@@H]2CCO[C@H]12	
InChI=1S/C7H10O2/c8-6-2-1-5-3-4-9-7(5)6/h1-2,5-8H,3-4H2	InChI=1S/C7H10O2/c8-6-2-1-5-3-4-9-7(5)6/h1-2,5-8H,3-4H2/t5-,6+,7+/m1/s1
