19
gdb 1004	3.9676257	0.667399	0.637946	3.238	82.02	-0.23782	-0.00925	0.22857	1817.2851	0.152383	-422.549698	-422.538311	-422.537367	-422.588777	38.035	
C	 1.5028470624	 0.1883681246	 0.0218157978	-0.50047
C	 0.0575700197	 0.0180329552	 0.0436370178	 0.134915
C	-1.1374152587	-0.1336264396	 0.0492200294	 0.018979
C	-2.5946835075	-0.2655142913	 0.0820033672	-0.079512
O	-3.2430132951	 0.6780346294	-0.7712971691	-0.417194
C	-3.1287692703	-0.1641530275	 1.5268092495	-0.312017
C	-4.6549863273	-0.1355388899	 1.6138610086	 0.393342
C	-5.4201744376	-1.1852604832	 0.8302668301	-0.486277
O	-5.2164065312	 0.689642531	 2.2954130125	-0.296986
H	 1.9122329205	 0.2534657763	 1.0357203314	 0.152127
H	 1.9938218879	-0.6498535698	-0.484258092	 0.153472
H	 1.7824013974	 1.1051508726	-0.5086273905	 0.153949
H	-2.8762991525	-1.2398397324	-0.3342883893	 0.118593
H	-2.9270470661	 1.5557826427	-0.5278867997	 0.288326
H	-2.7586960466	-1.0236678711	 2.1013819825	 0.126211
H	-2.7510918847	 0.7414881209	 2.0094223952	 0.12158
H	-4.9885117786	-2.1829478762	 0.965350665	 0.127557
H	-6.465260164	-1.1836196739	 1.1416875828	 0.138001
H	-5.3616134977	-0.9426240577	-0.2364793491	 0.165402
16.0727	54.6686	60.0113	79.0587	147.632	152.3416	189.6403	280.2141	286.0552	345.271	364.9714	418.4572	460.8231	539.7817	550.7048	571.6405	774.703	800.1672	854.5399	939.7578	1005.0086	1051.1657	1051.6382	1056.4101	1082.4456	1157.2731	1175.0016	1238.4786	1271.6053	1297.587	1361.0986	1377.3866	1413.2899	1420.9913	1459.0979	1467.3774	1476.0215	1477.8326	1480.1199	1816.3307	2367.0309	3029.8784	3032.2824	3037.6707	3044.6035	3092.1377	3092.559	3102.7144	3104.039	3151.6001	3802.0883
CC#CC(O)CC(C)=O	CC#C[C@H](O)CC(=O)C	
InChI=1S/C7H10O2/c1-3-4-7(9)5-6(2)8/h7,9H,5H2,1-2H3	InChI=1S/C7H10O2/c1-3-4-7(9)5-6(2)8/h7,9H,5H2,1-2H3/t7-/m0/s1
