19
gdb 2169	3.0458895	1.7058001	1.5945599	1.0282	73.33	-0.24189	0.08463	0.32652	938.2261	0.159039	-422.552645	-422.545604	-422.54466	-422.583613	28.852	
C	-0.1447854043	-0.0219228421	-0.0484788954	-0.511036
C	 1.3540009343	-0.0861203153	-0.0735335039	 0.383665
C	 2.1052392588	-1.2003514374	 0.6896903991	-0.246867
C	 3.5420196637	-0.7955773632	 0.2487088447	-0.095646
C	 3.8444234373	-1.5317533441	-1.0576039063	-0.08595
O	 2.7890713816	-1.100803917	-1.9453387932	-0.278437
C	 2.2471521841	 0.0608471404	-1.3680663131	 0.063756
C	 3.1756722105	 0.6330605469	-0.2892237139	 0.05613
O	 2.0357910311	 1.1018641218	 0.456157078	-0.331762
H	-0.5148838457	 0.0226834139	 0.981418981	 0.128468
H	-0.5060949732	 0.8616996596	-0.5821702356	 0.12766
H	-0.5670601786	-0.9127626697	-0.5244064789	 0.128612
H	 1.9362151204	-1.094666516	 1.7635608217	 0.105285
H	 1.8338610303	-2.2116853476	 0.3754538768	 0.102272
H	 4.3208785257	-0.8588812431	 1.0074599532	 0.074697
H	 4.8210643068	-1.258007019	-1.4837529937	 0.095614
H	 3.8011945132	-2.6210937844	-0.9619959088	 0.110666
H	 1.8518463497	 0.7366664442	-2.1256147803	 0.089528
H	 3.9610982943	 1.3708905221	-0.4458691914	 0.083346
190.6186	214.2044	246.1199	303.7756	395.6742	457.1189	519.501	563.7027	642.9015	710.3508	779.7871	817.4026	839.9687	869.9122	873.8997	908.693	930.9086	950.1967	970.1689	994.9274	1016.8433	1051.3898	1088.5727	1121.1576	1136.3737	1161.8511	1195.7558	1204.5282	1214.9036	1244.3196	1272.4211	1277.2423	1313.2456	1317.5458	1363.1633	1392.8293	1414.2099	1477.6965	1482.6543	1492.9804	1524.2261	2994.4493	3035.8978	3064.4113	3075.5034	3104.8053	3115.2706	3117.5707	3125.2372	3128.0277	3139.3546
CC12CC3COC1C3O2	C[C@@]12C[C@H]3CO[C@@H]1[C@H]3O2	
InChI=1S/C7H10O2/c1-7-2-4-3-8-6(7)5(4)9-7/h4-6H,2-3H2,1H3	InChI=1S/C7H10O2/c1-7-2-4-3-8-6(7)5(4)9-7/h4-6H,2-3H2,1H3/t4-,5-,6+,7+/m0/s1
