19
gdb 2766	3.1104798	1.3612187	1.0861109	0.8682	76.07	-0.24932	0.06986	0.31918	1143.2738	0.155611	-422.472972	-422.464136	-422.463192	-422.5077	32.92	
C	-0.1823191742	 0.0406188588	 0.0662240708	-0.477685
C	 1.3407716669	 0.0336667408	 0.1791407755	 0.048548
C	 2.1381698728	-0.2096884583	 1.5236586393	-0.251446
C	 1.8456565627	 1.2607755503	 1.948977832	 0.186844
O	 0.6046155407	 1.6367948208	 2.4861422213	-0.455713
C	 2.1669582513	 1.3524366301	 0.4086203124	-0.229858
C	 3.3220547599	 0.408678592	 0.7642377711	 0.560366
C	 4.7542372929	 0.5269827454	 0.9817684535	-0.320375
O	 4.196164287	-0.2417842609	-0.1176217077	-0.303426
H	-0.6616793032	 0.8561123751	 0.6089752181	 0.129352
H	-0.4660837871	 0.1546502281	-0.9854855754	 0.125392
H	-0.6071201295	-0.9109367325	 0.4074355705	 0.11798
H	 1.7490965776	-0.5772437326	-0.6312767054	 0.095979
H	 2.142101429	-1.1003000556	 2.1544163216	 0.076599
H	 2.6109841716	 1.7234865278	 2.5804948536	 0.083167
H	-0.0045459647	 0.8979077593	 2.428222468	 0.291326
H	 2.1979798455	 2.2426958716	-0.2190820122	 0.080331
H	 5.2833103712	 1.4310266533	 0.6845491076	 0.121904
H	 5.2458219497	-0.0665174536	 1.7510220353	 0.120715
13.6349	148.0932	167.4525	210.9964	262.3629	312.1107	332.3009	394.1287	463.4242	479.9586	578.3202	705.1962	711.5763	790.4554	797.5674	877.0799	886.9195	901.7316	991.9938	1011.9669	1058.2614	1070.3602	1092.9779	1107.5694	1112.6181	1119.7892	1122.6513	1128.881	1174.9008	1194.2392	1214.6728	1237.4484	1275.3366	1310.9847	1406.9515	1424.3797	1450.7656	1471.1013	1495.8391	1523.1386	1560.331	3033.0497	3054.9454	3061.9877	3086.4059	3088.1698	3103.2851	3122.7977	3134.704	3172.4966	3868.8527
CC1C2C(O)C1C21CO1	C[C@@H]1[C@@H]2[C@H](O)[C@H]1[C@]12CO1	
InChI=1S/C7H10O2/c1-3-4-6(8)5(3)7(4)2-9-7/h3-6,8H,2H2,1H3	InChI=1S/C7H10O2/c1-3-4-6(8)5(3)7(4)2-9-7/h3-6,8H,2H2,1H3/t3-,4-,5+,6+,7-
