19
gdb 3167	2.2882078	2.0409154	1.2719494	0.7977	73.68	-0.24762	0.07063	0.31825000000000003	1015.1142	0.158298	-422.533674	-422.526038	-422.525094	-422.5658	29.49	
C	-0.0173770579	-0.0231021145	-0.158269302	-0.404325
C	 1.5041031141	 0.0274644918	 0.0063496711	-0.035222
C	 2.066265358	 1.442344543	 0.1075445239	 0.03864
O	 3.4953065981	 1.4794604519	-0.0281381213	-0.265715
C	 2.9392126571	 1.5881179311	 1.2839862065	 0.029048
C	 2.9954797622	 0.2854798369	 2.0474982803	-0.1176
C	 1.9969391345	 0.1744718633	 3.2133348259	-0.087609
O	 1.0616187337	-0.5599441155	 2.3987379725	-0.287805
C	 2.0058620329	-0.6556980988	 1.3014243252	 0.119044
H	-0.518519615	 0.4416619237	 0.6934281597	 0.134053
H	-0.3226602364	 0.4939379979	-1.0734756996	 0.111461
H	-0.3685944582	-1.0572994134	-0.2229546755	 0.121021
H	 1.9782722501	-0.4593135717	-0.8544748362	 0.087955
H	 1.5376781076	 2.2814184843	-0.3403035454	 0.093013
H	 3.1044596956	 2.5375203754	 1.7905029796	 0.095726
H	 4.0144068175	-0.0591453075	 2.229702387	 0.090097
H	 2.3507530722	-0.4218678574	 4.0638408578	 0.101786
H	 1.5711156946	 1.1134314785	 3.5893470054	 0.101219
H	 2.3144621594	-1.695516709	 1.147621955	 0.075213
87.4394	187.6371	216.3204	253.5056	279.7152	378.9029	412.2389	531.5363	638.0946	713.0182	805.982	844.9953	853.9718	882.3968	887.9188	902.4442	934.1937	976.0613	1015.2182	1033.0724	1051.7152	1065.2725	1096.4094	1114.9511	1138.5276	1163.2983	1169.6491	1212.7597	1251.9988	1253.428	1294.3231	1300.3328	1329.9334	1341.7331	1364.7358	1374.828	1410.1166	1429.0864	1493.4667	1502.6845	1526.9043	3009.6242	3031.1968	3043.1774	3049.3478	3051.1582	3103.3656	3107.5094	3125.2855	3132.7537	3139.9628
CC1C2OC2C2COC12	C[C@H]1[C@@H]2O[C@@H]2[C@H]2CO[C@@H]12	
InChI=1S/C7H10O2/c1-3-5-4(2-8-5)7-6(3)9-7/h3-7H,2H2,1H3	InChI=1S/C7H10O2/c1-3-5-4(2-8-5)7-6(3)9-7/h3-7H,2H2,1H3/t3-,4+,5+,6+,7-/m1/s1
