19
gdb 5504	2.5486469	1.4738929	1.1220411	2.7979	75.08	-0.23033	-0.0188	0.21153	1147.2815	0.157284	-422.553625	-422.54541	-422.544466	-422.586623	31.021	
C	 1.346118098	 1.1047615517	 0.5265172567	-0.391489
C	 0.9402023252	-0.2892578246	 0.0395808517	-0.194665
C	 1.7429098308	-0.7714417074	-1.1729270312	-0.104042
C	 1.3288949012	-0.1752307831	-2.5370715737	 0.065589
C	 2.0028927827	-1.0893480575	-3.5858563954	-0.251855
C	 0.9315196544	-2.043685422	-3.0057189315	-0.036716
O	 0.0632865162	-0.8798824137	-2.7969301553	-0.297315
C	 1.4287483858	-2.2387850559	-1.564117901	 0.438692
O	 1.5142584392	-3.235792572	-0.9034763831	-0.334215
H	 0.7518144101	 1.4033299613	 1.3954194544	 0.119536
H	 2.4016247866	 1.1311454918	 0.8194779778	 0.115885
H	 1.198241991	 1.8646264551	-0.2485321838	 0.115025
H	 1.0754990067	-1.0200821267	 0.8450557161	 0.117668
H	-0.1238561326	-0.3069466735	-0.2213507659	 0.117166
H	 2.8178729427	-0.6651376359	-0.9797628592	 0.092923
H	 1.2604478709	 0.9063897145	-2.6460876983	 0.091811
H	 1.7625124045	-0.7960885673	-4.6082795789	 0.123885
H	 3.0611774845	-1.3402952311	-3.4747651784	 0.110521
H	 0.4787495321	-2.8800919135	-3.5335057909	 0.101595
87.0201	128.4531	158.0098	206.4671	276.6908	306.3359	439.1966	487.0058	545.4856	642.7153	671.7686	765.5539	822.3744	833.9255	864.5007	870.6535	890.1351	915.7468	961.4233	1005.1704	1024.4769	1059.4987	1061.6153	1100.855	1136.7376	1156.5874	1187.3774	1214.6127	1230.2505	1262.3822	1267.1295	1293.0122	1312.9356	1344.5136	1374.1165	1413.3384	1484.2498	1491.979	1499.9622	1505.2517	1879.5205	3030.391	3032.8198	3041.4925	3067.5307	3074.1538	3100.7586	3104.8323	3130.2388	3144.3307	3157.1554
CCC1C2CC(O2)C1=O	CC[C@@H]1[C@H]2C[C@H](O2)C1=O	
InChI=1S/C7H10O2/c1-2-4-5-3-6(9-5)7(4)8/h4-6H,2-3H2,1H3	InChI=1S/C7H10O2/c1-2-4-5-3-6(9-5)7(4)8/h4-6H,2-3H2,1H3/t4-,5-,6+/m1/s1
