19
gdb 4425	3.0010051	1.3967447	1.2272531	3.4749	74.6	-0.23532	0.06796	0.30328	1092.9167	0.156038	-422.496387	-422.488111	-422.487167	-422.529689	31.152	
C	 1.9171428582	 1.4218016666	-0.7094428163	-0.411063
C	 1.6889626092	 0.0617137348	-0.0638098035	-0.120075
C	 2.8233467841	-0.5123519627	 0.8128501854	-0.086075
O	 2.9058388598	-1.7021857746	 0.0024223735	-0.311652
C	 1.9079647717	-1.223378396	-0.905571401	 0.44254
C	 0.6956014845	-2.1498140034	-1.2723470072	-0.338371
C	 1.0787028123	-1.9692322366	-2.745251446	 0.032162
O	 2.4037266578	-2.4843690146	-2.8782458079	-0.240519
C	 2.2504234541	-1.1414432687	-2.4017659676	-0.049815
H	 1.8829101588	 2.2152357555	 0.0446946292	 0.121024
H	 2.8955357845	 1.4740856457	-1.1985134514	 0.122769
H	 1.1513917746	 1.6456419906	-1.4596194185	 0.121311
H	 0.7203774899	 0.0451136896	 0.4441792627	 0.083002
H	 3.7578818826	 0.0637573997	 0.788846444	 0.099063
H	 2.5725022635	-0.7411791466	 1.8550658253	 0.10299
H	 0.7646966821	-3.1768764661	-0.9083122099	 0.122361
H	-0.2648603826	-1.7101956185	-0.9896415207	 0.103761
H	 0.4513088597	-1.9535974925	-3.6280619932	 0.105718
H	 2.7635298153	-0.3632017722	-2.9548989768	 0.100868
48.0511	119.3237	188.1016	229.7201	260.73	353.9048	405.8497	466.9199	472.9664	581.1975	745.7445	794.4443	828.0098	859.1267	890.6334	901.3363	915.2242	947.4016	958.5133	996.24	1025.2016	1038.4478	1079.3247	1099.5006	1130.2665	1152.7265	1162.9411	1187.754	1193.7059	1221.3291	1248.7447	1278.5858	1300.7037	1342.3158	1373.9267	1384.1052	1412.4895	1459.4296	1496.2982	1499.1335	1527.6903	3009.7145	3030.6938	3050.7392	3062.6706	3067.2152	3098.1957	3102.7504	3127.756	3180.409	3199.5151
CC1COC11CC2OC12	C[C@@H]1CO[C@]21C[C@@H]1O[C@H]21	
InChI=1S/C7H10O2/c1-4-3-8-7(4)2-5-6(7)9-5/h4-6H,2-3H2,1H3	InChI=1S/C7H10O2/c1-4-3-8-7(4)2-5-6(7)9-5/h4-6H,2-3H2,1H3/t4-,5+,6+,7+/m1/s1
