19
gdb 1975	2.8578575	1.5443615	1.3332859	1.0288	73.82	-0.25094	0.08058	0.33152	1021.1756	0.158349	-422.54588	-422.538245	-422.537301	-422.577419	30.948	
O	 0.3819603657	-0.0389414941	 0.6268597358	-0.476104
C	-0.9975934825	 0.216390214	 0.6130304214	 0.432614
C	-1.5503117406	 0.565710908	 1.9585133747	-0.333376
C	-1.8903112706	-0.7776596835	 1.3166259427	-0.134017
C	-3.2627382435	-0.9956275538	 0.776852695	 0.050211
O	-3.3669579971	-1.3828261491	-0.6107096997	-0.270953
C	-3.8127650263	-0.0785736522	-0.2305758741	 0.058963
C	-3.0052246413	 1.1058811244	-0.7185139389	-0.268275
C	-1.4897322217	 0.8624983082	-0.6709955838	-0.275456
H	 0.5638752605	-0.6950629611	-0.0559214115	 0.279933
H	-0.8453113342	 0.5547188058	 2.7812592229	 0.124508
H	-2.3358181189	 1.3089838385	 2.0381804747	 0.112929
H	-1.3956373424	-1.6462155282	 1.7410487874	 0.091151
H	-3.9598428025	-1.5257489097	 1.4262439903	 0.089155
H	-4.895713937	 0.0501486163	-0.271115271	 0.086211
H	-3.3016696512	 1.3547548368	-1.7441135273	 0.110634
H	-3.2776740527	 1.9743485188	-0.1049932901	 0.109735
H	-1.2163440211	 0.196038106	-1.4987696787	 0.105835
H	-0.9512169027	 1.803281145	-0.8301461	 0.106303
154.9388	196.27	293.4737	325.3139	351.5104	377.6023	394.5353	441.7123	521.1969	586.789	666.4179	700.1172	763.9021	789.8249	889.4353	896.379	912.2161	915.1323	953.8365	998.1823	1004.6852	1058.8366	1065.5956	1082.0304	1100.4678	1119.0152	1157.6977	1214.0982	1217.4591	1265.4551	1273.5649	1291.9337	1341.252	1365.0699	1381.2326	1391.8576	1425.5255	1473.7936	1479.786	1491.5757	1507.4903	3026.1987	3027.117	3061.1682	3072.5032	3091.4203	3107.2759	3139.9021	3154.8029	3230.9778	3788.4108
OC12CC1C1OC1CC2	O[C@]12C[C@H]1[C@@H]1O[C@@H]1CC2	
InChI=1S/C7H10O2/c8-7-2-1-5-6(9-5)4(7)3-7/h4-6,8H,1-3H2	InChI=1S/C7H10O2/c8-7-2-1-5-6(9-5)4(7)3-7/h4-6,8H,1-3H2/t4-,5+,6-,7+/m0/s1
