19
gdb 5431	3.2607142	1.0786048	0.9218455	4.3583	77.69	-0.235	-0.00399	0.23101	1311.3601	0.154813	-422.547242	-422.537941	-422.536997	-422.581269	34.409	
C	 2.1176267149	-1.1853744015	 1.2305413166	-0.384897
C	 1.8797357076	-0.2323351297	 0.050942773	-0.241902
C	 2.1327867524	-0.8979151005	-1.2907791942	-0.067819
C	 1.4815589964	-0.214755389	-2.5148260273	-0.295891
C	 1.8990211025	-0.9131455928	-3.7623460526	 0.430597
O	 2.2517549447	-0.5387562166	-4.8464282607	-0.323786
C	 1.4965698933	-2.3150782622	-3.2241940392	-0.416944
C	 1.0208953471	-1.6173353353	-1.9515564262	 0.420052
O	-0.1606532189	-2.0139245612	-1.3726671063	-0.450654
H	 1.4617617058	-2.0613569851	 1.1791069945	 0.119209
H	 3.149067565	-1.5522933599	 1.2333095005	 0.128023
H	 1.9381699314	-0.6835214112	 2.1857674424	 0.122568
H	 0.8559924073	 0.1658211435	 0.0868747626	 0.095577
H	 2.5336542858	 0.6422804882	 0.1451658156	 0.117615
H	 3.1476182727	-1.2844602859	-1.3951160874	 0.091222
H	 1.0809243554	 0.7884173702	-2.4252969314	 0.105148
H	 0.6653570192	-2.7103274819	-3.8154923396	 0.139951
H	 2.2713057443	-3.0811105849	-3.1218313226	 0.115992
H	-0.2392446669	-1.6204853043	-0.4973414179	 0.295938
79.3826	123.5121	144.7967	185.4019	215.1122	266.7776	325.01	350.5409	403.1317	474.3522	527.7809	549.7079	632.9907	689.9586	722.2966	812.1491	836.9201	880.9421	940.7105	976.5134	1013.2265	1042.2414	1064.7497	1078.8221	1101.1146	1131.4018	1145.4903	1170.8413	1212.168	1221.5704	1278.3306	1321.2362	1361.9338	1401.361	1415.7482	1440.9348	1469.8191	1493.5818	1500.0298	1510.4295	1875.9848	3011.1931	3035.097	3053.1846	3055.0674	3085.7121	3102.9713	3111.9663	3112.6323	3185.7986	3819.1568
CCC1C2C(=O)CC12O	CC[C@@H]1[C@H]2C(=O)C[C@@]12O	
InChI=1S/C7H10O2/c1-2-4-6-5(8)3-7(4,6)9/h4,6,9H,2-3H2,1H3	InChI=1S/C7H10O2/c1-2-4-6-5(8)3-7(4,6)9/h4,6,9H,2-3H2,1H3/t4-,6+,7-/m1/s1
