19
gdb 999	2.28828	0.8969684	0.673679	1.92	81.16	-0.23723	0.03843	0.27566	1672.7563	0.153154	-422.506368	-422.495247	-422.494303	-422.544844	37.738	
C	 1.5310314313	-0.1785739563	-0.0390146524	-0.498596
C	 0.0782835804	-0.088983789	-0.0277883324	 0.058775
C	-1.1233778635	-0.0052186165	-0.0358795231	 0.076734
C	-2.5877710985	 0.0584558949	 0.0019511101	-0.089264
O	-3.1760070563	-1.238207641	-0.1208919977	-0.413465
C	-3.0745800886	 0.7965233503	 1.2385710971	-0.053863
C	-4.4987282799	 1.3251401448	 1.2874683919	-0.345512
C	-3.3403307157	 2.2778966443	 1.2003102753	 0.149682
O	-2.9815428221	 3.1340123479	 2.244025092	-0.427057
H	 1.9529735665	 0.0244035628	 0.9513414247	 0.149074
H	 1.8640912994	-1.1763228375	-0.3453637596	 0.150375
H	 1.9648370973	 0.5438023967	-0.7390770581	 0.152775
H	-2.9490845992	 0.5993651113	-0.8825506612	 0.1073
H	-2.7519354457	-1.8064417898	 0.5315326884	 0.279961
H	-2.6698798699	 0.4142508673	 2.1734900539	 0.080162
H	-5.1320407092	 1.1817317088	 0.4178794041	 0.124045
H	-5.0262385497	 1.2493829299	 2.2338291925	 0.105953
H	-3.1781506766	 2.785776866	 0.2545439272	 0.10996
H	-3.2286524597	 2.7233708251	 3.0784499674	 0.282961
18.2191	46.5842	79.4836	122.5183	139.7438	165.4604	236.9724	264.3511	305.3358	334.7584	365.0682	411.5514	464.3105	523.0358	567.5469	770.3855	812.8904	877.8319	928.7208	944.9549	1013.6728	1049.145	1051.3873	1054.9028	1074.7012	1101.6337	1108.5539	1147.534	1171.1043	1235.7867	1249.8745	1281.9582	1330.8835	1396.0921	1413.1194	1418.1444	1443.9557	1476.7879	1478.3442	1492.0507	2366.7284	3023.2529	3028.455	3089.7732	3090.4721	3122.1477	3130.6195	3162.3403	3208.1307	3807.314	3824.2096
CC#CC(O)C1CC1O	CC#C[C@@H](O)[C@@H]1C[C@H]1O	
InChI=1S/C7H10O2/c1-2-3-6(8)5-4-7(5)9/h5-9H,4H2,1H3	InChI=1S/C7H10O2/c1-2-3-6(8)5-4-7(5)9/h5-9H,4H2,1H3/t5-,6+,7+/m0/s1
