19
gdb 5000	4.5431084	0.9503132	0.9249143	2.7364	77.41	-0.2471	-0.03911	0.20798999999999998	1333.8739	0.154185	-422.50808	-422.498838	-422.497894	-422.543039	33.307	
C	 3.0465974222	 2.8819182398	-1.8787517976	-0.383276
C	 3.5018660605	 2.5497341172	-3.303873831	-0.314752
C	 3.3438077123	 1.0982371067	-3.6449843903	 0.420655
C	 3.8015111098	 0.3221730694	-4.9091295803	-0.300159
C	 3.3542496916	-0.6900481508	-3.8140318615	 0.315527
C	 2.0970123514	 0.1717232786	-3.5485808621	-0.29244
O	 4.0975607746	 0.1017566717	-2.8150544146	-0.376757
C	 3.5261130342	-2.1741964688	-3.8012115875	 0.035798
O	 2.7979895857	-2.9326899914	-4.3886035373	-0.249341
H	 3.5938948936	 2.2781543665	-1.1499757196	 0.141301
H	 3.2206593743	 3.937332996	-1.6519313827	 0.116515
H	 1.9785097682	 2.6818221639	-1.7469406631	 0.120422
H	 2.9331705614	 3.1349816144	-4.0373457541	 0.109576
H	 4.55704022	 2.8173726631	-3.4373446774	 0.115351
H	 3.1937296227	 0.3929310108	-5.8136126752	 0.109145
H	 4.874788264	 0.3413252136	-5.1022185595	 0.112725
H	 1.345098627	 0.2331031392	-4.3376017615	 0.10874
H	 1.6702456865	 0.0586406872	-2.5518185924	 0.114311
H	 4.4008825001	-2.522432017	-3.2086049723	 0.09666
33.996	82.0294	136.7098	147.2008	212.3377	250.5583	325.8913	409.5022	454.6175	524.4756	591.7788	632.5086	678.6344	735.7	773.6565	807.8884	930.0384	941.91	974.8066	981.2951	991.6027	1041.263	1075.8832	1095.4692	1110.8359	1142.117	1156.3439	1162.9753	1180.5375	1247.8047	1298.4915	1337.4183	1392.9164	1405.3485	1411.9231	1465.109	1470.611	1497.2159	1507.2624	1518.2933	1824.2993	2892.8246	3029.0445	3043.4646	3065.1793	3068.0644	3077.3027	3111.8099	3124.5421	3152.3356	3158.521	33.9962	82.0292	136.7098	147.2008	212.3378	250.5582	325.8913	409.5022	454.6174	524.4756	591.7788	632.5086	678.6344	735.7	773.6565	807.8884	930.0384	941.91	974.8066	981.2951	991.6027	1041.2631	1075.8833	1095.4693	1110.8359	1142.1171	1156.344	1162.9754	1180.5376	1247.8047	1298.4916	1337.4184	1392.9164	1405.3484	1411.9231	1465.1091	1470.6112	1497.2159	1507.2625	1518.2934	1824.2993	2892.8246	3029.0445	3043.4645	3065.1793	3068.0644	3077.3027	3111.8099	3124.5421	3152.3356	3158.521
CCC12CC(C1)(O2)C=O	CC[C@]12C[C@](C1)(O2)C=O	
InChI=1S/C7H10O2/c1-2-6-3-7(4-6,5-8)9-6/h5H,2-4H2,1H3	InChI=1S/C7H10O2/c1-2-6-3-7(4-6,5-8)9-6/h5H,2-4H2,1H3/t6-,7+
