19
gdb 2774	2.25854	1.4035406	1.0630444	2.2443	77.99	-0.24365	-0.02557	0.21808	1197.9167	0.155365	-422.543031	-422.533927	-422.532982	-422.576696	33.751	
C	 2.1411861023	 1.6551770031	 0.6098801537	-0.413033
C	 1.6559260452	 0.2780651811	 0.1777919558	 0.038024
C	 2.4592023997	-0.3530639543	-1.0073560926	-0.325882
C	 2.9447650266	-1.4807580181	-0.0915534401	 0.184427
C	 4.2915500869	-2.0561000871	-0.0156516198	 0.042077
O	 4.6595109088	-2.8415411727	 0.8314711408	-0.28127
C	 1.7620608982	-2.1889363112	 0.561934493	 0.059272
O	 0.5552468093	-2.3487124264	-0.1152198201	-0.415485
C	 2.1139918243	-0.8658701057	 1.0985639111	-0.127347
H	 1.6542828425	 1.972593952	 1.5384662669	 0.118853
H	 3.2235402405	 1.658043555	 0.7832085353	 0.116319
H	 1.9211682742	 2.4044921669	-0.1577526522	 0.118356
H	 0.5742451314	 0.2881021539	 0.0189335721	 0.093235
H	 1.8733002095	-0.6672666427	-1.8750374135	 0.099789
H	 3.2739757277	 0.2952812203	-1.3419088356	 0.105638
H	 4.9885717688	-1.7083179819	-0.8132564637	 0.065565
H	 2.0813865034	-3.0321193491	 1.1729849338	 0.120176
H	 0.6417768419	-3.1008644034	-0.7105343023	 0.292821
H	 2.4704737188	-0.7437964195	 2.1157122174	 0.108466
87.2978	136.6815	189.006	207.5732	221.7602	257.1215	305.0936	332.7787	377.9943	445.1038	531.1978	600.0304	693.5122	720.1456	779.3059	864.6495	885.0503	906.4843	959.6253	986.0526	1022.8588	1057.5765	1072.7536	1090.8033	1129.4626	1159.2511	1191.5769	1226.6476	1242.059	1250.9222	1273.9289	1314.0354	1317.1742	1369.3394	1413.2976	1431.447	1470.8	1489.174	1494.593	1500.0967	1783.9952	2858.4812	3025.4083	3053.2125	3066.6944	3094.0006	3099.2669	3107.1311	3128.4481	3176.7754	3809.9341
CC1CC2(C=O)C(O)C12	C[C@H]1C[C@]2(C=O)[C@H](O)[C@H]12	
InChI=1S/C7H10O2/c1-4-2-7(3-8)5(4)6(7)9/h3-6,9H,2H2,1H3	InChI=1S/C7H10O2/c1-4-2-7(3-8)5(4)6(7)9/h3-6,9H,2H2,1H3/t4-,5-,6+,7+/m0/s1
