19
gdb 4141	3.0002716	1.6348838	1.3470734	1.0185	74.12	-0.2509	0.06125	0.31215000000000004	990.6127	0.158816	-422.497142	-422.489957	-422.489012	-422.528233	29.624	
O	 0.4291794401	-0.1125126323	 0.296068903	-0.436432
C	-0.7985436324	 0.4122538872	 0.7544710479	 0.03622
C	-2.0613399511	 0.0872764291	-0.1690923685	-0.257803
C	-2.5840654256	 1.5198989895	-0.5264692894	-0.082768
C	-1.2468951465	 2.2346404911	-0.7989321138	-0.275964
C	-0.9947250092	 1.9191396393	 0.7270869533	 0.260209
C	-0.8780114941	 3.1902549422	 1.5681164853	-0.204968
O	-2.2773764047	 3.4914630694	 1.2569821283	-0.312944
C	-2.5135953147	 2.0948210423	 0.907617921	 0.135902
H	 0.6253042944	 0.2799746274	-0.5610993366	 0.277825
H	-0.9249044516	-0.0030440699	 1.7575486089	 0.09402
H	-1.7458432611	-0.462780755	-1.0602234422	 0.104378
H	-2.8069442353	-0.5168622287	 0.3562020577	 0.106263
H	-3.4455786806	 1.5720735151	-1.1950835934	 0.066164
H	-0.5755914174	 1.7879848803	-1.5394202378	 0.07509
H	-1.3461920028	 3.3027943594	-0.9814909127	 0.124079
H	-0.7441323235	 3.0221699099	 2.6448287564	 0.107472
H	-0.2030886002	 3.97972041	 1.2237755553	 0.110091
H	-3.0853747036	 1.5912934238	 1.6953368774	 0.073166
183.0702	244.1932	294.3515	312.1439	331.1471	448.2397	451.1203	496.2986	585.6931	698.9614	740.4225	797.4804	850.2074	866.8977	890.151	900.5504	935.0939	943.4721	968.4545	1011.7412	1022.0419	1056.8392	1075.731	1084.8987	1095.741	1138.5161	1154.6774	1176.8319	1217.928	1235.3425	1255.9472	1266.2222	1285.9198	1300.5026	1308.1434	1336.0567	1359.8085	1441.6082	1479.8286	1499.9949	1512.0112	3014.76	3042.4164	3049.6507	3054.6028	3080.687	3084.8546	3093.7345	3106.5394	3152.3996	3811.1165
OC1CC2CC11COC21	O[C@@H]1C[C@@H]2C[C@@]31CO[C@@H]23	
InChI=1S/C7H10O2/c8-5-1-4-2-7(5)3-9-6(4)7/h4-6,8H,1-3H2	InChI=1S/C7H10O2/c8-5-1-4-2-7(5)3-9-6(4)7/h4-6,8H,1-3H2/t4-,5-,6+,7+/m1/s1
