19
gdb 2437	2.7035416	1.9848032	1.5110052	1.3293	73.29	-0.2312	0.07799	0.30918999999999996	926.945	0.159968	-422.560686	-422.553761	-422.552817	-422.591446	28.878	
O	 0.1611571143	 0.1787302013	 0.168456147	-0.502438
C	-0.830709832	 0.6904977693	 0.9902977989	 0.450359
C	-1.022868122	 2.1998306499	 0.9554888032	-0.277138
C	-2.1551707919	 2.3242552178	 2.0206086162	-0.241746
C	-2.3391006901	 0.8453238177	 2.3898441546	-0.04794
C	-2.2942441258	 0.077136206	 1.0307298846	-0.132199
C	-2.0239435738	-1.3610174809	 1.4477788146	-0.121625
O	-0.9976824584	-1.1557649259	 2.4515526782	-0.299351
C	-0.9017899105	 0.2721439261	 2.4876406862	 0.041697
H	 0.407835545	-0.6819903694	 0.5311613531	 0.290697
H	-0.1067618914	 2.7281241448	 1.2348456967	 0.104589
H	-1.3215301675	 2.5516890632	-0.0358697524	 0.106517
H	-1.8558026554	 2.9300524023	 2.8809724673	 0.102238
H	-3.0713001088	 2.7603560873	 1.6126495588	 0.103426
H	-3.0802183335	 0.5852940011	 3.1454522797	 0.069997
H	-3.0182620296	 0.26294268	 0.2369258465	 0.069719
H	-2.8876319861	-1.8669440454	 1.8944795137	 0.104588
H	-1.6320326392	-1.9837004186	 0.6339827961	 0.099739
H	-0.1716869531	 0.5785498535	 3.2371532671	 0.078873
227.4708	244.3641	276.1083	316.1973	417.1614	426.7501	472.6646	612.8085	657.9414	667.8204	743.7816	767.0155	828.3694	914.4524	918.616	938.5754	945.9329	967.693	985.1782	993.5095	1015.1578	1064.0888	1077.502	1083.2572	1100.2252	1159.8037	1179.6107	1191.4478	1227.1614	1237.759	1254.6553	1259.8781	1275.956	1294.4876	1320.5433	1344.1291	1390.2761	1411.0354	1495.5827	1517.6473	1527.7821	3020.3577	3050.4805	3059.1874	3060.2385	3085.6815	3104.9939	3114.2523	3117.67	3127.594	3767.5597
OC12CCC3C1COC23	O[C@@]12CC[C@H]3[C@@H]1CO[C@@H]23	
InChI=1S/C7H10O2/c8-7-2-1-4-5(7)3-9-6(4)7/h4-6,8H,1-3H2	InChI=1S/C7H10O2/c8-7-2-1-4-5(7)3-9-6(4)7/h4-6,8H,1-3H2/t4-,5-,6+,7-/m0/s1
