19
gdb 762	2.4604669	1.7386654	1.1610917	2.593	76.27	-0.2307	-0.019	0.2117	1084.1719	0.157473	-422.5674	-422.559278	-422.558333	-422.600168	31.314	
O	 0.9085593954	 0.0488340012	-0.7470129831	-0.326423
C	-0.1841274133	 0.057866354	-0.2223274868	 0.326439
C	-0.8737385885	 1.3614578824	 0.1698986125	-0.314341
C	-1.9899631117	 1.1953822872	 1.2105931534	-0.215449
C	-2.8155742953	-0.0470516328	 0.8907387459	-0.089869
O	-1.9883008649	-1.2026102285	 0.932948115	-0.297776
C	-0.9766125056	-1.2052922429	-0.0351073834	 0.327216
C	-1.2142874119	-2.0291370037	-1.3051534659	-0.309732
C	-0.2861203545	-2.5201645658	-0.2313051209	-0.310081
H	-0.1057878584	 2.0770942256	 0.4750219008	 0.129701
H	-1.30158511	 1.7502296854	-0.7657669175	 0.133711
H	-1.5608714191	 1.0731757813	 2.2113536315	 0.116923
H	-2.6281207739	 2.0855499918	 1.2351785649	 0.102389
H	-3.5980505879	-0.211916669	 1.6360256726	 0.110822
H	-3.2966693082	 0.045845189	-0.0969056134	 0.090612
H	-2.1924260128	-2.4906502559	-1.3798602037	 0.124119
H	-0.7851004263	-1.6639127747	-2.2310213497	 0.13118
H	-0.6317797466	-3.3258181162	 0.4055293591	 0.128217
H	 0.7797915536	-2.4752766885	-0.4189275613	 0.142343
66.0043	125.6513	234.4981	272.229	296.8156	380.5798	426.0214	444.478	510.4083	569.0084	632.1518	658.2214	779.2242	820.7402	845.0937	867.9771	904.9873	931.5937	957.452	1002.344	1019.3912	1051.6939	1082.1001	1098.4592	1111.7386	1141.8054	1202.1	1211.8717	1227.3269	1289.8482	1297.0124	1339.8841	1350.3206	1376.5739	1406.1498	1437.3648	1451.4585	1472.2453	1484.2533	1501.2156	1793.2124	2974.1437	3015.7467	3039.4667	3082.8118	3094.4672	3100.0732	3138.3945	3147.9327	3232.8225	3249.2365
O=C1CCCOC11CC1	O=C1CCCOC21CC2	
InChI=1S/C7H10O2/c8-6-2-1-5-9-7(6)3-4-7/h1-5H2	InChI=1S/C7H10O2/c8-6-2-1-5-9-7(6)3-4-7/h1-5H2
