19
gdb 1725	3.2407757	1.1968697	1.0911924	2.6618	78.36	-0.25115	-0.03876	0.21238999999999997	1175.924	0.15707	-422.590853	-422.582318	-422.581374	-422.624039	32.515	
O	 1.3465669299	 2.0619800368	-1.3595722889	-0.475632
C	 2.3878848502	 1.6884608069	-0.4793110857	 0.263908
C	 3.6528857633	 1.2628150774	-1.2649224464	-0.23283
C	 4.4288166335	 2.4886768169	-1.7541532791	-0.220206
C	 4.9168712421	 3.320318389	-0.5628931764	-0.245601
C	 3.8173913134	 3.5408249118	 0.4405191626	-0.067196
C	 2.6899109518	 2.8313778844	 0.4713824945	-0.083189
C	 1.9260294891	 0.4934504282	 0.3455705856	 0.110298
O	 0.8403139736	-0.0117796141	 0.1949704865	-0.273232
H	 0.641124795	 1.4088991655	-1.2212476851	 0.289006
H	 4.3025802652	 0.6532998538	-0.6212101732	 0.092275
H	 3.3299852778	 0.63443281	-2.0999128158	 0.111101
H	 5.2731799376	 2.1794762465	-2.378119324	 0.094233
H	 3.7653385788	 3.0964841743	-2.3793576305	 0.124472
H	 5.7681338396	 2.822737992	-0.0732460769	 0.110295
H	 5.3012203185	 4.2897673187	-0.9018601648	 0.109909
H	 3.9551191515	 4.3471387643	 1.1576349887	 0.095845
H	 1.9032244731	 3.0748082999	 1.1810203184	 0.096204
H	 2.6507849861	 0.1129654279	 1.0934184606	 0.100342
74.7078	95.3732	222.3869	267.1002	307.816	349.177	379.3533	401.536	455.3315	488.7692	520.4533	621.3617	718.144	747.175	820.5993	864.7573	868.4317	918.7374	947.7556	994.4743	1008.3638	1035.5195	1050.3881	1073.7999	1121.835	1140.8279	1218.008	1232.1262	1254.8668	1291.5064	1353.7736	1362.4897	1372.7203	1389.2893	1408.0039	1435.1133	1466.6678	1475.8805	1493.1518	1711.8808	1810.7961	2933.6917	2994.649	3012.3302	3040.4594	3052.9282	3086.7014	3090.3956	3143.4043	3167.4696	3674.7536
OC1(CCCC=C1)C=O	O[C@]1(CCCC=C1)C=O	
InChI=1S/C7H10O2/c8-6-7(9)4-2-1-3-5-7/h2,4,6,9H,1,3,5H2	InChI=1S/C7H10O2/c8-6-7(9)4-2-1-3-5-7/h2,4,6,9H,1,3,5H2/t7-/m1/s1
