19
gdb 897	3.7362583	1.0682947	0.9996418	2.8917	75.32	-0.24618	-0.0276	0.21858	1225.7276	0.157005	-422.546857	-422.538744	-422.5378	-422.580475	30.493	
O	 0.1350291865	-1.095590407	-0.1346006488	-0.237801
C	 0.3261380803	 0.071595146	 0.0890649778	 0.160284
C	-0.3432924983	 0.8617869977	 1.1951624684	-0.393236
C	-1.0893513715	 2.0776457269	 0.6722756192	 0.269214
C	-0.4037623605	 3.2805257171	-0.0686155087	-0.274362
C	-1.7564662922	 3.944448935	 0.282701111	 0.105862
C	-1.7127169439	 3.1604837926	 1.6157395432	-0.279715
O	-2.704626902	 3.2090590633	-0.5066663653	-0.276362
C	-2.2843175634	 1.8488216578	-0.2718536517	-0.105156
H	 1.0382167093	 0.663433882	-0.5318335983	 0.078818
H	-1.0115094931	 0.1899264954	 1.7440258895	 0.12343
H	 0.4452101518	 1.1967796509	 1.8841556556	 0.11938
H	 0.4416031809	 3.6897665667	 0.4882657735	 0.101806
H	-0.1625322173	 3.1745707475	-1.1290751045	 0.104921
H	-1.9568626969	 5.0109696432	 0.202018843	 0.084612
H	-0.9904834817	 3.5555779937	 2.3327978884	 0.101255
H	-2.6672154455	 2.9381379537	 2.0990795766	 0.104185
H	-3.0939543778	 1.2728327161	 0.1923818587	 0.105465
H	-2.0070469849	 1.3688373414	-1.2183850276	 0.107397
48.5226	68.9656	167.0489	276.4433	316.4867	389.8855	458.6992	481.7905	519.1916	613.2301	679.8591	808.3553	838.4489	857.2859	888.2694	916.7881	949.9886	954.9642	962.6825	1001.6413	1022.2255	1048.1157	1061.1749	1119.5807	1126.5197	1167.3217	1174.5345	1197.7596	1219.3631	1237.185	1259.9372	1286.4665	1308.8705	1316.4854	1380.8363	1428.141	1459.6519	1472.3463	1505.0916	1531.5654	1834.5227	2863.0229	3013.5264	3019.1864	3059.0146	3063.2214	3069.1994	3084.4596	3129.5482	3135.1431	3145.7944
O=CCC12CC(C1)OC2	O=CC[C@]12C[C@H](C1)OC2	
InChI=1S/C7H10O2/c8-2-1-7-3-6(4-7)9-5-7/h2,6H,1,3-5H2	InChI=1S/C7H10O2/c8-2-1-7-3-6(4-7)9-5-7/h2,6H,1,3-5H2/t6-,7+
