19
gdb 630	3.1778531	1.5548371	1.1508093	2.7132	78.13	-0.24166	0.01448	0.25614000000000003	1079.7717	0.159796	-422.57201	-422.56467	-422.563726	-422.603706	28.843	
C	 0.9199494527	 0.3507777757	 0.7406825189	-0.114833
O	 1.0957167808	 1.6565300732	 0.182281472	-0.267073
C	 0.2269461042	 1.8391355916	-0.8919586374	 0.148682
O	 0.9679572084	 1.9908732333	-2.1005857658	-0.251271
C	 0.0886066593	 2.097312991	-3.2112234743	-0.068823
C	-0.746282052	 0.8246053311	-3.4133537296	-0.198308
C	-1.5509703616	 0.4836560956	-2.1353421346	-0.326726
C	-0.6204259393	 0.5925489584	-0.9719460022	 0.312046
C	-0.2047051569	-0.2630171511	-0.045357414	-0.249459
H	 1.8515121953	-0.2275677931	 0.649065571	 0.114788
H	 0.7002325751	 0.452801085	 1.8127602012	 0.111726
H	-0.3562341831	 2.7666070287	-0.7384209079	 0.062999
H	-0.5813618334	 2.9666369352	-3.0838793696	 0.085363
H	 0.7199969982	 2.2916525897	-4.0823158981	 0.111627
H	-1.4183011174	 0.9551551422	-4.2689448341	 0.096908
H	-0.0688217076	-0.0048041356	-3.644099077	 0.11289
H	-2.3704289188	 1.2088783913	-2.027445309	 0.10921
H	-2.0055307907	-0.5091085774	-2.2035568727	 0.106994
H	-0.5537838133	-1.2759989948	 0.1146602933	 0.103259
114.8429	168.9556	258.5372	324.2196	349.9661	404.9822	430.5408	508.4431	627.2816	672.4427	786.0399	816.6375	854.914	876.1928	916.4104	931.6423	946.2578	976.7136	1012.4027	1037.6786	1040.4105	1081.5168	1094.8732	1151.4697	1191.841	1196.709	1211.659	1223.2049	1292.0589	1305.6933	1341.5267	1360.7019	1366.1441	1379.4151	1399.2545	1416.6976	1475.876	1484.4495	1497.727	1517.4803	1744.1263	2922.6979	2949.0135	2993.2773	3006.1833	3018.838	3038.171	3078.9873	3086.78	3092.0181	3207.8237
C1OC2OCCCC2=C1	C1O[C@H]2OCCCC2=C1	
InChI=1S/C7H10O2/c1-2-6-3-5-9-7(6)8-4-1/h3,7H,1-2,4-5H2	InChI=1S/C7H10O2/c1-2-6-3-5-9-7(6)8-4-1/h3,7H,1-2,4-5H2/t7-/m1/s1
