19
gdb 3685	2.9821347	1.1576778	0.9693485	2.3831	78.09	-0.23216	-0.02691	0.20525000000000002	1270.7969	0.15487	-422.550792	-422.541241	-422.540297	-422.585524	34.401	
C	-2.3318200875	 2.6785790583	 1.5341203674	-0.407257
C	-1.1295688741	 2.2564101096	 0.7226435933	-0.046349
C	-1.1405942109	 2.3299225112	-0.7702294786	-0.340426
C	-1.1829843357	 0.9741096516	-0.1016076574	 0.213259
C	-2.2535910891	-0.1348370441	-0.1195565603	-0.357633
C	-1.1272236433	-1.1926670504	 0.1016186243	 0.041941
O	-1.1009662723	-2.2641206511	-0.806702991	-0.435134
C	-0.1022769826	-0.0582958873	-0.1317723411	 0.308552
O	 1.0779140753	-0.0577497044	-0.3603513613	-0.330611
H	-2.3678257173	 2.1596462545	 2.4980432622	 0.123598
H	-2.3017726039	 3.7547585278	 1.7357030036	 0.127783
H	-3.2647887381	 2.4660192905	 1.0029603088	 0.122216
H	-0.1672356891	 2.4341416469	 1.1965522481	 0.10588
H	-2.0535629056	 2.6591871224	-1.2572864536	 0.121132
H	-0.2230565235	 2.5810367851	-1.292327044	 0.134347
H	-3.0202546439	-0.0944023063	 0.6563659908	 0.108924
H	-2.7246944691	-0.2656405517	-1.0962947119	 0.122948
H	-1.0982755958	-1.5386871653	 1.147752965	 0.090202
H	-0.1742536235	-2.4858846671	-0.9565613642	 0.296628
52.4917	106.8431	139.4213	175.2231	194.968	249.3512	257.0664	336.6237	381.4616	416.1916	521.1939	549.3664	724.7002	732.024	781.1927	814.3625	888.2581	906.0128	923.4008	967.3129	1021.5692	1039.2408	1070.1257	1105.9553	1120.0921	1127.6085	1160.4561	1187.0917	1196.0929	1220.5682	1250.3797	1314.514	1340.3944	1383.6372	1406.7027	1426.9621	1477.3187	1482.6844	1491.8553	1502.5236	1868.6848	2969.713	3031.5547	3072.1267	3094.6799	3103.2879	3124.5028	3128.7021	3142.5329	3215.1038	3793.1297
CC1CC11CC(O)C1=O	C[C@@H]1C[C@@]21C[C@@H](O)C2=O	
InChI=1S/C7H10O2/c1-4-2-7(4)3-5(8)6(7)9/h4-5,8H,2-3H2,1H3	InChI=1S/C7H10O2/c1-4-2-7(4)3-5(8)6(7)9/h4-5,8H,2-3H2,1H3/t4-,5-,7+/m1/s1
