19
gdb 4970	2.361049	1.7416479	1.256126	2.566	74.96	-0.24267	0.06117	0.30384	1046.3412	0.158028	-422.507759	-422.499741	-422.498797	-422.540117	31.443	
O	 1.5566798194	 0.8983501668	 0.0259500594	-0.407944
C	 0.2248129283	 0.3700151337	 0.125613122	-0.245249
C	-0.6672774727	 0.9609112545	-0.9074008304	 0.338337
C	-2.1250547235	 1.3321849912	-1.0335908403	-0.147993
C	-2.2298082746	 0.6987809526	-2.4217029534	-0.243803
C	-0.6899424608	 0.8611208852	-2.4970730444	-0.145918
C	-0.4384094136	 2.3913948412	-2.5245192991	 0.161431
O	 0.930403158	 2.7325156825	-2.5378347941	-0.45813
C	-1.0501912148	 2.4207409013	-1.1206644826	-0.153572
H	 1.5270555246	 1.8000852489	 0.3645436634	 0.287107
H	 0.3335437016	-0.7110962897	-0.0094147498	 0.121212
H	-0.1872737337	 0.5357513586	 1.1314671963	 0.101367
H	-2.8731038482	 1.3590261604	-0.2498726067	 0.089239
H	-2.532507273	-0.3502690315	-2.3625544305	 0.101968
H	-2.8251513121	 1.2107677392	-3.1863413979	 0.093151
H	-0.0731470475	 0.2090299095	-3.113080391	 0.077636
H	-0.9063395231	 2.9743858889	-3.3248892057	 0.074381
H	 1.3771085126	 2.1456151899	-1.9085889904	 0.274072
H	-1.0030430771	 3.2262596365	-0.3967768449	 0.082705
109.548	119.5496	253.0975	268.3546	304.1967	357.0158	382.1007	488.8281	527.0989	596.9764	645.4406	728.5966	797.8604	836.643	874.3516	902.8028	927.9663	939.5216	983.5432	987.2038	1007.8498	1018.3898	1021.7227	1052.227	1090.6753	1107.4513	1139.8674	1161.8688	1205.6193	1221.4786	1227.8405	1250.3657	1287.9433	1300.2911	1322.6599	1367.7412	1401.2913	1448.5712	1456.2156	1491.0406	1503.8171	3002.4677	3034.8438	3055.8856	3074.7941	3096.1284	3135.8379	3178.1349	3188.4833	3705.2667	3806.5002
OCC12C3CC1C(O)C23	OC[C@]12[C@@H]3C[C@H]1[C@H](O)[C@H]23	
InChI=1S/C7H10O2/c8-2-7-3-1-4(7)6(9)5(3)7/h3-6,8-9H,1-2H2	InChI=1S/C7H10O2/c8-2-7-3-1-4(7)6(9)5(3)7/h3-6,8-9H,1-2H2/t3-,4+,5-,6+,7+/m1/s1
