19
gdb 3991	4.0816715	0.8375813	0.7471243	1.0323	77.01	-0.23568	-0.02395	0.21173	1521.3305	0.154642	-422.522868	-422.513735	-422.512791	-422.557946	32.73	
C	 0.0887740293	 5.7390369607	-0.0736779346	-0.400461
C	-0.6964982174	 4.4472588502	 0.0100919892	 0.13044
O	-1.6538517757	 4.3380772021	-1.0952878841	-0.307084
C	-0.9491648576	 3.2125465069	-1.6092729888	 0.087978
C	-0.9772005676	 2.064215918	-0.6442896675	-0.072498
C	-0.4276109265	 0.7291866468	-1.1204930276	-0.323716
C	 0.1916096898	-0.0444887864	 0.0262584671	 0.173008
O	 1.3361678466	-0.414088093	 0.0677337833	-0.237615
C	 0.0309806628	 3.1873515839	-0.4613452406	-0.137581
H	 0.8249314984	 5.7898668563	 0.7362599268	 0.118133
H	 0.6144191809	 5.8120504514	-1.0301731311	 0.124934
H	-0.5849134087	 6.5959882812	 0.0189095054	 0.129866
H	-1.2132425035	 4.3634511213	 0.9750546754	 0.082438
H	-0.8388921812	 3.1184254966	-2.6841656066	 0.10638
H	-1.8228812727	 2.0103402512	 0.0397743023	 0.095577
H	-1.2443080923	 0.1272234584	-1.5428811936	 0.123996
H	 0.3352175072	 0.8630980711	-1.8938955777	 0.121135
H	-0.5063171254	-0.2428777249	 0.873361853	 0.07411
H	 1.1008005438	 3.0235879982	-0.4411426602	 0.110961
35.8881	73.36	139.4572	167.1731	236.2635	250.6324	338.6612	358.0387	431.5791	471.7843	545.6772	769.0185	779.3862	816.8206	863.4796	905.9795	920.1154	930.1352	1002.7431	1026.4661	1038.5846	1047.4034	1079.691	1094.5026	1107.944	1109.8212	1145.4625	1184.8691	1228.203	1236.2273	1273.8608	1290.0953	1329.3382	1383.6282	1407.1225	1423.5108	1428.7746	1461.419	1485.2908	1491.6846	1836.2769	2858.8659	3016.8889	3021.9182	3036.3075	3089.919	3108.2376	3117.1421	3120.8873	3170.703	3198.2816
CC1OC2C(CC=O)C12	C[C@H]1O[C@@H]2[C@@H](CC=O)[C@H]12	
InChI=1S/C7H10O2/c1-4-6-5(2-3-8)7(6)9-4/h3-7H,2H2,1H3	InChI=1S/C7H10O2/c1-4-6-5(2-3-8)7(6)9-4/h3-7H,2H2,1H3/t4-,5+,6+,7-/m1/s1
