19
gdb 4375	2.1656133	1.4076428	1.2346521	0.9457	76.32	-0.2498	0.04271	0.29251	1135.0597	0.155952	-422.533122	-422.523911	-422.522967	-422.566843	34.651	
C	 0.1301226506	 0.2638527739	-0.030871108	-0.419856
C	 1.5701921629	-0.2438371518	-0.0717796808	 0.075073
O	 2.4082597042	 0.3643623367	 0.9218442375	-0.274499
C	 2.7928234187	 1.645897192	 0.4321422389	-0.103194
C	 2.8342213978	 1.5290198199	-1.1280584493	-0.242234
C	 2.046718154	 2.5483829267	-1.8022471676	 0.337274
C	 1.3881898671	 3.3891634372	-2.3557260187	-0.474289
C	 2.335546456	 0.0616524604	-1.3680500235	 0.134205
O	 3.429512087	-0.82145811	-1.5273125351	-0.439828
H	-0.2777551569	 0.1395221201	 0.9760933469	 0.127031
H	 0.0565643863	 1.3185822868	-0.309260861	 0.1369
H	-0.4898034904	-0.3096813584	-0.7274060818	 0.121246
H	 1.5926802843	-1.3194708192	 0.1280569279	 0.089343
H	 2.0785364213	 2.4190954656	 0.7387155451	 0.111792
H	 3.7681314912	 1.8860022198	 0.8626487665	 0.11583
H	 3.8642296666	 1.5715355928	-1.4936101913	 0.119571
H	 0.8131084111	 4.1332312145	-2.8489365816	 0.198759
H	 1.7301383267	-0.0211293676	-2.2716981794	 0.101157
H	 3.8562322315	-0.8938745293	-0.6643461949	 0.285719
72.6782	144.0262	166.4644	199.9235	232.978	260.2211	339.4685	393.5659	439.6538	467.4541	517.6434	547.5661	626.516	631.916	668.3491	746.3442	848.364	861.6287	882.2656	977.375	999.8737	1017.2732	1058.6639	1081.4713	1087.8661	1115.8634	1142.0247	1193.9313	1241.3206	1267.8863	1282.2307	1323.637	1331.9838	1377.6775	1391.4846	1409.4069	1431.8954	1493.2023	1496.5594	1524.4882	2231.9455	3031.0482	3044.1462	3064.8146	3067.5284	3097.7408	3111.8137	3116.197	3127.6564	3503.1234	3780.1403
CC1OCC(C#C)C1O	C[C@@H]1OC[C@H](C#C)[C@H]1O	
InChI=1S/C7H10O2/c1-3-6-4-9-5(2)7(6)8/h1,5-8H,4H2,2H3	InChI=1S/C7H10O2/c1-3-6-4-9-5(2)7(6)8/h1,5-8H,4H2,2H3/t5-,6-,7-/m0/s1
