19
gdb 3179	2.2117041	1.9106504	1.367622	3.3258	73.83	-0.2442	0.08188	0.32608	1017.1834	0.157881	-422.534355	-422.526572	-422.525627	-422.566424	30.291	
C	 5.6964949279	-0.7385264795	 0.7272127936	-0.406041
C	 4.9410463188	-0.7112568743	 2.0673758765	-0.064429
C	 3.849680571	-1.7687866455	 2.0626189866	 0.059096
O	 3.0267487216	-1.9023052104	 3.2215235743	-0.255388
C	 2.4188251072	-1.4314519214	 2.0164424925	 0.048455
C	 1.9330733426	 0.0014376921	 1.9933567674	-0.278705
C	 2.9965767442	 1.0355965956	 2.2919137709	 0.048454
O	 3.6896009918	 0.9281346488	 3.5375719973	-0.255388
C	 4.4261550489	 0.6928093772	 2.337483907	 0.059097
H	 6.1191203172	-1.7293636508	 0.5362661953	 0.122419
H	 5.0324342856	-0.4897490901	-0.1079248016	 0.121032
H	 6.5198686109	-0.0181885991	 0.7273496559	 0.122419
H	 5.648412678	-0.9664376599	 2.8691245844	 0.10118
H	 4.163239326	-2.7244802119	 1.6366689694	 0.084088
H	 1.7350225727	-2.1489278016	 1.5594210649	 0.08792
H	 1.5212748092	 0.2091764616	 0.9965790991	 0.1077
H	 1.1020235362	 0.117016605	 2.7012405601	 0.126081
H	 2.7202969234	 2.0582775103	 2.0291985514	 0.08792
H	 5.1477552868	 1.4794804439	 2.106086925	 0.084088
96.7252	203.6807	219.1749	264.7999	330.3899	338.275	411.0096	497.1541	505.7628	570.1094	748.3505	762.8832	820.1925	834.5803	875.5845	900.5862	945.1722	955.1162	1000.7654	1030.1254	1038.9197	1063.4816	1088.486	1107.5684	1142.777	1169.1852	1197.0075	1256.8651	1289.7689	1307.5703	1319.4587	1352.2047	1362.7938	1380.1421	1401.9987	1423.7581	1462.7024	1463.1848	1496.8677	1501.2033	1513.4994	3010.4961	3019.3997	3034.8292	3054.4179	3075.8449	3079.2149	3092.2092	3096.3093	3103.9262	3112.0755
CC1C2OC2CC2OC12	C[C@@H]1[C@H]2O[C@H]2C[C@H]2O[C@@H]12	
InChI=1S/C7H10O2/c1-3-6-4(8-6)2-5-7(3)9-5/h3-7H,2H2,1H3	InChI=1S/C7H10O2/c1-3-6-4(8-6)2-5-7(3)9-5/h3-7H,2H2,1H3/t3-,4+,5-,6-,7+
