19
gdb 1923	3.9772615	1.020451	0.9485707	1.2694	76.39	-0.23595	0.07065	0.3066	1303.0449	0.155503	-422.492558	-422.483976	-422.483031	-422.52615	32.021	
C	 0.093839924	 0.0898491323	-0.3632317332	-0.487725
C	 1.52272085	-0.087013216	 0.0312329212	 0.472262
C	 2.1018162287	 0.0004279794	 1.4090433191	-0.344171
C	 2.6905288537	 0.8435421724	 0.2921418236	-0.190046
C	 3.4717708692	-0.0720279694	-0.6441137608	 0.09076
O	 2.3291042549	-0.9686603658	-0.7733887809	-0.336368
C	 3.8231116476	 0.5193545393	-1.9816575511	 0.081391
C	 4.9232811476	-0.0174994031	-2.788739366	-0.180431
O	 5.0830679814	 1.1930976149	-2.0457063205	-0.238478
H	-0.3882014702	 0.8391416645	 0.2710726129	 0.125344
H	 0.0080625728	 0.4060906783	-1.4074934522	 0.126441
H	-0.4536083632	-0.8525957005	-0.247967543	 0.13412
H	 1.5148051649	 0.5590342072	 2.1318650702	 0.114016
H	 2.6584033839	-0.8392279559	 1.8173843764	 0.113346
H	 2.757162544	 1.9228928631	 0.3243376891	 0.106117
H	 4.3476311284	-0.5773098842	-0.2176488198	 0.082452
H	 3.0046290107	 1.0302467049	-2.4902448508	 0.094753
H	 5.4921835792	-0.8705015015	-2.4213818852	 0.117872
H	 4.9013140323	 0.0974953501	-3.8711616389	 0.118344
64.4382	100.6473	169.7774	200.6137	288.5309	311.2026	359.6902	429.9946	441.7504	494.0057	654.4342	803.0346	817.9066	859.1112	868.4248	890.9918	929.3508	948.4321	973.3998	978.8196	1003.1226	1047.3478	1061.3272	1077.9945	1101.4323	1119.7767	1151.9862	1165.1286	1186.5844	1202.5336	1257.1321	1278.6827	1285.8775	1322.8815	1383.2664	1426.1457	1458.2227	1473.7196	1489.5443	1502.1134	1529.099	3030.0977	3033.198	3085.2934	3096.5487	3107.8196	3110.9336	3117.3704	3173.6125	3199.0219	3206.8761
CC12CC1C(O2)C1CO1	C[C@]12C[C@H]1[C@@H](O2)[C@@H]1CO1	
InChI=1S/C7H10O2/c1-7-2-4(7)6(9-7)5-3-8-5/h4-6H,2-3H2,1H3	InChI=1S/C7H10O2/c1-7-2-4(7)6(9-7)5-3-8-5/h4-6H,2-3H2,1H3/t4-,5-,6+,7-/m0/s1
