19
gdb 1446	2.7185994	1.5485127	1.3685411	3.4796	74.92	-0.23395	-0.00773	0.22622	1020.0611	0.156839	-422.574409	-422.566237	-422.565292	-422.606487	32.507	
C	-0.6965736403	-0.148824663	 2.4510486727	-0.484205
C	-1.3618567405	-0.5861028818	 1.1527284026	 0.444154
O	-2.3362426109	-1.5804211309	 1.4307738595	-0.486301
C	-1.8598829854	 0.4642197541	 0.093189792	-0.097279
C	-1.7041886784	-0.674744005	-0.9578959349	-0.246756
C	-0.4865548872	-1.0819248372	-0.0539174752	-0.160457
C	 0.4082579586	 0.1279868584	-0.2741828931	 0.428275
O	 1.5929041548	 0.1764124435	-0.4675996212	-0.338908
C	-0.6001443082	 1.3015273713	-0.1891590526	-0.345231
H	-0.3212783202	-1.0298060088	 2.9797590173	 0.136284
H	 0.1393740577	 0.5374022339	 2.298958806	 0.134525
H	-1.423699444	 0.3507722332	 3.1036690031	 0.109162
H	-2.9779521647	-1.1981251027	 2.0394185427	 0.278304
H	-2.803431411	 0.9935766565	 0.2353159037	 0.063117
H	-2.4998018646	-1.4133292933	-0.9156686074	 0.131348
H	-1.4894765707	-0.3834237474	-1.9891332427	 0.099664
H	-0.0217513859	-2.0652408668	-0.0662137958	 0.085007
H	-0.3213265837	 2.0147592894	 0.5908219954	 0.122765
H	-0.6516563052	 1.8442089965	-1.1385035724	 0.126532
126.1158	206.2345	214.2206	265.3017	294.5801	371.9877	419.4695	441.7916	467.633	522.1693	598.1909	610.1622	658.7986	769.0583	812.1565	824.8421	893.5916	942.6247	944.9732	972.9645	980.3157	1001.3098	1070.2782	1074.4762	1107.5821	1120.0282	1150.2646	1184.1547	1196.7539	1219.8719	1247.1268	1252.9275	1275.8822	1301.4995	1369.1936	1414.0373	1463.2168	1488.8363	1497.1399	1499.1719	1867.7949	3028.6187	3058.9324	3074.6024	3098.7022	3101.0691	3106.1281	3130.0816	3151.383	3177.1561	3799.1422
CC1(O)C2CC1C(=O)C2	C[C@@]1(O)[C@@H]2C[C@H]1C(=O)C2	
InChI=1S/C7H10O2/c1-7(9)4-2-5(7)6(8)3-4/h4-5,9H,2-3H2,1H3	InChI=1S/C7H10O2/c1-7(9)4-2-5(7)6(8)3-4/h4-5,9H,2-3H2,1H3/t4-,5+,7-/m1/s1
