19
gdb 3955	3.3864037	1.4404728	1.4098852	1.851	74.54	-0.24591	0.06472	0.31062999999999996	998.2118	0.159073	-422.497306	-422.490194	-422.489249	-422.528345	29.404	
O	 0.3153335776	 0.8905551126	 0.4712934605	-0.437813
C	-0.6291083076	 0.005031476	 1.0450496042	 0.142893
C	-1.8375782091	-0.1699586534	 0.0335097076	-0.343849
C	-2.8935824155	 0.3861478122	 0.9719945884	 0.283557
C	-4.1842452443	 1.1999216969	 1.046849493	-0.201179
O	-3.5591675505	 2.042672495	 2.0676062677	-0.313945
C	-2.2333230548	 1.6136976023	 1.6240577436	 0.139329
C	-1.3588286531	 0.5566745074	 2.3269228577	-0.135782
C	-2.5900591101	-0.3723795102	 2.3195661785	-0.263167
H	 1.0258170499	 1.0219880716	 1.1078519916	 0.282637
H	-0.160812599	-0.9612573421	 1.2796060925	 0.070995
H	-1.659984364	 0.4429853764	-0.852979695	 0.119252
H	-1.9783817143	-1.2104085455	-0.2703979974	 0.099127
H	-4.4166472921	 1.7839040344	 0.1462525062	 0.103959
H	-5.0884144243	 0.7075770038	 1.4193615677	 0.10644
H	-1.7372263559	 2.4019665013	 1.0537188844	 0.085695
H	-0.7205393085	 0.720134488	 3.1996731784	 0.054847
H	-2.4100203893	-1.4490969909	 2.2531455672	 0.087375
H	-3.311256175	-0.1472756458	 3.1029165031	 0.11963
160.6159	270.1113	294.4746	336.9114	369.9898	427.7479	463.8273	477.1042	608.5772	695.2989	744.6406	808.9118	833.997	856.4337	900.8519	916.9607	938.3552	963.4577	982.8926	1003.4852	1030.465	1039.4648	1059.9935	1084.4911	1125.5308	1160.5281	1172.7019	1193.773	1221.7947	1235.2998	1250.4509	1258.4446	1263.9056	1300.9462	1331.9008	1340.2747	1364.0636	1411.5347	1486.7408	1502.6412	1513.693	2996.3985	3011.2795	3059.5579	3063.3559	3073.5975	3078.1109	3089.5187	3118.4497	3154.134	3811.8466
OC1CC23COC2C1C3	O[C@@H]1C[C@]23CO[C@H]2[C@H]1C3	
InChI=1S/C7H10O2/c8-5-2-7-1-4(5)6(7)9-3-7/h4-6,8H,1-3H2	InChI=1S/C7H10O2/c8-5-2-7-1-4(5)6(7)9-3-7/h4-6,8H,1-3H2/t4-,5+,6-,7+/m0/s1
