19
gdb 2957	3.0704681	1.2277951	1.0595528	2.4643	75.52	-0.23922	-0.01957	0.21964999999999998	1189.6347	0.155708	-422.580921	-422.572079	-422.571135	-422.614157	33.63	
C	-4.0533772698	 0.0324397793	-1.76401823	-0.41466
C	-2.6102908003	 0.0139186623	-1.3108140331	-0.045747
C	-2.2029711952	 0.7780037514	-0.0595997889	-0.144096
C	-0.7726851041	 1.267108448	 0.0224692154	-0.338587
C	 0.0958196565	 0.0119431586	-0.1778789282	 0.382288
O	 1.2714405112	 0.0119921163	-0.4300331327	-0.303399
C	-0.778646464	-1.2397764519	-0.0022538288	-0.394783
C	-2.2128748563	-0.7485117768	-0.0782955851	 0.393475
O	-3.2098733472	-1.4987652476	 0.5437647309	-0.469553
H	-4.7328328522	-0.0090708972	-0.910051851	 0.129327
H	-4.2694755306	 0.940676966	-2.3363947169	 0.114943
H	-4.2751249884	-0.8290650795	-2.4023618881	 0.122792
H	-1.8849190226	 0.0122732181	-2.1242986639	 0.086376
H	-2.9869649256	 1.308815891	 0.4694387696	 0.088793
H	-0.4978046202	 2.0280098784	-0.715476125	 0.130743
H	-0.5404472746	 1.6841739891	 1.0113859214	 0.127465
H	-0.5111200056	-2.004540604	-0.7370826642	 0.134449
H	-0.5715401598	-1.6626954982	 0.9913962872	 0.119073
H	-3.0731558513	-1.4541124833	 1.4966425315	 0.2811
74.3549	175.4848	198.6938	227.1559	247.8095	288.8187	342.4679	378.0997	445.627	479.8821	496.5223	610.2845	646.982	701.9311	780.1202	802.5001	816.9865	895.6998	942.4886	998.7159	1023.4747	1063.8531	1071.3795	1118.569	1130.8828	1139.3812	1160.4771	1206.4754	1218.9933	1241.5602	1279.4259	1292.7497	1321.2221	1363.7653	1416.0817	1445.0464	1452.0161	1470.8524	1492.2075	1504.6538	1849.2211	3017.5898	3029.3068	3037.8819	3077.8347	3090.8336	3096.653	3102.2233	3130.7144	3171.9772	3792.8238
CC1C2CC(=O)CC12O	C[C@H]1[C@@H]2CC(=O)C[C@]12O	
InChI=1S/C7H10O2/c1-4-6-2-5(8)3-7(4,6)9/h4,6,9H,2-3H2,1H3	InChI=1S/C7H10O2/c1-4-6-2-5(8)3-7(4,6)9/h4,6,9H,2-3H2,1H3/t4-,6-,7-/m0/s1
