19
gdb 4187	3.0609951	1.4603535	1.2685018	2.9377	76.04	-0.24482	-0.00783	0.23699	1065.4265	0.1575	-422.564382	-422.556243	-422.555298	-422.596441	32.227	
C	-3.5491154099	 2.3050806582	 3.6987210248	-0.484864
C	-2.6173245534	 1.7277444228	 2.6628783429	 0.368851
O	-1.1976025851	 1.8862977318	 2.9794523944	-0.304952
C	-1.7377750875	 2.5983655276	 1.8564846963	-0.011071
C	-1.29604072	 2.1364325035	 0.4884058414	-0.274062
C	-1.1347215396	 0.6052013374	 0.4188243075	 0.067522
O	 0.0803839951	 0.18883799	 1.0380361007	-0.439334
C	-2.3227928835	-0.1031269407	 1.0342581155	-0.108882
C	-2.9849274871	 0.4106390437	 2.0724716921	-0.083893
H	-3.6521942298	 1.6214127889	 4.5483386357	 0.131088
H	-3.1704529712	 3.2595325352	 4.0712451827	 0.130799
H	-4.5458839957	 2.4646446878	 3.2736383923	 0.127162
H	-1.8025305108	 3.6769734222	 2.0078228972	 0.090519
H	-2.0387284624	 2.4741495286	-0.245990243	 0.107534
H	-0.3369895041	 2.5931964184	 0.2212908474	 0.11834
H	-1.0337243118	 0.3081360443	-0.6297955996	 0.084935
H	 0.0031999845	 0.4716878178	 1.9604681243	 0.287376
H	-2.5860935218	-1.0807837322	 0.6418979329	 0.101038
H	-3.8137324758	-0.1223489453	 2.5305509043	 0.091895
141.9559	183.4099	219.6921	246.5351	318.1879	366.6512	400.1218	435.9801	475.0395	558.5856	590.4986	647.8979	699.7324	724.8028	786.0915	824.3187	870.3608	914.9035	940.7976	956.9293	993.0868	1019.2599	1050.8602	1082.6447	1096.9744	1129.1127	1186.0974	1228.7405	1249.9196	1276.6841	1316.8805	1347.8622	1377.3573	1412.7127	1418.2316	1452.6966	1456.4628	1468.3285	1485.3895	1497.43	1703.3385	3028.6263	3036.0613	3060.6147	3078.963	3097.7187	3099.0908	3127.4815	3157.4828	3182.4725	3737.9353
CC12OC1CC(O)C=C2	C[C@]12O[C@H]1C[C@@H](O)C=C2	
InChI=1S/C7H10O2/c1-7-3-2-5(8)4-6(7)9-7/h2-3,5-6,8H,4H2,1H3	InChI=1S/C7H10O2/c1-7-3-2-5(8)4-6(7)9-7/h2-3,5-6,8H,4H2,1H3/t5-,6-,7+/m0/s1
