19
gdb 1013	2.8731077	0.9876208	0.8474627	2.4177	82.23	-0.2195	0.04276	0.26226	1442.0125	0.152414	-422.517813	-422.506999	-422.506055	-422.554275	38.59	
C	 1.6041519732	 0.0172569844	-0.1199261235	-0.502886
C	 0.1509050289	-0.0538314731	-0.0887464397	 0.09496
C	-1.051981463	-0.1204147047	-0.0749588582	 0.062756
C	-2.488588016	-0.1846705579	-0.0692385378	 0.186879
O	-3.0390837614	-0.7535690749	-1.2206843101	-0.466389
C	-3.2900185015	 0.9344234963	 0.6041769797	-0.408196
C	-3.2502102316	-0.4371469515	 1.2306488594	 0.307358
C	-2.5455371783	-0.6817916858	 2.540352657	-0.440515
O	-4.3644657505	-1.2771552465	 1.0176966932	-0.472392
H	 2.05746955	-0.6753696419	 0.5981354901	 0.146606
H	 1.9847457416	-0.2417623673	-1.1141168246	 0.154005
H	 1.9616319637	 1.0254815188	 0.1175529982	 0.14655
H	-3.7575597459	-1.3221158818	-0.9057114912	 0.289616
H	-2.7519498798	 1.7384472124	 1.0938672648	 0.121594
H	-4.1924433417	 1.2245356456	 0.0754137733	 0.114753
H	-2.311227408	-1.7449118421	 2.6502551757	 0.130831
H	-1.6128164086	-0.1161582854	 2.5906873898	 0.132395
H	-3.1800160241	-0.3812142016	 3.3822479845	 0.109762
H	-5.1588008369	-0.815175703	 1.3049943093	 0.292313
27.9889	86.0567	93.9674	199.6174	203.4815	224.24	240.7621	304.4403	327.6099	367.0933	381.5206	413.1218	461.6908	477.4236	554.8552	579.7276	636.0914	746.9263	855.5845	876.6582	923.9312	976.259	1017.1238	1041.5761	1051.4783	1055.0823	1086.6393	1147.9577	1222.5414	1274.9585	1325.1485	1342.9692	1412.9544	1416.5434	1427.2007	1461.4793	1476.2353	1479.1812	1482.3559	1497.3723	2367.4872	3025.4469	3033.592	3084.1497	3088.7907	3099.9217	3126.3674	3134.1177	3224.9756	3718.8116	3811.5534
CC#CC1(O)CC1(C)O	CC#C[C@]1(O)C[C@@]1(C)O	
InChI=1S/C7H10O2/c1-3-4-7(9)5-6(7,2)8/h8-9H,5H2,1-2H3	InChI=1S/C7H10O2/c1-3-4-7(9)5-6(7,2)8/h8-9H,5H2,1-2H3/t6-,7+/m1/s1
