19
gdb 4010	3.5552629	1.1812945	1.0301446	2.5332	76.52	-0.24491	0.00761	0.25251999999999997	1184.6955	0.157692	-422.560414	-422.552129	-422.551185	-422.593374	32.026	
O	-4.9074938715	-0.1264760932	-0.6150242687	-0.434021
C	-3.9924021827	-0.3132147445	 0.4456253256	 0.124157
C	-2.8052788595	-1.1744344936	-0.0409086567	-0.245636
C	-1.8673683093	 0.0679830989	-0.0244398202	-0.045924
C	-3.0082006225	 0.8901258728	 0.6658566857	-0.107396
C	-2.5035551506	 1.0567556224	 2.0692954913	-0.0883
C	-1.2816983075	 0.5464308738	 2.2460402283	-0.119582
C	-0.6798412552	 0.0241516467	 0.9598087532	 0.090937
O	 0.4505237666	 0.7937169256	 0.5503531005	-0.435156
H	-5.5672799689	 0.5147843884	-0.330954972	 0.280057
H	-4.5031452473	-0.663741544	 1.3529896682	 0.062096
H	-2.5084525703	-1.9599428988	 0.6589509914	 0.100644
H	-2.9845472453	-1.6201247935	-1.0206389448	 0.116728
H	-1.5447784915	 0.3993104049	-1.011665071	 0.078808
H	-3.3561748584	 1.8202091047	 0.2040350722	 0.0683
H	-3.1004072378	 1.5170803536	 2.8514083644	 0.095353
H	-0.7267041194	 0.5430233935	 3.1780121726	 0.098733
H	-0.2889450324	-0.9956524765	 1.0595581196	 0.087099
H	 0.1942530936	 1.721413169	 0.60027687	 0.273101
57.1129	152.1155	220.046	300.5928	314.422	325.5025	364.6249	375.7015	467.9076	552.3691	691.5021	739.7227	768.0563	806.9044	834.7569	868.464	914.8667	951.2539	980.0648	984.8902	998.9915	1013.1846	1050.8564	1058.2353	1100.4981	1130.8455	1152.117	1181.9049	1217.3561	1238.8497	1252.6737	1270.3251	1272.6582	1293.7028	1304.225	1322.5113	1373.1832	1418.4791	1425.148	1464.8458	1664.4652	2997.865	3039.2148	3048.6893	3066.679	3108.2443	3130.3967	3168.9461	3200.6072	3798.6652	3809.0215
OC1CC2C1C=CC2O	O[C@H]1C[C@H]2[C@@H]1C=C[C@@H]2O	
InChI=1S/C7H10O2/c8-6-2-1-4-5(6)3-7(4)9/h1-2,4-9H,3H2	InChI=1S/C7H10O2/c8-6-2-1-4-5(6)3-7(4)9/h1-2,4-9H,3H2/t4-,5-,6-,7-/m0/s1
