19
gdb 805	3.0000381	1.4609082	1.3278834	4.0184	74.33	-0.24982	-0.02153	0.22829	1038.6532	0.158725	-422.585616	-422.577906	-422.576962	-422.617999	29.664	
O	 1.3678371251	-0.3412417779	-0.2280364772	-0.245185
C	 0.2147368445	-0.0423040156	-0.069293815	 0.074235
C	-0.3540012789	 1.3454355996	-0.1640825955	 0.311586
C	-0.9741913254	 1.8710937598	 1.1668951103	-0.270387
C	-0.881151185	 3.4088641215	 0.9363225139	-0.215523
C	-0.2572006579	 3.4626839057	-0.4761316797	 0.075234
C	-1.3098987095	 3.0643006816	-1.5345972462	-0.21552
C	-1.4029578554	 1.5265362206	-1.303992749	-0.270385
O	 0.6252446567	 2.330404438	-0.471362053	-0.274302
H	-0.5589226249	-0.8095139837	 0.1720894227	 0.072516
H	-1.9945208214	 1.5138526278	 1.3235061914	 0.105303
H	-0.3692404776	 1.5589570382	 2.021614631	 0.118302
H	-1.8505214189	 3.9110736167	 0.9893150829	 0.101625
H	-0.2171849971	 3.8752484111	 1.6671592296	 0.113021
H	 0.31105312	 4.3652105873	-0.7005900743	 0.081217
H	-2.2643273291	 3.5785263686	-1.3955345786	 0.101625
H	-0.9471632549	 3.2885640248	-2.5398922018	 0.113024
H	-2.4000573655	 1.1879838127	-1.013483858	 0.105304
H	-1.1009593549	 0.9709319833	-2.1950806035	 0.11831
76.2803	141.712	186.72	279.2183	324.4919	372.2465	468.7721	556.4945	586.2337	709.7474	770.8821	812.9333	826.1537	843.9523	870.6208	912.012	931.3342	952.8829	959.6557	1002.2785	1008.4887	1030.0271	1084.9002	1113.906	1177.8358	1180.476	1212.4287	1219.858	1246.8123	1251.8907	1301.5739	1312.408	1334.7587	1335.7637	1353.7574	1432.2161	1478.9231	1491.8619	1496.1392	1513.7771	1842.7385	2850.0601	3061.407	3063.6576	3069.8029	3073.5446	3102.5036	3106.2613	3120.3588	3123.2868	3128.3837
O=CC12CCC(CC1)O2	O=C[C@]12CC[C@H](CC1)O2	
InChI=1S/C7H10O2/c8-5-7-3-1-6(9-7)2-4-7/h5-6H,1-4H2	InChI=1S/C7H10O2/c8-5-7-3-1-6(9-7)2-4-7/h5-6H,1-4H2/t6-,7+
