19
gdb 4603	3.4842694	0.6836537	0.6621835	1.7175	83.66	-0.23606	0.02784	0.26389999999999997	1784.2525	0.154007	-422.506972	-422.496403	-422.495458	-422.543524	37.308	
C	 5.9501183391	 0.5238087911	 1.5505015351	-0.416448
C	 4.6859816461	-0.2404310798	 1.2343180116	-0.050306
C	 4.6861665288	-1.3489866682	 0.2119457402	-0.322735
C	 3.9929565212	-0.0493434961	-0.1186137731	 0.201373
O	 4.6584689307	 0.7108366801	-1.0963506305	-0.450285
C	 2.5571317798	 0.0200530289	-0.1543027167	 0.042752
C	 1.3560931107	 0.1305976641	-0.2004089182	 0.049887
C	-0.0985668686	 0.2631963024	-0.2053731005	-0.197935
O	-0.5806901277	 1.3492727182	 0.5761646471	-0.40215
H	 6.584141003	-0.0416228602	 2.2418584678	 0.120206
H	 6.5232925787	 0.718034886	 0.6410258341	 0.134289
H	 5.7241863586	 1.4875653416	 2.0203566724	 0.11523
H	 4.0047180602	-0.3766298296	 2.0693324361	 0.092092
H	 5.6066786166	-1.5203778733	-0.3362892694	 0.128739
H	 4.0750577342	-2.2278331894	 0.3777188655	 0.122418
H	 4.3680311148	 1.6252345006	-1.0012065367	 0.286283
H	-0.4550354039	 0.4510015336	-1.224349027	 0.142375
H	-0.5482768452	-0.6907969268	 0.1144821933	 0.11885
H	-0.183200257	 1.2719344467	 1.4496935089	 0.285366
35.024	72.0721	98.5618	165.5888	180.1598	234.2874	267.672	303.2749	325.0916	336.6291	367.9882	454.2085	544.0584	553.7609	573.7701	656.7242	790.6815	849.8897	892.8453	938.038	973.5173	994.8273	1017.3168	1047.7689	1077.9497	1113.2062	1134.2	1191.1186	1214.7325	1234.1513	1285.8158	1353.8593	1355.8894	1402.4824	1417.1152	1423.1069	1477.6255	1488.1218	1496.8947	1502.2573	2342.251	2974.2826	3033.1259	3062.5064	3089.8622	3122.7287	3138.6974	3151.8392	3232.7859	3795.732	3816.7513
CC1CC1(O)C#CCO	C[C@@H]1C[C@@]1(O)C#CCO	
InChI=1S/C7H10O2/c1-6-5-7(6,9)3-2-4-8/h6,8-9H,4-5H2,1H3	InChI=1S/C7H10O2/c1-6-5-7(6,9)3-2-4-8/h6,8-9H,4-5H2,1H3/t6-,7+/m1/s1
