19
gdb 4371	4.4810046	0.9291529	0.8557351	2.2789	80.13	-0.23137	0.00238	0.23374999999999999	1392.9454	0.156239	-422.535728	-422.526915	-422.525971	-422.570006	31.87	
C	-2.0003888601	-1.9421735323	 4.3799588755	-0.387121
C	-1.1813649132	-0.7347079667	 3.9226949337	 0.110783
O	 0.2111230901	-1.0717102942	 3.9027391168	-0.282581
C	 0.7883728707	-0.7510552312	 2.6431625784	-0.165145
C	-0.3645838862	-0.2919898677	 1.782481041	 0.323748
C	-1.4709422125	-0.2653545229	 2.5228337348	-0.249034
C	-0.2244624992	 0.0906291413	 0.3681333792	-0.031795
C	 0.6904215779	-0.598964637	-0.5634176135	-0.185344
O	 1.0316454668	 0.672924753	-0.0243650308	-0.231236
H	-1.6559870039	-2.276813041	 5.3624918156	 0.127508
H	-3.0613123212	-1.6817506941	 4.4577722167	 0.110549
H	-1.8920158211	-2.769111475	 3.6720779035	 0.117633
H	-1.3377399474	 0.0865216765	 4.6441615238	 0.08225
H	 1.5461861632	 0.0393458848	 2.750742075	 0.119528
H	 1.3007073913	-1.6373274418	 2.2394681768	 0.102702
H	-2.4552126772	 0.0498168555	 2.1980134378	 0.101494
H	-1.0946374182	 0.5811557425	-0.0680644532	 0.095763
H	 1.2926029443	-1.4358887398	-0.2147518917	 0.119875
H	 0.4484102557	-0.61191364	-1.6255909095	 0.120423
54.0145	87.3792	131.8205	173.2649	235.4294	264.8248	346.6892	409.8471	512.5382	535.7795	617.4107	729.2803	826.2622	842.1772	864.148	873.1938	915.5698	932.0218	978.8894	1024.4201	1045.7905	1077.1637	1096.4742	1109.2416	1135.9744	1149.0195	1169.3584	1205.145	1219.1835	1270.4542	1303.7102	1350.405	1370.9537	1391.0138	1399.6954	1418.5846	1485.2581	1494.6456	1522.8813	1523.9422	1723.6816	2942.3204	2985.1378	3004.9246	3036.9515	3084.638	3110.9064	3111.7597	3121.277	3173.3695	3208.2686
CC1OCC(=C1)C1CO1	C[C@H]1OCC(=C1)[C@@H]1CO1	
InChI=1S/C7H10O2/c1-5-2-6(3-8-5)7-4-9-7/h2,5,7H,3-4H2,1H3	InChI=1S/C7H10O2/c1-5-2-6(3-8-5)7-4-9-7/h2,5,7H,3-4H2,1H3/t5-,7+/m1/s1
