19
gdb 1657	2.9665196	1.0147463	0.8986517	2.6272	77.87	-0.25465	-0.03552	0.21913	1371.1759	0.154118	-422.534121	-422.524629	-422.523685	-422.569009	34.109	
C	-0.3274016622	-0.146844811	-0.1251232598	-0.468237
C	 1.1728421439	-0.0014193873	-0.1822896684	 0.252676
O	 1.6964395948	 1.3235860195	-0.4120504137	-0.288489
C	 1.9080654584	 0.7527177191	 0.8724014715	 0.027036
C	 3.306305998	 0.5056599219	 1.3268372583	-0.023379
C	 3.9186498211	 1.4498734021	 2.3367186473	-0.266736
C	 3.5364711576	 0.0563901519	 2.7521304726	-0.266359
C	 1.9083241005	-1.0610631692	-0.9462217599	 0.119438
O	 1.4290593528	-2.1267221573	-1.2417840108	-0.253302
H	-0.5936311502	-1.1194874288	 0.2964272263	 0.144087
H	-0.7681526812	 0.6453238364	 0.483983928	 0.124894
H	-0.7550775896	-0.0938159438	-1.130736793	 0.13834
H	 1.2639988228	 1.1723647272	 1.6510958985	 0.093286
H	 3.977941863	 0.1067603774	 0.5758000812	 0.095241
H	 4.9697616247	 1.6908435583	 2.2285232603	 0.121856
H	 3.3072625044	 2.2727644713	 2.6922041106	 0.120227
H	 4.3206831161	-0.6695334125	 2.9323222746	 0.123207
H	 2.667206854	-0.0631112098	 3.3905484771	 0.118792
H	 2.9383931811	-0.7739402354	-1.2457662607	 0.087422
56.7735	90.6546	130.0693	157.1599	193.0348	253.5607	308.6916	345.4815	381.4391	433.525	509.8942	553.6813	759.6915	764.3762	820.7537	831.4067	884.6363	901.3734	931.2531	971.2779	1012.1737	1049.2385	1064.6904	1081.5485	1096.5325	1118.9948	1127.8956	1195.5515	1197.6396	1225.7132	1282.6217	1326.3884	1345.7378	1401.8601	1416.7522	1471.4572	1473.5164	1481.7608	1494.0621	1510.112	1819.8778	2911.4489	3050.9012	3062.2295	3120.4902	3135.1325	3137.2647	3139.2071	3178.1937	3214.858	3229.8392
CC1(OC1C1CC1)C=O	C[C@]1(O[C@@H]1C1CC1)C=O	
InChI=1S/C7H10O2/c1-7(4-8)6(9-7)5-2-3-5/h4-6H,2-3H2,1H3	InChI=1S/C7H10O2/c1-7(4-8)6(9-7)5-2-3-5/h4-6H,2-3H2,1H3/t6-,7+/m1/s1
