19
gdb 2331	2.5588115	1.7164611	1.5235787	1.7681	74.38	-0.22296	0.06174	0.2847	974.9641	0.157149	-422.511856	-422.503962	-422.503018	-422.543981	31.021	
O	 0.0795394562	 0.0052128807	 0.593013478	-0.484837
C	-0.6007954032	 1.2233227101	 0.6069118103	 0.361294
C	-2.013514908	 1.1049964873	-0.0461493179	-0.262196
C	-2.7012417841	 1.3339435785	 1.3465689478	-0.333074
C	-1.3534000608	 1.8135352514	 1.8474893291	 0.420706
O	-0.8484706915	 1.7828859456	 3.1763129585	-0.339502
C	-0.1500589694	 3.0417476709	 2.9636636313	-0.105774
C	-0.7030187024	 3.1874951693	 1.5276346236	-0.134801
C	 0.1539793127	 2.5633082077	 0.3869739061	-0.326578
H	 0.6946132304	 0.005158278	 1.3355764638	 0.282838
H	-2.2321941973	 1.8779808238	-0.7858795793	 0.102131
H	-2.1831165596	 0.1229428941	-0.4877487775	 0.121245
H	-3.5460590064	 2.025676199	 1.4015714832	 0.098886
H	-2.9874243669	 0.3832767488	 1.8060651621	 0.119337
H	-0.4919702375	 3.8017183494	 3.674936285	 0.109902
H	 0.9378469326	 2.9293787077	 3.0522057351	 0.099228
H	-1.2762660888	 4.0892786115	 1.314369775	 0.076446
H	 0.0478735492	 3.0184526952	-0.6019357697	 0.101916
H	 1.2216564848	 2.5050354509	 0.6263345756	 0.092833
100.6957	144.9936	215.4084	302.5997	325.1452	377.7505	389.3846	481.4172	567.0696	590.9676	666.2446	755.9783	800.0886	820.2108	860.9585	868.7151	917.5795	932.9588	972.5421	984.1034	1022.4932	1054.9504	1065.9651	1107.0394	1144.1672	1159.2761	1173.3973	1176.7604	1209.2457	1217.3327	1245.3337	1256.4537	1290.3474	1313.3327	1322.5634	1351.5547	1365.9095	1464.9275	1476.0176	1488.6744	1520.0876	3016.4457	3037.6381	3054.8229	3065.8158	3076.8796	3091.2966	3106.0404	3114.6971	3144.2249	3793.8779
OC12CCC11OCC1C2	O[C@@]12CC[C@]31OC[C@H]3C2	
InChI=1S/C7H10O2/c8-6-1-2-7(6)5(3-6)4-9-7/h5,8H,1-4H2	InChI=1S/C7H10O2/c8-6-1-2-7(6)5(3-6)4-9-7/h5,8H,1-4H2/t5-,6-,7+/m1/s1
