19
gdb 635	3.8079547	1.2718809	1.2453365	1.1978	77.05	-0.24525	0.01383	0.25908	1096.977	0.158481	-422.576126	-422.568357	-422.567413	-422.609054	29.682	
C	 0.9938255133	 1.9461663231	-1.0841687607	-0.210835
C	 1.8667857108	 1.1601152398	-0.1010155144	-0.08705
O	 1.2768971521	-0.1354487523	-0.0646210582	-0.277308
C	-0.1365874653	 0.0068037679	-0.1020945715	 0.483015
C	-0.4038587266	 1.3747045839	-0.7863264449	-0.309439
O	-0.6878675714	 0.0335647245	 1.2137511307	-0.297346
C	-1.2966593799	-1.2145496483	 1.5201953018	-0.136621
C	-1.3561302426	-1.9466027176	 0.2090219891	-0.103009
C	-0.7205955402	-1.2400707349	-0.7159222974	-0.141814
H	 1.0563466789	 3.0278426912	-0.9411618316	 0.101957
H	 1.2968415733	 1.721288635	-2.1114445328	 0.105034
H	 2.9067477926	 1.0459248685	-0.4169940136	 0.104189
H	 1.851796053	 1.6188476128	 0.8989599931	 0.099412
H	-1.0159988144	 1.2571237476	-1.6831487165	 0.107896
H	-0.9586380544	 1.997786017	-0.0817983204	 0.123483
H	-0.7102223737	-1.7684381684	 2.270104354	 0.111883
H	-2.2887400585	-1.0254773543	 1.9525168359	 0.110251
H	-1.8363386035	-2.9089134875	 0.0859110416	 0.108942
H	-0.5573506235	-1.497018598	-1.7538355942	 0.107359
44.4911	105.4774	198.0806	262.4717	360.7926	432.6961	468.1292	523.8984	607.4791	735.5328	747.9735	781.7738	828.449	838.4692	891.3012	932.5595	950.5008	954.4502	960.685	1008.2723	1018.4174	1040.2053	1056.8991	1076.8868	1119.0053	1162.9917	1172.3763	1201.7168	1214.2374	1254.0058	1263.1784	1314.5893	1335.3842	1371.1718	1373.6412	1383.9985	1481.9167	1495.7653	1510.1098	1518.5686	1691.695	2983.8498	2995.2991	3024.6695	3054.0539	3075.1043	3094.9021	3104.1448	3125.7796	3210.7921	3236.9471
C1COC2(C1)OCC=C2	C1CO[C@]2(C1)OCC=C2	
InChI=1S/C7H10O2/c1-3-7(8-5-1)4-2-6-9-7/h1,3H,2,4-6H2	InChI=1S/C7H10O2/c1-3-7(8-5-1)4-2-6-9-7/h1,3H,2,4-6H2/t7-/m1/s1
