19
gdb 5008	2.8972379	1.5699171	1.2955907	0.5075	73.15	-0.23656	0.07003	0.30659	1042.83	0.157024	-422.505621	-422.497884	-422.49694	-422.537799	30.539	
C	 1.1901388739	 0.9335933174	 0.474208472	-0.387882
C	 0.8468222678	-0.4604260863	-0.0636224902	-0.310729
C	 1.6925234091	-0.8440299521	-1.2479250854	 0.392082
C	 1.6193587365	-0.1905502283	-2.6535088209	-0.272361
C	 2.1330660744	-1.6013090093	-3.0031866729	 0.02073
O	 1.3205420316	-2.1250087785	-1.8956611767	-0.340798
C	 3.5453882882	-1.6515655214	-2.3630124971	 0.03168
O	 4.0741451861	-0.3751259014	-1.965302661	-0.249041
C	 3.2203804803	-1.0893380309	-1.0567134334	-0.00075
H	 0.5624913784	 1.1816662113	 1.3345357273	 0.11993
H	 2.2355889032	 0.9943708693	 0.7938294293	 0.126334
H	 1.0322096056	 1.7026771205	-0.2887307231	 0.126517
H	 0.9862059856	-1.2146506082	 0.7218109727	 0.108706
H	-0.2072261701	-0.5072603213	-0.3576433052	 0.110989
H	 0.5822021122	-0.0667260136	-2.9647309266	 0.106986
H	 2.2340888852	 0.6784206942	-2.8786749919	 0.121344
H	 1.9622910024	-2.1028430687	-3.9542685486	 0.081188
H	 4.2615131771	-2.4418793595	-2.5563553458	 0.109317
H	 3.6508491225	-1.3906425332	-0.1076014625	 0.105759
85.7179	148.4149	200.7411	311.5374	345.8716	414.8688	438.8582	555.91	586.0773	619.1909	710.1717	786.7498	805.5453	812.7402	848.4199	891.2827	893.1157	918.3822	957.2214	966.6202	990.8312	1008.5936	1030.1712	1076.2594	1089.4472	1104.5707	1202.2688	1216.4337	1224.0618	1238.5956	1263.5336	1291.3728	1305.2185	1320.9008	1366.5941	1404.6284	1415.5817	1476.2966	1487.1571	1499.8137	1508.4475	3027.9553	3039.2059	3070.398	3098.3656	3107.5769	3114.1357	3137.9838	3170.8753	3172.8309	3189.3931
CCC12CC(O1)C1OC21	CC[C@]12C[C@H](O1)[C@H]1O[C@@H]21	
InChI=1S/C7H10O2/c1-2-7-3-4(9-7)5-6(7)8-5/h4-6H,2-3H2,1H3	InChI=1S/C7H10O2/c1-2-7-3-4(9-7)5-6(7)8-5/h4-6H,2-3H2,1H3/t4-,5+,6+,7+/m0/s1
