19
gdb 5294	2.287746	1.6990859	1.3259123	1.8503	75.82	-0.24752	0.00503	0.25255	1041.1696	0.157843	-422.550793	-422.542633	-422.541688	-422.583471	31.107	
O	 1.1630938392	 0.7486106648	-0.3930265532	-0.421994
C	 0.2016126454	 0.0309888606	 0.3625833564	-0.142733
C	-1.2049245985	 0.5770485403	 0.1629269357	 0.215028
C	-2.401402743	-0.3291160342	 0.5495572412	-0.122463
O	-3.0036769506	-0.1493832685	-0.7475522066	-0.297141
C	-1.8388823873	 0.5440473281	-1.2572506015	 0.100962
C	-2.1395886745	 1.9877409634	-1.6826512303	-0.284146
C	-1.8618380063	 2.7767777676	-0.4221588755	-0.06149
C	-1.3662403696	 2.0235841094	 0.562307606	-0.170969
H	 1.0337806437	 1.6855663456	-0.2059402133	 0.282545
H	 0.2568984875	-1.0059410055	 0.0143575779	 0.10939
H	 0.4521504191	 0.0279681135	 1.4376572946	 0.085247
H	-2.1318321721	-1.3789555644	 0.733957097	 0.09373
H	-3.0490764066	 0.0249544482	 1.3594924736	 0.102145
H	-1.323630639	-0.0474188852	-2.0211271465	 0.079627
H	-1.5120721258	 2.3187420901	-2.5201345299	 0.110101
H	-3.1828834432	 2.0712104178	-2.0095116526	 0.124582
H	-2.0655405423	 3.83982787	-0.3444815157	 0.100785
H	-1.1137765161	 2.3809295783	 1.5564152029	 0.096794
108.9809	112.3737	175.141	244.2181	300.3135	353.4665	386.1961	431.0881	486.8954	621.4951	699.2225	758.8862	770.3488	856.3095	878.9139	910.4167	938.6326	960.7345	979.2234	1011.6119	1023.8195	1046.6203	1066.1873	1088.6838	1125.676	1147.5247	1166.7147	1174.7846	1207.2299	1268.3125	1284.0135	1310.8029	1330.3236	1356.7944	1365.5667	1395.0726	1429.1034	1463.8406	1508.4507	1519.9609	1670.8843	2954.9136	2996.0252	3023.8539	3054.2294	3058.5233	3065.7106	3069.2898	3168.2199	3196.5623	3789.3186
OCC12COC1CC=C2	OC[C@]12CO[C@H]1CC=C2	
InChI=1S/C7H10O2/c8-4-7-3-1-2-6(7)9-5-7/h1,3,6,8H,2,4-5H2	InChI=1S/C7H10O2/c8-4-7-3-1-2-6(7)9-5-7/h1,3,6,8H,2,4-5H2/t6-,7+/m0/s1
