19
gdb 2117	2.6168763	1.8402828	1.3492867	2.127	74.69	-0.21094	0.08385	0.29479	1013.3289	0.156084	-422.525314	-422.517217	-422.516272	-422.557288	31.765	
C	 3.7536211122	-2.522495676	 0.0819241942	-0.502266
C	 3.120745695	-1.1754222482	 0.1771843431	 0.436138
O	 2.1693519142	-0.8043514407	-0.8256256316	-0.364093
C	 1.5507874889	 0.1397950653	 0.1194965444	 0.387331
C	 0.0489996132	 0.0429430356	 0.1400872058	-0.489727
C	 2.1868776726	 1.4939803587	-0.1896259502	-0.094696
O	 3.5875246953	 1.2906729648	 0.0264442592	-0.269339
C	 3.7246063875	 0.0947545086	 0.7577038432	 0.03643
C	 2.4131430269	-0.415596476	 1.2813944842	-0.318895
H	 4.4393441314	-2.6829811766	 0.9192384025	 0.124124
H	 2.9977261451	-3.3144405639	 0.0946797336	 0.128249
H	 4.3253770406	-2.6089431107	-0.8484998538	 0.137248
H	-0.371297089	 0.7139501665	 0.8964216256	 0.122711
H	-0.3643108562	 0.3195485317	-0.8351876384	 0.132142
H	-0.2642373939	-0.9793421629	 0.3659233268	 0.132692
H	 2.0277995893	 1.7828314107	-1.2331741442	 0.114736
H	 1.8059889357	 2.2877004659	 0.4718951723	 0.088279
H	 4.6373942315	 0.0423593775	 1.3396730613	 0.104862
H	 2.1167820897	-0.6435113003	 2.2971878921	 0.094073
184.4237	197.0675	201.6391	241.4931	261.3938	297.0428	352.3501	432.1317	532.9526	583.6577	637.4997	727.5956	760.8724	788.1073	847.1465	864.987	891.0999	921.9716	936.7624	981.8798	996.6294	1004.0472	1079.4473	1098.6853	1108.2119	1128.3607	1145.7867	1197.7668	1232.1446	1263.1697	1271.8314	1302.2401	1379.4625	1406.9717	1411.1875	1453.2387	1473.0913	1482.4864	1492.0169	1499.8239	1500.0608	2983.369	3033.0944	3039.6504	3081.3454	3099.0475	3108.8867	3113.0223	3123.2681	3184.2622	3193.4512
CC12OC3(C)COC1C23	C[C@]12O[C@]3(C)CO[C@H]1[C@H]23	
InChI=1S/C7H10O2/c1-6-3-8-5-4(6)7(5,2)9-6/h4-5H,3H2,1-2H3	InChI=1S/C7H10O2/c1-6-3-8-5-4(6)7(5,2)9-6/h4-5H,3H2,1-2H3/t4-,5-,6+,7+/m0/s1
