19
gdb 2440	2.2570024	1.8849091	1.5393873	0.7923	74.01	-0.21475	0.06886	0.28361000000000003	975.8807	0.157036	-422.530458	-422.522336	-422.521392	-422.562464	31.875	
C	-0.0447264813	-0.0196075296	-0.4174331725	-0.521556
C	 1.3821458158	 0.0751050757	 0.021921017	 0.228447
C	 2.1109300436	-0.2568040289	 1.293519875	-0.022651
O	 2.8518120034	 0.9615524244	 1.3337760945	-0.314665
C	 2.3638011004	 1.2717992589	-0.0187627454	 0.037951
C	 3.4659070026	 0.9093942501	-1.010829955	-0.212432
C	 3.6771958629	-0.6099841816	-0.7582962308	-0.285984
C	 2.4250701164	-1.0284839214	 0.0165983096	 0.306541
O	 1.9385093377	-2.3308003338	-0.081860076	-0.475779
H	-0.6832115959	 0.6929372099	 0.1159607867	 0.120346
H	-0.1445929365	 0.1777939636	-1.4914967083	 0.118985
H	-0.4250051524	-1.0281627609	-0.2319733949	 0.13978
H	 1.7930565461	-0.711247325	 2.2266533795	 0.098591
H	 1.9657996659	 2.287323177	-0.0746074258	 0.079374
H	 3.1196401767	 1.0983230647	-2.0338563018	 0.09969
H	 4.3694083148	 1.5018503992	-0.8439002668	 0.108044
H	 3.738435931	-1.1821835869	-1.688174255	 0.105434
H	 4.5927394327	-0.7981944246	-0.1883888991	 0.103119
H	 2.4716200064	-2.8962161608	 0.4875222891	 0.286764
184.264	187.5671	195.6227	207.5505	285.9043	365.9048	373.5206	394.5749	498.7601	570.8821	655.2926	670.3046	748.5928	762.4948	830.2633	875.3121	905.3896	920.1583	959.6607	991.096	1016.3589	1021.3809	1060.3803	1121.8719	1129.3896	1155.0972	1193.8022	1210.8972	1220.4381	1264.1021	1275.3376	1292.9188	1311.6818	1335.8195	1358.5456	1412.6161	1469.8791	1478.7407	1490.6346	1494.7164	1501.0978	3024.8992	3038.2296	3049.6508	3082.2741	3088.1057	3092.8799	3104.8485	3111.9378	3163.4592	3797.0334
CC12C3OC1CCC23O	C[C@]12[C@@H]3O[C@H]1CC[C@]23O	
InChI=1S/C7H10O2/c1-6-4-2-3-7(6,8)5(6)9-4/h4-5,8H,2-3H2,1H3	InChI=1S/C7H10O2/c1-6-4-2-3-7(6,8)5(6)9-4/h4-5,8H,2-3H2,1H3/t4-,5-,6+,7+/m0/s1
