19
gdb 873	2.3164163	1.6463251	1.1059045	3.3899	75.15	-0.24779	-0.01832	0.22947	1120.5764	0.156728	-422.560843	-422.552333	-422.551389	-422.594786	31.405	
O	 1.4782231601	-0.4251540864	-0.3933788593	-0.259839
C	 0.4585632158	 0.0206926604	 0.0641329534	 0.169795
C	 0.3073068544	 1.437772514	 0.5871594281	-0.152898
C	-1.0569531425	 2.0939976618	 0.2212011257	-0.246701
C	-1.8121785214	 2.2875242509	 1.5578034118	-0.209268
C	-0.6914751722	 2.4497680203	 2.5976853257	-0.286331
C	 0.3344549656	 1.4369394791	 2.1272443418	 0.418162
C	 1.4694630981	 0.9452752542	 2.9057585311	-0.257305
O	 0.2900351628	 0.1421919758	 2.7586361029	-0.267742
H	-0.4645340463	-0.5964613874	 0.1333038689	 0.084043
H	 1.151790796	 2.0156320408	 0.2021157864	 0.100091
H	-0.8786649403	 3.0577942525	-0.2640934772	 0.112853
H	-1.6275342604	 1.4850530355	-0.4877442787	 0.107879
H	-2.5054628648	 3.1316952778	 1.5296858806	 0.102307
H	-2.3954252431	 1.3907266872	 1.794207561	 0.116479
H	-0.264874272	 3.4596916435	 2.5465238586	 0.105687
H	-1.002316019	 2.258879044	 3.6273224004	 0.11534
H	 2.3518213476	 0.5690022686	 2.3896032925	 0.130363
H	 1.6431424714	 1.3319727974	 3.9091210664	 0.117086
44.034	75.6511	165.0171	233.338	278.9952	334.966	378.1247	436.9275	488.037	539.6723	602.1521	757.6499	812.6622	841.1085	851.1706	900.7564	924.5978	963.469	976.1939	1013.1332	1019.5634	1064.0624	1084.0035	1129.5172	1160.3974	1183.244	1190.1534	1221.344	1255.7894	1268.4091	1300.0499	1320.8326	1338.1624	1345.4499	1415.4158	1428.164	1474.6385	1488.5162	1503.3274	1527.0508	1830.4923	2886.5966	3030.9869	3046.7564	3051.4509	3073.1703	3082.5281	3089.1667	3105.4144	3111.6894	3170.7863
O=CC1CCCC11CO1	O=C[C@H]1CCC[C@@]21CO2	
InChI=1S/C7H10O2/c8-4-6-2-1-3-7(6)5-9-7/h4,6H,1-3,5H2	InChI=1S/C7H10O2/c8-4-6-2-1-3-7(6)5-9-7/h4,6H,1-3,5H2/t6-,7+/m1/s1
