19
gdb 4277	2.3081932	1.7061536	1.3917861	3.7345	73.97	-0.23061	-0.03271	0.19790000000000002	1025.5606	0.158051	-422.563994	-422.555834	-422.55489	-422.596816	30.63	
C	-0.521641916	 1.9308644506	-1.3506811251	-0.406773
C	-0.8788699903	 1.3275669718	 0.0220996467	-0.09036
C	-2.3239047568	 0.7828494925	 0.1420613399	-0.257032
C	-2.271585275	-0.744855509	-0.1050047518	-0.078398
C	-2.1662643519	-1.2011999103	-1.572462137	-0.076736
O	-0.7377741673	-1.40889348	-1.4523425043	-0.293862
C	-0.7846670268	-1.1579968346	-0.0215900962	 0.023925
C	 0.0117503217	 0.1102034153	 0.3096696583	 0.400827
O	 1.1402912778	 0.1375101111	 0.7267136407	-0.31654
H	-0.6274892658	 1.196059554	-2.1527443022	 0.141452
H	-1.168245107	 2.7859915011	-1.5714878706	 0.116114
H	 0.5163017454	 2.2755811501	-1.3509045787	 0.136357
H	-0.675042151	 2.0813829661	 0.7880352257	 0.100073
H	-2.7007175193	 0.9680111348	 1.1530720338	 0.109359
H	-3.0143935732	 1.2782264998	-0.5484502543	 0.104991
H	-2.9885298554	-1.2934465011	 0.5055445072	 0.08449
H	-2.6831042266	-2.1405841046	-1.8040792035	 0.107871
H	-2.4153559116	-0.4561983071	-2.3372634076	 0.104748
H	-0.4744210909	-2.0266539605	 0.565879799	 0.089494
81.563	123.6965	197.7418	229.6925	261.3349	320.1022	358.5518	450.995	559.2698	650.8436	701.933	763.182	815.9142	870.1671	879.3001	885.9258	911.5305	967.892	999.2164	1021.2206	1039.214	1074.5134	1106.1537	1141.1873	1164.5124	1179.57	1192.6663	1243.9155	1258.9464	1272.0868	1290.2449	1327.3099	1335.5596	1348.037	1367.6438	1406.9061	1487.3327	1494.7012	1505.6804	1528.1702	1844.9202	3018.0569	3041.104	3043.0055	3064.0352	3066.3637	3074.4519	3083.3571	3112.1375	3112.6727	3129.6055
CC1CC2COC2C1=O	C[C@H]1C[C@H]2CO[C@H]2C1=O	
InChI=1S/C7H10O2/c1-4-2-5-3-9-7(5)6(4)8/h4-5,7H,2-3H2,1H3	InChI=1S/C7H10O2/c1-4-2-5-3-9-7(5)6(4)8/h4-5,7H,2-3H2,1H3/t4-,5-,7+/m0/s1
