19
gdb 686	2.9571261	1.3408193	1.2018017	3.2981	76.08	-0.22613	-0.023	0.20313	1118.9275	0.157227	-422.570363	-422.562043	-422.561099	-422.604109	30.919	
O	 1.1899640194	 0.0314098849	-0.4111340923	-0.298914
C	 0.0250023029	-0.0360414896	-0.151909029	 0.339472
C	-0.9553856147	-1.1874329417	 0.14178552	-0.347472
C	-2.1185342018	-0.1901813511	-0.1325669133	-0.300472
C	-1.1212376077	 1.0137000429	-0.0977600531	 0.349658
C	-1.1062080055	 1.8844100443	 1.1807027217	-0.29789
C	-1.7288902482	 3.2013915391	 0.6908090533	-0.225842
C	-1.2076858389	 3.2563682845	-0.7445005956	-0.075189
O	-1.2093578783	 1.8999619407	-1.1925239662	-0.30117
H	-0.8691373484	-2.0598757886	-0.5095371177	 0.133932
H	-0.8868672498	-1.5228300372	 1.1818041134	 0.130279
H	-2.5346648222	-0.3049692127	-1.1352280281	 0.123494
H	-2.9297971083	-0.1651718086	 0.5971762917	 0.101995
H	-1.6452290735	 1.4229215677	 2.0107635679	 0.110226
H	-0.0721216692	 2.0542497051	 1.4994125199	 0.123869
H	-2.8219344558	 3.1384502311	 0.695556154	 0.111449
H	-1.4310112578	 4.0653207085	 1.2895764389	 0.108145
H	-1.8372010527	 3.8362732493	-1.425472532	 0.109972
H	-0.1877356494	 3.6662829117	-0.7809841838	 0.104458
46.1049	76.8959	154.9053	238.3843	266.2551	334.7573	420.4317	510.6439	584.806	599.9614	695.508	746.1583	757.8203	844.171	888.7639	900.9252	923.8148	932.6151	957.8427	1008.3839	1018.8631	1037.5469	1061.6429	1132.6998	1157.9658	1163.9151	1198.0351	1209.3165	1217.7175	1230.575	1263.9821	1283.3164	1320.9891	1337.7781	1389.434	1440.5891	1478.6841	1487.5276	1496.0744	1525.5905	1892.1116	2999.4518	3049.0209	3054.2821	3059.4429	3077.5481	3086.1942	3106.8031	3116.0145	3116.8143	3138.1761
O=C1CCC11CCCO1	O=C1CC[C@]21CCCO2	
InChI=1S/C7H10O2/c8-6-2-4-7(6)3-1-5-9-7/h1-5H2	InChI=1S/C7H10O2/c8-6-2-4-7(6)3-1-5-9-7/h1-5H2/t7-/m0/s1
