19
gdb 640	2.6136676	1.4460332	0.9968686	1.5146	77.81	-0.2528	0.0118	0.2646	1183.0425	0.157901	-422.492981	-422.484335	-422.48339	-422.526493	31.97	
C	 0.0982756937	 4.2389360341	-1.361958229	-0.198176
C	 0.3346888684	 4.4877437688	-2.8773051848	-0.074262
O	 1.1180277055	 5.6457911458	-3.1703219266	-0.236584
C	 2.5026623355	 5.416273123	-3.3765176001	-0.207891
C	 3.0716988099	 4.655027906	-2.2657174446	 0.048097
C	 3.2201925049	 3.9528561706	-1.2988239372	 0.047629
C	 2.997482007	 3.0741065244	-0.151940986	-0.207845
O	 1.6469486375	 3.1414122008	 0.2770187516	-0.236613
C	 0.6632107958	 2.9331325626	-0.737610498	-0.074261
H	 0.5062262655	 5.0875428713	-0.8080300096	 0.132923
H	-0.9827966738	 4.2529951413	-1.1857777645	 0.096197
H	 0.7711090405	 3.5993615309	-3.355812589	 0.09469
H	-0.6254056374	 4.6793056441	-3.366596111	 0.107628
H	 2.6719049053	 4.8781345928	-4.3241013779	 0.11606
H	 2.9592668642	 6.4061584158	-3.4771769771	 0.137011
H	 3.2719728518	 2.0389633734	-0.4151678727	 0.116064
H	 3.6021791573	 3.3620517719	 0.7140360923	 0.137008
H	 1.0536915703	 2.2640677907	-1.5176837143	 0.094701
H	-0.1433923819	 2.3977766517	-0.2270507917	 0.107625
67.2142	102.0603	205.6073	210.5726	313.5768	342.2331	358.3932	364.3377	381.973	456.9106	556.101	623.7593	702.1531	788.1109	878.292	927.5576	935.9187	1009.0273	1027.8864	1028.6611	1050.1169	1083.9026	1106.8635	1137.8614	1147.9536	1217.438	1260.2254	1266.1435	1327.8902	1332.9171	1364.3138	1377.2065	1391.0524	1405.4303	1419.1033	1472.3844	1482.5227	1485.6887	1488.1185	1496.9031	2357.5031	2966.2082	2966.4839	3002.0365	3006.2191	3039.187	3069.917	3071.6843	3072.2745	3078.5691	3113.0972
C1COCC#CCOC1	C1COCC#CCOC1	
InChI=1S/C7H10O2/c1-2-5-9-7-3-6-8-4-1/h3-7H2	InChI=1S/C7H10O2/c1-2-5-9-7-3-6-8-4-1/h3-7H2
