19
gdb 3734	2.837868	1.3451144	1.1273896	1.5722	76.3	-0.2506	0.05382	0.30441999999999997	1160.7849	0.155123	-422.50624	-422.497516	-422.496572	-422.53959	32.635	
C	 0.0330158858	-0.1469113204	-0.3541651919	-0.420557
C	 1.0423161977	 0.3267026649	 0.6566343919	-0.021622
O	 2.2390340349	 0.9473716499	 0.1407293606	-0.302
C	 2.3637751663	-0.2877934463	 0.8172385467	 0.369154
C	 2.9369583678	-1.5968210954	 0.251462147	-0.338924
C	 3.4483112093	-1.9425131695	 1.6900335384	-0.337712
C	 3.139036763	-0.4948227747	 2.0979795556	 0.389321
C	 3.9560098288	 0.4838419253	 2.8150780953	-0.262959
O	 2.7387655838	-0.0407336788	 3.374026573	-0.278132
H	-0.69148673	-0.8203593122	 0.1166805643	 0.124351
H	-0.5202027452	 0.7017099005	-0.7697249546	 0.132578
H	 0.5187590903	-0.6745262342	-1.1789593727	 0.126734
H	 0.6367618439	 0.8375914561	 1.530885721	 0.104977
H	 2.2255886757	-2.2935890573	-0.195853452	 0.112497
H	 3.7497441201	-1.4130488838	-0.4552761709	 0.121719
H	 2.8028530783	-2.6566228943	 2.2073392842	 0.12173
H	 4.4861704771	-2.2679191303	 1.7787028309	 0.113221
H	 4.8710571746	 0.1631310388	 3.3110670028	 0.116425
H	 3.9166454578	 1.5294007813	 2.5156190104	 0.129198
88.2994	126.2633	174.425	178.9447	243.5126	281.3436	341.2759	439.008	471.1011	518.0293	580.7907	626.3393	755.1393	799.5447	855.9765	871.1803	902.534	905.1886	946.452	965.4321	1029.9166	1085.8315	1100.5041	1113.0758	1126.5188	1141.2157	1163.1544	1164.6146	1189.4201	1222.2923	1246.4435	1254.3795	1346.1592	1407.0001	1428.8681	1470.2085	1471.9179	1487.5318	1492.2634	1519.4817	1538.2072	3036.7615	3070.0539	3074.1843	3086.191	3100.8732	3103.0724	3118.8796	3126.6467	3133.7526	3179.8001
CC1OC11CCC11CO1	C[C@@H]1O[C@@]21CC[C@]12CO1	
InChI=1S/C7H10O2/c1-5-7(9-5)3-2-6(7)4-8-6/h5H,2-4H2,1H3	InChI=1S/C7H10O2/c1-5-7(9-5)3-2-6(7)4-8-6/h5H,2-4H2,1H3/t5-,6+,7+/m0/s1
