19
gdb 5450	4.5662165	1.0924209	1.0054842	2.0052	75.67	-0.23195	0.0752	0.30715	1222.9822	0.156255	-422.490028	-422.481723	-422.480778	-422.522658	32.009	
C	 1.4565057585	-0.0189212315	-0.1103064024	-0.239738
O	 0.0685028972	-0.1066618863	 0.1179293398	-0.25545
C	-0.3651428696	 0.6560391597	 1.2181695533	 0.166906
C	-1.8521132081	 0.4437102188	 1.4385876479	-0.134538
C	-1.6025330964	-0.6953224774	 2.4163854648	-0.157613
C	-0.1749379078	-0.0407275917	 2.6035935012	-0.117057
C	-0.7945412825	 0.975983242	 3.6063190939	-0.305103
C	-2.1195955074	 0.6284489478	 2.9324928727	 0.383506
O	-3.3921974418	 0.9858837629	 3.3242556238	-0.462444
H	 2.0458770675	-0.4166497017	 0.7296223222	 0.103515
H	 1.675836987	-0.6119318041	-1.0014325935	 0.126791
H	 1.7740783911	 1.0205998537	-0.2886801892	 0.103979
H	 0.0157944682	 1.6878996257	 1.1348611528	 0.054289
H	-2.6579477926	 0.5428004996	 0.7234536649	 0.09576
H	-1.9784833661	-1.7065026378	 2.4494738186	 0.094384
H	 0.7426540939	-0.572509448	 2.8435484309	 0.075362
H	-0.7574869543	 0.6043413439	 4.6360839689	 0.089924
H	-0.4343955884	 2.0112128569	 3.5732246146	 0.09231
H	-3.5656823083	 0.5842463375	 4.1829073148	 0.285219
100.7331	151.1925	178.409	255.0832	312.233	320.6244	373.974	418.5747	473.1415	500.4002	620.5589	755.8009	796.174	830.0263	850.4971	898.9354	917.4808	932.1293	950.9545	984.4321	1025.9893	1037.7122	1056.6323	1108.8486	1122.7524	1134.92	1151.1461	1180.9462	1183.7347	1216.3753	1224.7987	1254.3636	1284.7678	1295.0699	1329.9133	1393.0894	1436.7821	1481.36	1489.0198	1505.8751	1510.1011	2956.2824	2976.076	3020.8616	3026.0271	3080.273	3114.2296	3145.8846	3209.2343	3235.2452	3794.3631
COC1C2C3C1CC23O	CO[C@H]1[C@H]2[C@H]3[C@@H]1C[C@@]23O	
InChI=1S/C7H10O2/c1-9-6-3-2-7(8)4(3)5(6)7/h3-6,8H,2H2,1H3	InChI=1S/C7H10O2/c1-9-6-3-2-7(8)4(3)5(6)7/h3-6,8H,2H2,1H3/t3-,4+,5+,6+,7-/m0/s1
