19
gdb 1309	2.5177362	1.1699249	0.8787311	0.6828	77.99	-0.24954	0.04012	0.28966000000000003	1344.0728	0.154109	-422.50696	-422.496999	-422.496055	-422.542318	35.788	
C	-4.0658223447	 0.0884327594	-1.2583734605	-0.415279
C	-3.417093643	-1.2728636769	-1.4916821905	 0.109004
O	-4.3660165272	-2.3269994922	-1.6008941608	-0.426998
C	-2.4007754099	-1.6074471286	-0.4050006479	 0.130919
O	-1.2704987224	-0.7106359589	-0.4033051798	-0.293517
C	-0.3347205255	-1.8047410089	-0.4647630718	-0.079501
C	-1.4813085619	-2.8389841283	-0.6473607878	-0.249843
C	-1.5538870882	-3.9455442963	 0.2807092279	 0.321263
C	-1.6111622626	-4.8497329378	 1.0713138821	-0.458136
H	-4.6203730402	 0.0959364033	-0.3112555655	 0.10658
H	-3.3025860787	 0.8700876634	-1.2070997913	 0.142052
H	-4.7632475419	 0.32274632	-2.0668857241	 0.12469
H	-2.8906105351	-1.2638383833	-2.4537835749	 0.091552
H	-4.9053277263	-2.3256974492	-0.8019069942	 0.282453
H	-2.892825352	-1.6311198871	 0.5796438122	 0.072857
H	 0.3637724757	-1.7043142515	-1.3021257477	 0.111753
H	 0.2243088301	-1.9221573512	 0.4702402442	 0.112939
H	-1.5639372566	-3.1965085713	-1.6773672894	 0.118624
H	-1.6624108296	-5.6555346348	 1.7608889001	 0.198589
54.9158	67.5123	144.4404	149.6212	209.6636	240.2577	286.7318	313.4416	352.9553	430.9027	477.3953	517.8024	529.7067	622.1033	633.7287	712.7114	851.5863	889.6501	943.878	992.5634	1017.0146	1036.2737	1040.2379	1079.0486	1099.2918	1121.4278	1163.046	1169.3758	1211.9011	1261.4389	1264.5985	1319.2713	1343.8977	1366.0341	1398.4918	1408.5953	1412.7699	1491.797	1493.451	1523.2718	2237.6587	2985.9786	3024.9703	3030.1745	3044.0286	3067.7879	3085.3243	3100.5784	3127.7526	3504.2505	3797.2095
CC(O)C1OCC1C#C	C[C@H](O)[C@@H]1OC[C@H]1C#C	
InChI=1S/C7H10O2/c1-3-6-4-9-7(6)5(2)8/h1,5-8H,4H2,2H3	InChI=1S/C7H10O2/c1-3-6-4-9-7(6)5(2)8/h1,5-8H,4H2,2H3/t5-,6+,7-/m0/s1
