19
gdb 5954	4.3896045	0.9803985	0.9188804	1.6713	75.	-0.23567	-0.00043	0.23523999999999998	1305.5386	0.156666	-422.513748	-422.505358	-422.504414	-422.547114	32.012	
O	 1.465001119	 0.8252374724	 0.021390489	-0.419449
C	 0.094588881	 0.5926387858	 0.3073872996	-0.06766
C	-0.8326490014	 1.2398269985	-0.7259178419	-0.349995
C	-2.2973665711	 0.9909995924	-0.4772078836	 0.382668
C	-3.0443484005	 1.1739456556	 0.8914559044	-0.260103
C	-3.9246528617	 0.1224817676	 0.15779741	 0.014806
O	-2.6938894978	-0.4309170002	-0.4097709089	-0.320114
C	-4.4705415454	 0.9475162196	-1.0246285787	-0.087979
C	-3.3599353823	 1.5432839143	-1.4577127788	-0.121325
H	 1.6812402712	 0.3477684464	-0.7857726711	 0.281495
H	-0.1328531569	-0.4793666197	 0.3836299904	 0.112434
H	-0.0774969735	 1.0326120633	 1.2952697331	 0.111159
H	-0.6483732966	 2.3203451399	-0.7543654922	 0.113095
H	-0.5862543301	 0.8503968074	-1.7238174569	 0.102712
H	-2.4980174815	 0.7494436525	 1.7371556834	 0.107676
H	-3.4740477451	 2.1496477928	 1.1268376711	 0.098333
H	-4.5583675168	-0.6038779652	 0.6639681504	 0.081196
H	-5.4920018749	 1.0057555607	-1.3701947156	 0.111874
H	-3.1891570256	 2.2372380261	-2.2679667238	 0.109177
73.1197	90.2548	138.3381	291.042	300.7667	344.5805	361.7295	477.19	533.4599	613.9445	708.4428	710.4037	753.3235	757.3137	833.7026	858.5619	875.0852	894.5618	904.4126	962.7324	973.8685	1033.6446	1047.0048	1076.2261	1078.1882	1087.5884	1128.6254	1174.6272	1214.5347	1236.4682	1259.6788	1275.9811	1304.9545	1322.8191	1355.5872	1404.2435	1422.57	1469.2081	1488.6156	1515.0982	1621.2433	3012.3533	3016.8061	3060.6004	3064.1908	3084.2458	3135.2157	3138.7732	3228.0551	3256.4602	3816.7723
OCCC12CC(O1)C=C2	OCC[C@]12C[C@H](O1)C=C2	
InChI=1S/C7H10O2/c8-4-3-7-2-1-6(5-7)9-7/h1-2,6,8H,3-5H2	InChI=1S/C7H10O2/c8-4-3-7-2-1-6(5-7)9-7/h1-2,6,8H,3-5H2/t6-,7-/m1/s1
