19
gdb 2124	3.4162934	1.4721007	1.2608925	0.8925	75.04	-0.2357	0.07165	0.30735	1034.7942	0.158164	-422.493114	-422.485542	-422.484598	-422.524995	30.459	
O	 0.0694750038	-0.2508704239	 0.1073819931	-0.468114
C	-0.9200100509	 0.4194067432	 0.794850571	 0.364327
C	-1.2181987538	 1.9378602422	 0.8259340447	-0.373131
C	-2.3122237271	 1.2219203077	 1.6987510346	 0.452379
C	-1.1867346123	 0.4132632695	 2.3778509286	-0.372498
O	-3.5505822484	 1.7415106914	 2.0197062059	-0.32591
C	-4.3763941343	 1.5184715781	 0.8402127471	-0.08402
C	-3.5364649001	 0.7331915113	-0.2389911916	-0.325169
C	-2.441426718	 0.1255419844	 0.6410385416	-0.047165
H	 0.9201638747	 0.138533703	 0.3377583107	 0.285351
H	-0.5056956352	 2.567508775	 1.3653745852	 0.085945
H	-1.5368730228	 2.4055948651	-0.1059022228	 0.095498
H	-0.4633242805	 0.9581894783	 2.9900118836	 0.090738
H	-1.4628101885	-0.5483805435	 2.8158398696	 0.101488
H	-5.2548091331	 0.9475928804	 1.160522884	 0.111478
H	-4.7159855681	 2.4883652477	 0.4625419983	 0.110825
H	-4.1506054732	-0.0185735551	-0.7392338482	 0.107898
H	-3.1633300706	 1.4144484943	-1.0057375278	 0.117249
H	-2.7394074916	-0.8477651392	 1.0425792123	 0.072831
75.5638	226.716	248.4617	285.2718	369.1096	430.3128	498.3606	526.0159	583.1366	617.9396	665.0225	710.315	751.7943	804.7496	827.7189	887.2879	906.0479	962.5568	987.5378	989.8999	1021.199	1067.5764	1087.2335	1110.5238	1116.9122	1120.3898	1129.9951	1164.2863	1197.378	1209.39	1223.956	1261.5228	1283.7557	1308.7476	1355.5013	1394.4822	1422.2528	1484.5582	1501.5679	1519.3462	1551.0851	3037.3935	3053.7611	3057.2449	3066.6096	3075.8903	3081.1004	3122.1595	3130.2925	3139.5712	3805.3233
OC12CC3(C1)OCCC23	O[C@]12C[C@@]3(C1)OCC[C@@H]23	
InChI=1S/C7H10O2/c8-6-3-7(4-6)5(6)1-2-9-7/h5,8H,1-4H2	InChI=1S/C7H10O2/c8-6-3-7(4-6)5(6)1-2-9-7/h5,8H,1-4H2/t5-,6-,7+/m0/s1
