19
gdb 3543	2.8356899	1.3278664	1.003684	3.4916	76.35	-0.23924	-0.01513	0.22411	1194.8468	0.156958	-422.58266	-422.574137	-422.573192	-422.615766	32.619	
O	-2.9501393985	-1.7196611982	 1.3207676204	-0.429806
C	-1.9203245687	-0.766821478	 1.1371632227	 0.115213
C	-0.8706334701	-1.3208685126	 0.169639071	-0.328123
C	-0.2133180326	-0.0819205657	-0.4363406111	 0.346402
O	 0.8505593243	-0.0368663082	-1.0061951304	-0.341874
C	-1.121778308	 1.0890418125	-0.1840857904	 0.251481
C	-1.0648282205	 2.2690415965	-1.1278986348	-0.306244
C	-0.4450065456	 2.3931570604	 0.2244654807	-0.293419
C	-2.3837042684	 0.552526193	 0.4707530067	-0.357387
H	-3.5770248455	-1.3659583733	 1.9600452959	 0.283532
H	-1.4358588434	-0.5317121984	 2.098262817	 0.075797
H	-0.1403935127	-2.0002554657	 0.6121355136	 0.128929
H	-1.3894380652	-1.8634247208	-0.6327158932	 0.140463
H	-0.3992382645	 2.1639876093	-1.9780207312	 0.137386
H	-1.9966380733	 2.7887879074	-1.3232265127	 0.117645
H	 0.6373003186	 2.3740264759	 0.2886660021	 0.136566
H	-0.9492682686	 2.9901426226	 0.9770766374	 0.116553
H	-2.8376311592	 1.248708249	 1.1831506275	 0.094941
H	-3.141243938	 0.3001104342	-0.2819028209	 0.111944
80.0054	117.0284	234.7832	236.4018	287.9572	320.8246	341.3608	437.8361	467.9808	501.0052	577.3695	634.1202	702.7152	791.5757	820.9128	866.8563	893.279	920.9998	934.419	990.1462	1031.4721	1046.6442	1065.2416	1088.6157	1102.961	1121.08	1153.0958	1197.1533	1203.8489	1253.5838	1265.1904	1283.1169	1301.3362	1356.8485	1371.7975	1433.802	1452.4034	1453.8111	1485.0897	1499.9356	1828.0966	2972.5801	3028.266	3034.0873	3079.5803	3123.0244	3130.9115	3132.7022	3217.6799	3232.0997	3813.9377
OC1CC(=O)C2(CC2)C1	O[C@H]1CC(=O)C2(CC2)C1	
InChI=1S/C7H10O2/c8-5-3-6(9)7(4-5)1-2-7/h5,8H,1-4H2	InChI=1S/C7H10O2/c8-5-3-6(9)7(4-5)1-2-7/h5,8H,1-4H2/t5-/m0/s1
