19
gdb 4258	3.3768889	1.4045365	1.207808	1.0812	76.22	-0.24987	0.01557	0.26544	1090.3835	0.15833	-422.580825	-422.573024	-422.57208	-422.61342	29.844	
C	 0.3139809745	-0.1113703941	-0.7710462219	-0.402302
C	 0.972925529	 0.2551351089	 0.5391902433	 0.229147
O	 2.057658844	-0.6079537319	 0.8037030307	-0.26883
C	 2.9187318128	 0.0944329379	 1.6912744111	 0.073208
C	 4.3922946216	-0.1996956252	 1.3563637995	-0.284069
C	 4.8324066882	 1.0238329669	 0.5888420716	-0.061676
C	 3.9117149715	 1.9856567002	 0.5732178488	-0.087693
C	 2.6659724769	 1.586398054	 1.3194149756	 0.064487
O	 1.5107233453	 1.5639970325	 0.4764014844	-0.283701
H	-0.0930634559	-1.1242670069	-0.715647967	 0.125423
H	-0.5008480252	 0.5848790525	-0.98420982	 0.127629
H	 1.0504371944	-0.0606092485	-1.5764053442	 0.131513
H	 0.2496046219	 0.201629557	 1.3764807726	 0.054719
H	 2.6598556154	-0.1356623565	 2.732737057	 0.070582
H	 4.9889413732	-0.3420363012	 2.2658756946	 0.109087
H	 4.4743230034	-1.1237723161	 0.7736264816	 0.125204
H	 5.8057085892	 1.0863206854	 0.1134160443	 0.097711
H	 4.0048124955	 2.949711046	 0.0875329996	 0.102085
H	 2.4640571144	 2.224861729	 2.1899888285	 0.077476
69.166	115.8218	208.9803	272.1989	293.2351	403.7599	465.9716	496.7923	611.7182	683.2335	741.3372	781.6893	827.202	865.0568	878.6153	888.2219	917.2106	963.8644	981.0643	1006.3237	1056.2538	1059.1461	1080.4636	1126.881	1129.9569	1147.2181	1161.9912	1208.7457	1260.2009	1310.7686	1321.3414	1341.0426	1343.2968	1380.6475	1393.6	1400.2124	1439.1107	1471.0603	1484.4924	1486.3259	1686.721	2907.4532	3004.6091	3020.0214	3036.3428	3054.268	3073.3432	3133.6096	3140.2813	3183.5982	3214.1178
CC1OC2CC=CC2O1	C[C@H]1O[C@H]2CC=C[C@H]2O1	
InChI=1S/C7H10O2/c1-5-8-6-3-2-4-7(6)9-5/h2-3,5-7H,4H2,1H3	InChI=1S/C7H10O2/c1-5-8-6-3-2-4-7(6)9-5/h2-3,5-7H,4H2,1H3/t5-,6-,7+/m1/s1
