19
gdb 4275	2.6208339	1.6717432	1.6542098	1.2436	73.97	-0.24067	0.00202	0.24269	942.1302	0.160009	-422.573289	-422.566028	-422.565084	-422.604554	29.67	
O	 0.2620591306	 0.0351350494	 0.2793373483	-0.447803
C	-0.9823163515	 0.4821408607	 0.7905276775	 0.15394
C	-2.2032125231	-0.2013382147	 0.1133352419	-0.251421
C	-3.0836214087	 0.8956708163	-0.5198006258	 0.059969
O	-3.5803124803	 1.7260527435	 0.5510108167	-0.27413
C	-2.5310075018	 2.3770297912	 1.2622287122	-0.069504
C	-1.1580245268	 2.0206965799	 0.6465760093	-0.109905
C	-1.226997108	 2.3432474758	-0.8261470337	-0.105726
C	-2.2409914782	 1.7367181437	-1.4501809165	-0.070138
H	 0.2785383978	 0.2566426786	-0.6590506945	 0.274589
H	-0.9510355607	 0.2339843016	 1.8560142207	 0.08893
H	-1.8514750387	-0.9122075784	-0.640667011	 0.101248
H	-2.7999769594	-0.7573716271	 0.8420747635	 0.10828
H	-3.970988487	 0.4815695297	-1.0004899851	 0.076645
H	-2.6970208993	 3.4611727742	 1.2266890782	 0.099514
H	-2.5646998849	 2.0611702752	 2.3154339328	 0.095217
H	-0.3524825329	 2.5414370987	 1.1674669642	 0.073479
H	-0.5282331992	 3.0221264154	-1.3025608963	 0.097864
H	-2.4781831981	 1.8436510563	-2.5027386424	 0.098952
119.8606	236.5649	302.4384	365.4697	385.2549	418.5655	425.3226	503.2591	597.2547	660.6881	695.4604	739.9404	796.2932	836.8726	862.8523	915.7833	953.3185	970.9408	974.4861	994.1601	1011.35	1046.1666	1064.9049	1095.5951	1118.3602	1139.0517	1179.916	1205.0129	1234.5879	1264.8329	1302.1454	1319.2681	1328.7212	1339.8188	1362.7258	1390.6142	1406.1287	1436.7081	1476.4514	1520.6185	1671.3049	2991.3347	3035.3184	3049.6998	3060.7472	3096.83	3100.4453	3104.4667	3176.955	3201.0548	3790.4175
OC1CC2OCC1C=C2	O[C@@H]1C[C@H]2OC[C@@H]1C=C2	
InChI=1S/C7H10O2/c8-7-3-6-2-1-5(7)4-9-6/h1-2,5-8H,3-4H2	InChI=1S/C7H10O2/c8-7-3-6-2-1-5(7)4-9-6/h1-2,5-8H,3-4H2/t5-,6-,7+/m0/s1
