19
gdb 1628	3.2101997	1.2974846	1.1473859	1.9506	74.87	-0.22929	0.06604	0.29533	1125.7087	0.155786	-422.491104	-422.482614	-422.48167	-422.524531	32.655	
O	 2.2485741893	 0.6518675395	-1.74773569	-0.456745
C	 3.0927573632	-0.2575798689	-1.0794956873	 0.256245
C	 2.7511096327	-1.7267285341	-1.2228539767	-0.320689
C	 3.8920002468	-1.1201350292	-2.0104588518	-0.304816
C	 3.6541123266	 0.2544856037	 0.199987612	 0.257391
C	 5.0528588195	 0.0140030477	 0.7388265852	-0.357076
C	 4.5742287156	 1.4152689115	 0.5186964466	 0.055661
O	 3.7794539574	 1.8582917376	 1.6191276116	-0.284887
C	 2.8051549129	 0.8177185508	 1.3462096999	-0.139937
H	 1.4061727056	 0.6754399844	-1.2816758126	 0.281181
H	 2.9929404598	-2.3922507383	-0.401506956	 0.115541
H	 1.843574642	-1.9700430875	-1.7641366806	 0.114208
H	 4.9053963844	-1.3958578675	-1.745480578	 0.115621
H	 3.7261814273	-0.9404021277	-3.065961659	 0.127605
H	 5.20154026	-0.3475294304	 1.7532033432	 0.111799
H	 5.7682666418	-0.3502932798	 0.0089418188	 0.118442
H	 5.0554247264	 2.1621506541	-0.1012333266	 0.112024
H	 2.6218753091	 0.1727665001	 2.2140869169	 0.10369
H	 1.8607605595	 1.2642299242	 1.0114006943	 0.094742
37.0435	147.2745	210.1051	254.4314	299.9788	320.6336	362.1274	452.0625	462.4151	511.3713	561.3072	758.4029	777.9917	825.854	854.3215	900.6117	923.3578	928.3979	936.2878	983.1981	990.2315	1000.7111	1012.568	1051.2549	1058.6933	1082.6493	1084.7756	1104.4679	1159.5683	1183.9644	1192.681	1226.7667	1248.6319	1289.7146	1335.2147	1360.0546	1428.5867	1450.3713	1480.6787	1498.5924	1510.9783	3013.724	3062.4318	3112.8773	3133.5944	3147.3346	3189.1887	3210.8636	3221.6959	3240.1533	3805.1942
OC1(CC1)C12CC1OC2	OC1(CC1)[C@@]12C[C@@H]1OC2	
InChI=1S/C7H10O2/c8-7(1-2-7)6-3-5(6)9-4-6/h5,8H,1-4H2	InChI=1S/C7H10O2/c8-7(1-2-7)6-3-5(6)9-4-6/h5,8H,1-4H2/t5-,6+/m0/s1
