19
gdb 3885	2.5679556	1.5733996	1.204628	1.3425	74.3	-0.25624	0.07447	0.33071	1072.0567	0.157696	-422.538477	-422.530557	-422.529613	-422.57071	31.362	
O	 0.6784713747	 0.4602121436	 1.022511096	-0.436637
C	-0.7429758166	 0.4657847758	 0.9394435756	 0.1289
C	-1.4142268471	 0.4040917674	 2.3303496958	-0.360613
C	-1.6312929354	 1.8667453033	 2.7236526927	 0.482531
C	-1.1164150741	 2.4575892665	 3.967324656	-0.272569
O	-2.5053481318	 2.1451340438	 3.8182750077	-0.290622
C	-1.7610965685	 2.6556787611	 1.4505014642	-0.119814
C	-2.7100530202	 2.0897331743	 0.4206906095	-0.309888
C	-1.2430757169	 1.7709185121	 0.3278121968	-0.06814
H	 0.9477265769	 1.2633465365	 1.4823614851	 0.277726
H	-0.9868055085	-0.4088660174	 0.3290277119	 0.089627
H	-2.3846472353	-0.1008187969	 2.2804843275	 0.119076
H	-0.792859637	-0.14835019	 3.0378041283	 0.114676
H	-0.5700759324	 1.8361893527	 4.6768341484	 0.112981
H	-0.8803886666	 3.521127553	 4.0090389898	 0.111321
H	-1.5872898636	 3.7249533545	 1.4756825799	 0.088491
H	-3.4126567555	 1.3177453899	 0.7162339559	 0.121254
H	-3.1045973309	 2.786179042	-0.3106264542	 0.118088
H	-0.6683663012	 2.1747080679	-0.4980709169	 0.093611
88.4091	166.1003	285.8105	294.8316	332.2503	348.2665	408.1887	422.6118	506.0459	545.9748	702.4911	754.856	799.8474	836.259	844.3661	894.3151	907.907	929.238	967.7626	986.7844	1000.4457	1036.6309	1068.6455	1080.0577	1105.4364	1113.8057	1128.792	1161.6458	1179.9155	1198.7612	1237.6218	1262.137	1287.9054	1315.4514	1335.438	1362.5871	1430.6161	1437.8565	1474.1153	1497.5895	1531.7483	3053.9344	3070.8393	3071.3949	3115.9822	3135.2875	3156.0301	3174.0025	3181.9846	3218.7366	3798.3274
OC1CC2(CO2)C2CC12	O[C@H]1C[C@@]2(CO2)[C@@H]2C[C@H]12	
InChI=1S/C7H10O2/c8-6-2-7(3-9-7)5-1-4(5)6/h4-6,8H,1-3H2	InChI=1S/C7H10O2/c8-6-2-7(3-9-7)5-1-4(5)6/h4-6,8H,1-3H2/t4-,5+,6-,7+/m0/s1
