19
gdb 5845	2.1281073	1.576515	1.0000063	2.8249	81.15	-0.24534	-0.05774	0.1876	1212.4297	0.156154	-422.568912	-422.559676	-422.558732	-422.603624	32.615	
C	 0.9540178474	 0.0268401793	-0.5592828567	-0.251225
O	 0.3709223014	-0.4635443989	 0.6348448198	-0.258846
C	-0.2070520889	 0.5308570055	 1.470547371	 0.01309
C	-0.1428806372	 0.0495966767	 2.9395827325	-0.239572
C	-1.5300581288	-0.5629784101	 3.2508522148	-0.260823
C	-2.4089880053	 0.0343023148	 2.1895120384	-0.139899
C	-1.7087807381	 0.659877542	 1.230734545	 0.245064
C	-2.3315253332	 1.3424170264	 0.0958457814	 0.068349
O	-1.7335415365	 1.8977801162	-0.801501361	-0.275848
H	 1.7787664072	 0.7236037628	-0.3421737191	 0.100522
H	 1.3584733296	-0.8392729471	-1.0894186903	 0.118752
H	 0.2266607302	 0.5426786547	-1.1954257624	 0.142668
H	 0.3190219319	 1.4827544316	 1.3220334628	 0.078724
H	 0.6830526549	-0.6515334955	 3.0686532554	 0.117908
H	 0.0338852828	 0.9067928597	 3.5956980541	 0.108855
H	-1.534114991	-1.6586376238	 3.172027149	 0.132024
H	-1.8830344241	-0.3295532594	 4.2615196898	 0.116085
H	-3.4917237441	-0.0537346004	 2.1984410261	 0.111319
H	-3.4446738184	 1.3349100557	 0.1156785593	 0.072854
52.0286	100.7876	127.4395	167.6998	176.8508	262.5996	293.8197	310.5582	393.5438	505.4331	576.3398	688.3606	728.2808	795.2816	849.7584	891.497	934.6637	937.075	978.5678	1037.75	1045.9013	1064.682	1131.0773	1169.9769	1177.5394	1187.6718	1222.2634	1251.322	1271.7446	1314.616	1321.7013	1360.9125	1388.0413	1425.3556	1464.9186	1480.2567	1483.9385	1486.7434	1519.4037	1674.8753	1778.9469	2875.7629	2983.9131	3020.7146	3023.1632	3058.0718	3070.1587	3072.2932	3118.9607	3127.6712	3178.4896
COC1CCC=C1C=O	CO[C@@H]1CCC=C1C=O	
InChI=1S/C7H10O2/c1-9-7-4-2-3-6(7)5-8/h3,5,7H,2,4H2,1H3	InChI=1S/C7H10O2/c1-9-7-4-2-3-6(7)5-8/h3,5,7H,2,4H2,1H3/t7-/m1/s1
