19
gdb 1574	3.3234917	1.2210116	1.1198594	4.9455	78.28	-0.26199	-0.04516	0.21683	1164.4039	0.156737	-422.609382	-422.600635	-422.59969	-422.642372	33.149	
C	-3.6001601185	 0.1835585369	-2.2468095665	-0.429219
C	-2.7885175488	 0.0254299461	-0.9492711578	 0.181189
C	-3.7309459975	-0.308180447	 0.2279617848	-0.415259
C	-1.7437243493	-1.0803154213	-1.1488400936	-0.095566
O	-0.7795338883	-1.1532738392	-0.089852692	-0.245346
C	-0.1569754863	-0.0032810789	 0.2895317812	 0.412617
O	 0.8274607525	-0.0577384924	 0.9797941191	-0.338912
C	-0.8006070044	 1.2657213468	-0.1220182421	-0.217288
C	-2.0281257214	 1.2945069436	-0.6448840141	-0.058633
H	-4.1105724866	-0.7511556511	-2.5021395046	 0.122681
H	-4.3641780661	 0.9590775611	-2.1316661033	 0.122663
H	-2.9599455011	 0.4628233981	-3.0896963788	 0.124082
H	-4.3426613598	-1.18529181	-0.0101744707	 0.11839
H	-3.1617462989	-0.5217130179	 1.1361585406	 0.13939
H	-4.4066286998	 0.5271000451	 0.4373122416	 0.118928
H	-2.2119493296	-2.0677088304	-1.1792869572	 0.119777
H	-1.2134386001	-0.9205324731	-2.0969913207	 0.109437
H	-0.2406140949	 2.1605954034	 0.1221453907	 0.122849
H	-2.524203891	 2.2425250801	-0.8438991967	 0.108221
84.5154	202.9084	210.6804	223.089	242.9823	305.8079	318.3077	367.4044	442.1623	453.7066	488.6066	586.1636	709.4452	726.9559	793.9641	849.8066	852.9329	914.7663	937.3315	953.8566	1004.743	1022.0231	1046.7372	1092.0776	1133.0953	1190.7425	1219.2157	1236.2371	1287.8399	1322.8925	1394.2905	1395.2914	1408.5222	1433.4112	1483.1402	1484.1471	1500.6356	1503.1607	1507.6374	1689.0071	1828.0928	3018.8336	3030.3561	3034.8814	3095.5444	3099.5707	3104.4465	3105.7617	3123.1535	3148.2186	3209.9238
CC1(C)COC(=O)C=C1	CC1(C)COC(=O)C=C1	
InChI=1S/C7H10O2/c1-7(2)4-3-6(8)9-5-7/h3-4H,5H2,1-2H3	InChI=1S/C7H10O2/c1-7(2)4-3-6(8)9-5-7/h3-4H,5H2,1-2H3
