19
gdb 2516	2.3317232	1.4394409	0.9240537	3.0581	81.64	-0.24555	-0.0535	0.19205	1251.3223	0.156713	-422.578726	-422.569807	-422.568862	-422.612479	32.467	
C	 1.3477985214	 0.6022615211	-0.4205161874	-0.489869
C	-0.0844211958	 0.2638215417	-0.1071078364	 0.185419
C	-1.1258048526	 1.119519102	-0.0415182176	 0.105614
C	-2.5083268072	 0.6344117422	 0.3370368275	-0.290086
C	-2.4355188506	-0.7330596543	 1.0042515065	-0.102686
O	-1.6412717366	-1.6207858265	 0.2296334374	-0.24275
C	-0.3004217723	-1.2087839538	 0.1663033804	-0.137799
C	-1.0075860982	 2.5591780898	-0.3283783086	 0.082156
O	-1.9397540025	 3.3323938544	-0.2513288002	-0.27455
H	 2.0097921085	 0.1611653912	 0.3351053278	 0.136785
H	 1.641178569	 0.1628052212	-1.3822641232	 0.141469
H	 1.5549851988	 1.6703957706	-0.4594938373	 0.141506
H	-2.979207964	 1.3690367508	 0.9982207623	 0.126106
H	-3.1412226933	 0.5836026668	-0.5576535582	 0.12383
H	-2.0184215573	-0.6410737011	 2.0209898273	 0.089541
H	-3.4222133505	-1.1961102736	 1.0842787485	 0.112774
H	 0.2370258485	-1.4639644758	 1.1011841585	 0.102313
H	 0.1698138603	-1.799867147	-0.6300579947	 0.12346
H	-0.0076422853	 2.92441092	-0.6358056425	 0.066765
96.0865	120.4721	143.8421	170.3075	234.1859	314.001	328.6861	352.1424	433.3628	466.6784	522.747	600.9427	643.7369	754.7463	853.119	917.9856	944.2539	949.4117	1024.0375	1024.5088	1075.2002	1083.0529	1130.1082	1148.5349	1167.6791	1220.9049	1249.2212	1286.7095	1319.8172	1369.8242	1390.58	1406.7701	1417.5948	1442.6134	1468.9556	1473.9014	1479.9933	1491.062	1503.0271	1698.7675	1770.9445	2912.7421	2926.6179	2969.8165	3026.0282	3035.5	3042.0207	3069.7795	3083.4344	3096.3304	3155.6386
CC1=C(CCOC1)C=O	CC1=C(CCOC1)C=O	
InChI=1S/C7H10O2/c1-6-5-9-3-2-7(6)4-8/h4H,2-3,5H2,1H3	InChI=1S/C7H10O2/c1-6-5-9-3-2-7(6)4-8/h4H,2-3,5H2,1H3
