19
gdb 5465	3.5328287	1.3994392	1.3488672	1.8655	73.69	-0.22943	0.08715	0.31658	1038.4874	0.158857	-422.542369	-422.534973	-422.534029	-422.574367	28.926	
C	 1.5968565724	 0.2623999672	-0.0990392855	-0.240857
O	 0.2007031191	 0.0778497444	-0.0467346813	-0.25316
C	-0.3758182412	 0.4437784879	 1.179853752	 0.182149
C	-1.8876406651	 0.3337884544	 1.1053465645	-0.157934
C	-2.3750575896	 0.0694233708	 2.5322635122	-0.121643
C	-1.1349772593	 0.0231813053	 3.4215503833	-0.236205
C	-0.2130151327	-0.5852791705	 2.3419859652	-0.004508
O	-0.9544891653	-1.7167395322	 1.8731423268	-0.251195
C	-2.1766684922	-1.0750190355	 1.566322669	 0.103507
H	 2.1332806628	-0.391559495	 0.604122854	 0.107744
H	 1.9169370738	 0.0164079686	-1.1142320179	 0.128783
H	 1.877137897	 1.3055934132	 0.1185964552	 0.101442
H	-0.0276667625	 1.4421205324	 1.4888617612	 0.061403
H	-2.4713666299	 0.8516738143	 0.3577548368	 0.094275
H	-3.3498231397	 0.3824776928	 2.8803836463	 0.090774
H	-0.7966334871	 1.0063342213	 3.7608174112	 0.102072
H	-1.2527985777	-0.6371898915	 4.2851472242	 0.108068
H	 0.7910863281	-0.8891671618	 2.6283637081	 0.0806
H	-2.9478503909	-1.7230175658	 1.1767146346	 0.104685
81.9033	158.64	188.1651	280.2895	393.3935	428.0969	509.8511	593.8524	703.9531	742.5343	806.7907	812.8385	832.9789	868.93	927.7224	951.2246	962.3437	976.5632	997.4088	1014.2413	1028.7283	1054.0457	1066.9429	1080.7973	1092.5309	1147.1164	1170.1282	1181.9243	1207.1367	1233.2312	1248.9987	1263.9102	1279.9879	1300.8811	1342.7793	1389.2993	1397.6127	1480.2713	1489.7378	1492.107	1507.9556	2971.0575	2982.5314	3023.2643	3058.7093	3107.7863	3115.9626	3155.0511	3208.1853	3219.0751	3233.9836
COC1C2C3CC1OC23	CO[C@H]1[C@@H]2[C@@H]3C[C@H]1O[C@H]23	
InChI=1S/C7H10O2/c1-8-7-4-2-3-5(7)6(3)9-4/h3-7H,2H2,1H3	InChI=1S/C7H10O2/c1-8-7-4-2-3-5(7)6(3)9-4/h3-7H,2H2,1H3/t3-,4+,5+,6-,7+/m0/s1
