19
gdb 5010	2.8398162	1.5742584	1.2857048	2.4566	73.49	-0.25299	0.06807	0.32106	1030.0087	0.158157	-422.513193	-422.505578	-422.504634	-422.545216	30.329	
O	 1.7817758888	 0.1014430289	 0.0330976085	-0.414148
C	 0.4132803617	 0.478621195	 0.0697868261	-0.181081
C	-0.083918247	 0.9883770827	-1.2618111353	 0.265403
C	-1.5675809674	 1.4580102334	-1.5000602642	-0.271049
C	-0.919188573	 2.1515552541	-2.7488815759	-0.081041
C	 0.3193103594	 2.381599323	-1.8417690222	-0.271133
C	-0.5124130039	 0.8943339279	-3.5517015549	 0.036181
O	 0.8928450202	 0.5921318046	-3.563330739	-0.257641
C	 0.0806195661	 0.0705137177	-2.5003384745	 0.019383
H	 2.2865860328	 0.8567947327	-0.2859931456	 0.288359
H	-0.1339668309	-0.428368668	 0.3547582234	 0.107111
H	 0.2222303576	 1.2295920864	 0.8537303527	 0.084254
H	-2.3193743195	 0.6830217185	-1.679794311	 0.094337
H	-1.9252327123	 2.164960073	-0.746045549	 0.098875
H	-1.4080740441	 2.9658811868	-3.2820485856	 0.067977
H	 1.2910578902	 2.4863385875	-2.3218928536	 0.116872
H	 0.1446031136	 3.1791212637	-1.1164202112	 0.093935
H	-1.0911778668	 0.526992035	-4.3921438009	 0.101082
H	 0.0204984744	-1.0097702829	-2.4222053377	 0.102325
88.3801	143.8005	260.9878	323.3458	372.4324	402.0328	432.4363	516.2809	585.5355	638.4426	706.6067	796.0316	823.8775	857.2567	879.5264	890.8261	913.8441	932.8764	970.614	988.2262	1012.402	1037.457	1058.2528	1059.8696	1094.1892	1101.1446	1157.5715	1166.1292	1220.7312	1229.2561	1244.3735	1260.8122	1273.3806	1292.9371	1331.6618	1372.4752	1404.156	1424.2483	1476.1675	1502.2736	1515.0559	2971.2582	3045.8075	3050.5397	3078.9858	3107.502	3123.447	3151.3054	3169.658	3181.7474	3813.2432
OCC12CC(C1)C1OC21	OC[C@@]12C[C@@H](C1)[C@H]1O[C@@H]21	
InChI=1S/C7H10O2/c8-3-7-1-4(2-7)5-6(7)9-5/h4-6,8H,1-3H2	InChI=1S/C7H10O2/c8-3-7-1-4(2-7)5-6(7)9-5/h4-6,8H,1-3H2/t4-,5-,6-,7+/m1/s1
