19
gdb 4409	2.9398522	1.6051323	1.236771	1.1371	75.17	-0.24102	0.0701	0.31112	1052.779	0.15649	-422.472956	-422.46498	-422.464036	-422.505519	30.625	
C	 1.8048547897	-1.2673326253	-0.7833256234	-0.408783
C	 1.3360021633	-0.0761583733	 0.0395215755	-0.141813
C	 1.2671740477	-0.2400966556	 1.5764033486	-0.095916
O	 2.2138674645	 0.8384884192	 1.774475223	-0.335886
C	 2.3590034214	 1.019841201	 0.369275136	 0.526241
C	 3.7481086822	 1.2010938943	-0.3005886108	-0.028933
C	 3.8364197518	 2.6175777676	 0.3142087949	-0.242335
C	 2.4198853165	 2.4268345728	-0.2751553196	-0.030441
O	 3.0214534386	 1.7701142014	-1.4617499429	-0.321105
H	 2.7149549812	-1.7066866112	-0.3603272261	 0.114676
H	 1.0390606449	-2.0496403139	-0.8124904842	 0.114509
H	 2.0215270939	-0.9599244577	-1.8099115433	 0.139638
H	 0.4156280499	 0.3374913505	-0.3814618519	 0.087219
H	 0.3040966039	-0.0238619652	 2.0512342875	 0.105402
H	 1.6556404012	-1.191248524	 1.9605993208	 0.102306
H	 4.5379221478	 0.4783392495	-0.5054640906	 0.094305
H	 3.9294622594	 2.6968397641	 1.3987665952	 0.12164
H	 4.4714566884	 3.3151489862	-0.2334417373	 0.106596
H	 1.6276146635	 3.1555077796	-0.4498835315	 0.092682
72.3527	162.1483	187.1525	240.4809	286.5642	353.9423	444.7373	462.6342	553.6491	635.5031	758.5787	774.3883	824.4022	880.0931	888.631	906.0155	916.9938	938.8587	1000.26	1010.2545	1022.757	1071.3014	1089.361	1119.9135	1129.9001	1149.6718	1156.8166	1172.5363	1186.4021	1204.7961	1212.9383	1266.7671	1271.3902	1334.7243	1339.7123	1390.331	1408.3224	1477.3344	1494.2742	1502.7763	1527.4273	3021.31	3032.965	3061.9272	3076.0424	3076.7401	3099.3515	3115.2489	3118.3678	3122.946	3156.8802
CC1COC11C2CC1O2	C[C@H]1CO[C@]21[C@@H]1C[C@H]2O1	
InChI=1S/C7H10O2/c1-4-3-8-7(4)5-2-6(7)9-5/h4-6H,2-3H2,1H3	InChI=1S/C7H10O2/c1-4-3-8-7(4)5-2-6(7)9-5/h4-6H,2-3H2,1H3/t4-,5-,6+,7+/m0/s1
