19
gdb 4183	2.5325781	1.5927864	1.1545252	2.754	75.26	-0.24244	-0.02253	0.21991	1103.3102	0.156636	-422.581401	-422.572626	-422.571682	-422.615001	33.001	
C	-0.1819786197	-2.4029646745	 0.4989402715	-0.486029
C	-0.8104459358	-1.2316105421	-0.2148606514	 0.232675
C	-1.8012235883	-1.4621288252	-1.3507389207	-0.309396
C	-2.2616123433	-0.7729740197	-0.1033643197	-0.092638
C	-2.3349989146	 0.7576899376	-0.1953957866	-0.274504
C	-0.8726412324	 1.2390804081	-0.1400850889	 0.077165
O	-0.5783155307	 2.3189777428	-0.9861771204	-0.437296
C	-0.0021598229	 0.010668758	-0.4270101177	 0.295471
O	 1.1600948949	 0.0941169812	-0.7518474638	-0.35088
H	 0.0986462334	-2.1434013186	 1.525293222	 0.124014
H	-0.8706388399	-3.2519296408	 0.541828724	 0.117906
H	 0.724642539	-2.7230735653	-0.0239629469	 0.14316
H	-1.715702408	-0.8814764113	-2.2646330628	 0.127139
H	-2.0832675748	-2.4983016502	-1.5067768708	 0.121676
H	-2.9421048673	-1.2934570088	 0.5606670855	 0.093675
H	-2.7926350414	 1.0858771845	-1.1336855896	 0.122177
H	-2.9230328744	 1.1788079641	 0.6223941338	 0.110903
H	-0.636730437	 1.487692471	 0.9135031487	 0.093457
H	 0.3615272132	 2.2311253994	-1.2019124461	 0.291325
43.6203	153.787	181.0997	232.3787	257.4324	292.7881	389.811	405.3961	426.2417	484.189	530.2898	615.0725	652.1728	785.4651	824.1791	838.3206	865.1492	929.9278	973.304	982.7117	1034.4511	1050.2829	1063.1976	1094.6477	1103.0075	1126.9885	1159.8881	1205.3573	1252.4469	1271.0108	1288.0985	1327.8727	1356.0713	1391.6231	1413.4232	1416.5187	1485.1307	1487.6475	1499.2782	1502.966	1819.6249	2907.7634	3034.3832	3060.7823	3099.8331	3109.6049	3111.5447	3120.4853	3175.8029	3207.4847	3733.5272
CC12CC1CC(O)C2=O	C[C@@]12C[C@@H]1C[C@H](O)C2=O	
InChI=1S/C7H10O2/c1-7-3-4(7)2-5(8)6(7)9/h4-5,8H,2-3H2,1H3	InChI=1S/C7H10O2/c1-7-3-4(7)2-5(8)6(7)9/h4-5,8H,2-3H2,1H3/t4-,5-,7+/m0/s1
