19
gdb 3029	2.5614127	1.8103908	1.3522792	1.1527	75.13	-0.23589	0.00373	0.23962	1002.5376	0.157226	-422.556339	-422.548332	-422.547387	-422.588145	32.049	
C	 1.2044390312	 1.0546753922	-3.0463707288	-0.469584
C	 0.1947883001	 0.292094052	-2.2244730605	 0.335956
C	-0.6379917039	-0.7181803959	-3.038986592	-0.294203
C	-1.7194681489	-1.3179959271	-2.1685293766	-0.073746
C	-1.8233629727	-0.9098637189	-0.904484583	-0.054014
C	-0.8306557499	 0.1388243024	-0.4677312357	-0.02081
O	-0.7367080886	 1.17435221	-1.5024489463	-0.347342
C	 0.6078883972	-0.3019436098	-0.8388197511	 0.145576
O	 1.6251947091	 0.4094237641	-0.1838153759	-0.453734
H	 1.8518800417	 1.6664492547	-2.4145334238	 0.117704
H	 1.8365188128	 0.3635235268	-3.6135025579	 0.121533
H	 0.688722094	 1.708827015	-3.7570805157	 0.128494
H	-1.0785579627	-0.2162226471	-3.9118015357	 0.113589
H	 0.0193225451	-1.503286787	-3.4375389859	 0.10965
H	-2.3908296523	-2.0537230689	-2.6013444173	 0.097054
H	-2.5599156124	-1.2980598357	-0.2097400107	 0.094739
H	-1.0029715332	 0.5603011554	 0.5251357288	 0.074
H	 0.8578345029	-1.3623982058	-0.7735450829	 0.088039
H	 1.3666851806	 1.3396277735	-0.1908601989	 0.287098
167.7849	183.5997	224.5391	280.8689	339.2333	366.4843	381.7695	461.3971	485.9268	521.5107	553.2632	663.169	701.6007	794.1129	823.9754	891.5782	907.7453	920.9177	954.5305	964.1357	975.7283	982.2606	1000.4826	1104.3528	1114.8801	1154.6841	1182.2374	1203.0011	1220.0476	1230.7544	1267.4257	1298.215	1333.8915	1362.8935	1388.9444	1409.2317	1430.7593	1465.6424	1481.869	1487.5565	1699.3228	3006.4069	3035.8159	3040.9211	3089.8973	3101.9485	3107.5669	3128.823	3167.4902	3196.2162	3779.498
CC12CC=CC(O1)C2O	C[C@]12CC=C[C@H](O1)[C@@H]2O	
InChI=1S/C7H10O2/c1-7-4-2-3-5(9-7)6(7)8/h2-3,5-6,8H,4H2,1H3	InChI=1S/C7H10O2/c1-7-4-2-3-5(9-7)6(7)8/h2-3,5-6,8H,4H2,1H3/t5-,6-,7+/m0/s1
