19
gdb 1823	2.5730416	1.8600327	1.4329733	1.3972	74.32	-0.25017	0.08175	0.33192	967.9647	0.158095	-422.537335	-422.529869	-422.528925	-422.568718	30.635	
O	-1.7168259075	-0.7571665091	-0.0490444642	-0.496421
C	-0.8904690817	-0.5593128967	 1.0458122126	 0.367413
C	-0.3221794168	-1.7162172973	 1.9365599466	-0.296442
C	-0.0954723648	-0.5408164034	 2.9290356139	-0.034309
C	-1.4152493087	 0.0727246221	 2.358764838	-0.272354
C	 0.998367228	 0.2827948873	 2.2071291487	-0.318451
C	 0.369583405	 0.2662184426	 0.8077449323	 0.43182
C	 0.5046631191	 1.2571816416	-0.2549322152	-0.288791
O	 1.1156473992	-0.0463199853	-0.3692301909	-0.312028
H	-1.13838457	-0.9820057826	-0.7906109622	 0.286291
H	-1.1115360381	-2.3988907267	 2.2565384953	 0.102955
H	 0.5506207301	-2.2685648562	 1.577165136	 0.099783
H	 0.0310671763	-0.7128705105	 3.995859221	 0.071903
H	-2.3077264679	-0.4341074144	 2.7308759527	 0.108003
H	-1.5462914631	 1.1582845405	 2.3919673751	 0.093495
H	 1.1104684143	 1.2934925927	 2.6104669705	 0.104698
H	 1.9762966925	-0.2072242266	 2.2144677175	 0.116387
H	-0.3265479191	 1.4384343727	-0.9339251256	 0.119076
H	 1.2047570831	 2.0831502993	-0.139040562	 0.116972
126.4969	227.5417	275.118	361.1339	399.5121	417.7749	447.2077	451.9216	549.2162	563.6434	649.0969	739.485	815.9237	835.5014	855.5266	892.0295	911.8132	933.3181	954.9317	990.4082	995.3052	1015.0773	1065.6234	1089.0603	1119.7985	1131.751	1153.6689	1166.9171	1172.7761	1186.8179	1225.8724	1248.3383	1272.109	1302.9889	1343.6524	1385.4458	1436.6556	1484.1549	1485.9821	1524.022	1535.6265	3052.998	3056.2865	3061.8547	3087.1979	3101.6568	3124.9538	3129.9734	3136.832	3176.1369	3756.9049
OC12CC(C1)CC21CO1	O[C@]12C[C@H](C1)C[C@@]12CO1	
InChI=1S/C7H10O2/c8-6-1-5(2-6)3-7(6)4-9-7/h5,8H,1-4H2	InChI=1S/C7H10O2/c8-6-1-5(2-6)3-7(6)4-9-7/h5,8H,1-4H2/t5-,6-,7-/m0/s1
