19
gdb 5535	3.9861855	1.0315353	0.9509355	0.252	76.12	-0.2589	0.06927	0.32817	1271.5314	0.156983	-422.473759	-422.465558	-422.464614	-422.506611	31.533	
O	 1.5846891318	 0.1778469363	-0.5782428079	-0.416308
C	 0.54601511	-0.1996453391	 0.3174657728	-0.122016
C	-0.0588663749	 1.0101937472	 1.0116393179	 0.031308
C	-1.0804429034	 1.9488028226	 0.2699492374	-0.179467
C	-2.1749212611	 0.8524821549	 0.4849762476	-0.24628
C	-1.387400968	 0.9025603547	 1.8375129994	-0.181935
C	-1.4570247028	 2.4292376429	 1.6791998503	 0.564624
C	-1.1707117292	 3.5874380155	 2.5084016142	-0.3211
O	-2.5116376872	 3.2789649495	 2.0381508198	-0.306385
H	 1.1898927892	 0.7204164254	-1.2683841071	 0.28284
H	-0.2094552061	-0.8133683195	-0.1906281555	 0.091603
H	 1.026103504	-0.8397004599	 1.0659963559	 0.11249
H	 0.7432663825	 1.5551313914	 1.5215111608	 0.076492
H	-0.9099388998	 2.5602783953	-0.6171116431	 0.076215
H	-3.2059811924	 1.2082051769	 0.51867936	 0.117846
H	-2.0929295844	-0.0589840859	-0.1063154425	 0.097604
H	-1.5645625614	 0.3129062348	 2.7369676452	 0.081022
H	-1.0262800817	 3.4748051133	 3.5817687432	 0.120846
H	-0.7287101952	 4.4823942537	 2.0732032817	 0.120602
82.137	132.3596	185.2673	283.8777	298.9407	345.0764	365.7622	425.8761	490.3758	618.7402	643.1178	736.3835	793.8413	832.7373	879.7297	897.4319	907.0081	984.982	1001.2477	1015.4618	1057.0313	1059.8179	1075.7149	1108.154	1117.227	1119.8049	1124.2124	1151.101	1167.2117	1189.7337	1206.984	1219.2514	1245.2168	1254.6288	1356.8618	1407.4072	1433.0758	1460.4089	1499.0316	1526.366	1563.2091	3013.8965	3048.3432	3070.724	3084.6265	3085.8363	3106.6527	3118.9744	3149.2873	3171.5213	3815.8309
OCC1C2CC1C21CO1	OC[C@H]1[C@H]2C[C@@H]1[C@]12CO1	
InChI=1S/C7H10O2/c8-2-4-5-1-6(4)7(5)3-9-7/h4-6,8H,1-3H2	InChI=1S/C7H10O2/c8-2-4-5-1-6(4)7(5)3-9-7/h4-6,8H,1-3H2/t4-,5+,6-,7+
