19
gdb 767	2.1556624	1.9754336	1.2297877	3.2869	75.45	-0.24164	-0.01521	0.22643	1047.5512	0.158291	-422.561203	-422.55336	-422.552416	-422.593465	30.514	
O	 0.0637214807	-1.1648774862	 2.6241612522	-0.30755
C	 0.4087000522	-1.5235177144	 1.5235439757	 0.366094
C	-0.4546462329	-2.429948371	 0.6569728731	-0.28989
C	-1.3474412598	-1.5714947008	-0.270531173	-0.196863
C	-0.5976044324	-0.6645352236	-1.2492198939	-0.071528
O	 0.1853866126	 0.3363786967	-0.5977407627	-0.245399
C	 1.4819729226	-0.0764787098	-0.2946750992	 0.111675
C	 2.0693229963	 0.4049208331	 0.997548722	-0.322486
C	 1.6748107404	-1.0410987866	 0.85458293	-0.154126
H	 0.1775794978	-3.0911903371	 0.0520736979	 0.100813
H	-1.0862419939	-3.0405954497	 1.3076178889	 0.119641
H	-1.9934550509	-2.2387720808	-0.8538094305	 0.103581
H	-2.0026160799	-0.9492392493	 0.3491537042	 0.127421
H	 0.03578097	-1.2597445007	-1.9244337851	 0.09063
H	-1.3222900916	-0.1237899287	-1.866585724	 0.112273
H	 2.134789997	-0.173049514	-1.1631922387	 0.087183
H	 3.1210061314	 0.6663567696	 1.0201772973	 0.116536
H	 1.4281629824	 1.0092554952	 1.6293335081	 0.144565
H	 2.442917098	-1.8024131018	 0.7428189777	 0.10743
87.2174	176.6799	207.1859	276.9115	318.1525	371.6429	426.5259	476.2109	565.8309	575.1969	675.8387	769.9624	790.5686	818.4234	860.8849	895.393	928.9705	955.3135	984.6324	1035.1531	1053.7742	1069.1875	1087.4969	1092.1359	1119.489	1153.1195	1172.5945	1213.8511	1221.3651	1249.2251	1312.3867	1343.2873	1371.7841	1375.5937	1386.2976	1420.3695	1472.6442	1478.1232	1479.2013	1497.8185	1811.9735	2992.6358	3033.0271	3035.075	3074.7519	3083.9112	3091.1046	3104.1175	3139.7887	3144.4653	3234.0956
O=C1CCCOC2CC12	O=C1CCCO[C@H]2C[C@@H]12	
InChI=1S/C7H10O2/c8-6-2-1-3-9-7-4-5(6)7/h5,7H,1-4H2	InChI=1S/C7H10O2/c8-6-2-1-3-9-7-4-5(6)7/h5,7H,1-4H2/t5-,7-/m0/s1
