19
gdb 4734	2.4791715	0.8720412	0.7542453	3.619	83.86	-0.2693	-0.06448	0.20482	1572.0333	0.153159	-422.539488	-422.528552	-422.527608	-422.576488	37.669	
C	-3.12762349	 0.7097990484	-1.327433655	-0.400067
C	-2.6152852572	-0.0027340173	-0.0550090513	 0.02875
C	-3.2329599714	-1.4109744844	 0.0698890981	-0.413909
C	-2.9900188343	 0.8376189244	 1.2003212783	-0.0637
O	-2.4411106669	 2.1345771799	 1.1878636654	-0.41778
C	-1.1554235906	-0.0963617148	-0.1110187017	 0.166572
C	 0.0542692937	-0.1229095142	-0.1146314932	-0.062302
C	 1.4923628317	-0.18501639	-0.1445645532	 0.022717
O	 2.2209180774	 0.5850825732	 0.4393279737	-0.231329
H	-2.8053595444	 0.1849643014	-2.2303861618	 0.122795
H	-4.2221752248	 0.7344730871	-1.3128503555	 0.119087
H	-2.7593059671	 1.7365678399	-1.3609225317	 0.144423
H	-2.8588872283	-1.9318757045	 0.9559047899	 0.128472
H	-4.3219915361	-1.3318508327	 0.1502307258	 0.122885
H	-2.9980488518	-2.0188191186	-0.8077572677	 0.129908
H	-4.0779935621	 0.9631520463	 1.2180250912	 0.112351
H	-2.6994449277	 0.2795271801	 2.1031354746	 0.096662
H	-1.4807550286	 2.045619626	 1.2169723867	 0.294095
H	 1.9001794384	-1.0132700101	-0.7587826326	 0.100371
36.2234	61.5088	106.9118	143.3379	190.7646	222.0816	234.4745	257.1525	282.7711	321.3371	342.358	399.7126	443.8083	551.3015	574.6048	593.929	730.7577	851.1852	898.3	951.6673	986.5916	1022.3978	1037.0521	1070.4358	1095.3625	1167.2994	1196.6703	1217.909	1303.3533	1382.382	1392.9926	1409.0771	1421.8742	1428.6176	1480.7757	1486.0726	1497.6422	1499.7452	1510.5618	1764.6585	2312.2468	2921.878	2990.121	3038.947	3044.0807	3073.8062	3111.8045	3116.1935	3121.8283	3142.9976	3785.5833
CC(C)(CO)C#CC=O	CC(C)(CO)C#CC=O	
InChI=1S/C7H10O2/c1-7(2,6-9)4-3-5-8/h5,9H,6H2,1-2H3	InChI=1S/C7H10O2/c1-7(2,6-9)4-3-5-8/h5,9H,6H2,1-2H3
