19
gdb 1863	3.008774	1.1956997	0.9992105	3.6111	77.22	-0.23534	-0.02205	0.21328999999999998	1239.8939	0.153666	-422.543414	-422.53388	-422.532936	-422.5778	34.477	
C	 2.9686131175	 2.1068735181	-3.9012028458	-0.50224
C	 2.6641423788	 1.4777976803	-2.5818428452	 0.353572
C	 1.4594191587	 0.6044452603	-2.1942432455	-0.319874
C	 1.6401349726	 1.075325168	-0.7010521135	-0.141564
C	 1.9438323363	 0.0155152897	 0.3230738513	 0.154498
O	 1.3175754993	-0.1503822478	 1.3410140748	-0.261465
C	 2.8559984384	 1.9176581102	-1.1833664162	 0.319475
C	 3.4101015336	 3.1525560114	-0.5521731493	-0.503463
O	 3.7674589992	 0.9886850394	-1.7941775728	-0.320416
H	 3.2415990311	 1.343753646	-4.6389505909	 0.136254
H	 2.0974479593	 2.6480466268	-4.2839476306	 0.126777
H	 3.8054945623	 2.8045572133	-3.8125549434	 0.135516
H	 0.5077335448	 0.9425786524	-2.6098818131	 0.116451
H	 1.5845289717	-0.4638473905	-2.3903783759	 0.11505
H	 0.8068030744	 1.6894793595	-0.353437324	 0.092857
H	 2.8172270377	-0.6228484013	 0.0696902871	 0.092374
H	 3.9057637547	 2.9153545548	 0.3958252245	 0.140157
H	 4.1458640127	 3.6226992779	-1.2100783416	 0.135937
H	 2.6122756768	 3.8721532914	-0.3431416597	 0.130105
66.119	112.2518	172.0013	186.7192	190.0044	221.9801	285.2753	319.6819	381.4085	432.3264	477.3966	544.9297	611.4372	704.472	734.2229	822.1312	870.8731	890.0876	932.3255	964.8922	1030.9283	1052.244	1096.7302	1127.1941	1133.0243	1179.5081	1195.1483	1208.8593	1226.5632	1295.2501	1301.2332	1408.7322	1411.461	1418.7693	1462.6151	1475.1693	1477.3217	1486.138	1491.1743	1527.6184	1819.061	2908.2503	3034.7234	3036.4944	3063.8777	3096.804	3097.4102	3100.0102	3120.6299	3122.4215	3124.9341
CC12CC(C=O)C1(C)O2	C[C@]12C[C@@H](C=O)[C@@]1(C)O2	
InChI=1S/C7H10O2/c1-6-3-5(4-8)7(6,2)9-6/h4-5H,3H2,1-2H3	InChI=1S/C7H10O2/c1-6-3-5(4-8)7(6,2)9-6/h4-5H,3H2,1-2H3/t5-,6-,7+/m0/s1
