19
gdb 3693	4.763029	0.8097322	0.7672714	2.4214	78.2	-0.25256	-0.02628	0.22628	1502.4798	0.154528	-422.539214	-422.53005	-422.529105	-422.573745	33.232	
C	-0.7484294652	-0.4712894707	-0.0971987875	-0.416167
C	-0.5984813659	-1.9145849178	-0.4977169003	-0.027178
O	 0.1203612701	-2.7714415878	 0.4135501022	-0.292883
C	 0.6856326628	-2.5249791713	-0.8560797376	 0.455305
C	 0.9758383726	-3.5982153499	-1.9055894954	-0.346102
C	 2.1270972358	-2.6802977696	-2.4419250641	-0.066587
C	 2.0391086904	-1.8586921772	-1.1101200529	-0.344907
C	 3.4389697317	-3.3592396517	-2.7134540217	 0.163911
O	 4.0681571259	-3.2791232639	-3.7363771578	-0.251398
H	-1.5004011142	-0.3695225503	 0.6920037236	 0.134482
H	 0.1947431216	-0.066300392	 0.2780374324	 0.128633
H	-1.0752926175	 0.1319524361	-0.9513169797	 0.12367
H	-1.4974739911	-2.3805715748	-0.90681885	 0.092864
H	 1.3677415581	-4.5096356763	-1.4404455287	 0.120779
H	 0.186295446	-3.8684336201	-2.6094860635	 0.119791
H	 1.8309009953	-2.0985036496	-3.3158526758	 0.096551
H	 2.7859263934	-2.1875747136	-0.3791366832	 0.121014
H	 2.0815664616	-0.7711989974	-1.1966307649	 0.119672
H	 3.8079747587	-3.9751522521	-1.8567748154	 0.06855
54.69	74.6534	168.361	187.1173	212.7293	289.0455	320.5226	377.9515	413.7546	457.3374	481.6174	599.6929	743.3223	790.5977	826.3824	870.5181	885.6286	938.1357	973.3424	1006.3798	1037.6012	1057.1898	1076.0286	1126.8142	1143.4591	1161.0131	1194.431	1215.3668	1231.5784	1248.6628	1260.9287	1316.1741	1356.8462	1408.6058	1429.1462	1463.5183	1470.6327	1487.0503	1490.5168	1526.7887	1832.6624	2834.5566	3037.2867	3047.8906	3052.6853	3085.9097	3101.4884	3103.3508	3116.2952	3121.9951	3126.4795
CC1OC11CC(C1)C=O	C[C@@H]1O[C@]21C[C@@H](C2)C=O	
InChI=1S/C7H10O2/c1-5-7(9-5)2-6(3-7)4-8/h4-6H,2-3H2,1H3	InChI=1S/C7H10O2/c1-5-7(9-5)2-6(3-7)4-8/h4-6H,2-3H2,1H3/t5-,6-,7+/m0/s1
