19
gdb 5939	2.4674198	1.1197791	0.8604831	2.0455	79.62	-0.25522	0.02758	0.2828	1406.6177	0.152586	-422.488197	-422.477754	-422.47681	-422.523944	36.655	
C	 1.6122307018	 0.6244349821	-0.0174599715	-0.226807
O	 0.2182782448	 0.8248834506	-0.0252067175	-0.233228
C	-0.4421827256	 0.1115650724	 0.9868742376	-0.157271
C	-1.9177622382	 0.4848132358	 1.0119281614	 0.172675
O	-2.2002794897	 1.8901358053	 1.0882761473	-0.289235
C	-2.5429704903	 1.2063026186	-0.1223996995	 0.043278
C	-4.0039374478	 1.1020362088	-0.466528008	-0.433818
C	-2.7041305237	-0.3693147794	 1.8719616557	 0.280567
C	-3.3093706087	-1.1123059883	 2.5980767622	-0.416252
H	 1.8740251765	-0.4327586994	-0.1813863493	 0.106393
H	 2.0306167629	 1.2229244193	-0.8297566306	 0.131435
H	 2.063374445	 0.9474028705	 0.9334338279	 0.11092
H	-0.3534358978	-0.9767680063	 0.8320801162	 0.101249
H	-0.008868468	 0.3379769211	 1.9755342042	 0.107027
H	-1.8696606674	 1.4366909997	-0.9460254075	 0.114013
H	-4.5943200385	 0.7999037662	 0.4008023929	 0.138044
H	-4.373899794	 2.06888381	-0.8231392427	 0.130013
H	-4.1529320119	 0.3696340129	-1.26710881	 0.123422
H	-3.8582927493	-1.7565579398	 3.2398180112	 0.197575
67.1428	84.1146	124.2964	149.0585	170.2558	209.2635	222.2994	247.208	325.854	348.2602	467.3833	469.8437	559.1484	589.7205	628.4085	668.5171	714.532	772.8651	904.4666	964.5211	1010.2649	1039.7685	1080.1822	1133.7409	1148.7859	1175.1421	1186.0016	1209.4655	1236.6523	1275.0228	1325.9829	1405.1166	1422.6688	1448.2828	1478.5751	1485.4791	1486.3156	1496.4443	1498.4306	1520.6207	2235.8403	2958.631	2976.04	2991.0741	3020.5037	3040.4494	3103.0073	3119.7332	3128.0632	3145.7918	3500.4671
COCC1(OC1C)C#C	COC[C@]1(O[C@@H]1C)C#C	
InChI=1S/C7H10O2/c1-4-7(5-8-3)6(2)9-7/h1,6H,5H2,2-3H3	InChI=1S/C7H10O2/c1-4-7(5-8-3)6(2)9-7/h1,6H,5H2,2-3H3/t6-,7-/m1/s1
