19
gdb 5208	4.085115	1.1737984	1.0937324	2.3791	75.	-0.2298	0.06425	0.29405000000000003	1170.7552	0.155904	-422.497017	-422.48853	-422.487586	-422.529926	32.549	
C	 4.9797239211	-3.496869366	 1.9814448929	-0.506929
C	 3.9141854345	-2.8106764947	 1.1819147769	 0.281976
C	 2.3997006459	-3.035361586	 1.2201205904	-0.307104
C	 2.3107685273	-1.7460228059	 0.3627489166	 0.413099
C	 1.0641885568	-0.9385994694	 0.1548270159	-0.188702
O	 0.0900911957	-1.6983095263	-0.5390269618	-0.416716
O	 2.9076233921	-2.1699639263	-0.9136304461	-0.34867
C	 4.1509981938	-2.202707504	-0.2140291138	 0.060609
C	 3.7271062419	-1.3151783212	 0.9059704235	-0.267754
H	 4.7908942651	-3.413022109	 3.0577011896	 0.122055
H	 5.0331625631	-4.5632602339	 1.7337144664	 0.126287
H	 5.9658239208	-3.0614312218	 1.7848659262	 0.119267
H	 1.9808858547	-3.9437992174	 0.7766949008	 0.100569
H	 1.9999662636	-2.8780053521	 2.2261531714	 0.100027
H	 0.6281322802	-0.6625059484	 1.1207151564	 0.111796
H	 1.3158410727	-0.0109100962	-0.3824049467	 0.097213
H	 0.5194862369	-2.0295333502	-1.3368016897	 0.299209
H	 5.0723985792	-2.2816260488	-0.7766631683	 0.10595
H	 4.1292493446	-0.4154425925	 1.3514851795	 0.097819
78.6827	137.2651	206.7411	227.0149	271.7789	330.3068	377.683	412.5584	460.4861	540.1927	596.446	694.7645	761.5005	776.6907	819.1169	858.8973	895.1885	922.2554	930.2937	972.3603	1008.8874	1027.1765	1049.3968	1074.4878	1081.0412	1101.831	1144.8224	1158.2819	1188.9582	1218.5514	1265.355	1293.4883	1337.6775	1378.9958	1397.9459	1421.4192	1442.0302	1485.7669	1491.0218	1494.9513	1499.8922	2986.4255	3022.0918	3047.9606	3076.1839	3084.2385	3089.5421	3108.0125	3196.3394	3209.9533	3795.0356
CC12CC3(CO)OC1C23	C[C@]12C[C@]3(CO)O[C@H]1[C@H]23	
InChI=1S/C7H10O2/c1-6-2-7(3-8)4(6)5(6)9-7/h4-5,8H,2-3H2,1H3	InChI=1S/C7H10O2/c1-6-2-7(3-8)4(6)5(6)9-7/h4-5,8H,2-3H2,1H3/t4-,5+,6-,7-/m1/s1
