19
gdb 595	2.3977245	2.0466746	1.6270964	1.8598	74.59	-0.24119	0.01638	0.25756999999999997	921.864	0.160627	-422.575896	-422.568967	-422.568022	-422.60683	28.426	
C	 0.4078359916	 1.5396776164	 0.5808834275	-0.081484
C	-0.0625915018	 0.085145726	 0.4900988255	-0.217012
C	-0.7269915597	-0.1354950926	-0.8845757788	 0.040348
O	 0.2236076752	 0.2318075368	-1.8913375925	-0.257778
C	 0.5403552644	 1.6026936326	-1.8032577805	 0.185194
C	-0.7000124631	 2.4706900341	-2.1120285411	-0.292774
C	-1.9813291549	 1.8569021948	-1.6148476355	-0.065789
C	-2.0019717838	 0.6548908456	-1.0449033673	-0.063047
O	 1.1595804167	 1.9144736165	-0.5712253856	-0.261301
H	-0.453302316	 2.2102467696	 0.7134347328	 0.099135
H	 1.0779203465	 1.684710376	 1.4326003306	 0.109813
H	 0.7961717649	-0.5892462818	 0.5695372471	 0.111634
H	-0.7565193112	-0.1409839538	 1.3071013282	 0.097128
H	-0.9203611124	-1.2009038115	-1.0433416537	 0.085506
H	 1.3175293235	 1.7780598799	-2.5513180618	 0.091118
H	-0.546669133	 3.4659042232	-1.6774965118	 0.120502
H	-0.7629451756	 2.6216510406	-3.1982129697	 0.116499
H	-2.896600295	 2.4269877	-1.7530610272	 0.091978
H	-2.9211447063	 0.2154689178	-0.6683125862	 0.090331
145.3728	236.421	299.5821	384.4092	411.7414	454.1535	501.6008	520.0637	651.9288	691.1121	726.7915	798.9738	832.926	861.2973	901.115	914.034	949.2102	967.2148	994.4998	1014.5726	1039.071	1050.3449	1099.0016	1100.7584	1141.8263	1192.3537	1226.1516	1237.2221	1267.6498	1317.5647	1333.7851	1359.8616	1363.3083	1388.6972	1401.66	1416.0467	1423.925	1461.0429	1469.2187	1508.7086	1722.6233	3006.0902	3017.5966	3041.3371	3055.9917	3059.7983	3083.3043	3086.5351	3095.4925	3150.9254	3176.9268
C1CC2OC(CC=C2)O1	C1C[C@@H]2O[C@@H](CC=C2)O1	
InChI=1S/C7H10O2/c1-2-6-4-5-8-7(3-1)9-6/h1-2,6-7H,3-5H2	InChI=1S/C7H10O2/c1-2-6-4-5-8-7(3-1)9-6/h1-2,6-7H,3-5H2/t6-,7+/m1/s1
