19
gdb 4407	2.8040874	1.1353185	1.0693165	1.3148	77.19	-0.25237	0.04437	0.29674	1224.755	0.154091	-422.52339	-422.5136	-422.512656	-422.55772	36.583	
O	 5.2806552288	 0.2069741053	 0.2732236058	-0.431866
C	 4.6247510333	 1.1293999493	 1.1101226518	 0.086911
C	 4.3733290536	 0.7735819555	 2.6021378722	-0.274587
C	 2.936479907	 1.342162109	 2.4442775296	-0.282639
C	 3.0977896137	 1.2260564229	 0.8956462628	 0.390836
O	 2.7325259202	 2.3388566864	 0.117735004	-0.486981
C	 2.5003506512	-0.073926879	 0.3134474002	-0.39556
C	 1.0480479567	 0.0180643967	 0.222794539	 0.258736
C	-0.1443797468	 0.1652556773	 0.1549872573	-0.424504
H	 6.2294866687	 0.2897641421	 0.405766098	 0.288343
H	 5.0463015995	 2.1384235236	 1.0115059873	 0.084904
H	 4.3796464188	-0.3101202517	 2.7474940448	 0.108288
H	 5.024378709	 1.2356965188	 3.3467352121	 0.098187
H	 2.1154277521	 0.7878834252	 2.9033147706	 0.106789
H	 2.8694802249	 2.3925798744	 2.7355113929	 0.109652
H	 1.7806267525	 2.2864554474	-0.0387990796	 0.280406
H	 2.9333516658	-0.2368244773	-0.6788743795	 0.151835
H	 2.7901823224	-0.9335951012	 0.9267705737	 0.133376
H	-1.2004469814	 0.2561832753	 0.0894574966	 0.197873
74.6124	121.2652	134.2962	178.6965	216.2631	282.2649	331.9522	363.5838	370.8756	398.7826	442.7693	523.5655	558.4963	622.36	635.6342	655.8756	753.7356	800.457	871.4184	900.2765	936.14	959.1602	977.5976	1039.3627	1097.7868	1117.2068	1128.0935	1166.0106	1193.288	1228.6218	1240.4661	1263.7462	1290.027	1306.2606	1322.2179	1390.1938	1436.9664	1459.8678	1478.912	1498.8937	2228.9019	3021.0547	3050.9129	3064.7405	3072.2516	3089.5668	3116.0278	3132.9139	3504.5282	3760.8695	3830.7227
OC1CCC1(O)CC#C	O[C@@H]1CC[C@]1(O)CC#C	
InChI=1S/C7H10O2/c1-2-4-7(9)5-3-6(7)8/h1,6,8-9H,3-5H2	InChI=1S/C7H10O2/c1-2-4-7(9)5-3-6(7)8/h1,6,8-9H,3-5H2/t6-,7-/m1/s1
