19
gdb 4103	3.2505791	1.2798102	1.1030681	1.7813	75.29	-0.23855	-0.02683	0.21172000000000002	1153.7003	0.15677	-422.577493	-422.569253	-422.568309	-422.610619	31.282	
C	-3.2425918847	-1.9515276121	 2.7624543836	-0.402591
C	-2.2437999209	-1.1326758662	 1.9647295336	 0.129645
C	-1.1197662167	-1.9348749391	 1.2809227668	-0.241878
C	-0.7578136273	-1.0560116618	 0.0765929363	-0.173711
C	-2.021257456	-0.1527635075	-0.1287486356	 0.100245
C	-1.1664115037	 1.1339202854	 0.1069331117	-0.374077
C	 0.0405638104	 0.2260473006	 0.3972120851	 0.394405
O	 1.1663716928	 0.4221771945	 0.7525466759	-0.297844
O	-2.9377439184	-0.4771933185	 0.8951652149	-0.270129
H	-2.7449847376	-2.4505540511	 3.5996215994	 0.118764
H	-4.0316088976	-1.3103288893	 3.1645487125	 0.128681
H	-3.706906233	-2.7112204783	 2.1261845801	 0.122986
H	-1.7911624369	-0.3723775981	 2.6235023006	 0.076301
H	-0.2703546201	-2.1159035522	 1.9442220241	 0.123211
H	-1.5024359441	-2.9016181635	 0.9371218133	 0.108367
H	-0.3744949695	-1.6147104586	-0.7797035425	 0.100401
H	-2.5469385442	-0.1959305058	-1.0834471591	 0.087409
H	-1.0226437028	 1.7488217494	-0.7875165686	 0.132669
H	-1.4895264297	 1.7807751421	 0.9274367578	 0.137148
61.416	111.7736	194.1557	222.9438	296.7172	369.4162	426.0206	478.962	508.034	586.1641	617.9166	720.3319	749.9475	833.1299	850.7268	893.8967	902.46	931.7402	967.9989	1013.1333	1016.8063	1055.3061	1088.5121	1128.9097	1133.1442	1152.2786	1182.4281	1206.5469	1230.6628	1249.1555	1257.9974	1315.3483	1352.5315	1377.5445	1394.9633	1413.0368	1419.6999	1482.0809	1485.7139	1498.4782	1889.5573	2957.6509	3041.341	3050.559	3055.3975	3093.7144	3105.3887	3109.7795	3114.6104	3116.5769	3120.848
CC1CC2C(CC2=O)O1	C[C@H]1C[C@H]2[C@H](CC2=O)O1	
InChI=1S/C7H10O2/c1-4-2-5-6(8)3-7(5)9-4/h4-5,7H,2-3H2,1H3	InChI=1S/C7H10O2/c1-4-2-5-6(8)3-7(5)9-4/h4-5,7H,2-3H2,1H3/t4-,5+,7-/m0/s1
