19
gdb 5048	2.3963478	1.5956043	1.1845585	1.1072	75.43	-0.22548	0.0663	0.29178000000000004	1114.795	0.154255	-422.46154	-422.452612	-422.451668	-422.494943	33.414	
C	 1.6172591936	 0.1507218091	 0.0553262362	-0.256823
O	 0.2217466094	-0.1121095259	 0.1030602719	-0.281343
C	-0.4260416232	 0.5611698824	 1.110349844	 0.364962
C	-0.7845816691	 2.0259817831	 1.0664298287	-0.39734
C	-1.8807779366	 0.9764057625	 1.1527843962	 0.198914
C	-2.9771471211	 0.7967693635	 0.1452781149	-0.494737
C	-1.9551559464	 0.4001085295	 2.6115130059	-0.026978
O	-0.9751069605	 1.029146122	 3.4545424717	-0.237377
C	-0.5601423631	-0.0175501035	 2.5667160081	-0.059795
H	 2.1174937685	-0.1477649748	 0.9870599691	 0.113563
H	 2.0230788429	-0.4370177062	-0.7708623996	 0.127811
H	 1.8161707993	 1.2161156066	-0.1214752359	 0.11676
H	-0.5733751093	 2.6931347613	 1.8929223874	 0.131397
H	-0.6892713711	 2.4587613055	 0.0744569067	 0.112748
H	-3.3729300508	-0.2252524325	 0.1635166236	 0.12078
H	-3.8118611734	 1.4819127309	 0.3354950723	 0.122159
H	-2.6078064251	 0.9887372816	-0.8664218965	 0.129945
H	-2.8234438851	-0.0379790554	 3.0901565225	 0.105678
H	-0.0486837089	-0.8784461898	 2.9812437228	 0.109675
91.8323	131.3323	176.3975	188.9448	223.5739	267.7876	352.4884	365.5772	435.0768	523.4687	543.9865	578.2437	744.8371	781.6952	806.7183	837.8374	875.0447	887.3634	955.3522	973.4841	975.8266	1033.9021	1056.023	1074.5419	1104.8294	1136.531	1179.8117	1182.7204	1196.105	1220.1089	1256.4347	1323.4393	1360.5136	1397.2491	1418.3279	1467.9271	1484.9955	1487.0026	1495.014	1503.2582	1507.6479	2997.5457	3022.7761	3054.0846	3079.1707	3105.4763	3124.414	3130.9691	3177.0263	3192.4792	3226.3493
COC12CC1(C)C1OC21	CO[C@@]12C[C@]1(C)[C@@H]1O[C@H]21	
InChI=1S/C7H10O2/c1-6-3-7(6,8-2)5-4(6)9-5/h4-5H,3H2,1-2H3	InChI=1S/C7H10O2/c1-6-3-7(6,8-2)5-4(6)9-5/h4-5H,3H2,1-2H3/t4-,5+,6-,7-/m1/s1
