19
gdb 3020	2.3807635	1.37496	1.311512	0.8449	76.49	-0.23835	-0.03585	0.2025	1113.6068	0.154037	-422.507299	-422.498154	-422.49721	-422.541028	33.676	
C	 0.0535163816	-0.1894048536	-0.1446206077	-0.435582
C	 1.5492038725	 0.0109124784	 0.0101738461	-0.016591
C	 2.0653566123	 1.3513636606	 0.5868645261	 0.010463
O	 1.5193783174	 0.9952772702	 1.9054598739	-0.343837
C	 2.2031997697	-0.2434990897	 1.4104199983	 0.399862
C	 2.1869088762	-1.4675050413	 2.2679828826	-0.526515
C	 3.4060519731	 0.6599159185	 1.0183094984	-0.120163
C	 4.4526907352	 0.2399226156	 0.0283174585	 0.120297
O	 4.5095225786	-0.8368311825	-0.5160653593	-0.254535
H	-0.4840520692	 0.2167301227	 0.7144094506	 0.13693
H	-0.31133137	 0.3057006958	-1.0509773527	 0.116147
H	-0.1867633999	-1.2540469665	-0.237908847	 0.118582
H	 2.1149347629	-0.3922011262	-0.8317467698	 0.098675
H	 1.9183366383	 2.3749621563	 0.2407216009	 0.096687
H	 2.6146054701	-1.2557710163	 3.2525417255	 0.133599
H	 1.1638476046	-1.8308665559	 2.403441664	 0.135558
H	 2.779226726	-2.2531190096	 1.7895577493	 0.147279
H	 3.8580511417	 1.1861350227	 1.8648435285	 0.100049
H	 5.2230519288	 1.0188957608	-0.1767850059	 0.083096
76.2864	146.5859	192.7491	197.9329	202.9406	211.361	304.1183	337.1992	381.6795	460.9811	622.874	630.4141	694.4338	721.5349	774.8548	809.5475	867.8513	872.4797	949.7535	1003.3494	1027.2686	1033.1352	1083.344	1095.7338	1117.9879	1143.4434	1169.8042	1205.4514	1212.0238	1250.366	1294.9032	1374.8686	1398.709	1410.0624	1423.4163	1436.1683	1478.9303	1486.5757	1496.2738	1506.0917	1810.1163	2864.598	3037.2368	3041.501	3074.4079	3093.1864	3101.5937	3115.7166	3116.0253	3121.9622	3136.3761
CC1C2OC1(C)C2C=O	C[C@H]1[C@H]2O[C@]1(C)[C@H]2C=O	
InChI=1S/C7H10O2/c1-4-6-5(3-8)7(4,2)9-6/h3-6H,1-2H3	InChI=1S/C7H10O2/c1-4-6-5(3-8)7(4,2)9-6/h3-6H,1-2H3/t4-,5-,6+,7-/m0/s1
