19
gdb 958	3.5877092	1.0905288	1.0265503	1.787	76.32	-0.27973	0.0096	0.28933	1224.4305	0.157678	-422.535727	-422.527546	-422.526602	-422.569639	30.299	
O	 1.1621449362	 0.9079051608	-0.50646152	-0.307441
C	 0.2384012092	 0.1454255354	-0.5885642712	 0.193113
O	-1.0614210826	 0.4443661545	-0.4613185424	-0.204
C	-1.3868591663	 1.8317002303	-0.2006078352	-0.228087
C	-1.6452215054	 2.5792760177	-1.4784383575	 0.344414
C	-2.693831188	 2.2479598873	-2.5845152748	-0.245882
C	-1.9827515139	 3.5498400217	-3.0521725686	-0.047586
C	-2.1103979088	 4.0641983521	-1.5890279153	-0.262216
C	-0.6393272272	 2.8899578096	-2.6292809324	-0.236913
H	 0.3287347752	-0.935750388	-0.7777233297	 0.110546
H	-2.2867446337	 1.796483723	 0.4194906772	 0.115963
H	-0.5693606379	 2.2888701331	 0.3624880664	 0.135567
H	-2.5101448977	 1.3465121819	-3.1747887892	 0.094093
H	-3.7471973501	 2.3360324462	-2.3024662469	 0.087913
H	-2.1798416802	 4.1136127876	-3.9638173374	 0.074545
H	-1.3926016627	 4.8251846506	-1.2701551149	 0.094217
H	-3.1196926912	 4.2879782467	-1.2309288441	 0.089781
H	-0.3010661399	 2.0387059183	-3.2255584522	 0.093285
H	 0.1885681951	 3.5594629211	-2.3833062318	 0.098687
44.4555	64.0449	146.9193	238.8128	302.6771	353.71	424.8365	539.088	545.0887	683.177	749.2564	787.4969	808.8387	886.9686	911.0466	921.9655	960.3497	969.0286	979.0491	998.38	1022.8209	1045.0118	1097.0795	1102.9916	1144.565	1145.3898	1165.3794	1175.4999	1199.7978	1232.5783	1237.4543	1242.1626	1314.6367	1324.421	1400.1176	1410.7436	1476.3891	1496.343	1497.5724	1554.188	1819.3108	3027.0334	3043.4282	3048.1419	3057.8704	3062.1359	3109.3832	3113.9949	3114.9379	3118.5307	3123.014
O=COCC12CC(C1)C2	O=COC[C@@]12C[C@@H](C1)C2	
InChI=1S/C7H10O2/c8-5-9-4-7-1-6(2-7)3-7/h5-6H,1-4H2	InChI=1S/C7H10O2/c8-5-9-4-7-1-6(2-7)3-7/h5-6H,1-4H2/t6-,7-
