19
gdb 5374	4.0709965	1.0148503	0.9061547	2.7405	76.96	-0.23785	0.0052	0.24305000000000002	1326.9432	0.155861	-422.552048	-422.54315	-422.542206	-422.585457	33.343	
C	 0.1812127296	 4.3212626124	 1.0980081786	-0.483538
C	 0.7217145302	 2.9299094683	 0.9146289095	 0.417202
C	 1.3293380152	 2.4929298715	-0.4220455179	-0.326721
C	 1.1243244223	 0.9935959363	-0.4322814413	-0.189126
C	 0.469727132	 0.55883693	 0.650982361	 0.292781
C	 0.0757249106	-0.8505745812	 0.9750455251	-0.169073
O	 0.2412275148	-1.7531690732	-0.1020590562	-0.405389
C	 0.1933105116	 1.7136576104	 1.5635182087	-0.153263
O	 1.3979541992	 2.3580742256	 2.0430686848	-0.294171
H	-0.2555399862	 4.4347610511	 2.0932517662	 0.130233
H	 0.9803135214	 5.0635799285	 0.9919301485	 0.128603
H	-0.5851853514	 4.5449631267	 0.3485469056	 0.120768
H	 0.8275466214	 2.9833833233	-1.2669034048	 0.106736
H	 2.389817208	 2.766832869	-0.481874097	 0.124747
H	 1.5125854527	 0.3513206265	-1.2140455382	 0.103883
H	 0.7015898782	-1.2384255691	 1.7894947964	 0.134459
H	-0.9604034834	-0.8623450645	 1.3579497714	 0.092844
H	-0.2794087059	-1.4162784851	-0.8392252639	 0.282183
H	-0.6372264803	 1.7136234234	 2.2656005434	 0.086842
83.3677	158.9774	176.5173	191.5234	244.0673	301.9473	330.4179	363.8404	407.0391	432.4284	581.5432	619.9335	679.1277	758.6681	817.5296	842.9985	889.2477	927.8805	949.1984	978.0903	1008.246	1011.2791	1046.315	1078.0756	1094.6256	1177.0068	1193.3034	1209.4027	1224.9452	1251.7317	1311.3444	1325.9028	1387.9792	1407.129	1423.5175	1439.8352	1463.9603	1484.6441	1493.0777	1495.7136	1698.8191	2946.0885	3020.2082	3034.5544	3038.0123	3058.3862	3095.7999	3123.4732	3141.84	3202.6279	3806.6209
CC12CC=C(CO)C1O2	C[C@]12CC=C(CO)[C@H]1O2	
InChI=1S/C7H10O2/c1-7-3-2-5(4-8)6(7)9-7/h2,6,8H,3-4H2,1H3	InChI=1S/C7H10O2/c1-7-3-2-5(4-8)6(7)9-7/h2,6,8H,3-4H2,1H3/t6-,7+/m1/s1
