19
gdb 947	3.8369062	1.0861405	1.01103	2.2236	75.45	-0.27058	0.0124	0.28298	1226.3467	0.158498	-422.588643	-422.5806	-422.579656	-422.621975	30.265	
O	 1.0797578412	 0.4149952529	 1.0746661098	-0.310297
C	 0.0547276639	-0.1969921203	 0.93811811	 0.182093
O	-1.1122743798	 0.2873464699	 0.5001397998	-0.226319
C	-1.1372501457	 1.698381683	 0.1307385051	 0.136428
C	-1.417034241	 2.5762119737	 1.3660178136	-0.259604
C	-2.9580341157	 2.6116749398	 1.5002773287	-0.214442
C	-3.4740938802	 2.4348341401	 0.0785516057	-0.016361
C	-2.8348586582	 3.2750747428	-0.9971284623	-0.306983
C	-2.3475460195	 1.8657092349	-0.7600251787	-0.045542
H	-0.0701910686	-1.2697260911	 1.1572952969	 0.106533
H	-0.1807447121	 1.9310569765	-0.3410223369	 0.105786
H	-0.9105073449	 2.1901768922	 2.2518962936	 0.120833
H	-1.0146341842	 3.577714881	 1.187205776	 0.113509
H	-3.305079198	 1.7747294501	 2.1162063091	 0.108628
H	-3.3074237879	 3.5337910859	 1.9761344912	 0.100252
H	-4.4961000609	 2.10416358	-0.0668658749	 0.085116
H	-3.4065656264	 3.4380483513	-1.9039467469	 0.115178
H	-2.2062147367	 4.115658444	-0.7214614796	 0.113186
H	-2.5140912953	 1.1145996933	-1.5227993602	 0.092006
44.1355	111.9586	181.3423	268.767	286.2497	344.9722	418.469	453.6812	630.8513	715.8896	741.763	805.9151	812.9776	830.7255	878.2093	900.5343	929.8677	973.5548	986.8773	1026.1661	1045.8572	1055.8908	1072.2087	1096.0953	1116.9795	1118.691	1189.6211	1202.2364	1210.7215	1218.4868	1303.4344	1314.1424	1328.9018	1358.4463	1378.1176	1404.522	1410.2073	1482.7312	1492.6859	1508.497	1814.3563	3017.5566	3042.2536	3064.8386	3082.284	3100.6378	3124.5347	3132.4522	3172.9242	3185.1844	3215.0572
O=COC1CCC2CC12	O=CO[C@@H]1CC[C@H]2C[C@@H]12	
InChI=1S/C7H10O2/c8-4-9-7-2-1-5-3-6(5)7/h4-7H,1-3H2	InChI=1S/C7H10O2/c8-4-9-7-2-1-5-3-6(5)7/h4-7H,1-3H2/t5-,6+,7+/m0/s1
