19
gdb 5480	2.7149227	1.3042662	1.0152633	2.8604	75.22	-0.22509	0.06117	0.28626	1207.431	0.15504	-422.473184	-422.464325	-422.463381	-422.506585	33.334	
C	 3.9748408129	-1.6600919698	 0.5306145386	-0.503414
C	 3.1595690973	-2.4381143762	-0.4619586106	 0.272419
C	 1.6606764485	-2.4193088537	-0.6409307386	-0.04297
C	 0.8573203122	-1.3174666288	 0.0022536538	-0.127782
O	-0.3431301041	-1.1676391146	-0.7449286959	-0.418364
C	 2.5509883754	-2.0367453554	-1.80297573	-0.153341
C	 3.2049145278	-3.2916267365	-2.4546870982	 0.013875
O	 2.7343827125	-4.4792447286	-1.7967935909	-0.238066
C	 3.7663553276	-3.7043903678	-1.1747786557	-0.040618
H	 4.0653345735	-2.2023951413	 1.4802881621	 0.122328
H	 4.9901191336	-1.4860711588	 0.1543425164	 0.119715
H	 3.5359345429	-0.6824819386	 0.7475204821	 0.124682
H	 1.1351825282	-3.3660160789	-0.6940469922	 0.115664
H	 0.6411386229	-1.5848818329	 1.0491789449	 0.08975
H	 1.4280594765	-0.3755806382	 0.0180321214	 0.079254
H	-0.9007975955	-0.5322398808	-0.2861677714	 0.285015
H	 2.5106983076	-1.0596724787	-2.2667388764	 0.090236
H	 3.567393677	-3.3941276777	-3.4702020465	 0.108321
H	 4.6884239132	-4.2102473925	-0.911030583	 0.103297
85.1888	152.0785	185.848	213.849	237.1621	264.0169	281.7752	390.0713	448.6581	459.4665	572.7308	692.9833	755.6589	801.4201	810.3672	857.4989	868.101	916.2321	939.3679	958.8825	982.1435	1037.3892	1057.9147	1087.8431	1100.2888	1111.8303	1119.0993	1186.0332	1207.5001	1232.4696	1243.449	1261.9759	1281.6289	1330.5835	1370.2621	1417.7805	1437.9237	1469.6462	1486.8027	1501.8529	1521.3592	2964.0898	2990.8632	3018.4281	3070.3576	3107.5912	3175.8588	3177.551	3193.1428	3202.8691	3825.1762
CC12C(CO)C1C1OC21	C[C@@]12[C@@H](CO)[C@@H]1[C@@H]1O[C@H]21	
InChI=1S/C7H10O2/c1-7-3(2-8)4(7)5-6(7)9-5/h3-6,8H,2H2,1H3	InChI=1S/C7H10O2/c1-7-3(2-8)4(7)5-6(7)9-5/h3-6,8H,2H2,1H3/t3-,4+,5-,6-,7+/m0/s1
