19
gdb 3340	2.6048149	1.5178046	1.120706	0.5566	76.06	-0.23267	0.05876	0.29142999999999997	1127.2296	0.15598	-422.484378	-422.475826	-422.474881	-422.517893	31.808	
C	 2.8119185076	 1.6036995881	 0.0241406867	-0.423055
C	 1.783096846	 0.5008483932	 0.1619052928	-0.076949
C	 1.5677355957	-0.404034767	-1.0460075101	-0.202517
C	 0.4227748826	-1.3619905808	-0.7609482408	-0.102065
O	 1.0188785703	-1.7532396583	 0.5082607335	-0.330817
C	 2.1782570471	-0.9460371179	 0.2337665223	 0.463348
C	 3.4712363642	-1.5841444894	 0.5869751839	-0.039499
C	 4.2157072605	-1.2205176449	 1.8039231159	-0.174726
O	 4.6534355021	-0.7895632805	 0.5143353441	-0.227401
H	 3.1695299901	 1.9374574888	 1.0035078767	 0.117914
H	 3.6831465424	 1.2744715811	-0.5446711517	 0.139371
H	 2.3702154647	 2.4687455192	-0.4828467916	 0.113672
H	 0.8999949163	 0.7647427963	 0.7434345423	 0.085657
H	 2.0217687217	-0.2003893969	-2.0068451692	 0.103452
H	-0.5795916555	-0.9354659595	-0.633943786	 0.103894
H	 0.3751868762	-2.2198805139	-1.4417950867	 0.108298
H	 3.5838330532	-2.6002369957	 0.2065126012	 0.100407
H	 3.8251053583	-0.4362236548	 2.4490833257	 0.120894
H	 4.8495624663	-1.961920917	 2.287163101	 0.12012
47.4529	150.0603	194.5304	222.8344	256.438	273.3397	312.3277	394.7985	474.9715	515.4878	663.9725	746.8965	841.1288	872.0275	888.6805	926.5049	935.8288	977.1617	988.5844	999.1392	1040.6164	1058.7651	1077.0958	1101.8358	1129.6836	1140.5785	1152.222	1164.2766	1170.9793	1174.2156	1254.5431	1280.7285	1330.4171	1338.3834	1419.5604	1424.8485	1471.1508	1485.4425	1507.0564	1517.8238	1523.7816	3019.6031	3035.9603	3066.9022	3091.2185	3092.1313	3102.6203	3104.4362	3137.5094	3184.504	3200.7365
CC1C2COC12C1CO1	C[C@H]1[C@@H]2CO[C@]12[C@@H]1CO1	
InChI=1S/C7H10O2/c1-4-5-2-9-7(4,5)6-3-8-6/h4-6H,2-3H2,1H3	InChI=1S/C7H10O2/c1-4-5-2-9-7(4,5)6-3-8-6/h4-6H,2-3H2,1H3/t4-,5-,6-,7+/m0/s1
