19
gdb 5674	3.8814309	0.9350005	0.8025752	3.1539	78.92	-0.23519	-0.03357	0.20162000000000002	1441.0008	0.155011	-422.570825	-422.561516	-422.560571	-422.605881	33.015	
C	 1.6004565939	 1.1089354817	 0.2578934062	-0.382454
C	 1.1647536086	-0.3372896839	 0.0115856499	-0.177056
C	 1.7738589474	-0.9302579266	-1.2644210193	 0.084218
O	 3.2120442591	-0.9281366546	-1.1843037908	-0.287486
C	 3.7315560237	-2.2409969195	-1.3302775856	-0.006914
C	 4.6388391278	-2.3053275124	-2.5615659333	 0.136433
O	 5.5144836155	-3.1146422453	-2.7098192881	-0.240576
C	 2.5211322597	-3.1229523219	-1.5191437356	-0.115118
C	 1.4249600263	-2.3739221904	-1.5070610502	-0.097675
H	 1.1664144681	 1.4982662189	 1.1834153379	 0.112658
H	 2.6888756689	 1.1731574757	 0.3351203337	 0.136903
H	 1.2825590827	 1.7627155348	-0.5620668901	 0.113127
H	 1.4517043056	-0.9723156653	 0.8581658266	 0.102558
H	 0.0717578559	-0.394713054	-0.073650154	 0.094494
H	 1.4793830484	-0.2982309243	-2.1185441777	 0.086344
H	 4.3316535516	-2.5282070097	-0.4543602352	 0.111015
H	 4.3899108578	-1.5346080848	-3.3256332296	 0.08739
H	 2.5964377792	-4.1932319717	-1.6563494406	 0.126733
H	 0.40508157	-2.7187594664	-1.6220756843	 0.115407
58.8688	68.1824	105.9154	146.6349	208.2416	260.3091	278.7304	394.6486	417.532	470.3887	541.9601	725.7736	759.2899	784.4251	826.2597	874.2996	901.7531	938.6951	962.4266	993.4172	1040.0574	1042.9219	1065.2804	1087.5434	1124.2339	1135.0787	1140.8868	1257.9863	1282.5657	1294.1848	1304.446	1343.7566	1366.7839	1387.4969	1392.8591	1408.7027	1476.3509	1496.023	1508.3957	1682.1983	1836.5236	2885.2977	2964.7065	3001.6576	3024.0305	3037.1182	3065.3904	3103.8307	3124.3193	3212.2718	3239.5403
CCC1OC(C=O)C=C1	CC[C@H]1O[C@H](C=O)C=C1	
InChI=1S/C7H10O2/c1-2-6-3-4-7(5-8)9-6/h3-7H,2H2,1H3	InChI=1S/C7H10O2/c1-2-6-3-4-7(5-8)9-6/h3-7H,2H2,1H3/t6-,7+/m1/s1
