19
gdb 434	4.0854274	1.2048808	1.0695954	2.3381	74.98	-0.25241	0.0839	0.33631	1165.8234	0.157652	-422.525169	-422.517241	-422.516297	-422.557813	30.248	
C	-0.1112453879	 0.8857393516	-0.8868273659	-0.263487
C	 0.5592421882	 1.8316429863	 0.0750512927	-0.269722
C	 0.5293602828	 0.3568124323	 0.3773494768	-0.117948
C	-0.335603323	-0.1686199217	 1.4717481083	 0.394643
C	-0.6880376539	-1.6452432303	 1.5457084856	-0.136881
O	-1.2298771003	-1.8621808496	 2.8426970602	-0.257785
C	-0.7712409261	-0.848900297	 3.7317950086	-0.100822
C	-0.3994894243	 0.3225989634	 2.8543855016	-0.052196
O	-1.4283681974	 0.6543048324	 1.9098184948	-0.289929
H	-1.1947221706	 0.9038904867	-0.9239565516	 0.127925
H	 0.372695912	 0.6720643457	-1.8330129586	 0.113122
H	 1.5082320369	 2.2735406451	-0.2063308263	 0.110665
H	-0.0870033172	 2.4655757414	 0.6705225224	 0.130675
H	 1.4590354337	-0.1919651838	 0.2544681724	 0.088675
H	-1.4427627447	-1.9449476988	 0.8113074561	 0.11841
H	 0.2210153546	-2.2466598963	 1.3784829157	 0.090445
H	-1.580877708	-0.6320777676	 4.4365116954	 0.119268
H	 0.113875768	-1.1741535004	 4.3036251906	 0.093597
H	 0.200982637	 1.1476002606	 3.2268306911	 0.101344
76.0877	148.6946	181.5944	214.9665	289.8676	365.5775	450.6591	464.7288	625.0667	699.8827	769.579	794.3848	826.0045	879.1138	896.2466	912.0848	927.8041	932.1453	982.3346	1015.7499	1057.7791	1068.1164	1090.4656	1093.1415	1116.7729	1131.1346	1140.0487	1181.4428	1203.8126	1221.5892	1227.8826	1244.1506	1280.3134	1349.9293	1378.5032	1406.4554	1459.4062	1479.8141	1498.6325	1502.2088	1510.6207	2966.9313	2974.372	3069.5108	3073.1965	3138.2886	3141.5536	3147.0992	3161.6416	3222.0858	3237.2214
C1CC1C12COCC1O2	C1CC1[C@@]12COC[C@@H]1O2	
InChI=1S/C7H10O2/c1-2-5(1)7-4-8-3-6(7)9-7/h5-6H,1-4H2	InChI=1S/C7H10O2/c1-2-5(1)7-4-8-3-6(7)9-7/h5-6H,1-4H2/t6-,7-/m0/s1
