19
gdb 1340	3.1066595	1.0488657	0.8480471	1.0928	76.63	-0.23545	-0.02371	0.21173999999999998	1360.5493	0.154845	-422.516922	-422.507782	-422.506838	-422.551881	32.644	
C	-0.5416972355	-2.8028198529	 2.1679545849	-0.416099
C	-0.4487537357	-1.5076371009	 2.9887896429	-0.101523
C	 0.2548455063	-1.754733341	 4.3126002729	 0.174794
O	 1.1762283061	-1.1068402644	 4.7371064989	-0.253481
C	-1.8280839719	-0.9305134767	 3.2852000857	-0.053746
C	-1.8781856486	 0.5242050647	 3.7252729844	-0.144003
C	-3.3299492446	 0.9262472408	 3.9566959883	-0.099595
O	-3.7170532783	 0.4286053787	 2.6429465597	-0.290877
C	-2.3557129338	 0.1200541981	 2.3509480753	 0.089807
H	-1.06804244	-3.5843770106	 2.7272438551	 0.124576
H	-1.0947371713	-2.6287399803	 1.2408809674	 0.131887
H	 0.4513589841	-3.182916674	 1.9100984408	 0.127802
H	 0.1473152744	-0.7584454689	 2.4548316942	 0.094395
H	-0.1761087073	-2.5981637851	 4.9043135301	 0.070789
H	-2.5498624532	-1.629865487	 3.7064797072	 0.092147
H	-0.9973261184	 1.066482334	 4.0413447104	 0.119689
H	-3.8760014755	 0.4302633778	 4.7677140372	 0.108724
H	-3.4831031651	 2.0094520864	 4.0125777754	 0.115332
H	-1.987080912	 0.3107475813	 1.3489480592	 0.109383
42.576	69.3912	142.053	173.8343	208.7545	270.8453	335.5657	366.9496	387.6787	439.6642	572.7913	753.4084	805.4221	884.8164	890.062	919.3457	947.8214	957.8712	987.388	997.2115	1019.9965	1043.6266	1076.2902	1099.6716	1114.5247	1132.01	1157.3991	1163.5422	1207.1551	1247.5164	1251.9971	1293.5967	1324.1532	1351.9983	1405.7209	1419.4533	1429.3312	1496.35	1497.5687	1515.135	1832.1833	2843.657	3026.8024	3035.5941	3047.4386	3077.5939	3103.6644	3110.6771	3117.2943	3172.8956	3207.8409
CC(C=O)C1C2COC12	C[C@H](C=O)[C@H]1[C@@H]2CO[C@H]12	
InChI=1S/C7H10O2/c1-4(2-8)6-5-3-9-7(5)6/h2,4-7H,3H2,1H3	InChI=1S/C7H10O2/c1-4(2-8)6-5-3-9-7(5)6/h2,4-7H,3H2,1H3/t4-,5+,6+,7+/m1/s1
