19
gdb 4005	4.2012627	1.0783155	1.0660631	2.2896	75.92	-0.22712	0.07889	0.30601	1205.6699	0.156918	-422.500426	-422.492156	-422.491212	-422.533572	31.274	
O	 0.3248011689	 0.329982705	-0.0347373862	-0.439177
C	-0.7946317918	 0.4470223788	 0.8214416425	 0.138438
C	-2.096417802	 0.2436582406	-0.0000608017	-0.247705
C	-2.4236597365	-1.012749771	 0.8165656643	-0.153652
C	-1.1145827822	-0.8188324284	 1.6389785397	-0.207953
C	-2.4558174034	-0.6823619799	 2.2641481471	 0.481583
C	-3.0399435901	-1.5340408801	 3.3873664761	-0.374904
C	-3.5845405867	-0.186524827	 3.9091826357	-0.068844
O	-2.9785521366	 0.5365665583	 2.8136713682	-0.31602
H	 1.1183224424	 0.3949736613	 0.5065351206	 0.279215
H	-0.7451457636	 1.3699044639	 1.4135823027	 0.077764
H	-2.8365904247	 1.0471990054	 0.0307986198	 0.108142
H	-1.831873288	 0.0190234447	-1.0346062727	 0.119387
H	-2.8725259978	-1.9206144125	 0.426928904	 0.081084
H	-0.379143926	-1.5427601295	 1.9768721568	 0.08028
H	-3.7946180152	-2.260610209	 3.0800074447	 0.115603
H	-2.3075862452	-2.0229679309	 4.0327182596	 0.114441
H	-4.675620717	-0.0838120462	 3.9085749752	 0.106583
H	-3.1927239642	 0.1424024165	 4.8781994036	 0.105738
66.9932	114.6857	167.708	218.2289	282.2449	336.1266	427.7466	438.2629	516.5779	604.3012	744.5472	785.4728	807.5654	859.9489	882.7892	888.9249	953.4427	968.0694	975.2755	986.5304	996.8387	1022.489	1051.4047	1097.1818	1107.9101	1142.9905	1165.3046	1185.6213	1208.747	1214.2812	1237.6636	1238.6869	1261.4679	1274.8509	1320.0183	1352.7566	1412.505	1449.2137	1474.9292	1490.5078	1532.3332	3015.8466	3026.1606	3067.1176	3068.068	3073.2926	3126.364	3131.6413	3152.404	3163.7018	3811.8015
OC1CC2C1C21CCO1	O[C@H]1C[C@H]2[C@@H]1[C@@]12CCO1	
InChI=1S/C7H10O2/c8-5-3-4-6(5)7(4)1-2-9-7/h4-6,8H,1-3H2	InChI=1S/C7H10O2/c8-5-3-4-6(5)7(4)1-2-9-7/h4-6,8H,1-3H2/t4-,5-,6-,7-/m0/s1
