19
gdb 2273	2.3695374	2.151385	1.5188424	1.2568	72.67	-0.24512	0.08274	0.32786	932.329	0.158853	-422.549728	-422.542602	-422.541657	-422.580685	29.334	
C	-0.0579796698	-0.0084588198	-0.0446734163	-0.49823
C	 1.4563112605	 0.0373154027	 0.0347019948	 0.236315
C	 2.2118241848	-0.2518406581	-1.290787952	-0.093965
O	 3.5458885312	 0.2468550429	-1.0764325363	-0.280992
C	 3.5521478512	 0.7978302181	 0.258686364	 0.049323
C	 2.1415817728	 1.3778139151	 0.3986545755	-0.266464
C	 3.5075519347	-0.4245734396	 1.1852466186	 0.032215
O	 2.5675460889	-0.3454517658	 2.2680711688	-0.265021
C	 2.1365004392	-0.921439171	 1.0294005291	 0.024508
H	-0.5078782291	 0.2234806053	 0.9257964147	 0.130207
H	-0.4381111328	 0.7144123179	-0.7745351761	 0.118202
H	-0.4110574003	-1.0016770393	-0.3450736019	 0.116734
H	 2.2505242579	-1.3218437723	-1.5319500554	 0.097586
H	 1.7545418806	 0.2779277203	-2.1367537814	 0.097848
H	 4.405739876	 1.468716712	 0.3474435721	 0.077
H	 1.9010655204	 1.7266535344	 1.4010755529	 0.123189
H	 1.9511385713	 2.1606055368	-0.3387204965	 0.10023
H	 4.3742609254	-1.0592453411	 1.3364903312	 0.104488
H	 1.8667969671	-1.9739024986	 1.0604879742	 0.096826
219.3039	227.5404	266.6352	313.9815	360.177	406.0463	476.634	554.7523	597.2261	611.5036	787.206	805.4231	865.3025	877.3209	901.3704	906.292	912.9678	951.7695	964.7294	986.648	1011.1652	1014.3639	1043.9537	1100.1713	1116.1429	1176.2484	1198.2157	1208.6775	1246.8149	1265.1921	1271.6336	1293.6599	1301.4711	1337.988	1373.0143	1416.5502	1419.1775	1479.9746	1494.4349	1498.5573	1521.993	3007.9211	3028.195	3046.288	3086.2876	3091.0738	3103.3827	3128.8783	3148.6775	3160.5035	3177.9446
CC12COC(C1)C1OC21	C[C@@]12CO[C@@H](C1)[C@H]1O[C@@H]21	
InChI=1S/C7H10O2/c1-7-2-4(8-3-7)5-6(7)9-5/h4-6H,2-3H2,1H3	InChI=1S/C7H10O2/c1-7-2-4(8-3-7)5-6(7)9-5/h4-6H,2-3H2,1H3/t4-,5+,6+,7-/m0/s1
