19
gdb 5938	1.9645135	1.4093352	0.9619506	1.7113	79.25	-0.23756	0.04697	0.28453	1286.5095	0.15404	-422.49222	-422.482223	-422.481279	-422.527048	36.436	
C	 1.3759996674	 0.2359668189	-0.1640845164	-0.229638
O	-0.0161417861	 0.4017581995	-0.001152384	-0.247004
C	-0.3873170238	 0.6635919113	 1.347179705	-0.151251
C	-1.9026002962	 0.6941118292	 1.4132131562	 0.057578
C	-2.5742797571	 1.8887964412	 2.1006909081	-0.346141
C	-2.5655584791	 1.8152244152	 0.6106231132	 0.10103
O	-1.7409698145	 2.6987571128	-0.0780783073	-0.430381
C	-2.561439935	-0.5807579404	 1.4606226903	 0.293246
C	-3.1173697145	-1.6469533241	 1.5050069677	-0.45431
H	 1.7499083644	-0.6139207332	 0.4260742588	 0.114194
H	 1.5595748558	 0.0401164843	-1.2229194612	 0.132142
H	 1.9336036386	 1.1368559047	 0.1354335846	 0.109891
H	 0.0106893932	-0.119366629	 2.0087596154	 0.105367
H	 0.0305328171	 1.6280893686	 1.6673745805	 0.101968
H	-3.5022159821	 1.6976591536	 2.6256265378	 0.128203
H	-1.9164302866	 2.617287383	 2.5612163303	 0.126278
H	-3.4970417484	 1.554617961	 0.1109381641	 0.102506
H	-1.1515356857	 2.1557502255	-0.6197023191	 0.295803
H	-3.6056853973	-2.588969042	 1.5369954561	 0.190519
71.1745	120.6443	135.953	154.8315	184.0018	235.6588	281.6409	339.1134	379.8567	410.8379	484.7508	499.5002	535.9708	560.8639	583.1847	649.1886	771.0232	837.9391	890.3072	941.8837	962.1827	988.0991	1047.7992	1059.0376	1116.3804	1137.6893	1179.1639	1185.9094	1223.1324	1240.3883	1292.9254	1307.8711	1362.7454	1411.5408	1426.0985	1473.2767	1483.5395	1487.184	1499.5969	1519.2542	2233.4567	2977.7525	2994.8574	3028.372	3034.7918	3119.8493	3120.0666	3144.7737	3240.5008	3504.4278	3746.3583
COCC1(CC1O)C#C	COC[C@]1(C[C@H]1O)C#C	
InChI=1S/C7H10O2/c1-3-7(5-9-2)4-6(7)8/h1,6,8H,4-5H2,2H3	InChI=1S/C7H10O2/c1-3-7(5-9-2)4-6(7)8/h1,6,8H,4-5H2,2H3/t6-,7-/m1/s1
