19
gdb 1098	2.4383246	1.4199206	0.9177998	0.9166	81.3	-0.23908	-0.0521	0.18697999999999998	1266.3905	0.154779	-422.582172	-422.572396	-422.571451	-422.617735	33.856	
C	 1.3880604975	 1.9148377867	-1.3328747033	-0.487127
C	 1.3640239315	 0.7251506949	-0.3873338029	 0.29916
O	 2.398013716	 0.2803314474	 0.0770244249	-0.317122
C	 0.0301223237	 0.1565956595	-0.0759130505	 0.100767
C	-0.2463791177	-0.8873996288	 0.7263288269	 0.187252
C	 0.6643925225	-1.7623886725	 1.5195368934	-0.509738
C	-1.7345285338	-1.1061598913	 0.7429188728	-0.136082
O	-2.2961741404	-0.1172716424	-0.1043176688	-0.265701
C	-1.263936607	 0.6991193522	-0.645155975	-0.171179
H	 0.7977181972	 2.7438754058	-0.9258462166	 0.140235
H	 2.4186438812	 2.2375113544	-1.4818727954	 0.141486
H	 0.941486474	 1.6504407455	-2.2983309507	 0.140186
H	 0.3976919036	-1.7204744762	 2.5834713193	 0.13286
H	 0.5439556587	-2.8097173395	 1.2138064222	 0.132906
H	 1.7036147098	-1.466554847	 1.3950960766	 0.176824
H	-1.9987037625	-2.1146232481	 0.3831075816	 0.110491
H	-2.1447603836	-1.0156832328	 1.7626189881	 0.110486
H	-1.295153217	 0.6512865639	-1.7452209106	 0.107147
H	-1.4413151937	 1.7498447382	-0.3660303919	 0.107149
44.3407	84.6236	114.2872	149.1703	155.9831	206.0125	254.1011	302.0314	404.4643	444.2535	469.9599	621.9198	626.6932	630.2715	812.5638	916.2751	948.6086	951.0083	972.5059	1030.1421	1048.5284	1057.358	1095.2429	1119.5391	1140.1973	1181.8725	1232.9207	1248.4813	1286.2581	1373.0969	1385.6266	1394.4362	1404.5501	1461.5605	1467.9422	1475.4096	1497.4265	1509.8305	1529.6086	1684.0981	1768.0847	2961.2976	2972.7802	2977.4539	2986.7117	3021.9871	3033.2877	3064.5656	3092.8345	3155.3837	3179.1813
CC(=O)C1=C(C)COC1	CC(=O)C1=C(C)COC1	
InChI=1S/C7H10O2/c1-5-3-9-4-7(5)6(2)8/h3-4H2,1-2H3	InChI=1S/C7H10O2/c1-5-3-9-4-7(5)6(2)8/h3-4H2,1-2H3
