19
gdb 1500	2.1517958	1.6273363	1.2556525	3.3548	76.93	-0.23438	-0.01747	0.21691	1092.0664	0.154352	-422.559021	-422.549783	-422.548839	-422.592754	34.913	
C	-3.0676520101	-0.1304639148	 1.24723315	-0.453041
C	-2.1183704353	-0.0643825417	 0.056663478	 0.292379
O	-2.8293248682	 0.0066355832	-1.1668298472	-0.473411
C	-0.9551653539	-1.1257617095	 0.0859665689	-0.423356
C	 0.0386898139	 0.0373537024	 0.2747165865	 0.356566
O	 1.2184214812	 0.1081931769	 0.4849642882	-0.321865
C	-1.0526269562	 1.0485534286	 0.1215557529	 0.222041
C	-1.1133222569	 2.4370493552	 0.7140162027	-0.328215
C	-0.969873424	 2.2755005645	-0.7627194135	-0.296911
H	-3.6751698936	-1.0433153441	 1.2088635579	 0.110216
H	-2.5190074831	-0.1372424805	 2.193713547	 0.126186
H	-3.7446914978	 0.7294352649	 1.2462764476	 0.125076
H	-3.4984357762	-0.6863120299	-1.1657729623	 0.278283
H	-0.9717348683	-1.8694878652	 0.887444414	 0.120946
H	-0.8308757317	-1.6282536851	-0.8774887806	 0.132882
H	-2.0705381358	 2.7633670929	 1.107300315	 0.122844
H	-0.2478444168	 2.7491118853	 1.2893114723	 0.13507
H	-1.8339498996	 2.4540424658	-1.3921723872	 0.140373
H	-0.0069395177	 2.4807224212	-1.2177424302	 0.133937
54.3808	161.1038	196.3681	200.5963	264.3236	287.5224	313.5062	333.0859	373.8869	458.8661	522.8738	570.0582	601.1592	633.2988	758.3504	805.9784	822.2602	866.9325	908.161	949.7968	964.8036	994.5092	1033.8573	1058.5415	1068.7889	1089.3615	1110.9232	1168.3129	1184.9532	1198.1422	1235.8124	1252.5344	1336.0774	1394.0459	1407.1077	1430.9358	1457.2085	1485.5833	1493.9399	1495.6041	1877.3543	3024.2338	3058.6252	3091.613	3114.1268	3119.978	3129.6492	3139.2803	3215.6634	3236.1109	3806.2825
CC1(O)CC(=O)C11CC1	C[C@]1(O)CC(=O)C21CC2	
InChI=1S/C7H10O2/c1-6(9)4-5(8)7(6)2-3-7/h9H,2-4H2,1H3	InChI=1S/C7H10O2/c1-6(9)4-5(8)7(6)2-3-7/h9H,2-4H2,1H3/t6-/m0/s1
