19
gdb 4949	1.9483712	1.7549381	1.0619262	4.3876	75.56	-0.26795	0.00636	0.27431	1177.7205	0.155653	-422.56122	-422.552064	-422.55112	-422.595171	33.446	
C	 0.7512704214	-0.3116355973	 0.9225597613	-0.381354
C	 0.7864059856	 0.3464778455	-0.4653436104	-0.302251
C	 1.6413176506	-0.4296785368	-1.4300301402	 0.110643
C	 3.1620448656	-0.2345433406	-1.682375174	-0.076224
C	 3.7983150618	 1.0571606651	-1.2181042339	-0.434343
C	 2.2005375493	-0.2067013624	-2.8167235278	 0.007787
O	 1.8921320665	-1.5720895995	-3.2128316012	-0.266407
C	 1.298373131	-1.7956130067	-1.9752337879	 0.439006
O	 0.7024653871	-2.7629817729	-1.624534923	-0.335271
H	 0.3832025858	-1.3386616754	 0.8507580678	 0.150994
H	 1.7499565796	-0.342745803	 1.3699630853	 0.117529
H	 0.0942950717	 0.2435635277	 1.5983253053	 0.114267
H	-0.233024191	 0.4138869788	-0.8640582854	 0.115464
H	 1.1541802816	 1.3745276982	-0.3841737688	 0.10549
H	 3.798782243	-1.1135764338	-1.6140272168	 0.110473
H	 4.0021003582	 1.0376472968	-0.1428615206	 0.135334
H	 4.7492241148	 1.2130363385	-1.7372324849	 0.134264
H	 3.1635907708	 1.9241581878	-1.4232940319	 0.126213
H	 2.0364540767	 0.57267842	-3.5481421127	 0.128386
73.7926	119.9001	171.0597	187.719	223.0153	263.1879	294.7579	308.5584	368.9456	500.2796	538.5994	661.3762	693.1103	778.6993	792.9691	833.5771	892.2284	917.8462	954.9788	980.4641	997.4366	1042.9282	1063.3906	1097.7425	1113.8217	1140.7503	1153.8342	1222.1592	1249.5809	1306.1816	1337.9334	1377.1375	1412.2879	1417.1527	1432.98	1482.2237	1497.3067	1499.3312	1500.6859	1512.662	1928.3873	3033.9196	3039.7652	3041.7309	3072.9269	3105.3502	3109.1135	3110.7432	3125.5526	3137.8375	3218.2718
CCC12C(C)C1OC2=O	CC[C@]12[C@H](C)[C@H]1OC2=O	
InChI=1S/C7H10O2/c1-3-7-4(2)5(7)9-6(7)8/h4-5H,3H2,1-2H3	InChI=1S/C7H10O2/c1-3-7-4(2)5(7)9-6(7)8/h4-5H,3H2,1-2H3/t4-,5-,7+/m1/s1
