19
gdb 4486	3.028743	1.6243154	1.2462283	1.1883	74.67	-0.2358	0.07346	0.30926	1034.8722	0.158048	-422.498136	-422.490784	-422.48984	-422.529702	29.287	
C	-0.321063188	-2.5051340677	-0.3411682526	-0.398882
C	-0.6833481768	-1.1730653377	-0.984907458	 0.097524
O	 0.309640349	-0.9106743486	-1.971228046	-0.262788
C	-0.0395985274	 0.121468047	-2.8757200607	-0.120375
C	-1.4863620589	 0.0026397115	-3.3340256453	-0.028837
C	-2.6074165087	 0.1189584338	-2.270175461	 0.021173
O	-3.4927427681	-0.690655429	-3.1307062823	-0.316199
C	-2.1837914734	-1.3767434073	-3.1570862041	 0.042099
C	-2.0756290557	-1.1812933562	-1.6159317989	-0.019773
H	-0.9912426312	-2.7223343902	 0.4958490746	 0.115986
H	-0.3978490296	-3.3171349196	-1.0708489412	 0.123257
H	 0.705745887	-2.4750503204	 0.0324283116	 0.126686
H	-0.6519482332	-0.381614924	-0.2132922406	 0.066455
H	 0.1329337814	 1.1160575825	-2.427918107	 0.090572
H	 0.6450391263	 0.0215240844	-3.7240840609	 0.114208
H	-1.705473588	 0.5144389903	-4.2730852173	 0.083891
H	-3.0303057696	 1.008545726	-1.8007339157	 0.088498
H	-2.1011961819	-2.2835123994	-3.7560904826	 0.095712
H	-2.8249878834	-1.7226782752	-1.0347081821	 0.080793
128.7099	194.4777	242.1623	284.2018	329.4575	453.437	475.7183	496.0498	615.3887	724.8505	746.4087	816.9343	851.7583	866.9498	886.7353	895.5794	950.2035	974.7796	997.2155	1028.1759	1037.7671	1082.3013	1115.4405	1134.2594	1149.1309	1159.7901	1167.5209	1194.1732	1207.0758	1255.7766	1264.8402	1284.5182	1302.7211	1356.2297	1358.9231	1395.1108	1408.6611	1417.3953	1485.0759	1496.9076	1504.5341	2928.9483	2952.848	3042.4068	3069.7782	3096.1832	3102.1793	3108.7095	3116.6223	3123.4158	3124.3445
CC1OCC2C3OC2C13	C[C@H]1OC[C@@H]2[C@H]3O[C@@H]2[C@@H]13	
InChI=1S/C7H10O2/c1-3-5-6-4(2-8-3)7(5)9-6/h3-7H,2H2,1H3	InChI=1S/C7H10O2/c1-3-5-6-4(2-8-3)7(5)9-6/h3-7H,2H2,1H3/t3-,4-,5+,6-,7+/m1/s1
