19
gdb 2209	2.8542575	1.7504789	1.6314234	2.1596	73.54	-0.22908	0.08306	0.31214	938.4301	0.159315	-422.566614	-422.559358	-422.558414	-422.597913	29.126	
C	-0.0153212987	-0.1429118567	-0.0287321276	-0.486724
C	 1.4684167482	 0.0400668206	 0.0626290465	 0.456098
O	 2.0581959573	-0.6940312349	 1.1264354129	-0.286755
C	 3.3952283359	-0.2270986549	 1.2019048001	 0.165525
C	 3.294437667	 1.2965038902	 0.9876060319	-0.254692
C	 2.2321572414	 1.3346991393	-0.0962132143	-0.160701
C	 2.3881420786	 0.2132316001	-1.118629891	-0.152196
C	 3.688441024	-0.5730827775	-1.1243749385	-0.088298
O	 4.1840841073	-0.818748445	 0.1968373113	-0.265286
H	-0.4993897528	 0.1573352986	 0.9062418819	 0.127775
H	-0.4253820261	 0.4625441895	-0.8417763812	 0.11883
H	-0.2676698547	-1.1908201828	-0.2208772288	 0.130627
H	 3.8196021359	-0.5482994883	 2.1532268201	 0.091502
H	 2.9491272507	 1.8015852128	 1.8955562117	 0.107294
H	 4.263233171	 1.7108089386	 0.6976827445	 0.110979
H	 1.7435108823	 2.2624937839	-0.3685529728	 0.086963
H	 1.9360966602	 0.3608197063	-2.0947974569	 0.088393
H	 3.5388600647	-1.5460674857	-1.6104560428	 0.109945
H	 4.4600005878	-0.0362685142	-1.6950395072	 0.100724
145.2656	200.3994	216.3079	299.7	380.9707	439.9687	507.0467	554.405	629.9552	687.1241	702.915	791.4556	837.4075	863.3835	887.4505	913.0333	920.1559	970.6079	979.5139	1015.4073	1060.707	1075.3264	1085.6791	1105.7236	1126.1639	1130.1828	1185.4756	1216.5133	1242.5221	1253.4294	1309.6004	1319.9445	1347.5997	1373.4524	1407.3962	1422.2518	1466.8882	1476.7099	1491.1785	1506.0128	1524.7144	2993.3353	3028.6918	3036.8795	3052.4286	3102.058	3106.027	3117.5279	3123.6453	3155.0084	3181.6034
CC12OC3CC1C2CO3	C[C@]12O[C@@H]3C[C@H]1[C@H]2CO3	
InChI=1S/C7H10O2/c1-7-4-2-6(9-7)8-3-5(4)7/h4-6H,2-3H2,1H3	InChI=1S/C7H10O2/c1-7-4-2-6(9-7)8-3-5(4)7/h4-6H,2-3H2,1H3/t4-,5+,6+,7-/m0/s1
