19
gdb 475	3.572949	1.1394716	0.9724529	2.5518	77.49	-0.24962	0.01246	0.26208000000000004	1240.0865	0.15798	-422.532791	-422.524686	-422.523742	-422.565942	30.374	
C	-0.9007188596	 3.9621857687	 1.6282380237	-0.185523
O	-2.0348847813	 3.1439246203	 1.331723753	-0.243717
C	-0.7550639008	 2.7326185637	 0.842189549	 0.100314
C	-0.5747800927	 2.7489177778	-0.6650548673	-0.076107
C	-1.2176980783	 1.5118461078	-1.3102955083	-0.106158
O	-0.4413233525	 0.349962385	-1.0629172864	-0.250923
C	 0.8259427892	 0.4018272214	-1.6879405417	-0.115957
C	 1.5187185177	 1.725415303	-1.5172295844	-0.066618
C	 0.8878789716	 2.7961445557	-1.040579044	-0.085349
H	-0.8792113809	 4.928161653	 1.1237612005	 0.109716
H	-0.5963846274	 3.9809840658	 2.673744993	 0.115685
H	-0.3514895367	 1.8479125928	 1.3350016311	 0.104403
H	-1.0856315943	 3.6440894371	-1.043852167	 0.081799
H	-2.2058303225	 1.3195232979	-0.8839799827	 0.12394
H	-1.3327151521	 1.6753912825	-2.3937800831	 0.089212
H	 1.4203932764	-0.4023735616	-1.2381325217	 0.119109
H	 0.7378970338	 0.1647486474	-2.7650887831	 0.099119
H	 2.5630998348	 1.7702806158	-1.8152720674	 0.095159
H	 1.4158903358	 3.7358348357	-0.9024284831	 0.091896
74.9461	95.0147	165.9918	253.012	306.8345	321.8905	436.1245	471.4741	523.7395	612.3997	701.1504	808.7972	843.3868	861.8744	895.7917	915.3989	951.767	968.8323	995.2702	1018.3694	1057.2745	1065.1762	1109.3004	1117.5885	1154.637	1167.1905	1180.6147	1212.2028	1243.6599	1278.8721	1291.4492	1314.8936	1327.7785	1366.7959	1408.3874	1418.3065	1438.8737	1484.2581	1498.364	1529.8014	1721.5843	2929.8705	2977.7701	3024.7698	3050.6069	3078.755	3095.6962	3115.6009	3151.4952	3164.6906	3174.3237
C1OC1C1COCC=C1	C1O[C@H]1[C@@H]1COCC=C1	
InChI=1S/C7H10O2/c1-2-6(4-8-3-1)7-5-9-7/h1-2,6-7H,3-5H2	InChI=1S/C7H10O2/c1-2-6(4-8-3-1)7-5-9-7/h1-2,6-7H,3-5H2/t6-,7+/m0/s1
