19
gdb 4466	2.9489989	1.4409507	1.040655	0.1837	77.85	-0.22773	0.01921	0.24694	1160.1346	0.157793	-422.554373	-422.546019	-422.545075	-422.587634	30.502	
C	 0.2594036076	 0.2757220761	-0.4454925498	-0.390794
C	 1.0571167863	-0.519164851	 0.5877310459	 0.014034
O	 2.3987636748	 0.0058315001	 0.6733295822	-0.289494
C	 2.7480167568	 0.3425788536	 2.0215067507	-0.191671
C	 1.5012437671	 0.0637006427	 2.7965741787	 0.189705
C	 0.5618577442	-0.422243959	 1.9984957862	 0.215612
C	-0.6753612188	-0.7281500951	 2.7792138106	-0.188469
O	-0.3431635633	-0.3486460421	 4.1225350182	-0.275182
C	 1.0015612289	 0.1448945592	 4.2025203082	-0.182382
H	 0.160497882	 1.3194582756	-0.1336135508	 0.12007
H	 0.769150202	 0.247721606	-1.4122966383	 0.12894
H	-0.741444222	-0.1510202304	-0.5716297286	 0.113197
H	 1.1164871876	-1.5694441993	 0.2558043969	 0.083584
H	 3.6024913304	-0.2694022906	 2.3521137367	 0.107271
H	 3.0671473956	 1.3947466524	 2.0663054756	 0.109756
H	-1.5552964024	-0.1579017564	 2.4439277435	 0.11009
H	-0.9500351961	-1.7944153382	 2.7531353489	 0.108068
H	 0.9943096658	 1.1704845586	 4.6029111045	 0.109135
H	 1.5821326134	-0.4738549622	 4.9046054606	 0.108529
87.3246	119.802	147.5282	200.3646	235.6982	276.1302	394.9751	423.1264	535.5563	559.9319	682.2505	769.7363	838.2707	865.9819	906.2999	965.8456	987.0116	1020.3298	1036.8362	1056.066	1069.7	1088.948	1105.6259	1119.9954	1160.0133	1198.6911	1219.3664	1236.1095	1256.5627	1321.4587	1367.9591	1383.2152	1398.6564	1401.9159	1412.2129	1485.6016	1496.0669	1517.1818	1523.5354	1528.9035	1747.9613	2955.0408	2971.8057	2975.0475	2980.8352	2992.4574	2995.4168	2997.6301	3037.5225	3111.1368	3123.9187
CC1OCC2=C1COC2	C[C@H]1OCC2=C1COC2	
InChI=1S/C7H10O2/c1-5-7-4-8-2-6(7)3-9-5/h5H,2-4H2,1H3	InChI=1S/C7H10O2/c1-5-7-4-8-2-6(7)3-9-5/h5H,2-4H2,1H3/t5-/m1/s1
