19
gdb 1693	2.7552567	1.1544832	1.0226253	3.1061	76.33	-0.24198	-0.02211	0.21987	1232.889	0.155211	-422.581874	-422.572713	-422.571769	-422.616785	33.503	
O	-0.0247104159	 2.9138750617	-0.1804704876	-0.474774
C	-1.0235457796	 2.2051250664	 0.550605077	 0.382005
C	-0.4187978556	 0.9260080082	 1.172813632	-0.328758
C	 0.2051960372	 0.0001691305	 0.1495805036	 0.159342
O	-0.0014525666	-1.1859748428	 0.090161021	-0.248027
C	-2.1771702976	 1.8593802779	-0.4318257354	-0.29699
C	-3.4263756745	 2.1395639774	 0.3624516445	-0.057784
C	-3.1681130871	 2.794943098	 1.4930236688	-0.057619
C	-1.6960779334	 3.0729949218	 1.6584614739	-0.324124
H	 0.6518014749	 3.2061954549	 0.440373248	 0.276643
H	 0.3740243273	 1.2236542616	 1.8769486244	 0.106448
H	-1.1740162322	 0.3721630329	 1.7383876619	 0.128449
H	 0.8913327527	 0.5029402133	-0.5649463104	 0.089384
H	-2.1038420733	 2.5080457404	-1.3135444814	 0.125472
H	-2.1228387535	 0.8267602404	-0.7948420578	 0.118079
H	-4.4123602393	 1.8527096554	 0.0148175302	 0.097406
H	-3.9099771201	 3.1284045007	 2.2099135846	 0.095704
H	-1.4681083856	 4.1323636835	 1.4767405565	 0.111311
H	-1.3200551677	 2.8327786877	 2.6608087163	 0.097831
42.5041	56.8642	113.498	192.9654	298.479	331.4158	344.6987	392.698	404.171	465.8818	509.6936	618.405	695.5671	769.8033	778.9832	836.0642	906.9289	947.8423	957.3823	979.9512	987.7414	990.637	1033.6984	1090.2368	1101.6481	1122.1774	1137.7067	1171.0526	1209.916	1271.0057	1292.9988	1301.344	1322.5974	1361.4682	1398.2354	1422.3569	1454.18	1476.8604	1485.1931	1689.6108	1826.6969	2909.4041	2995.5733	3010.0855	3030.7872	3046.336	3064.8719	3096.1903	3184.8391	3209.6729	3800.0921
OC1(CC=O)CC=CC1	O[C@]1(CC=O)CC=CC1	
InChI=1S/C7H10O2/c8-6-5-7(9)3-1-2-4-7/h1-2,6,9H,3-5H2	InChI=1S/C7H10O2/c8-6-5-7(9)3-1-2-4-7/h1-2,6,9H,3-5H2
