19
gdb 5122	3.4794884	1.3101233	1.1612966	3.021	74.37	-0.24066	0.05276	0.29342	1125.0418	0.156398	-422.487802	-422.479708	-422.478763	-422.520571	30.853	
C	 1.2393347248	 0.9843179561	 0.4630652698	-0.380965
C	 0.8113111334	-0.4346139999	 0.062455173	-0.305891
C	 1.5040262251	-0.9122563243	-1.1755780644	 0.421286
O	 2.8767916033	-1.3054822359	-1.0812416917	-0.270699
C	 1.9525119394	-2.2489548425	-1.6346148808	-0.086152
C	 1.707314185	-1.8491426066	-3.1188241069	 0.097712
O	 2.8374193691	-1.3277141194	-3.8312299009	-0.28499
C	 2.5117107873	 0.0317574476	-3.4356664354	-0.084769
C	 1.271503133	-0.4449482392	-2.6447483921	-0.177532
H	 0.7172889106	 1.3080237203	 1.3679641011	 0.117133
H	 2.3151999024	 1.022799192	 0.6564911596	 0.136766
H	 1.0134665666	 1.7055011887	-0.3295595447	 0.119306
H	 1.0318338428	-1.1371772988	 0.8737320119	 0.113981
H	-0.2727692681	-0.4658240283	-0.1042265369	 0.103754
H	 1.9106283519	-3.2259919373	-1.1640307696	 0.101521
H	 1.0821216543	-2.5283921075	-3.704041921	 0.080668
H	 3.3135115108	 0.49091786	-2.8509977912	 0.116146
H	 2.2786778253	 0.6479947487	-4.3116852057	 0.098183
H	 0.2950844431	-0.0245736937	-2.8787685143	 0.084541
79.5278	119.1935	199.6417	237.9396	289.2025	335.3293	360.7586	490.3546	606.9592	661.7254	721.6179	766.8684	816.7435	828.183	872.4123	897.2598	927.0059	953.8077	963.3275	995.545	1017.8937	1023.7524	1041.6572	1077.4206	1111.3348	1159.6535	1166.3083	1176.3234	1223.351	1238.8187	1277.394	1289.5163	1314.6241	1349.4312	1355.3096	1408.5038	1454.6513	1471.8759	1499.0009	1503.5251	1510.0672	3029.1426	3029.9736	3039.3668	3071.8672	3079.7221	3094.1453	3108.4144	3119.5766	3133.1462	3168.9386
CCC12OC1C1OCC21	CC[C@@]12O[C@@H]1[C@@H]1OC[C@H]21	
InChI=1S/C7H10O2/c1-2-7-4-3-8-5(4)6(7)9-7/h4-6H,2-3H2,1H3	InChI=1S/C7H10O2/c1-2-7-4-3-8-5(4)6(7)9-7/h4-6H,2-3H2,1H3/t4-,5+,6+,7-/m0/s1
