19
gdb 645	3.198044	0.9753364	0.8424298	2.2529	76.27	-0.24326	-0.03171	0.21155000000000002	1407.4611	0.155548	-422.527204	-422.51802	-422.517076	-422.562803	32.694	
O	-0.734019265	-0.5082522051	 3.392031946	-0.310856
C	 0.1999326378	-0.0756564439	 2.7544589441	 0.373379
C	 0.8654123803	-0.8726475009	 1.6375614601	-0.341951
C	-0.034412701	-0.993102203	 0.4164861877	 0.030522
C	 0.0038327608	-2.241480358	-0.4301118014	-0.277577
C	-1.2009547922	-1.9450990207	 0.4287203511	-0.24397
C	 0.7158684893	 1.3059990376	 3.0633710929	-0.016116
C	 1.0674767973	 2.2576345316	 1.9881283206	-0.178879
O	 2.0778254685	 1.6092980388	 2.7420565884	-0.213693
H	 1.8296875396	-0.4288955746	 1.3747423266	 0.125789
H	 1.0564945948	-1.8722136575	 2.0427193462	 0.123951
H	-0.1876037402	-0.061609761	-0.122746311	 0.081947
H	-0.0879580816	-2.1352370398	-1.5053643614	 0.112714
H	 0.6678464948	-3.0415549845	-0.1197092279	 0.113645
H	-2.1190443741	-1.6391138543	-0.0600426512	 0.112407
H	-1.3520369427	-2.5344311877	 1.3255758202	 0.129996
H	 0.3571204745	 1.7018727009	 4.0116547462	 0.116832
H	 0.9886141338	 1.9528913037	 0.9460866782	 0.128546
H	 0.9418923153	 3.3224085984	 2.1766955644	 0.133314
31.5907	65.4967	85.974	160.0718	205.3353	268.3466	347.2129	365.1623	490.8625	500.5899	672.6396	772.6945	780.3394	808.9016	839.9485	870.5237	898.9637	908.3037	954.6832	971.2199	1002.415	1059.503	1076.9321	1093.4042	1118.4295	1137.37	1152.0371	1168.2563	1195.2037	1207.8248	1232.5243	1260.9955	1263.0827	1334.7682	1386.5611	1402.1792	1470.5738	1482.107	1507.8848	1521.5372	1799.0967	3049.884	3091.0866	3101.6883	3131.5572	3134.4946	3140.464	3144.2529	3181.5152	3212.1467	3230.7438
O=C(CC1CC1)C1CO1	O=C(CC1CC1)[C@@H]1CO1	
InChI=1S/C7H10O2/c8-6(7-4-9-7)3-5-1-2-5/h5,7H,1-4H2	InChI=1S/C7H10O2/c8-6(7-4-9-7)3-5-1-2-5/h5,7H,1-4H2/t7-/m0/s1
