19
gdb 521	2.8178284	1.8855046	1.6801988	1.4475	73.79	-0.23757	0.06707	0.30464	902.2067	0.160023	-422.513209	-422.506605	-422.50566	-422.543705	27.871	
C	 0.6095052912	 1.3468239467	 1.3372739438	-0.301985
C	-0.6488338767	 1.292852729	 0.376283199	-0.328444
C	 0.2915478793	 0.5643363445	-0.6072167765	 0.398844
C	 0.5258907573	-0.9263777594	-0.2619455475	-0.120471
O	 1.9647299382	-1.0452754114	-0.2285653131	-0.275178
C	 2.4384064158	 0.2421204139	-0.6136390469	-0.00139
C	 1.9601295459	 0.4848055611	-2.0948794398	-0.099403
O	 0.5100862057	 0.6957679394	-2.0080521572	-0.348371
C	 1.4840328391	 1.2366700324	 0.0448321316	 0.018066
H	 0.7378309655	 2.2608215606	 1.9175823457	 0.108487
H	 0.6728574548	 0.4878259733	 2.0056569033	 0.126064
H	-1.5469118831	 0.7712673547	 0.7146334875	 0.104391
H	-0.9151554505	 2.2937840915	 0.0296536132	 0.11953
H	 0.1160322782	-1.2476551312	 0.7012655149	 0.098178
H	 0.1075048652	-1.5548832107	-1.0555517089	 0.108407
H	 3.5187551706	 0.2840313376	-0.4735057444	 0.082891
H	 2.4237652851	 1.3613744105	-2.5624219817	 0.104691
H	 2.1639858022	-0.4032324689	-2.7003046892	 0.115913
H	 1.6117954262	 2.2392221964	-0.3713526139	 0.089781
193.6855	299.4785	317.7559	353.8135	418.975	485.882	588.4198	624.3297	654.8081	752.5414	787.3365	832.7426	837.655	858.967	887.7279	918.9429	932.2271	963.3171	993.9451	1011.1734	1045.1264	1081.53	1093.0562	1115.2981	1143.7527	1174.5231	1187.8534	1208.7406	1220.6428	1224.1777	1240.8528	1258.4653	1271.8926	1312.3002	1344.2597	1378.902	1391.9929	1482.4327	1494.2036	1502.7421	1525.8064	3030.371	3034.4172	3067.8444	3077.2339	3077.8659	3091.3168	3092.4077	3123.6517	3124.9355	3150.3758
C1CC23COC(CO2)C13	C1C[C@@]23CO[C@@H](CO2)[C@H]13	
InChI=1S/C7H10O2/c1-2-7-4-8-6(3-9-7)5(1)7/h5-6H,1-4H2	InChI=1S/C7H10O2/c1-2-7-4-8-6(3-9-7)5(1)7/h5-6H,1-4H2/t5-,6-,7-/m0/s1
