19
gdb 3429	2.1953887	1.5300935	0.9625178	2.4232	78.88	-0.23664	-0.04326	0.19338	1239.9431	0.155295	-422.603286	-422.593614	-422.59267	-422.637862	34.859	
C	-2.4035103125	-2.3796098225	-0.6186347239	-0.411829
C	-1.8442996387	-1.3061228585	 0.3118993723	-0.125049
C	-2.3748225679	 0.1361225053	 0.1332263918	 0.057664
O	-3.3593625805	 0.5394998722	 1.0757209348	-0.434328
C	-1.1490730007	 0.99754621	 0.303747455	-0.163637
C	-0.0031070785	 0.3041817939	 0.3235861205	 0.201688
C	 1.4061827086	 0.7892762924	 0.4097036384	-0.49207
C	-0.3200918653	-1.1460710145	 0.2041911312	 0.323382
O	 0.4783712955	-2.0402164394	 0.0368112322	-0.336469
H	-1.8626720728	-3.3180043469	-0.4716450097	 0.143266
H	-3.4673340121	-2.560150087	-0.4333961545	 0.105375
H	-2.286921427	-2.0912901073	-1.668978234	 0.119882
H	-2.0477291855	-1.5751089365	 1.3570871704	 0.115453
H	-2.7659139679	 0.2636144384	-0.890831112	 0.081523
H	-4.1776525999	 0.0778980611	 0.8673322453	 0.287215
H	-1.2406632876	 2.0764694974	 0.3749933801	 0.114979
H	 1.8888093439	 0.4138282147	 1.3188754861	 0.143156
H	 1.9922619809	 0.4013957955	-0.4303311749	 0.146294
H	 1.4624329081	 1.8803120518	 0.4096284609	 0.123507
62.6238	106.4814	154.5557	197.4049	218.8665	246.1151	274.6854	295.5076	338.3714	366.9008	512.8994	526.1938	578.5866	659.9778	719.0472	784.5066	854.0526	920.2574	951.1524	1008.4274	1026.0039	1061.9903	1066.5528	1086.5919	1124.4771	1139.0155	1208.8877	1228.5838	1261.249	1298.7776	1335.6426	1360.5686	1405.9232	1412.4607	1422.1899	1472.8741	1482.9925	1493.6506	1499.3243	1703.0277	1806.8194	2951.0826	3027.8574	3034.8297	3037.7374	3091.9034	3098.7721	3121.6676	3125.4223	3191.9596	3821.0092
CC1C(O)C=C(C)C1=O	C[C@@H]1[C@@H](O)C=C(C)C1=O	
InChI=1S/C7H10O2/c1-4-3-6(8)5(2)7(4)9/h3,5-6,8H,1-2H3	InChI=1S/C7H10O2/c1-4-3-6(8)5(2)7(4)9/h3,5-6,8H,1-2H3/t5-,6+/m1/s1
