19
gdb 4174	3.6404792	1.3508793	1.276943	1.6142	76.02	-0.23618	0.00959	0.24577	1084.5681	0.157347	-422.563352	-422.555326	-422.554382	-422.595537	31.134	
C	-3.9471053123	 0.4300698423	 1.4692364276	-0.407304
C	-2.4286023648	 0.430224798	 1.3835848417	 0.152948
O	-1.937457394	-0.9224124112	 1.2915542182	-0.296179
C	-1.2636467757	-0.9632716455	 0.0128994092	 0.071109
O	-2.0363321932	-0.1131135647	-0.8000627151	-0.234614
C	-1.8634084567	 1.038597949	 0.0517122892	-0.035317
C	-0.3519724449	 1.0892796516	 0.2131663622	-0.219651
C	 0.0476809621	-0.1854736121	 0.1891170092	 0.356945
C	 1.374864735	-0.8132328394	 0.4361452219	-0.511335
H	-4.279434059	-0.1775765672	 2.3155653301	 0.125024
H	-4.3256595318	 1.4487241816	 1.6087688972	 0.106997
H	-4.3738803549	 0.0123975117	 0.5538603644	 0.1338
H	-1.9828674372	 0.914126211	 2.2602100835	 0.077141
H	-1.2417162629	-1.9881066628	-0.3548988687	 0.087833
H	-2.3859376673	 1.9077933541	-0.3429476482	 0.088391
H	 0.2256401628	 1.9743678568	 0.4433811449	 0.103518
H	 1.3362666044	-1.4615752553	 1.3205779896	 0.141036
H	 1.6829168007	-1.4460438325	-0.405531149	 0.130798
H	 2.1515904097	-0.0615644854	 0.5999224321	 0.12886
126.3704	174.9609	187.0444	237.501	268.5474	327.1201	426.4251	450.9174	584.817	597.602	673.7935	766.6614	779.2704	808.321	854.3037	867.1495	886.0253	916.3335	942.8165	974.5514	1008.951	1056.7253	1061.6453	1075.4845	1105.1721	1131.6374	1202.393	1235.7667	1248.0772	1276.2334	1297.9832	1327.6801	1345.4726	1378.4042	1401.9937	1411.6299	1479.2513	1485.4556	1486.9551	1498.4521	1698.9055	3019.7878	3035.958	3040.9308	3067.8809	3108.7754	3112.5851	3129.7564	3140.4544	3146.0136	3223.6073
CC1OC2OC1C=C2C	C[C@H]1O[C@H]2O[C@@H]1C=C2C	
InChI=1S/C7H10O2/c1-4-3-6-5(2)8-7(4)9-6/h3,5-7H,1-2H3	InChI=1S/C7H10O2/c1-4-3-6-5(2)8-7(4)9-6/h3,5-7H,1-2H3/t5-,6-,7+/m1/s1
