19
gdb 2188	2.7471113	1.9630282	1.4797332	1.9396	73.93	-0.24268	0.07315	0.31583	942.4031	0.15789	-422.537111	-422.529743	-422.528799	-422.568626	29.431	
C	-0.0314410346	 0.0124720418	 0.0856006621	-0.458807
C	 1.4776473482	 0.0060386753	-0.0405022779	 0.420083
C	 2.1894629264	 1.3945130028	-0.2156822638	-0.281013
C	 3.0095126139	 0.8084979234	-1.3803756389	 0.110147
O	 4.1621854232	 0.0664301404	-0.9166448633	-0.313588
C	 3.410129765	-1.1724966493	-0.8583103368	 0.100014
C	 3.0926134577	-1.6032037384	 0.56558503	-0.098636
O	 2.0285944038	-0.7726218915	 1.0243436599	-0.309739
C	 2.1401914637	-0.4758567629	-1.3706137513	-0.179426
H	-0.3289060866	 0.4505698376	 1.0437306213	 0.129443
H	-0.4906705728	 0.5980813682	-0.7165823085	 0.111876
H	-0.4236545081	-1.0084638145	 0.0430156557	 0.119053
H	 1.4929915235	 2.168167104	-0.5548442967	 0.096319
H	 2.7575750527	 1.7556594197	 0.6435550897	 0.111575
H	 3.2400713336	 1.4251356472	-2.2509961699	 0.078924
H	 3.8798218404	-1.9547926393	-1.4626666809	 0.080278
H	 2.7807169018	-2.6584456545	 0.587636524	 0.092832
H	 3.9623284783	-1.4826876611	 1.221527246	 0.115275
H	 1.5439638898	-0.8775460288	-2.1863992307	 0.07539
101.0523	231.2487	247.2725	293.2611	356.7779	387.2125	420.4516	571.7584	652.9432	711.1572	769.9324	806.2105	847.7257	869.6029	884.0627	897.8409	923.8573	947.9054	974.0781	984.1784	1006.6762	1066.6301	1093.7994	1106.8773	1153.1453	1164.3358	1190.2321	1196.7182	1215.9551	1230.4911	1246.6797	1295.2746	1308.5472	1319.2568	1348.6839	1383.177	1410.4928	1451.1557	1483.5924	1492.4598	1505.4678	2990.8808	3035.312	3051.9823	3061.3408	3062.2134	3092.654	3108.5799	3111.4263	3126.6953	3143.1295
CC12CC3OC(CO1)C23	C[C@@]12C[C@H]3O[C@@H](CO1)[C@@H]23	
InChI=1S/C7H10O2/c1-7-2-4-6(7)5(9-4)3-8-7/h4-6H,2-3H2,1H3	InChI=1S/C7H10O2/c1-7-2-4-6(7)5(9-4)3-8-7/h4-6H,2-3H2,1H3/t4-,5+,6+,7+/m1/s1
