19
gdb 5388	2.0831319	1.5589583	0.9881188	2.9332	78.53	-0.23276	-0.03333	0.19943	1224.279	0.155225	-422.568858	-422.559394	-422.55845	-422.604246	33.066	
C	 1.0604837704	-0.8504440795	 0.6791104632	-0.381625
C	 0.8843352175	 0.2361790828	-0.3993068042	-0.291951
C	 1.7527804633	 1.4457805471	-0.1961806583	 0.286604
C	 2.9789094475	 1.6833933382	-0.658735103	-0.203896
C	 3.4602145574	 3.0393401531	-0.2388969724	-0.11606
O	 2.3951364685	 3.5766238996	 0.5504102595	-0.276617
C	 1.3070020196	 2.6689947009	 0.5928663041	-0.045
C	 0.9897582794	 2.3365952238	 2.0497592701	 0.139969
O	-0.0813726001	 1.9466464233	 2.434850574	-0.245462
H	 0.7762893191	-0.4826916178	 1.6675524442	 0.143267
H	 0.4306205771	-1.715445823	 0.450151499	 0.117225
H	 2.1002753549	-1.1884275428	 0.7237569139	 0.117123
H	 1.1094245012	-0.1960825707	-1.3804872424	 0.110761
H	-0.1667963349	 0.5458406737	-0.4246018849	 0.119021
H	 3.5610712878	 1.0204745543	-1.2876094679	 0.106872
H	 4.3810997339	 3.0066711606	 0.3622070523	 0.112045
H	 3.6574354705	 3.699515467	-1.0980747408	 0.11043
H	 0.4010455654	 3.1155795813	 0.1523082126	 0.107405
H	 1.8603283116	 2.477464288	 2.7290328911	 0.089887
44.2549	75.134	90.5466	160.519	197.5857	235.0563	289.4218	345.4436	360.2171	464.4237	561.7842	643.0555	771.5786	786.8489	828.1175	859.2219	935.4809	963.2125	987.2527	1026.4569	1046.6048	1069.1202	1079.2838	1091.6003	1121.805	1191.145	1195.1373	1256.8623	1270.935	1299.5941	1335.876	1354.6504	1381.096	1391.7505	1410.2507	1484.8842	1499.6803	1511.2441	1523.569	1718.3192	1828.1219	2888.4003	2976.5612	2981.6465	3002.5211	3035.6199	3044.3254	3074.0119	3111.5176	3135.4957	3208.052
CCC1=CCOC1C=O	CCC1=CCO[C@@H]1C=O	
InChI=1S/C7H10O2/c1-2-6-3-4-9-7(6)5-8/h3,5,7H,2,4H2,1H3	InChI=1S/C7H10O2/c1-2-6-3-4-9-7(6)5-8/h3,5,7H,2,4H2,1H3/t7-/m1/s1
