19
gdb 1125	2.7300123	1.3389792	1.1164795	1.4444	75.87	-0.24487	-0.0197	0.22517	1161.1281	0.154227	-422.544787	-422.535467	-422.534522	-422.579271	33.841	
C	 0.3791021762	-2.0282635832	-0.7809112125	-0.484006
C	 1.2229399763	-0.7683305302	-0.7319928869	 0.371949
O	 2.4260597988	-0.7981668603	-0.8699164589	-0.308102
C	 0.4744453933	 0.5260374156	-0.4609648754	-0.170901
C	 1.2468862964	 1.8250197624	-0.8671551753	-0.269953
C	 1.2868576479	 2.2257610066	 0.6082203582	-0.032027
O	-0.0719084508	 2.2636661959	 1.083220601	-0.291439
C	 0.5915665046	 1.0000186832	 1.0304793568	 0.431338
C	 0.64205947	 0.1640481938	 2.2670113804	-0.512897
H	-0.2700230401	-2.0961093579	 0.0992470271	 0.138829
H	-0.2816555983	-1.9930834537	-1.6553545394	 0.145524
H	 1.0197584115	-2.9085782465	-0.8438085854	 0.141948
H	-0.5663097891	 0.4535261722	-0.7870237331	 0.083863
H	 2.2325962791	 1.5734772072	-1.2625127524	 0.135462
H	 0.7237296174	 2.5157409686	-1.5316670586	 0.107743
H	 2.0048935053	 2.8461689129	 1.1321906999	 0.104657
H	-0.3258471772	-0.3139060461	 2.4578007986	 0.12933
H	 1.4004837495	-0.6198936755	 2.17775885	 0.139077
H	 0.885312069	 0.789141465	 3.1301273056	 0.139605
49.1242	115.8754	134.4831	146.553	212.6471	278.7009	317.6822	365.0423	388.2293	472.1952	570.5579	588.3542	645.1161	741.0897	790.5764	866.258	871.0463	927.6867	937.5503	970.2701	1003.0852	1029.3725	1040.2665	1067.796	1099.7044	1167.0493	1182.058	1186.9497	1212.1046	1264.8497	1270.7781	1345.8875	1381.9551	1404.9898	1449.5054	1461.1196	1471.0485	1474.8565	1486.1948	1495.5233	1801.2996	3033.1817	3033.6716	3072.9499	3079.6786	3093.6125	3097.806	3123.4444	3142.0957	3152.1824	3186.9858
CC(=O)C1CC2OC12C	CC(=O)[C@@H]1C[C@H]2O[C@@]12C	
InChI=1S/C7H10O2/c1-4(8)5-3-6-7(5,2)9-6/h5-6H,3H2,1-2H3	InChI=1S/C7H10O2/c1-4(8)5-3-6-7(5,2)9-6/h5-6H,3H2,1-2H3/t5-,6+,7-/m0/s1
