19
gdb 1896	3.4534106	0.9747224	0.8914032	2.3889	77.2	-0.23224	-0.02629	0.20595	1349.9123	0.154286	-422.526607	-422.51733	-422.516386	-422.561484	33.403	
C	-1.3998439392	 3.4575408608	-2.9419778449	-0.485705
C	-1.4868733118	 3.0683817201	-1.5032210112	 0.413233
C	-0.4389473047	 3.258020971	-0.4472689985	-0.381255
C	-1.0256344291	 1.8716590453	-0.6869915942	 0.200102
C	-0.2149573589	 0.6493707829	-1.0266740598	-0.394516
C	 0.4030624799	 0.0222974342	 0.2108971828	 0.167499
O	 0.2901885481	-1.1341199519	 0.5234878544	-0.236078
C	-2.4499724231	 1.8716519573	-0.1378243032	-0.127851
O	-2.785511035	 3.0652253179	-0.8931114126	-0.320728
H	-2.0782998242	 2.8549792353	-3.553470638	 0.13129
H	-1.6731092972	 4.5112338041	-3.0681434212	 0.138162
H	-0.3799071722	 3.3291383715	-3.3159025831	 0.123063
H	 0.5761569416	 3.3876493188	-0.8118733068	 0.112769
H	-0.6771666408	 3.8144853049	 0.4555909604	 0.116401
H	-0.8125390641	-0.1121798442	-1.5380556408	 0.123644
H	 0.610901742	 0.9359479218	-1.6936419167	 0.121596
H	 0.9832613143	 0.7364466321	 0.8396157961	 0.078903
H	-3.0483837887	 1.018480759	-0.4793692471	 0.111925
H	-2.585078677	 2.0076897392	 0.9419357043	 0.107547
49.7711	66.2548	127.9027	193.9898	220.1452	259.2274	323.8467	372.436	418.475	468.3466	499.7786	613.2717	725.8366	758.6111	822.2778	847.4483	917.6868	946.7252	967.618	983.2269	1001.2997	1046.292	1054.9854	1078.0702	1109.7323	1148.8527	1159.4818	1209.4844	1252.5583	1279.4085	1311.1872	1350.415	1399.0385	1423.8242	1427.9379	1452.715	1473.415	1489.4336	1505.4216	1522.7815	1834.9557	2869.5473	3011.7465	3019.0594	3034.6308	3067.5216	3084.9338	3099.28	3108.94	3116.9301	3200.1804
CC12CC1(CC=O)CO2	C[C@]12C[C@@]1(CC=O)CO2	
InChI=1S/C7H10O2/c1-6-4-7(6,2-3-8)5-9-6/h3H,2,4-5H2,1H3	InChI=1S/C7H10O2/c1-6-4-7(6,2-3-8)5-9-6/h3H,2,4-5H2,1H3/t6-,7-/m0/s1
