19
gdb 3303	2.39778	1.4441016	1.0683522	3.0779	76.32	-0.23691	0.0116	0.24851	1162.9758	0.157746	-422.555209	-422.546738	-422.545793	-422.588037	32.75	
O	-1.5392692748	-3.5723098963	 2.2257001234	-0.426859
C	-1.4721443261	-2.188732104	 2.4241039403	 0.077045
C	-0.2681682662	-1.5903776183	 3.1094264454	-0.09776
C	-0.4295459616	-0.3707875306	 3.9987345763	-0.287989
C	-1.0522304146	 0.8088924452	 3.2997200489	-0.049035
C	-1.2295783076	 0.9122463286	 1.9823230377	-0.102496
C	-0.7757615495	-0.1161306633	 0.9776528984	 0.07363
O	 0.3453139489	 0.3896062429	 0.2381841442	-0.429603
C	-0.455497345	-1.4599019241	 1.6031525645	-0.090707
H	-1.7641517313	-3.9815339254	 3.0680099568	 0.284058
H	-2.4326590439	-1.6960012153	 2.5851041187	 0.086202
H	 0.4752004502	-2.3142639719	 3.4298000475	 0.086905
H	-1.0243940505	-0.6223078393	 4.8889974094	 0.105974
H	 0.5515694887	-0.0643369547	 4.39143237	 0.113089
H	-1.3587062059	 1.6323771266	 3.9415065645	 0.09206
H	-1.6622568147	 1.8165818782	 1.5628042514	 0.093886
H	-1.5487168131	-0.2510667266	 0.2106138466	 0.094619
H	 1.0156886536	 0.6384189669	 0.8846595669	 0.273554
H	 0.1649057035	-2.0943585387	 0.978739869	 0.103426
84.0674	177.5256	237.1892	249.4313	298.5367	317.9078	340.1665	398.8553	416.0279	514.5799	552.4915	589.0065	734.0754	783.2988	835.767	877.2807	904.5796	951.029	963.086	997.9531	1013.5698	1031.0502	1077.2096	1078.1285	1097.783	1128.9194	1148.6667	1195.0645	1208.3153	1237.884	1260.1363	1294.1845	1328.3582	1334.3347	1365.8732	1376.5673	1408.3864	1429.5597	1475.2738	1484.1894	1721.0707	2992.2922	3009.4962	3028.9519	3085.956	3141.9172	3151.0417	3169.8832	3171.7395	3797.9711	3801.7258
OC1C2CC=CC(O)C12	O[C@H]1[C@@H]2CC=C[C@@H](O)[C@H]12	
InChI=1S/C7H10O2/c8-5-3-1-2-4-6(5)7(4)9/h1,3-9H,2H2	InChI=1S/C7H10O2/c8-5-3-1-2-4-6(5)7(4)9/h1,3-9H,2H2/t4-,5-,6-,7+/m1/s1
