19
gdb 2009	2.7724488	1.5681205	1.1820223	2.6795	77.88	-0.24287	-0.0033	0.23957	1093.0777	0.157041	-422.534331	-422.526017	-422.525073	-422.567139	31.648	
C	 0.0634503338	 0.4072615665	 0.2183111433	-0.466413
C	 1.5263237413	 0.0406812817	 0.0764230458	 0.360009
C	 2.0636394816	-0.7887349711	 1.2391663223	-0.159712
O	 3.3118673808	-1.3867161383	 1.0078377519	-0.220299
C	 4.4422867744	-0.5889173815	 1.2659002239	-0.143812
C	 4.7082062875	 0.5306643058	 0.2998763593	-0.076979
C	 3.864259068	 1.1220805732	-0.5462483062	-0.053694
C	 2.4127015696	 0.8831750306	-0.7508551425	-0.035905
O	 1.9288322027	-0.3995601309	-1.2170247813	-0.279433
H	-0.1114851408	 0.9861556143	 1.1319556348	 0.121245
H	-0.2690323442	 0.9997629493	-0.6370146604	 0.131504
H	-0.5551419772	-0.4956095937	 0.2676570912	 0.128042
H	 2.0749955104	-0.1701724428	 2.152623813	 0.091586
H	 1.3636202838	-1.6152690178	 1.4137299687	 0.113325
H	 4.3982775559	-0.1767587003	 2.2923476393	 0.099483
H	 5.2957846889	-1.2774641193	 1.2489047494	 0.121777
H	 5.7375816526	 0.8865980451	 0.3203257449	 0.096238
H	 4.2629811273	 1.9225310325	-1.1654387312	 0.090835
H	 1.9255044936	 1.7121914266	-1.2669748063	 0.082204
70.6386	158.0546	198.4209	270.4376	280.9018	329.128	397.0747	403.738	469.9698	525.6937	583.5706	688.1859	749.8509	788.996	828.7362	879.1859	907.7672	934.1043	998.0516	1000.1171	1024.0397	1047.1838	1059.1127	1102.6323	1137.3741	1187.729	1232.4263	1261.5791	1291.859	1336.6869	1369.8792	1396.7341	1409.0169	1420.7001	1433.0871	1471.3402	1473.5052	1485.156	1489.7361	1507.3034	1734.7767	2924.2086	2965.8693	3033.3147	3047.6484	3050.7201	3087.8309	3096.177	3126.0872	3130.5387	3157.4025
CC12COCC=CC1O2	C[C@]12COCC=C[C@H]1O2	
InChI=1S/C7H10O2/c1-7-5-8-4-2-3-6(7)9-7/h2-3,6H,4-5H2,1H3	InChI=1S/C7H10O2/c1-7-5-8-4-2-3-6(7)9-7/h2-3,6H,4-5H2,1H3/t6-,7+/m1/s1
