19
gdb 4750	2.6677126	0.780683	0.6249192	3.804	83.72	-0.25942	-0.05206	0.20736	1787.0851	0.153405	-422.547033	-422.536	-422.535055	-422.585174	37.37	
C	-2.4439735053	-2.9937503395	 2.27522481	-0.396666
C	-2.4169394703	-2.7777126708	 0.7510088527	-0.160785
C	-2.0184981678	-4.0721436748	-0.0008741604	-0.048652
O	-2.038828889	-3.9216746797	-1.3998161204	-0.417589
C	-1.521300788	-1.6921483173	 0.3634237326	 0.054825
C	-0.7481252468	-0.838291566	-0.0041047272	 0.0189
C	 0.1754481125	 0.1855481848	-0.4578271575	 0.251475
C	 0.278768981	 1.4130833302	 0.4234697609	-0.47794
O	 0.8149469517	 0.0496424057	-1.4797544778	-0.277878
H	-3.1449297169	-3.7948489838	 2.5284755219	 0.124795
H	-1.4536049225	-3.2736692039	 2.6464631496	 0.131692
H	-2.7568594915	-2.085241277	 2.7951718909	 0.131558
H	-3.4255209333	-2.5084633163	 0.4088318622	 0.12508
H	-1.034968666	-4.4067671981	 0.3653860437	 0.095916
H	-2.7471501115	-4.8534039456	 0.2383305391	 0.113
H	-1.3971609555	-3.2384016396	-1.6289307726	 0.294559
H	 0.591587315	 1.125786132	 1.4331620076	 0.146164
H	 0.9969964123	 2.1127041285	-0.0063392191	 0.144248
H	-0.7020958782	 1.8915716713	 0.5173981339	 0.147299
20.1623	54.9997	100.4614	126.4155	129.3931	166.6771	219.3873	240.6038	282.6946	372.7519	413.0889	436.033	513.7593	559.2272	595.1308	609.5715	659.8192	857.4287	929.7117	939.0157	986.4707	1042.9303	1077.2486	1085.2936	1109.8417	1150.0738	1207.8907	1246.4118	1285.8593	1352.6232	1381.9259	1386.4121	1405.6941	1427.0921	1460.6366	1468.8477	1493.1974	1499.7817	1506.2602	1765.8586	2317.8421	2980.6037	3022.8199	3039.4311	3043.9315	3079.7315	3103.4097	3116.3389	3126.0293	3152.5199	3785.1525
CC(CO)C#CC(C)=O	C[C@H](CO)C#CC(=O)C	
InChI=1S/C7H10O2/c1-6(5-8)3-4-7(2)9/h6,8H,5H2,1-2H3	InChI=1S/C7H10O2/c1-6(5-8)3-4-7(2)9/h6,8H,5H2,1-2H3/t6-/m0/s1
