19
gdb 811	2.4733676	1.5293789	1.3405751	2.7573	74.73	-0.25336	-0.02798	0.22537999999999997	1051.1048	0.157521	-422.56604	-422.557839	-422.556895	-422.599634	30.341	
O	 1.006728523	-0.372765768	-0.727491829	-0.247442
C	 0.1983826204	-0.0608108886	 0.1107053187	 0.067027
C	 0.1684439639	 1.2555312668	 0.8309527076	 0.193342
C	-0.9730278598	 2.2196463004	 0.4058343402	-0.122304
O	-0.0328104427	 3.2553457572	 0.0779501306	-0.29591
C	 1.1062088138	 2.3997983811	 0.3636228418	 0.101692
C	 1.8930237995	 2.8596134103	 1.5848856276	-0.229235
C	 0.9907293788	 2.4792331082	 2.7753806112	-0.217063
C	 0.3706325457	 1.1275710307	 2.3587445346	-0.288517
H	-0.609937218	-0.7685753487	 0.4125134919	 0.07506
H	-1.5530658029	 1.8975843733	-0.4695183506	 0.107326
H	-1.6655749045	 2.5168780473	 1.2037141158	 0.103624
H	 1.7066203358	 2.2197418927	-0.5313196117	 0.094326
H	 2.839159116	 2.3053520367	 1.6243963473	 0.105843
H	 2.1298041067	 3.926017152	 1.5386077604	 0.113255
H	 1.5305718129	 2.4153457934	 3.7233927202	 0.102874
H	 0.2048747697	 3.2318297854	 2.8961867989	 0.117715
H	 1.0747657288	 0.3127579697	 2.5681805007	 0.112304
H	-0.5594450574	 0.8977117002	 2.8875167235	 0.106082
35.2916	116.575	176.6569	217.0885	279.8515	331.2005	375.0237	487.0815	588.4331	619.7564	696.5787	828.8229	835.0667	872.2948	900.9515	911.7819	942.7172	953.2645	989.9935	1020.297	1031.9765	1046.6802	1104.3497	1142.5358	1160.2348	1182.0889	1194.8971	1231.7844	1260.3516	1289.5536	1310.9289	1331.8736	1338.266	1367.6638	1374.4912	1427.612	1469.1172	1485.7272	1498.0502	1522.2573	1821.2185	2849.4965	3000.3913	3030.1904	3036.1847	3045.1159	3055.359	3084.7423	3088.4683	3099.3066	3108.6802
O=CC12COC1CCC2	O=C[C@]12CO[C@H]1CCC2	
InChI=1S/C7H10O2/c8-4-7-3-1-2-6(7)9-5-7/h4,6H,1-3,5H2	InChI=1S/C7H10O2/c8-4-7-3-1-2-6(7)9-5-7/h4,6H,1-3,5H2/t6-,7+/m0/s1
