19
gdb 6021	3.2368401	0.9548671	0.8424743	2.1411	76.	-0.24527	0.00925	0.25451999999999997	1398.4102	0.156739	-422.523434	-422.514712	-422.513768	-422.557543	32.182	
O	-0.3965164329	-1.8237164929	 0.6788625283	-0.415902
C	 0.0668865272	-0.4970009014	 0.4970888273	-0.053853
C	-0.4373983142	 0.4614239181	 1.5810874372	-0.267031
C	-0.0270497528	 1.9042570155	 1.3270129631	 0.028115
C	-0.1678281352	 2.9854665243	 2.4600355506	-0.1876
C	 0.8637670205	 3.8294218224	 1.6373489086	-0.243782
C	 1.4567130406	 2.3811531814	 1.5691686769	-0.177753
C	 1.0835282604	 2.3207136574	 3.0603608708	 0.448867
O	 1.5237392978	 1.9581743826	 4.1065028836	-0.331819
H	-0.0298396233	-2.1534326651	 1.5056270848	 0.283803
H	 1.1668278146	-0.4593301527	 0.4442102347	 0.09158
H	-0.3107300429	-0.1847003311	-0.4832736779	 0.110915
H	-1.5312132213	 0.3919406069	 1.6215812994	 0.112305
H	-0.0643736514	 0.1277058626	 2.5589194867	 0.107192
H	-0.4138643856	 2.2707439801	 0.3697234979	 0.081078
H	-1.0794064363	 3.3273379861	 2.9457235134	 0.093648
H	 0.4813959932	 4.2056436174	 0.685737915	 0.110229
H	 1.4394745735	 4.5857118217	 2.1730884502	 0.116248
H	 2.3614959883	 2.0543799668	 1.0611191993	 0.093761
66.4552	92.2471	123.6316	168.1991	307.3194	322.5548	360.5874	369.9223	449.3029	583.1837	689.8813	739.9737	768.0839	798.839	817.3588	877.1382	886.9054	945.6341	1023.4226	1026.2793	1028.1739	1041.39	1064.9431	1079.7677	1105.3043	1115.6527	1135.6562	1185.553	1189.9077	1213.7038	1230.206	1243.2165	1301.3865	1320.2951	1387.5881	1419.5234	1424.1228	1487.0634	1512.9304	1515.0532	1915.6333	2976.6695	3018.1782	3048.0709	3055.3015	3066.8139	3076.1015	3139.3138	3143.6937	3147.0785	3814.5564
OCCC1C2CC1C2=O	OCC[C@H]1[C@@H]2C[C@H]1C2=O	
InChI=1S/C7H10O2/c8-2-1-4-5-3-6(4)7(5)9/h4-6,8H,1-3H2	InChI=1S/C7H10O2/c8-2-1-4-5-3-6(4)7(5)9/h4-6,8H,1-3H2/t4-,5-,6+
