19
gdb 3457	2.2628158	1.2371076	1.0928222	1.8894	77.79	-0.24895	-0.03645	0.2125	1243.6824	0.155721	-422.58183	-422.572546	-422.571602	-422.61672	33.656	
C	 1.1326890197	-0.145675083	-1.1199489197	-0.411221
C	 0.92297544	 0.2153858404	 0.3539367556	-0.041195
C	 1.3217973845	 1.6936048863	 0.6614079022	 0.092049
O	 0.3487405	 2.4157880025	 1.4145410057	-0.432247
C	 2.6280313858	 1.56119476	 1.4027553444	-0.111173
C	 2.8843312829	 0.301413744	 1.754446479	-0.090588
C	 1.8177903636	-0.6648670288	 1.2811866312	-0.123377
C	 1.0483765409	-1.2150747477	 2.4723082446	 0.159746
O	 1.0700231465	-2.3558478552	 2.8493053874	-0.245761
H	 0.8590542394	-1.1866929766	-1.317012053	 0.123359
H	 0.5223154597	 0.4927116283	-1.766617615	 0.12314
H	 2.1815552409	-0.0140800838	-1.4089301239	 0.123909
H	-0.1380537631	 0.0996030825	 0.6006587152	 0.088934
H	 1.4186123173	 2.2679948854	-0.266612889	 0.088554
H	 0.3755207323	 2.084203539	 2.3192430309	 0.273868
H	 3.2423432067	 2.4215408567	 1.6441091004	 0.108744
H	 3.7401970121	-0.0340204765	 2.3302152139	 0.115201
H	 2.2459062418	-1.5236010488	 0.7534663547	 0.097053
H	 0.438396769	-0.4425624748	 3.0022414553	 0.061004
37.4174	68.4961	162.7989	202.6901	247.3953	303.8757	316.691	327.8241	371.3114	446.5849	507.3051	565.9463	699.6067	771.7401	801.6227	849.8177	922.5772	941.2165	988.2979	998.3466	1009.9727	1039.1579	1046.6643	1074.3178	1123.4357	1135.7322	1148.3905	1233.1633	1257.0586	1266.7721	1295.0132	1308.2877	1352.4664	1376.2814	1408.6569	1419.2776	1429.9304	1498.1704	1499.3818	1673.1527	1835.06	2826.8258	3029.9274	3046.7076	3048.7831	3057.9028	3100.203	3106.7073	3184.3972	3209.3307	3793.9018	37.4175	68.4969	162.799	202.6904	247.3958	303.8757	316.6907	327.8241	371.3113	446.5848	507.305	565.9463	699.6067	771.74	801.6228	849.8177	922.5772	941.2166	988.2977	998.3467	1009.9727	1039.1578	1046.6641	1074.3175	1123.4356	1135.7321	1148.3903	1233.1631	1257.058	1266.7716	1295.013	1308.2877	1352.4664	1376.2812	1408.6566	1419.2773	1429.9307	1498.1699	1499.3813	1673.1528	1835.0598	2826.8258	3029.9274	3046.7076	3048.7831	3057.9028	3100.203	3106.7073	3184.3972	3209.3307	3793.9014
CC1C(O)C=CC1C=O	C[C@@H]1[C@@H](O)C=C[C@H]1C=O	
InChI=1S/C7H10O2/c1-5-6(4-8)2-3-7(5)9/h2-7,9H,1H3	InChI=1S/C7H10O2/c1-5-6(4-8)2-3-7(5)9/h2-7,9H,1H3/t5-,6-,7-/m0/s1
