19
gdb 2492	2.593004	1.5596831	1.3033961	2.3908	74.94	-0.24448	-0.02717	0.21731	1048.5198	0.157304	-422.585646	-422.57734	-422.576396	-422.61842	31.926	
O	-1.0932198114	 1.9906239761	 1.0920996602	-0.483491
C	-1.0695189108	 1.0601596642	 0.045033325	 0.330793
C	-1.1872863296	 1.7812952028	-1.3196865475	-0.267874
C	-2.0387014523	 0.8892903453	-2.2393390968	-0.219987
C	-2.9880589215	 0.1441052854	-1.2780451799	-0.22422
C	-2.1255112387	-0.12961267	-0.0454958225	-0.064705
C	-0.9508809296	-1.1487057622	-0.2308004701	-0.366313
C	-0.0027449289	-0.027686264	 0.1988270578	 0.325035
O	 1.0503912689	-0.0021971202	 0.7772411606	-0.317746
H	-0.3943916217	 1.7467812212	 1.7118500938	 0.292655
H	-1.7112028653	 2.7177158205	-1.1000848413	 0.124384
H	-0.2142965749	 2.0470371406	-1.7419363509	 0.111005
H	-2.5746407283	 1.4679154944	-2.996278889	 0.104404
H	-1.4071820969	 0.1761304174	-2.7808413962	 0.103965
H	-3.8260433996	 0.7942658319	-1.0002737962	 0.107729
H	-3.411382728	-0.7653967092	-1.716166616	 0.100136
H	-2.6793607049	-0.2954983596	 0.8788348455	 0.083614
H	-0.9350982032	-2.0267142261	 0.4187785755	 0.131588
H	-0.8072401035	-1.4766825185	-1.264605532	 0.129026
74.0088	153.9458	191.7114	246.9356	305.7381	309.9464	389.1687	449.8836	499.4058	592.335	610.7985	672.415	732.0446	796.5503	818.7614	866.0333	892.5008	931.8516	938.4837	990.8671	1025.4395	1053.1906	1071.7455	1098.4829	1109.8049	1140.9473	1171.6387	1205.0653	1217.7132	1256.7467	1264.9942	1309.7686	1329.4367	1343.5622	1355.7501	1381.7116	1440.7328	1480.6002	1491.2557	1510.6264	1860.5578	3036.6936	3046.2626	3051.4749	3064.3933	3082.127	3092.8934	3104.3022	3108.7275	3124.2259	3777.0707
OC12CCCC1CC2=O	O[C@]12CCC[C@H]1CC2=O	
InChI=1S/C7H10O2/c8-6-4-5-2-1-3-7(5,6)9/h5,9H,1-4H2	InChI=1S/C7H10O2/c8-6-4-5-2-1-3-7(5,6)9/h5,9H,1-4H2/t5-,7+/m0/s1
