19
gdb 2661	2.0873591	1.595226	1.1002434	3.2374	76.87	-0.23922	-0.04024	0.19898	1173.869	0.154296	-422.541872	-422.53236	-422.531415	-422.576814	34.1	
C	-1.1277464067	 2.0386138931	 1.3452649629	-0.407398
C	-1.0471489063	 1.1351255206	 0.1176513556	-0.122155
C	-2.1311886231	 0.0121720127	-0.0672020329	-0.130966
C	-2.9132539604	 0.0312471033	-1.3757043327	-0.397103
C	-1.0141206774	-1.0502748788	 0.0152749221	 0.335979
C	-1.0043253111	-2.4031789925	 0.5939239586	-0.250875
O	-0.9045669803	-2.196306722	-0.8121461082	-0.255136
C	 0.0416142974	 0.0380426088	 0.1541562267	 0.333012
O	 1.2324599069	 0.0430652217	 0.2740571689	-0.303758
H	-1.2507506312	 1.4523179835	 2.2621312464	 0.11992
H	-0.2129823965	 2.6300054991	 1.4466554009	 0.138108
H	-1.974440417	 2.7281481536	 1.270877703	 0.123311
H	-0.936495059	 1.7395830734	-0.7913666979	 0.106353
H	-2.814122188	-0.041501204	 0.7869409173	 0.080964
H	-3.5100567802	-0.8786578824	-1.4892893325	 0.127444
H	-3.5898725441	 0.8908266038	-1.4124998845	 0.118022
H	-2.2398649014	 0.0906497709	-2.2369709935	 0.125161
H	-0.1002959141	-2.7682804655	 1.0785393131	 0.135708
H	-1.9438675573	-2.8307410193	 0.9423061467	 0.123408
26.615	167.4929	182.0602	201.8992	206.7674	215.0888	234.7488	247.2027	341.4847	451.3188	530.465	578.1199	691.0363	734.6831	810.7983	814.9558	879.1078	929.1043	959.0644	985.848	1038.2718	1065.47	1089.08	1115.3134	1131.1794	1156.055	1162.7493	1175.2394	1233.6267	1244.2673	1307.3791	1351.6324	1406.2235	1409.8321	1421.5904	1493.8525	1494.4749	1495.503	1497.1383	1516.8792	1886.694	3034.0115	3034.6192	3037.528	3052.9349	3082.2678	3102.506	3106.9286	3110.2875	3112.6992	3177.5076
CC1C(C)C2(CO2)C1=O	C[C@@H]1[C@@H](C)[C@]2(CO2)C1=O	
InChI=1S/C7H10O2/c1-4-5(2)7(3-9-7)6(4)8/h4-5H,3H2,1-2H3	InChI=1S/C7H10O2/c1-4-5(2)7(3-9-7)6(4)8/h4-5H,3H2,1-2H3/t4-,5-,7-/m1/s1
