19
gdb 2297	2.1533906	1.6428342	1.489474	4.281	74.89	-0.26159	0.01537	0.27696	1039.9482	0.155708	-422.586816	-422.577918	-422.576974	-422.619976	33.208	
C	-3.1362499766	 0.2655040089	-1.1730943408	-0.479318
C	-2.1764479403	-0.1238374784	-0.0852163253	 0.415954
C	-2.6554399741	-0.6667475282	 1.2799300926	-0.271115
C	-1.5255510872	-1.7392604641	 1.2454078312	-0.282261
C	-1.059307364	-1.2183399745	-0.1567218366	 0.063975
C	-0.7946267264	-2.1995201358	-1.2733745359	-0.496241
C	-0.123228749	-0.0256940575	 0.0095579477	 0.434887
O	 1.0498042799	 0.1737729858	 0.0500908592	-0.341306
O	-1.133400017	 0.8999298289	 0.121096754	-0.301635
H	-3.8382616137	-0.5494074153	-1.3747859235	 0.124739
H	-3.7153890064	 1.1460706529	-0.8747647331	 0.138586
H	-2.6044767992	 0.5061642412	-2.0982619104	 0.132887
H	-2.6136102235	 0.0664121444	 2.0872673474	 0.121606
H	-3.6592927957	-1.0966665149	 1.2430102775	 0.109275
H	-0.7756014486	-1.6923931133	 2.0373122879	 0.123694
H	-1.9056919655	-2.761883883	 1.1903959833	 0.112759
H	 0.1223357012	-2.7623738063	-1.069169686	 0.143925
H	-1.6155964239	-2.917422318	-1.3713545325	 0.119464
H	-0.6640444902	-1.6937604727	-2.2352558667	 0.130125
107.7104	172.2265	175.8879	186.5715	206.0842	265.5396	312.928	345.1389	397.9324	535.6228	611.7395	647.8751	690.1065	740.2307	767.2277	816.9928	853.0853	915.5457	927.1111	954.6421	969.9574	1026.5612	1074.2729	1143.739	1171.4942	1205.2431	1208.8594	1221.2533	1229.356	1264.5637	1322.235	1337.2039	1411.2659	1416.5798	1468.3995	1480.6379	1486.3258	1490.6966	1491.5498	1494.7433	1924.2125	3032.5837	3037.0927	3067.4264	3073.8003	3101.7749	3104.4852	3106.0778	3116.0767	3117.4815	3134.6435
CC12CCC1(C)C(=O)O2	C[C@@]12CC[C@]1(C)C(=O)O2	
InChI=1S/C7H10O2/c1-6-3-4-7(6,2)9-5(6)8/h3-4H2,1-2H3	InChI=1S/C7H10O2/c1-6-3-4-7(6,2)9-5(6)8/h3-4H2,1-2H3/t6-,7-/m1/s1
