19
gdb 1720	4.3715128	0.6936645	0.6677073	1.1508	78.61	-0.26222	0.02601	0.28823	1706.3406	0.152826	-422.484877	-422.474632	-422.473688	-422.521175	35.908	
C	 2.4411598662	-3.5262833337	 0.4403149745	-0.464343
C	 2.0948734873	-2.2226766984	 1.1179315891	 0.405087
C	 0.6654042301	-1.7499247066	 0.9535665594	-0.111567
O	 0.4223647601	-1.5382863648	-0.423828154	-0.250523
C	-0.9188168193	-1.1721474847	-0.6861870354	-0.20149
C	-1.1111391735	-0.9750523544	-2.1165064474	 0.279215
C	-1.2972564139	-0.8063863912	-3.2905879901	-0.410597
C	 3.1329076484	-1.2281808492	 1.4196910923	-0.216456
O	 2.5857070578	-2.05390281	 2.4539838657	-0.281993
H	 3.4914346581	-3.7804525739	 0.6006506919	 0.12402
H	 1.8261533677	-4.3397104809	 0.8412475494	 0.122394
H	 2.2478483033	-3.4531429199	-0.6332439693	 0.143912
H	-0.0255990875	-2.5119085983	 1.3542626744	 0.093093
H	 0.5119213815	-0.8269575897	 1.5337885304	 0.098025
H	-1.6089819023	-1.9524071351	-0.3216100417	 0.121039
H	-1.1780265469	-0.2458496619	-0.1453741387	 0.12092
H	-1.4557032842	-0.6584058889	-4.3302231408	 0.202043
H	 4.1681832097	-1.438420943	 1.1557098245	 0.114648
H	 2.8744387272	-0.1717295454	 1.4771392362	 0.112571
38.9143	80.4864	86.7509	118.9408	192.2396	213.9679	294.069	334.0704	361.7733	367.8815	414.8423	456.8461	579.991	609.6756	678.4918	743.3426	843.3516	927.4929	932.5378	966.8966	998.8403	1026.3895	1035.8588	1065.2976	1123.851	1133.6628	1145.5565	1167.7056	1228.936	1256.1254	1295.1402	1373.0603	1402.2027	1420.06	1446.7355	1481.4383	1495.6305	1500.9324	1519.911	1536.8621	2248.9385	2950.5392	2959.3388	2972.3777	3002.9212	3040.7812	3084.5181	3109.2596	3134.3283	3171.1389	3506.0136
CC1(COCC#C)CO1	C[C@]1(COCC#C)CO1	
InChI=1S/C7H10O2/c1-3-4-8-5-7(2)6-9-7/h1H,4-6H2,2H3	InChI=1S/C7H10O2/c1-3-4-8-5-7(2)6-9-7/h1H,4-6H2,2H3/t7-/m0/s1
