19
gdb 957	5.1563632	0.7809491	0.766166	2.7461	77.12	-0.25825	-0.02901	0.22923999999999997	1513.3893	0.155473	-422.507393	-422.498691	-422.497747	-422.542437	31.352	
O	-2.4188725854	-3.8940508929	 0.6664759839	-0.237779
C	-2.3158394042	-2.7647052498	 0.2684948417	 0.136978
C	-1.0043052681	-1.9996313975	 0.2480259634	-0.182141
O	-1.2572647486	-0.7149562349	-0.2742447416	-0.301939
C	-0.1486239334	 0.1046083234	-0.3556873002	 0.456805
C	 1.1540040501	-0.1034533261	-1.1957445769	-0.282805
C	 1.2769761451	 1.2864573817	-0.5073625816	-0.050534
C	-0.2088730954	 1.5474788024	-0.8975285602	-0.274599
C	 0.7577668973	 0.6312821745	 0.8048766932	-0.282795
H	-3.1792198145	-2.1818956433	-0.1210009459	 0.099118
H	-0.6030433737	-1.9565622771	 1.2725757479	 0.130426
H	-0.2783174881	-2.5576083787	-0.3637766455	 0.130384
H	 1.8504122243	-0.8759922503	-0.8593180587	 0.092874
H	 1.0380022991	-0.1043875241	-2.2825695677	 0.096545
H	 2.1066569075	 1.9821237224	-0.5985376049	 0.087045
H	-0.7563682587	 2.2731755993	-0.2910054456	 0.096497
H	-0.4251791583	 1.6591403444	-1.9628919934	 0.096489
H	 1.4254174592	-0.0879615229	 1.286457814	 0.092879
H	 0.2827190859	 1.2960779694	 1.5308376179	 0.096553
45.4074	53.6997	93.3758	114.106	292.2576	361.7614	374.729	517.7468	552.5199	568.9525	696.8952	740.0604	775.3527	801.0235	891.3784	943.5476	959.2514	961.7407	969.0466	987.7414	1049.4339	1092.9174	1095.1324	1108.5958	1113.8138	1133.3935	1139.3629	1164.0998	1184.3165	1227.4497	1233.2071	1238.889	1239.7863	1302.2071	1361.5152	1409.2431	1478.8226	1494.3034	1497.9809	1556.9878	1845.0747	2902.1864	2983.6339	3017.7073	3049.9725	3053.0636	3061.1581	3117.7809	3122.7622	3126.0789	3154.2625
O=CCOC12CC(C1)C2	O=CCO[C@@]12C[C@@H](C1)C2	
InChI=1S/C7H10O2/c8-1-2-9-7-3-6(4-7)5-7/h1,6H,2-5H2	InChI=1S/C7H10O2/c8-1-2-9-7-3-6(4-7)5-7/h1,6H,2-5H2/t6-,7-
