19
gdb 1206	2.670686	1.3271823	1.1010045	1.7101	76.89	-0.252	0.03413	0.28613	1171.9482	0.154325	-422.509042	-422.499435	-422.498491	-422.543289	35.624	
C	 3.361946971	 1.8982730347	-1.6378682234	-0.426858
C	 2.5249468688	 0.6553344393	-1.9962265446	 0.120409
O	 3.3531935096	-0.5036930313	-2.0295938715	-0.463859
C	 1.8963149691	 0.8101714122	-3.3099950394	 0.369548
C	 1.3423324405	 0.9720697871	-4.3636627819	-0.475433
C	 1.4193256166	 0.4426991453	-0.9385941083	 0.13709
C	 0.5641108256	-0.8352022099	-1.0345732559	-0.287944
C	 1.1219073789	-1.145085389	 0.3667934881	-0.07556
O	 2.0169501675	-0.0038740517	 0.3071944431	-0.317212
H	 3.7511361988	 1.7928040665	-0.6205139079	 0.130064
H	 4.199571742	 1.9871906332	-2.3324590504	 0.133443
H	 2.7590499461	 2.8092099606	-1.6898253399	 0.121411
H	 3.5565415096	-0.6786447755	-1.0993851075	 0.286118
H	 0.8670673283	 1.1069282013	-5.3039643307	 0.19919
H	 0.8516956084	 1.370507922	-0.7983592437	 0.083137
H	-0.5132052643	-0.690617374	-1.1114966217	 0.111901
H	 0.9080014455	-1.5166959981	-1.8123582896	 0.134624
H	 0.4036196163	-1.038370196	 1.1881524461	 0.108903
H	 1.6699059816	-2.0853057167	 0.4880464191	 0.111026
82.3569	98.2899	132.9995	185.3792	227.4591	252.3566	291.0774	357.7744	419.3092	467.6505	474.2093	555.0269	597.4928	631.6633	670.0512	708.6851	787.1191	834.1606	887.8045	944.4866	952.8572	989.9098	1011.6525	1024.4716	1078.419	1134.564	1141.3565	1173.8563	1201.0974	1220.7253	1260.6186	1274.8862	1350.2094	1359.3455	1397.0133	1404.5152	1480.6778	1489.7337	1492.1453	1528.0118	2240.2158	3026.5695	3034.4974	3044.7886	3075.1354	3096.5334	3119.6675	3137.9538	3157.019	3500.6617	3740.0149
CC(O)(C#C)C1CCO1	C[C@](O)(C#C)[C@H]1CCO1	
InChI=1S/C7H10O2/c1-3-7(2,8)6-4-5-9-6/h1,6,8H,4-5H2,2H3	InChI=1S/C7H10O2/c1-3-7(2,8)6-4-5-9-6/h1,6,8H,4-5H2,2H3/t6-,7+/m1/s1
