19
gdb 4872	4.5092204	0.7271199	0.6890574	1.6533	83.1	-0.22694	0.04889	0.27583	1660.4356	0.15407	-422.514252	-422.503712	-422.502768	-422.551406	37.037	
C	 1.6148273235	 0.0367005065	-0.1094235209	-0.499486
C	 0.1629072771	 0.064403331	-0.0136403316	 0.096978
C	-1.0384114633	 0.0749384502	 0.07101237	 0.090361
C	-2.4696462286	 0.1043370989	 0.1454725417	-0.291644
C	-3.1868774597	 0.0720246882	 1.5010309189	-0.362413
C	-3.2548134588	-1.1146672662	 0.5690451763	 0.410577
O	-2.5132951208	-2.2482040176	 0.8943010691	-0.463229
C	-4.5522993423	-1.4500589453	-0.128466335	-0.137096
O	-5.317647346	-2.3535363223	 0.6679019477	-0.421535
H	 2.081225763	 0.6683365796	 0.6552347464	 0.143825
H	 2.0010083469	-0.9805506455	 0.0202272648	 0.149556
H	 1.9554059959	 0.3965528881	-1.0868897006	 0.145085
H	-2.9518124472	 0.7162115314	-0.6139924139	 0.107707
H	-2.5518703405	-0.038217756	 2.371497348	 0.13064
H	-4.0503414451	 0.7181490166	 1.6261137942	 0.106252
H	-3.1580995394	-2.8882583869	 1.2243860104	 0.286289
H	-5.1174083832	-0.5389157239	-0.369947466	 0.093043
H	-4.3465914058	-1.9860634262	-1.0603490594	 0.126535
H	-5.5966729561	-1.8769939407	 1.4580064201	 0.288555
17.8864	68.1117	79.6962	128.0077	194.0368	243.015	290.3236	312.087	350.3901	382.7994	416.3804	428.54	487.0147	515.2778	654.689	697.1088	776.1929	881.2716	906.4814	935.7723	981.8664	1012.9973	1042.7364	1051.8519	1053.2067	1054.7821	1110.0236	1177.9856	1215.5926	1234.2428	1301.3045	1345.6362	1379.2255	1410.4231	1415.3788	1433.581	1477.6266	1479.4669	1492.7119	1496.5673	2373.6897	3007.08	3023.1916	3081.5285	3084.5398	3086.4713	3121.6648	3128.1216	3232.9481	3760.132	3799.103	17.8901	68.1116	79.6962	128.0076	194.0368	243.0151	290.3239	312.087	350.3902	382.7994	416.3808	428.5401	487.0146	515.2781	654.6891	697.1088	776.193	881.2716	906.4813	935.7721	981.8663	1012.9973	1042.7361	1051.852	1053.2065	1054.782	1110.0232	1177.9856	1215.5925	1234.2427	1301.3045	1345.6362	1379.2253	1410.4231	1415.3789	1433.5805	1477.6267	1479.4669	1492.7116	1496.5671	2373.6898	3007.0799	3023.1916	3081.5286	3084.5398	3086.4713	3121.6648	3128.1216	3232.9482	3760.1318	3799.1026
CC#CC1CC1(O)CO	CC#C[C@@H]1C[C@@]1(O)CO	
InChI=1S/C7H10O2/c1-2-3-6-4-7(6,9)5-8/h6,8-9H,4-5H2,1H3	InChI=1S/C7H10O2/c1-2-3-6-4-7(6,9)5-8/h6,8-9H,4-5H2,1H3/t6-,7-/m1/s1
