19
gdb 5402	1.8600177	1.748623	1.0167631	3.4704	77.04	-0.23783	-0.02477	0.21306000000000003	1205.6149	0.15451	-422.524386	-422.515085	-422.514141	-422.559212	33.497	
C	 1.4997339342	 0.3442525905	-0.3102606927	-0.244356
O	 0.2573014841	-0.20536866	 0.0855520402	-0.235716
C	-0.3708450084	 0.4621473094	 1.1316151585	-0.029909
C	-1.9019584293	 0.2552880976	 1.26078251	 0.373683
O	-2.789403825	 0.1492063138	 0.4694664915	-0.284997
C	-1.7934704279	 0.0873226779	 2.791696129	-0.439394
C	-0.2785970606	-0.0724343887	 2.5849628491	 0.318515
C	 0.8403976376	 0.0815536331	 3.5668653285	-0.340199
C	 0.5265970277	-1.2749029427	 2.9721642099	-0.302546
H	 2.2593998675	 0.2706724399	 0.4809692023	 0.110981
H	 1.8396177049	-0.2280498386	-1.1763220625	 0.135867
H	 1.3973516222	 1.4005901268	-0.5989756489	 0.114693
H	-0.159794764	 1.5456014391	 1.1017716684	 0.087629
H	-2.0875059659	 0.9945337348	 3.331656356	 0.129272
H	-2.3425208337	-0.762582061	 3.2052605242	 0.134424
H	 1.7439653552	 0.589071598	 3.2431709434	 0.113006
H	 0.5863975216	 0.2525505768	 4.6083246947	 0.116438
H	 1.2024915753	-1.6822499121	 2.2278229179	 0.125786
H	 0.0617557545	-2.0182549648	 3.6117732105	 0.116822
49.7623	69.0563	145.7379	169.2255	216.3245	249.0837	312.0964	351.957	424.4954	512.4104	520.1072	601.4563	745.1845	762.0684	786.5161	864.0722	876.7143	939.105	972.7542	1007.9077	1052.7136	1056.0087	1063.118	1079.582	1109.5081	1168.9376	1171.4335	1179.8173	1186.1064	1219.5946	1236.4841	1252.0779	1374.4539	1379.6713	1446.8219	1466.1749	1481.1995	1491.6642	1504.6617	1507.0023	1902.9874	2951.8749	2985.9072	3037.8886	3046.4332	3105.8693	3121.3052	3121.7631	3130.413	3200.5704	3218.9125
COC1C(=O)CC11CC1	CO[C@H]1C(=O)CC21CC2	
InChI=1S/C7H10O2/c1-9-6-5(8)4-7(6)2-3-7/h6H,2-4H2,1H3	InChI=1S/C7H10O2/c1-9-6-5(8)4-7(6)2-3-7/h6H,2-4H2,1H3/t6-/m0/s1
