19
gdb 3420	2.293849	1.9428894	1.8287953	1.7021	73.83	-0.25352	-0.00921	0.24431000000000003	913.4033	0.159478	-422.560555	-422.553199	-422.552255	-422.591867	29.553	
C	 1.7531862586	-3.0225299581	 0.1347760877	-0.411745
C	 1.4696033165	-1.5272314402	 0.0679596649	 0.007351
C	 2.0587806047	-0.7698822921	-1.1461314636	 0.062846
O	 3.4657458542	-1.0811801129	-1.2144461228	-0.277838
C	 4.1770477329	-0.6435938581	-0.0727358246	 0.029663
O	 3.5491495948	-0.9595036302	 1.1547994922	-0.27784
C	 2.1397495123	-0.651734737	 1.1538105731	 0.062859
C	 1.8872959559	 0.7499112112	 0.6049447437	-0.096886
C	 1.8403853633	 0.6814739159	-0.727246801	-0.096873
H	 1.3474212773	-3.4509942392	 1.0575873079	 0.109103
H	 1.2828975091	-3.542039371	-0.7070922106	 0.109084
H	 2.8235870471	-3.2278706878	 0.1062360079	 0.137746
H	 0.3893949641	-1.3470269828	 0.096744569	 0.074383
H	 1.6498572395	-1.046032069	-2.1194667209	 0.075156
H	 5.1342347964	-1.1698907547	-0.0794082839	 0.116172
H	 4.3475091365	 0.4406804651	-0.1344283509	 0.090621
H	 1.80107029	-0.8253547837	 2.1765582241	 0.075154
H	 1.8504495093	 1.6441192894	 1.2149797777	 0.105522
H	 1.7576119874	 1.5086753251	-1.4215054399	 0.105521
142.3138	218.277	245.5273	290.1353	347.1945	421.8091	451.3146	568.8193	596.5413	597.5445	747.2673	782.8016	785.3873	877.1232	885.0774	923.8424	924.6108	958.0027	975.1993	987.6082	1006.1514	1046.8902	1105.5765	1109.7164	1126.6062	1140.0458	1179.1312	1231.703	1281.5053	1289.2397	1295.0777	1343.8342	1358.8842	1365.7951	1378.4683	1409.9501	1441.3394	1492.0933	1498.1089	1514.7557	1651.7227	2996.3212	3037.121	3049.4762	3094.0384	3099.7755	3101.0606	3104.8678	3147.3617	3196.0367	3220.9675
CC1C2OCOC1C=C2	C[C@@H]1[C@@H]2OCO[C@H]1C=C2	
InChI=1S/C7H10O2/c1-5-6-2-3-7(5)9-4-8-6/h2-3,5-7H,4H2,1H3	InChI=1S/C7H10O2/c1-5-6-2-3-7(5)9-4-8-6/h2-3,5-7H,4H2,1H3/t5-,6-,7+
