19
gdb 1972	2.9511457	1.5543447	1.3361172	0.5627	73.71	-0.25813	0.06597	0.32410000000000005	1029.3617	0.157646	-422.54461	-422.536798	-422.535854	-422.576452	30.754	
C	 0.0398955723	 0.2421570126	 0.0933541174	-0.467841
C	 1.5384428949	 0.0518677032	 0.0606101116	 0.405697
C	 2.1510385598	-0.5726615792	 1.3050807088	-0.278277
C	 3.651451516	-0.8635312283	 1.1760778881	-0.255552
C	 4.4275780752	 0.3026390681	 0.6026802817	 0.063393
O	 4.0214803905	 1.6229234352	 0.9794393704	-0.262662
C	 3.7962690427	 1.1908058599	-0.3778688066	 0.027904
C	 2.3732340649	 0.9360452463	-0.7658866288	-0.035375
O	 2.0629807847	-0.4053747679	-1.1978048243	-0.298216
H	-0.2524457766	 0.8792061083	 0.9347805917	 0.125849
H	-0.3136259308	 0.7014481503	-0.8329598929	 0.12698
H	-0.4652869168	-0.7228569643	 0.2111184276	 0.125103
H	 1.9791171324	 0.1169518792	 2.1387614146	 0.122275
H	 1.6161557967	-1.4993061832	 1.545641243	 0.101326
H	 4.0595941215	-1.1351936649	 2.1562915302	 0.105386
H	 3.8125368025	-1.721440113	 0.5138194507	 0.123676
H	 5.5087752623	 0.1706607808	 0.5487694256	 0.091551
H	 4.416685219	 1.7026549092	-1.1123630987	 0.092344
H	 1.8874343288	 1.7122144077	-1.35713364	 0.086439
148.8906	181.6072	204.4746	287.4346	335.229	366.5271	389.3607	410.5815	559.0025	614.2648	675.8675	695.7594	781.6486	800.0087	851.6485	893.8267	906.0939	957.7534	971.7138	1011.9925	1046.7262	1051.6438	1084.3573	1101.094	1114.695	1157.066	1220.8262	1236.0413	1272.4415	1284.799	1329.8238	1371.32	1383.1597	1394.8239	1410.8297	1461.9847	1468.5401	1481.0324	1485.6537	1490.6407	1512.3332	3031.0175	3035.8619	3042.2809	3069.486	3085.1803	3099.3076	3102.2316	3107.0062	3122.9971	3125.0862
CC12CCC3OC3C1O2	C[C@]12CC[C@@H]3O[C@@H]3[C@H]1O2	
InChI=1S/C7H10O2/c1-7-3-2-4-5(8-4)6(7)9-7/h4-6H,2-3H2,1H3	InChI=1S/C7H10O2/c1-7-3-2-4-5(8-4)6(7)9-7/h4-6H,2-3H2,1H3/t4-,5-,6+,7-/m0/s1
