19
gdb 5647	2.6076296	1.3701826	1.0044731	3.3245	77.53	-0.23532	-0.01928	0.21604	1209.203	0.154866	-422.534376	-422.525123	-422.524179	-422.568842	33.399	
C	 1.4048351548	 0.1063839917	-0.2976077258	-0.244664
O	 0.0699315916	-0.1696247257	 0.0683152779	-0.234569
C	-0.395235292	 0.5981066675	 1.1476020291	 0.02429
C	-1.9394357644	 0.514406592	 1.315969731	-0.391635
C	-1.7165524225	 0.1007241384	 2.7828743795	 0.346519
O	-2.4338655577	-0.0629243851	 3.730871187	-0.31787
C	-0.2334042964	 0.0185248595	 2.5755518919	 0.220766
C	 0.838847011	 0.1844985898	 3.6245428389	-0.324018
C	 0.607137599	-1.1620483628	 3.0192707948	-0.300412
H	 2.1185622224	-0.1218635659	 0.5075909475	 0.105466
H	 1.6395635969	-0.5225831979	-1.159531419	 0.132375
H	 1.5352289484	 1.1620941676	-0.5813539592	 0.110109
H	-0.0282316433	 1.6314593646	 1.0689745242	 0.07293
H	-2.5183154141	 1.4245846442	 1.1456484879	 0.129392
H	-2.3591970254	-0.2996254756	 0.7170595361	 0.145745
H	 1.7285583861	 0.7360504048	 3.3384506044	 0.120993
H	 0.4953130835	 0.3599565077	 4.6390100819	 0.136428
H	 1.3218979071	-1.5482092699	 2.3015849036	 0.130561
H	 0.102251865	-1.9160843147	 3.6136585983	 0.137594
54.5859	104.2471	147.3588	186.6808	199.8277	217.0411	268.7829	365.9073	446.2532	501.6779	572.9066	614.88	702.5631	767.5926	800.1407	839.4548	909.5511	949.5617	980.1256	1013.889	1043.1513	1046.3918	1068.3307	1081.5959	1129.426	1155.0363	1180.4481	1184.9603	1195.7184	1235.5289	1246.8406	1263.3449	1361.9449	1386.3357	1430.1095	1458.3631	1481.3613	1484.8746	1494.2936	1510.9571	1879.7686	2978.1973	2999.7667	3026.5474	3066.0097	3117.7412	3126.7779	3127.6374	3138.1999	3212.25	3230.6597
COC1CC(=O)C11CC1	CO[C@H]1CC(=O)C21CC2	
InChI=1S/C7H10O2/c1-9-6-4-5(8)7(6)2-3-7/h6H,2-4H2,1H3	InChI=1S/C7H10O2/c1-9-6-4-5(8)7(6)2-3-7/h6H,2-4H2,1H3/t6-/m0/s1
