19
gdb 5343	4.3102774	0.9423212	0.8679345	1.9026	81.17	-0.2118	0.00658	0.21838	1377.1845	0.156241	-422.538179	-422.529309	-422.528365	-422.572278	32.86	
O	 1.1951532192	-0.8995153892	 0.4042616682	-0.412007
C	 0.5920321571	 0.3560086643	 0.7117893159	-0.170058
C	-0.8849007763	 0.241975533	 0.91350437	 0.252603
C	-1.614161265	 0.5869827133	 1.9746674225	-0.300259
C	-3.038484887	 0.2861195975	 1.7271487008	 0.457225
C	-4.0028134736	-0.2026952991	 2.7764986262	-0.325277
C	-4.1815738846	 1.170698473	 2.1591676173	-0.324039
O	-3.109399271	-0.3069869297	 0.4450025143	-0.313612
C	-1.8056741646	-0.3358364165	-0.1351851096	-0.164893
H	 1.0062883103	-1.4935380684	 1.1386139112	 0.283774
H	 1.0571903995	 0.8253856086	 1.5912264955	 0.095616
H	 0.8138044666	 0.9932876197	-0.1531984833	 0.118146
H	-1.2534295663	 1.0343444149	 2.8927308602	 0.107459
H	-4.68952429	-0.9817018973	 2.4646679016	 0.126811
H	-3.6630830532	-0.2766093216	 3.8043131765	 0.111706
H	-4.9852166745	 1.2922569909	 1.4415418324	 0.126692
H	-3.9658331254	 2.0486163225	 2.7591107209	 0.112169
H	-1.5391734607	-1.3674390259	-0.4042854614	 0.11394
H	-1.7917356805	 0.2554494899	-1.0654948491	 0.104003
54.6425	95.6618	123.9684	212.1795	253.3664	328.5572	342.6311	396.2523	451.6853	539.941	566.2162	657.8085	764.6074	833.0645	839.3676	890.2295	906.3588	912.5093	917.4511	968.4839	976.421	1043.642	1048.0157	1053.4392	1063.0351	1085.1154	1157.3981	1182.7877	1192.0844	1199.2126	1245.6379	1312.179	1357.3847	1386.2922	1394.5632	1416.3728	1448.8105	1489.6719	1497.6022	1523.4198	1717.2886	2969.4443	2994.3032	3013.9359	3050.9629	3129.3005	3131.7926	3210.2695	3215.3974	3230.3491	3807.0446
OCC1=CC2(CC2)OC1	OCC1=CC2(CC2)OC1	
InChI=1S/C7H10O2/c8-4-6-3-7(1-2-7)9-5-6/h3,8H,1-2,4-5H2	InChI=1S/C7H10O2/c8-4-6-3-7(1-2-7)9-5-6/h3,8H,1-2,4-5H2
