19
gdb 3376	2.4715062	1.6821472	1.1738155	1.341	75.44	-0.24311	0.05838	0.30149	1078.7269	0.157009	-422.502146	-422.494001	-422.493056	-422.534906	31.336	
O	 0.4153761109	-0.0247885174	 0.4523076819	-0.431353
C	-0.8017272199	 0.5548322202	 0.8598197897	 0.054129
C	-2.0933786257	 0.0933099681	 0.1097446555	-0.127877
C	-3.3876004489	 0.2265580556	 0.9291759378	-0.082163
O	-3.5368539159	 1.6200187827	 0.5689266653	-0.28903
C	-2.379503858	 1.5697585377	-0.295532167	 0.006545
C	-1.0803808857	 1.996002319	 0.3798104075	 0.321127
C	-0.7707380231	 3.2970659341	 1.0510569567	-0.318855
C	-0.0397871501	 2.9144792812	-0.2100833669	-0.337535
H	 0.553458198	 0.2016402035	-0.4743183392	 0.278745
H	-0.8476035002	 0.4066976715	 1.9436102167	 0.090495
H	-1.9831363572	-0.7419297154	-0.5806144194	 0.079368
H	-4.2298434871	-0.370977601	 0.5587572996	 0.102646
H	-3.2957015322	 0.0808399484	 2.0134208112	 0.101004
H	-2.5995860519	 1.9423310374	-1.3006021666	 0.072157
H	-1.5211515948	 4.0788493859	 0.9993175818	 0.124526
H	-0.2215253646	 3.2622263124	 1.9865181629	 0.119205
H	-0.2838208245	 3.4372932362	-1.1296070716	 0.116147
H	 0.9982960609	 2.6093897898	-0.1226223556	 0.12072
63.1104	186.4024	218.3039	244.2162	286.8014	297.3078	352.7892	433.0453	542.7786	595.9906	775.0252	784.027	817.7527	844.5399	883.1236	895.5436	950.5963	955.7656	982.8654	990.3835	1015.1514	1026.1229	1050.6001	1069.031	1077.7178	1122.1843	1147.7855	1169.2348	1191.6922	1209.6192	1229.6324	1247.3476	1268.0323	1285.2203	1314.36	1353.1592	1378.5884	1430.1558	1462.4225	1497.5927	1521.0046	3007.754	3050.1839	3057.5974	3061.1372	3122.2817	3123.4523	3129.2674	3203.68	3218.6899	3799.1684
OC1C2COC2C11CC1	O[C@@H]1[C@H]2CO[C@H]2C21CC2	
InChI=1S/C7H10O2/c8-5-4-3-9-6(4)7(5)1-2-7/h4-6,8H,1-3H2	InChI=1S/C7H10O2/c8-5-4-3-9-6(4)7(5)1-2-7/h4-6,8H,1-3H2/t4-,5-,6-/m1/s1
