19
gdb 4629	3.5241945	0.7897311	0.755366	1.9615	79.71	-0.2478	0.03902	0.28681999999999996	1616.9644	0.156533	-422.520865	-422.511196	-422.510251	-422.558057	32.83	
C	-1.9410222847	 0.8842841084	-6.0699242198	-0.36484
C	-1.8064907511	 2.1096315742	-5.1471332635	-0.319181
C	-1.3197955085	 1.7713835493	-3.814208571	 0.087713
C	-0.9219379285	 1.4724592006	-2.716915429	 0.08713
C	-0.43989258	 1.1152689308	-1.3705038781	-0.039111
O	-0.1461153912	-0.2621035701	-1.2605412876	-0.228546
C	 1.1911645083	-0.4153352631	-1.7286846947	-0.103765
C	 1.8124618087	 0.998666464	-1.5778464586	-0.104092
O	 0.7564444271	 1.7893083236	-1.0388789445	-0.228713
H	-2.6387859396	 0.1557265787	-5.6488770083	 0.132512
H	-2.3100070009	 1.1886026415	-7.0537338223	 0.116504
H	-0.9753118695	 0.3889432269	-6.2018282704	 0.12742
H	-1.1295853607	 2.8426886037	-5.6042263289	 0.132495
H	-2.7783093973	 2.6117406257	-5.0584834657	 0.13366
H	-1.1868188283	 1.3619793642	-0.6098515679	 0.117217
H	 1.6778583478	-1.1717746255	-1.1080378812	 0.118193
H	 1.2041674014	-0.7479329552	-2.7738753493	 0.108358
H	 2.6478822981	 1.0328514437	-0.8741733585	 0.11825
H	 2.1437402687	 1.3948086086	-2.5455715009	 0.108796
21.879	45.9557	72.9845	96.0252	174.2204	210.7452	260.3058	363.8767	422.372	523.8143	577.7936	735.8868	745.0247	785.8209	822.7869	865.2948	933.654	946.1588	963.5196	990.42	1056.2748	1078.672	1103.9283	1112.4076	1153.7122	1162.5923	1236.6293	1237.424	1285.2198	1306.5728	1347.4569	1362.8321	1373.1161	1382.9335	1408.6734	1474.4805	1494.5783	1505.3956	1515.366	1528.2824	2359.1569	3022.05	3022.5376	3034.0757	3045.8327	3050.3953	3072.1172	3086.0262	3105.5791	3119.6216	3125.7705
CCC#CC1OCCO1	CCC#CC1OCCO1	
InChI=1S/C7H10O2/c1-2-3-4-7-8-5-6-9-7/h7H,2,5-6H2,1H3	InChI=1S/C7H10O2/c1-2-3-4-7-8-5-6-9-7/h7H,2,5-6H2,1H3
