19
gdb 2650	3.0003828	1.3630095	1.2023657	2.6189	75.73	-0.23239	0.05934	0.29173	1111.6602	0.155627	-422.487995	-422.47937	-422.478426	-422.521028	32.855	
C	 0.7326592775	 0.8724420072	 0.2620119034	-0.399357
C	 0.9895436803	-0.6176663027	 0.2343531237	-0.142463
C	 2.3033561593	-1.1965590755	 0.7737270326	 0.020989
O	 3.3158851722	-0.3388636378	 1.196772811	-0.429788
C	 2.0080161591	-1.2130587226	-0.6920558803	 0.402193
O	 2.8619409698	-0.3735191368	-1.5078888735	-0.327804
C	 2.9759973012	-1.4452066332	-2.4611785358	 0.100021
C	 1.6450700226	-1.7675616013	-3.0601665665	-0.298523
C	 2.0196408451	-2.3320225639	-1.6998137803	-0.22872
H	 0.2680337877	 1.1647905654	 1.2091182032	 0.118955
H	 1.6653720622	 1.4302843559	 0.1625906375	 0.131841
H	 0.0661160468	 1.1754632436	-0.5517220828	 0.114712
H	 0.1186714328	-1.2470257207	 0.4080561817	 0.087532
H	 2.2600172963	-2.1251902843	 1.3392883412	 0.094345
H	 3.8041550435	-0.0858500302	 0.4001196022	 0.295453
H	 3.9463016256	-1.6156014319	-2.9104714084	 0.111326
H	 0.8938030981	-0.9883524693	-3.1472093501	 0.123168
H	 1.6629123736	-2.4899458011	-3.8706615308	 0.118182
H	 2.0594496163	-3.3889376707	-1.475516128	 0.107938
122.1365	128.4767	158.5983	169.6725	239.0981	310.111	400.3507	426.9342	481.3543	560.89	606.4458	637.4929	753.605	784.1504	821.5293	884.2549	888.4104	947.5667	957.493	971.7823	993.5779	1044.1152	1045.1355	1058.9817	1080.1507	1089.3735	1101.6361	1143.3595	1156.6186	1174.48	1195.7074	1264.6612	1297.6985	1335.9777	1345.9412	1397.2662	1416.1264	1466.6339	1480.9534	1489.7508	1506.54	3041.2898	3099.2674	3118.2466	3120.2458	3127.1787	3140.7691	3192.0177	3206.7826	3215.8533	3727.6945
CC1C(O)C11OC2CC12	C[C@@H]1[C@H](O)[C@@]21O[C@@H]1C[C@H]21	
InChI=1S/C7H10O2/c1-3-6(8)7(3)4-2-5(4)9-7/h3-6,8H,2H2,1H3	InChI=1S/C7H10O2/c1-3-6(8)7(3)4-2-5(4)9-7/h3-6,8H,2H2,1H3/t3-,4+,5-,6+,7+/m1/s1
