19
gdb 5104	3.2128741	1.1003031	0.9561481	1.885	74.79	-0.2162	0.05545	0.27165	1266.1983	0.155487	-422.474299	-422.465359	-422.464415	-422.507827	33.925	
O	 1.521666543	 0.4416318036	-0.3693257006	-0.413331
C	 0.1527625728	 0.276258563	-0.0135526267	-0.175055
C	-0.7944025906	 0.5147038519	-1.1504929388	 0.328037
C	-1.0765468681	-0.5153286517	-2.2132419116	-0.35063
C	-2.2110245194	-0.0099849892	-1.3566897797	-0.122131
C	-2.6995233259	 1.4128661634	-1.7251340155	-0.123531
C	-1.96900474	 2.0594362783	-2.8711019864	 0.133534
O	-2.3914633905	 3.3322235817	-3.2707337544	-0.442069
C	-1.2737698999	 1.9470632815	-1.5385260357	-0.199261
H	 1.6293879	 1.3348297111	-0.7118596276	 0.283404
H	 0.0601984399	-0.7598240719	 0.3298717193	 0.107635
H	-0.1112411525	 0.9266972729	 0.8368630065	 0.084986
H	-1.0012166975	-0.3130852528	-3.2749573004	 0.118671
H	-0.7377380061	-1.5127029512	-1.9474268771	 0.116452
H	-2.7776708797	-0.6716950464	-0.7127587868	 0.093538
H	-3.6324055235	 1.8281253599	-1.3613771869	 0.087316
H	-1.6484667757	 1.5137179153	-3.7505318109	 0.105931
H	-2.7281705768	 3.8026034336	-2.500305788	 0.284824
H	-0.9492428594	 2.8370331469	-1.0092860286	 0.081681
76.8386	122.2268	203.8926	228.611	258.7308	294.9639	319.1194	366.1013	398.7866	419.6636	536.1404	670.3794	766.8548	775.5003	841.0604	876.6796	894.2032	903.109	923.3988	955.0374	979.1781	998.2993	1032.6862	1049.7923	1064.8535	1081.1589	1105.0001	1121.9233	1135.5085	1154.7143	1225.7691	1255.0915	1265.4765	1300.2912	1335.4656	1373.7619	1381.2624	1421.2709	1458.632	1494.5113	1507.7353	2965.6433	3068.0955	3129.9151	3158.4075	3172.4594	3176.6734	3184.9083	3211.3422	3805.7907	3815.2437
OCC12CC1C1C(O)C21	OC[C@@]12C[C@@H]1[C@@H]1[C@@H](O)[C@H]21	
InChI=1S/C7H10O2/c8-2-7-1-3(7)4-5(7)6(4)9/h3-6,8-9H,1-2H2	InChI=1S/C7H10O2/c8-2-7-1-3(7)4-5(7)6(4)9/h3-6,8-9H,1-2H2/t3-,4+,5-,6-,7+/m1/s1
