19
gdb 2105	2.4984981	1.6089705	1.3700767	0.6448	75.26	-0.2131	0.07371	0.28681	1044.9137	0.154725	-422.503251	-422.494357	-422.493413	-422.536033	34.084	
C	 2.9526484715	 2.0220222248	 0.5975757225	-0.532414
C	 2.2868289397	 0.8497046178	 1.2387305574	 0.18698
C	 1.7495589279	 0.5476330565	 2.6023596213	-0.036549
O	 0.4632725996	 0.1107527454	 2.1721626739	-0.334646
C	 1.0716144	-0.1024784589	 0.8543243563	 0.373166
C	 0.1136425441	 0.0175707488	-0.2894509874	-0.501687
C	 1.9915825706	-1.336526644	 1.0867274383	-0.337336
C	 2.8041576846	-0.3835107481	 1.9614589045	 0.284969
O	 4.0842996912	-0.5332469943	 2.4515867051	-0.459314
H	 3.7787710995	 2.3739877796	 1.2239941852	 0.136126
H	 3.3725412183	 1.7628748864	-0.3811906608	 0.123023
H	 2.2568539459	 2.8564668178	 0.4567618004	 0.125141
H	 1.8630635007	 1.0449987938	 3.5578231895	 0.103187
H	-0.6639472666	-0.7499660737	-0.2099415284	 0.13362
H	-0.3718844488	 0.9976499992	-0.2884869424	 0.130447
H	 0.6327457745	-0.1174882648	-1.2430642547	 0.122942
H	 1.5167315591	-2.2163111955	 1.5345772209	 0.091021
H	 2.5417710067	-1.6082192887	 0.1816168983	 0.10274
H	 4.0410912716	-1.037727812	 3.2718682502	 0.288583
161.48	179.6328	182.2745	197.0851	216.1311	278.4235	317.2023	382.4201	419.3126	465.0104	563.6368	576.8011	654.6106	662.4593	765.8849	782.2861	822.8275	872.0573	925.9079	953.3787	983.7166	1025.8778	1045.7281	1102.3804	1121.7402	1145.4792	1159.7071	1180.4526	1194.87	1244.2859	1296.0896	1338.0774	1353.789	1411.8338	1414.671	1466.8711	1478.5042	1485.353	1489.8893	1495.2208	1511.2414	3024.1487	3036.2761	3039.9983	3083.3746	3099.0214	3105.2221	3107.8768	3118.2427	3196.1228	3787.7676
CC12C3OC1(C)CC23O	C[C@@]12[C@H]3O[C@]1(C)C[C@@]23O	
InChI=1S/C7H10O2/c1-5-3-7(8)4(9-5)6(5,7)2/h4,8H,3H2,1-2H3	InChI=1S/C7H10O2/c1-5-3-7(8)4(9-5)6(5,7)2/h4,8H,3H2,1-2H3/t4-,5-,6-,7+/m1/s1
