19
gdb 2640	1.9691443	1.3083143	0.948231	3.1114	78.75	-0.24682	0.05244	0.29926	1308.4771	0.153293	-422.520145	-422.509772	-422.508828	-422.555274	37.556	
C	 1.6177866101	-1.0444001368	 1.3823037866	-0.430621
C	 1.3867453681	-0.3397050558	 0.055942105	-0.040896
C	 2.3971746905	-0.5332985203	-1.111654943	 0.098399
O	 2.0745000401	-1.4164381472	-2.1563860429	-0.427643
C	 2.2038536987	 0.9609835954	-1.4898274555	-0.194053
C	 3.3330051846	 1.7387439055	-1.9493253361	 0.300695
C	 4.2906075962	 2.3755388992	-2.3015019902	-0.448648
C	 1.6358445184	 1.1918488597	-0.0624755282	 0.098398
O	 0.5368882293	 2.0677391959	-0.0374199385	-0.427643
H	 1.5177123684	-2.1312417315	 1.2820865228	 0.115343
H	 2.6216761119	-0.8379931554	 1.7714541225	 0.115533
H	 0.8950953421	-0.720585325	 2.1400263484	 0.115345
H	 0.3842834682	-0.5432480838	-0.3368054307	 0.089435
H	 3.4142506908	-0.7065474825	-0.733758252	 0.074452
H	 2.3164731875	-2.3086853674	-1.8895495069	 0.285525
H	 1.3661277398	 1.0192325263	-2.1934951375	 0.124985
H	 5.1283187176	 2.9418760367	-2.6247763058	 0.191417
H	 2.4316347856	 1.5200255565	 0.6203731632	 0.074452
H	 0.3068571523	 2.2451029805	 0.8799051289	 0.285526
63.908	121.3498	164.6015	190.7982	201.7073	219.3566	220.6939	244.8843	309.0519	388.6025	449.5681	480.3501	508.3403	552.3048	554.201	616.5255	625.4678	850.0769	882.868	937.0059	955.4406	1045.3526	1064.3563	1106.5082	1117.3809	1134.7148	1145.6282	1164.3981	1207.138	1224.0558	1231.9092	1291.6429	1293.4947	1347.9563	1384.3578	1407.6731	1415.7036	1462.7945	1495.1189	1496.4207	2235.7868	3003.9674	3009.201	3021.1033	3054.2182	3063.789	3085.2912	3089.693	3505.5415	3821.1771	3821.4784
CC1C(O)C(C#C)C1O	C[C@@H]1[C@@H](O)[C@H](C#C)[C@H]1O	
InChI=1S/C7H10O2/c1-3-5-6(8)4(2)7(5)9/h1,4-9H,2H3	InChI=1S/C7H10O2/c1-3-5-6(8)4(2)7(5)9/h1,4-9H,2H3/t4-,5+,6-,7+
