19
gdb 1560	2.4254916	1.6572181	1.3524808	2.9026	74.81	-0.24322	-0.02288	0.22033999999999998	1033.0537	0.156915	-422.584863	-422.576426	-422.575482	-422.617405	32.924	
C	-0.4544197798	 2.0843968063	-1.1804111187	-0.43931
C	-0.9577277604	 1.2613349111	 0.013670485	 0.299204
O	-0.890954025	 2.0555255662	 1.1896964579	-0.475181
C	-2.3856004424	 0.6905333013	-0.1455803795	-0.274099
C	-2.24127014	-0.8131721022	-0.3960343934	-0.043169
C	-1.400070107	-1.2460570998	-1.5459073494	-0.291764
C	-0.7902506261	-1.2251386456	-0.1452612882	-0.149348
C	-0.0738664138	 0.0060076636	 0.2606405196	 0.37892
O	 0.9865388901	 0.082647397	 0.8386065965	-0.363217
H	 0.6002299953	 2.3393965996	-1.0375558813	 0.127799
H	-0.5531275583	 1.5578948151	-2.1344524868	 0.114492
H	-1.0304768495	 3.012533688	-1.2375807667	 0.129934
H	 0.0175138657	 1.9618924423	 1.513079718	 0.285287
H	-2.9135937512	 0.8621512745	 0.7955803173	 0.127063
H	-2.9501609148	 1.1854078901	-0.9421459467	 0.104069
H	-3.0432688711	-1.4653112153	-0.0703339098	 0.100813
H	-1.5662230598	-2.2383831445	-1.9501689006	 0.128853
H	-1.0665920368	-0.5221713422	-2.2800675429	 0.128583
H	-0.4957923653	-2.1629517553	 0.3079922896	 0.111073
90.1526	189.6409	216.8421	241.1135	314.6592	340.9105	352.017	400.556	454.7649	504.2336	586.799	612.4987	687.5868	774.72	796.7256	835.3947	871.5779	905.3644	949.061	954.5765	978.2273	984.2952	1057.1178	1067.994	1105.6262	1134.8141	1141.5165	1160.03	1204.5257	1220.164	1256.2294	1323.5396	1332.4017	1371.9529	1395.998	1402.9339	1477.4476	1489.1402	1491.6627	1502.4736	1816.0428	3038.4191	3054.3615	3106.8981	3113.807	3117.599	3143.6521	3178.3409	3200.9368	3227.6052	3723.0961
CC1(O)CC2CC2C1=O	C[C@@]1(O)C[C@H]2C[C@H]2C1=O	
InChI=1S/C7H10O2/c1-7(9)3-4-2-5(4)6(7)8/h4-5,9H,2-3H2,1H3	InChI=1S/C7H10O2/c1-7(9)3-4-2-5(4)6(7)8/h4-5,9H,2-3H2,1H3/t4-,5-,7-/m1/s1
