19
gdb 675	3.4684036	1.3053133	1.1233983	3.4946	74.42	-0.23773	-0.01441	0.22332	1118.4541	0.158802	-422.599961	-422.592122	-422.591178	-422.633538	29.436	
O	 1.2148387886	 0.0446007781	-0.5552352122	-0.309647
C	 0.0914035786	 0.0747088349	-0.12733189	 0.401782
C	-0.8168002946	-1.1432679996	 0.0900127275	-0.33054
C	-2.0304192295	-0.6432083551	 0.8959258126	-0.019495
C	-3.4056918017	-1.1487336646	 0.4126757792	-0.266138
C	-3.9040377107	-0.0102032372	-0.5206957383	-0.069233
O	-2.8392643808	 0.928570807	-0.6305024953	-0.265339
C	-2.0896952011	 0.8745293731	 0.5772649339	 0.102085
C	-0.6665778508	 1.3364458578	 0.3056016249	-0.345487
H	-1.1147583408	-1.5028878039	-0.9022418789	 0.135759
H	-0.260336765	-1.9547873382	 0.5651393632	 0.127778
H	-1.8799270624	-0.8241751839	 1.9634470537	 0.078211
H	-3.325091703	-2.1055800679	-0.1092664932	 0.111085
H	-4.0936399441	-1.2928817315	 1.2497322261	 0.106756
H	-4.1495058169	-0.3482537053	-1.5310902122	 0.111574
H	-4.7972486891	 0.4739738873	-0.0987429769	 0.095083
H	-2.5913671702	 1.4512591753	 1.3687806017	 0.063232
H	-0.6088285697	 2.1160679842	-0.4571837446	 0.144143
H	-0.1923601367	 1.7272012794	 1.2139703188	 0.12839
38.6045	61.5986	170.619	304.8359	329.7798	453.4951	479.8304	528.9609	647.7268	701.6857	717.8602	779.632	813.0158	823.5715	843.8933	918.7957	921.5787	962.3402	994.7895	1025.2134	1064.3637	1082.3306	1135.4108	1141.2384	1166.068	1204.9623	1229.1653	1233.0169	1260.9538	1276.9503	1278.6527	1310.3749	1329.4459	1360.0548	1368.9136	1397.6802	1433.5444	1448.646	1498.0201	1525.4474	1849.0001	2984.596	2992.6229	3045.274	3051.1196	3061.8526	3073.887	3083.4718	3105.9666	3110.2472	3117.8931
O=C1CC2CCOC2C1	O=C1C[C@@H]2CCO[C@@H]2C1	
InChI=1S/C7H10O2/c8-6-3-5-1-2-9-7(5)4-6/h5,7H,1-4H2	InChI=1S/C7H10O2/c8-6-3-5-1-2-9-7(5)4-6/h5,7H,1-4H2/t5-,7+/m0/s1
