19
gdb 4983	2.7678013	1.5540362	1.39651	2.3711	73.75	-0.22591	0.08053	0.30644	1025.4034	0.157527	-422.507058	-422.49915	-422.498205	-422.539555	30.281	
C	 1.0229233668	 0.0688960017	-0.3698487392	-0.258122
O	 0.8106446172	-0.1864614329	 1.0113166689	-0.281572
C	-0.191219961	 0.5619105781	 1.5687259431	 0.3678
C	-1.6864863762	 0.4955821043	 1.3164653603	-0.166573
C	-2.2657297239	 1.8799677666	 1.0259928707	-0.224867
C	-1.0838498842	 2.8538552843	 1.3151043638	-0.214067
C	-0.1359282601	 2.0056864784	 2.1531902679	 0.019487
O	-0.869818665	 1.5560382024	 3.3450956953	-0.307537
C	-1.0890166054	 0.2925956308	 2.7176237226	 0.001444
H	 1.7933543674	-0.628180509	-0.705756205	 0.131389
H	 0.1055304802	-0.0940999672	-0.9509487638	 0.114732
H	 1.3730829053	 1.0957614414	-0.5442581852	 0.113507
H	-2.0933848477	-0.3968995112	 0.8530547955	 0.090624
H	-2.6147726613	 1.9574804804	-0.0076210542	 0.098179
H	-3.1181450485	 2.0970866692	 1.6759844156	 0.114125
H	-0.5839367557	 3.1635541117	 0.388974815	 0.095798
H	-1.4011865941	 3.7560082449	 1.8451650038	 0.109816
H	 0.8325780378	 2.434852197	 2.4153468325	 0.084735
H	-1.2604284616	-0.5749245108	 3.3432158325	 0.111102
82.1922	151.4216	174.3134	212.9575	342.1489	374.0594	405.7441	505.4758	587.3698	684.0935	710.4421	761.0619	826.3462	856.2615	874.3621	902.5904	953.1196	971.3099	1003.2059	1015.9019	1036.9017	1053.8313	1066.9948	1097.4433	1156.5406	1157.9602	1178.6608	1193.1566	1224.6641	1253.0218	1266.6235	1279.0282	1288.7887	1331.4138	1340.1766	1445.9283	1472.0936	1488.7946	1499.0109	1503.6052	1509.7417	2996.4832	3032.7036	3053.24	3056.3314	3087.4176	3102.9041	3106.6502	3126.1747	3177.3281	3193.0837
COC12C3CCC1OC23	CO[C@]12[C@@H]3CC[C@H]1O[C@H]23	
InChI=1S/C7H10O2/c1-8-7-4-2-3-5(7)9-6(4)7/h4-6H,2-3H2,1H3	InChI=1S/C7H10O2/c1-8-7-4-2-3-5(7)9-6(4)7/h4-6H,2-3H2,1H3/t4-,5-,6+,7-/m1/s1
