19
gdb 6002	3.41473	0.8470038	0.7270973	2.2709	81.01	-0.22944	0.04725	0.27669	1581.5415	0.153329	-422.491801	-422.481585	-422.480641	-422.527478	36.675	
C	 0.4996619889	-0.8347004782	 0.2026893589	-0.388792
C	 0.8603456544	 0.6249190199	 0.4090368617	-0.050671
O	 1.763879136	 1.0150295766	-0.6297490467	-0.268957
C	 2.167088543	 2.346452448	-0.519274143	 0.055808
C	 3.4875032235	 2.5703589573	 0.1582867947	 0.105425
O	 4.1515184628	 1.4699375476	 0.6812278416	-0.430136
C	 3.3712184002	 2.7255591176	-1.3685204965	-0.330609
C	 3.435381885	 4.0150621264	-1.9826043917	 0.310734
C	 3.4876087296	 5.1139880636	-2.4704356618	-0.43528
H	-0.2111749075	-1.158943271	 0.9682551287	 0.123363
H	 0.0442978062	-0.9820817129	-0.7803963786	 0.134308
H	 1.3883262285	-1.469439118	 0.2678781928	 0.125972
H	-0.0380922975	 1.2587048556	 0.3634027188	 0.102478
H	 1.3281676292	 0.7847745006	 1.391004449	 0.10852
H	 1.3616387023	 3.0722553635	-0.4187214814	 0.105936
H	 3.6566608377	 3.4693393671	 0.7401787935	 0.121966
H	 3.6907205914	 0.6900213796	 0.3418189373	 0.291725
H	 3.7957688181	 1.8957934489	-1.927723243	 0.124258
H	 3.5382976183	 6.0784393379	-2.9109542544	 0.193953
56.8978	76.5103	110.9621	143.6317	198.5454	226.2869	262.495	347.46	376.2539	411.6355	440.6865	470.0682	506.1171	577.4156	650.6789	694.7189	814.1902	822.62	871.9734	894.3614	957.4653	998.1697	1054.417	1080.9479	1102.2979	1116.8864	1137.4819	1166.5656	1186.8666	1214.7112	1273.7235	1297.5335	1332.8122	1374.4471	1405.5321	1433.1313	1465.2807	1483.4006	1498.5975	1526.7985	2234.306	2988.9393	3025.1975	3046.1155	3118.1839	3119.1695	3125.3246	3148.3061	3181.8834	3505.9437	3746.7635
CCOC1C(O)C1C#C	CCO[C@H]1[C@@H](O)[C@@H]1C#C	
InChI=1S/C7H10O2/c1-3-5-6(8)7(5)9-4-2/h1,5-8H,4H2,2H3	InChI=1S/C7H10O2/c1-3-5-6(8)7(5)9-4-2/h1,5-8H,4H2,2H3/t5-,6-,7+/m0/s1
