19
gdb 2982	2.4994208	1.8512783	1.3969691	3.0124	74.2	-0.24299	0.08089	0.32388	991.1512	0.157428	-422.516539	-422.508854	-422.50791	-422.548359	30.338	
C	 1.278376623	-0.9615386554	-0.9111789485	-0.400305
C	 1.2154476052	-0.0588537793	 0.3171297885	-0.099173
C	 1.7153157742	 1.3886045499	 0.0649562286	 0.0679
C	 1.9229858009	 1.9738020337	 1.4796956874	-0.247673
C	 3.0544273597	 0.9222620047	 1.40765767	-0.013088
O	 3.1664560268	 1.2039321037	-0.0254163104	-0.295203
C	 2.2814064195	-0.3915456964	 1.3926560967	 0.494893
C	 2.1644217832	-1.339805487	 2.4985939603	-0.283459
O	 2.9884595486	-1.6212185139	 1.3566524969	-0.280954
H	 1.1277556717	-2.0085528673	-0.6351015916	 0.123733
H	 0.5083837858	-0.6833007185	-1.6381641667	 0.10609
H	 2.2584035283	-0.8789086533	-1.3875942482	 0.140429
H	 0.2061181662	-0.0570249398	 0.743713003	 0.07566
H	 1.2866700109	 1.9491143258	-0.7659393831	 0.082159
H	 2.3127208648	 2.9914962138	 1.4530632635	 0.11587
H	 1.1338400522	 1.8599779161	 2.2279227255	 0.097624
H	 3.9923254321	 0.9730724102	 1.9593109035	 0.08762
H	 2.7040781999	-1.1688803556	 3.4300163614	 0.113112
H	 1.2691498871	-1.9538202715	 2.5913074831	 0.114765
121.1297	206.0166	229.5743	245.1364	286.3257	373.9943	457.6154	503.1566	561.7839	624.4367	747.5907	797.2783	828.805	864.8064	871.1295	891.1208	916.7148	945.433	973.7987	1007.7812	1029.2862	1050.8313	1072.9368	1102.6896	1121.7172	1137.1562	1165.348	1187.7581	1206.3802	1224.2458	1253.2475	1268.8192	1288.372	1311.0365	1360.1328	1405.3116	1442.3259	1484.2285	1488.9622	1503.2015	1539.6409	3040.393	3043.9622	3065.6494	3075.5077	3111.182	3121.6718	3129.5146	3135.4134	3146.4724	3159.8806
CC1C2CC(O2)C11CO1	C[C@@H]1[C@H]2C[C@H](O2)[C@]21CO2	
InChI=1S/C7H10O2/c1-4-5-2-6(9-5)7(4)3-8-7/h4-6H,2-3H2,1H3	InChI=1S/C7H10O2/c1-4-5-2-6(9-5)7(4)3-8-7/h4-6H,2-3H2,1H3/t4-,5-,6+,7-/m1/s1
