19
gdb 5710	2.5654779	1.1844333	1.0609939	1.9454	77.59	-0.23659	-0.01801	0.21858	1229.8589	0.155791	-422.548909	-422.53973	-422.538786	-422.583307	33.476	
O	-0.7728957997	 0.1007503566	 0.8876120428	-0.413471
C	-0.204271172	-0.4520576822	-0.2920972005	-0.078375
C	-0.4774209174	 0.3726409265	-1.5283744598	-0.09223
C	 0.5601006136	 0.5145830464	-2.5983973865	-0.352927
C	 0.2492678419	 1.6921699116	-1.7019895998	 0.243098
C	 1.1305687108	 2.4588260144	-0.6980005148	-0.335828
C	 0.4449025974	 3.7920814045	-1.1482597937	-0.343807
C	-0.4102131486	 2.9694205604	-2.1345561581	 0.340522
O	-1.2706930959	 3.2315057895	-2.9290700893	-0.318666
H	-1.7254828139	 0.1562483285	 0.7602399218	 0.284582
H	 0.8733446426	-0.4963921689	-0.1035455318	 0.1105
H	-0.5481391037	-1.4860235237	-0.4522993433	 0.098238
H	-1.5135832504	 0.3829511342	-1.8629747191	 0.100934
H	 1.5186486648	 0.0263094605	-2.4496273964	 0.120902
H	 0.2347377997	 0.584347379	-3.6310320589	 0.134398
H	 0.9473559051	 2.1907123021	 0.3435178053	 0.13253
H	 2.2028214497	 2.4166016583	-0.9012086099	 0.106243
H	-0.1381963503	 4.3102604161	-0.3821027582	 0.13257
H	 1.0980330862	 4.5204272364	-1.6371203798	 0.130786
71.289	91.3183	113.9427	157.6028	240.6241	269.2791	309.7269	399.4546	426.6491	514.4701	557.029	609.997	726.0845	757.7348	771.7476	854.8487	891.8607	925.9663	959.9396	1020.4554	1030.4662	1051.8562	1062.7978	1074.7687	1089.3175	1119.8166	1125.3654	1178.8529	1216.7882	1222.3085	1246.5492	1268.9889	1324.4724	1368.4703	1402.8986	1434.5785	1440.9118	1479.6534	1490.2888	1501.353	1874.2395	2982.8824	3063.3669	3073.099	3075.6249	3113.031	3124.4074	3125.1022	3134.4591	3214.9992	3815.8276
OCC1CC11CCC1=O	OC[C@@H]1C[C@@]21CCC2=O	
InChI=1S/C7H10O2/c8-4-5-3-7(5)2-1-6(7)9/h5,8H,1-4H2	InChI=1S/C7H10O2/c8-4-5-3-7(5)2-1-6(7)9/h5,8H,1-4H2/t5-,7+/m0/s1
