19
gdb 2037	2.6265062	1.8797698	1.320185	2.3752	73.59	-0.23417	0.0634	0.29757	991.0022	0.158819	-422.539128	-422.531665	-422.53072	-422.57089	29.867	
O	 0.2901433512	-0.0829853608	 0.3953702607	-0.473016
C	-0.5695962284	 0.5029189522	 1.3131628856	 0.428856
C	-1.9295048504	-0.074476279	 1.4898910307	-0.341249
C	-1.7861498409	 1.3372726825	 0.937430315	-0.114187
C	-1.9598873323	 2.4786597046	 1.936431817	-0.259287
C	-0.7207337143	 2.418046466	 2.8605805532	-0.065133
C	 0.5446888684	 3.1541174524	 2.3600728016	-0.079678
O	 1.2396319195	 1.9123756667	 2.0947239878	-0.308589
C	 0.0871915564	 1.1400704017	 2.5210307643	 0.030444
H	 1.0317434993	 0.533244426	 0.313085525	 0.288428
H	-2.2062205073	-0.8472614998	 0.7809663454	 0.125133
H	-2.3321489254	-0.2132890344	 2.4905340591	 0.105854
H	-2.042564841	 1.4890697603	-0.1044974145	 0.09016
H	-2.0148248541	 3.4470476868	 1.4275845241	 0.101749
H	-2.8870756118	 2.3751587738	 2.5122134974	 0.101569
H	-0.9482380321	 2.5913145975	 3.9124014418	 0.079299
H	 0.4113424333	 3.7542556915	 1.4511872846	 0.102017
H	 1.0747155211	 3.7528723852	 3.1095759152	 0.107003
H	 0.3565783687	 0.4349494269	 3.314979406	 0.080627
91.2589	179.505	246.4003	346.0447	365.2791	421.6352	478.4482	506.3422	554.9456	653.0859	761.216	792.3849	840.6509	866.8265	879.7226	887.7841	917.1743	960.8786	986.8316	999.2903	1020.9272	1038.1105	1055.35	1076.0005	1096.7782	1122.8396	1165.352	1208.9718	1226.9248	1238.4305	1261.98	1278.9677	1302.6068	1315.3135	1336.5965	1365.9756	1374.2129	1430.2709	1489.627	1500.0108	1521.8244	3015.3322	3030.2995	3049.1225	3061.7375	3068.4649	3109.8754	3112.3298	3181.0176	3209.5935	3745.7443
OC12CC1CC1COC21	O[C@]12C[C@H]1C[C@@H]1CO[C@H]21	
InChI=1S/C7H10O2/c8-7-2-5(7)1-4-3-9-6(4)7/h4-6,8H,1-3H2	InChI=1S/C7H10O2/c8-7-2-5(7)1-4-3-9-6(4)7/h4-6,8H,1-3H2/t4-,5-,6+,7-/m1/s1
