19
gdb 1076	2.5223618	1.454782	1.2755885	2.646	77.1	-0.2241	-0.02054	0.20356	1096.3923	0.154458	-422.583913	-422.574511	-422.573567	-422.618399	34.18	
C	 3.1014571983	-4.3099498926	 1.9253669755	-0.47716
C	 2.5676113557	-3.3565890994	 0.8796415509	 0.35559
O	 1.4336120957	-3.4054184929	 0.4621397084	-0.316905
C	 3.5513793038	-2.3020470253	 0.3087491525	 0.233523
C	 2.8703350807	-0.9287647739	 0.267842743	-0.413342
O	 4.74219009	-2.2362221997	 1.1044909792	-0.302358
C	 5.8883204783	-2.6125727403	 0.3427081942	-0.135699
C	 5.3536795835	-2.9525346978	-1.0193108613	-0.100987
C	 4.0381351163	-2.7784270165	-1.0424411718	-0.106264
H	 2.3152114564	-5.0084763793	 2.2139143408	 0.133941
H	 3.9642042142	-4.8580432717	 1.5318997484	 0.14035
H	 3.461525269	-3.7526215119	 2.7947464378	 0.153122
H	 2.6777200161	-0.5775606962	 1.2858534144	 0.125017
H	 3.5169187203	-0.2050637241	-0.2347513254	 0.115675
H	 1.918034761	-1.0009015854	-0.2609233795	 0.140861
H	 6.611123881	-1.782469043	 0.317947512	 0.111584
H	 6.3933940929	-3.4650089763	 0.8232551857	 0.107503
H	 5.9814770658	-3.2779069831	-1.8391040333	 0.112981
H	 3.3595212811	-2.9417955004	-1.8686920914	 0.122567
46.0973	89.5484	170.5494	184.5002	225.7813	249.3423	278.529	346.8182	401.5312	458.0433	520.5369	591.432	630.5095	740.237	774.965	822.5101	864.6188	905.9537	953.8829	963.3245	975.9104	1019.2622	1046.1141	1047.9949	1112.0393	1119.8154	1171.5963	1187.7075	1202.9617	1245.2404	1339.0955	1376.6899	1380.1761	1391.9624	1454.9447	1466.8689	1485.5774	1490.2856	1521.9919	1686.3428	1805.4863	2978.5258	2996.0209	3047.0972	3047.997	3112.1043	3121.6359	3144.6761	3156.1817	3212.3956	3240.54
CC(=O)C1(C)OCC=C1	CC(=O)[C@@]1(C)OCC=C1	
InChI=1S/C7H10O2/c1-6(8)7(2)4-3-5-9-7/h3-4H,5H2,1-2H3	InChI=1S/C7H10O2/c1-6(8)7(2)4-3-5-9-7/h3-4H,5H2,1-2H3/t7-/m0/s1
