19
gdb 2403	2.3741741	1.5306248	1.3636424	3.7166	75.51	-0.24361	-0.0289	0.21470999999999998	1061.625	0.155178	-422.531724	-422.522946	-422.522002	-422.565737	32.121	
C	 0.0935854885	-0.4787070462	-3.4987150232	-0.500674
C	 1.0792761018	-1.061469254	-2.5136150545	 0.256359
C	 2.5908942054	-1.111811505	-2.8992416604	-0.291848
C	 2.6622936207	-2.6088496947	-2.4645608015	-0.230306
C	 1.1675316946	-2.5588670308	-2.0792394635	 0.087036
O	 0.9602223472	-2.2244179947	-0.6912812165	-0.289575
C	 0.8145314482	-0.8330427233	-0.9863510746	 0.009805
C	 1.7674805974	 0.084933459	-0.2639573312	 0.145801
O	 2.707513361	-0.26726527	 0.3988279223	-0.247738
H	-0.9409498893	-0.6724282336	-3.1954399959	 0.123968
H	 0.2190673117	 0.6072227167	-3.587800723	 0.124661
H	 0.238383717	-0.9064833846	-4.4966210493	 0.123212
H	 2.7391606914	-0.9662049496	-3.9721812199	 0.10433
H	 3.2542055169	-0.4261859173	-2.3681405005	 0.118592
H	 2.8940029296	-3.2988062993	-3.2796921135	 0.101859
H	 3.3090921495	-2.8245374967	-1.612613281	 0.130607
H	 0.4947879351	-3.3517145912	-2.4175312656	 0.077731
H	-0.2123250994	-0.4807022184	-0.7931919602	 0.086528
H	 1.5337386826	 1.1657799538	-0.4223566179	 0.069653
43.1957	91.7752	181.2765	209.3077	240.3539	272.8197	320.6815	391.2415	427.9303	600.4802	649.2478	727.912	754.9543	805.154	865.2758	873.56	897.1911	940.697	952.7034	980.8364	1023.9458	1034.922	1114.278	1119.6497	1163.3504	1176.8991	1194.538	1220.7772	1241.9643	1249.8192	1275.9724	1310.6719	1339.799	1365.1312	1412.5267	1419.4625	1460.729	1485.76	1491.212	1493.2267	1833.9746	2838.2548	2970.3407	3022.4473	3063.0447	3065.7706	3076.6986	3085.9405	3096.9359	3114.0038	3135.6363
CC12CCC1OC2C=O	C[C@]12CC[C@H]1O[C@H]2C=O	
InChI=1S/C7H10O2/c1-7-3-2-5(7)9-6(7)4-8/h4-6H,2-3H2,1H3	InChI=1S/C7H10O2/c1-7-3-2-5(7)9-6(7)4-8/h4-6H,2-3H2,1H3/t5-,6+,7+/m1/s1
