19
gdb 5475	3.2840672	1.3921061	1.1717522	2.0811	75.44	-0.24562	0.06057	0.30619	1090.1481	0.157206	-422.487907	-422.479888	-422.478944	-422.520184	31.621	
O	 0.9720291236	 0.7497839646	-0.5079085363	-0.420317
C	 0.2949359933	-0.1170366011	 0.4168854334	-0.11638
C	-0.8942512226	 0.5979688554	 1.034129679	-0.106691
C	-2.2015968765	-0.1512262433	 1.3905363263	-0.075869
C	-3.0887212791	 1.1145175786	 1.0916748573	-0.090958
C	-4.0420026964	 0.3134609052	 0.183127712	-0.27691
C	-2.6554667236	-0.2981709774	-0.1006308229	-0.120167
C	-1.9426966073	 1.1161333805	 0.0352588734	 0.439832
O	-1.7488439504	 2.0676803662	-0.9398894768	-0.486463
H	 1.3661300164	 1.4662725209	 0.0012700088	 0.287632
H	-0.033706544	-0.9712326258	-0.1826792919	 0.116546
H	 0.9933905975	-0.4965534899	 1.176129636	 0.093956
H	-0.5731134844	 1.3402262516	 1.7790726922	 0.057634
H	-2.3825672875	-0.8727897715	 2.1845807149	 0.077252
H	-3.3046175354	 1.9163701089	 1.7995992638	 0.069765
H	-4.7688351085	-0.3336680232	 0.6843441578	 0.088258
H	-4.5139162674	 0.8626230592	-0.6360124571	 0.10552
H	-2.3928682717	-1.1083210523	-0.7814028364	 0.071051
H	-0.8813710661	 1.8747556434	-1.3223150737	 0.286309
104.5241	144.7463	227.5112	275.4296	317.7098	361.5599	382.3388	493.6648	513.9042	582.5234	659.9943	738.0804	747.13	863.8943	874.3007	887.5975	912.5777	928.9709	944.2606	1000.8019	1011.8273	1025.5899	1062.8809	1074.6034	1084.3037	1102.6655	1141.149	1150.5114	1156.2481	1200.7001	1214.4172	1224.4209	1243.2566	1278.1769	1303.9836	1369.6259	1405.3699	1417.1061	1429.3967	1505.559	1507.5872	2999.2763	3009.7677	3045.1557	3088.1979	3101.6925	3105.6722	3108.6708	3139.5028	3750.1478	3809.0095
OCC1C2C3CC2C13O	OC[C@@H]1[C@H]2[C@@H]3C[C@H]2[C@]13O	
InChI=1S/C7H10O2/c8-2-5-6-3-1-4(6)7(3,5)9/h3-6,8-9H,1-2H2	InChI=1S/C7H10O2/c8-2-5-6-3-1-4(6)7(3,5)9/h3-6,8-9H,1-2H2/t3-,4+,5-,6-,7-/m1/s1
