19
gdb 1979	2.243092	2.1030074	1.5366326	1.9877	74.	-0.23245	0.06496	0.29741	940.6718	0.157623	-422.527801	-422.520035	-422.519091	-422.559221	32.038	
O	-1.5853699009	 2.2540324267	-0.8744174153	-0.482984
C	-1.4067722524	 2.1085561181	 0.4969441367	 0.421248
C	-1.2448830851	 3.3002015781	 1.4054738987	-0.386006
C	-2.4890034456	 2.4221481258	 1.4882832404	-0.094456
C	-2.4763099036	 1.1150009662	 2.3136216864	-0.044712
C	-2.4214217661	 0.0566292162	 1.157183156	-0.286642
C	-0.9978634589	 0.7020658052	 0.9768027525	 0.339459
O	 0.0284754295	 0.1748309762	 0.1938415296	-0.502963
C	-0.9653964774	 0.8087686158	 2.5239523792	-0.303454
H	-0.7660694138	 1.9572403454	-1.2887844524	 0.289505
H	-0.5114089008	 3.3507223305	 2.2018258276	 0.109074
H	-1.4147241823	 4.2477992957	 0.9038664237	 0.115835
H	-3.4401844621	 2.834638181	 1.1725717126	 0.096663
H	-3.1815438933	 1.0232132192	 3.1378370081	 0.068141
H	-2.3895574783	-0.9775785618	 1.5152850768	 0.080407
H	-3.1256312723	 0.1652721521	 0.329541809	 0.108521
H	 0.1416147408	-0.7553109575	 0.4112683153	 0.284125
H	-0.8214866018	-0.1703620669	 2.9886851514	 0.088597
H	-0.3179731755	 1.5407333343	 3.0064568937	 0.09964
174.2673	208.6715	254.3123	330.3242	343.009	383.6009	435.1268	469.1865	520.1547	552.2381	603.6749	627.905	728.2928	795.3966	841.2536	862.4378	905.0245	925.8895	942.4322	962.2202	987.7509	1016.8864	1022.5069	1046.8178	1061.8658	1080.9528	1095.8808	1125.4542	1159.5457	1193.4672	1202.9444	1226.5178	1263.6441	1275.1068	1294.7598	1327.0629	1390.542	1415.1585	1482.6025	1498.4397	1535.44	3047.3314	3069.5911	3122.1091	3127.5185	3127.7531	3137.797	3181.8414	3215.435	3786.5457	3828.9911
OC12CC1C1CC2(O)C1	O[C@@]12C[C@@H]1[C@H]1C[C@]2(O)C1	
InChI=1S/C7H10O2/c8-6-1-4(2-6)5-3-7(5,6)9/h4-5,8-9H,1-3H2	InChI=1S/C7H10O2/c8-6-1-4(2-6)5-3-7(5,6)9/h4-5,8-9H,1-3H2/t4-,5-,6-,7+/m1/s1
