19
gdb 4838	2.4745484	1.4359938	1.1343498	4.3187	75.29	-0.27267	0.00108	0.27375000000000005	1150.9535	0.155462	-422.560937	-422.551954	-422.55101	-422.594718	33.344	
C	 3.0207743253	-0.5418195082	 0.4988890473	-0.38515
C	 2.4793770955	 0.1176350355	-0.7753116047	-0.260159
C	 1.1634215423	-0.4725392136	-1.2618191046	 0.300046
C	-0.0575415319	-0.1310728825	-0.422315445	-0.461662
C	 0.8726257147	-0.6702719992	-2.7102641349	 0.022144
O	 2.0870104461	-0.9374194327	-3.4596509164	-0.261659
C	 2.2596592726	-2.1343385845	-2.7619228101	 0.464931
O	 3.0831703136	-2.9661596874	-2.9595232267	-0.327462
C	 1.0786461063	-1.9045629692	-1.8617126887	-0.326863
H	 3.206158434	-1.6084397399	 0.3378455863	 0.132337
H	 3.9661376245	-0.0795143905	 0.7973302228	 0.120702
H	 2.3266663072	-0.4436555859	 1.3397135946	 0.115077
H	 2.3221031025	 1.1897458796	-0.6002540681	 0.098461
H	 3.2249247272	 0.0452772865	-1.5714626899	 0.132036
H	 0.0402101799	-0.5211889333	 0.5951150877	 0.135864
H	-0.1792777695	 0.9552163223	-0.3561677707	 0.130098
H	-0.9740640419	-0.5488479015	-0.8506862163	 0.121528
H	 0.0155755226	-0.3287475618	-3.2749286279	 0.126714
H	 0.3941969892	-2.6546989337	-1.4927621847	 0.123018
58.7756	127.9951	184.5075	215.6168	232.9439	259.7378	291.9632	360.3395	464.3477	495.1724	551.8398	637.6981	726.91	781.9498	799.0026	834.2473	848.7223	907.3294	948.1406	963.7975	1011.2162	1018.3838	1038.7966	1063.0052	1074.5236	1100.8435	1128.8665	1186.6881	1251.386	1277.0519	1311.1105	1359.1113	1401.3287	1411.4048	1420.4887	1484.463	1494.9751	1502.3693	1505.5849	1510.3827	1940.1919	3028.5961	3035.9766	3039.4426	3088.4975	3104.1204	3107.8324	3112.1504	3113.8376	3210.6052	3226.6744
CCC1(C)C2OC(=O)C12	CC[C@@]1(C)[C@H]2OC(=O)[C@@H]12	
InChI=1S/C7H10O2/c1-3-7(2)4-5(7)9-6(4)8/h4-5H,3H2,1-2H3	InChI=1S/C7H10O2/c1-3-7(2)4-5(7)9-6(4)8/h4-5H,3H2,1-2H3/t4-,5-,7+/m0/s1
