19
gdb 5319	2.5589116	1.5044295	1.0148339	2.2347	79.81	-0.21869	0.0159	0.23459	1176.8567	0.156976	-422.521974	-422.513363	-422.512419	-422.555568	31.679	
O	-0.1360571928	 1.4618239164	 0.0137568604	-0.412302
C	-0.082087243	 0.0460738262	 0.0408911469	-0.184819
C	-1.4557819622	-0.5009433688	-0.1484214885	 0.142727
C	-2.6147296672	 0.1291184348	-0.3100334682	 0.137728
C	-3.3989655299	 1.3258121199	 0.1821173473	-0.305553
C	-4.3150063624	 0.2590992322	 0.8981128709	-0.253537
C	-3.7497160693	-0.8167732434	-0.1031099808	 0.097725
O	-3.1862837887	-2.0515307739	 0.299678736	-0.279415
C	-1.7769750859	-1.9845347081	 0.0232765879	-0.155922
H	 0.7613866055	 1.7965564597	 0.0965808181	 0.289855
H	 0.586873671	-0.3453329251	-0.7468446592	 0.098408
H	 0.3284360263	-0.3228412191	 0.9989485562	 0.095317
H	-2.8592572877	 2.0470021285	 0.7948360558	 0.125469
H	-3.9421975497	 1.8554936569	-0.606412143	 0.111382
H	-3.971831461	 0.0567662334	 1.914378667	 0.115372
H	-5.3934034877	 0.4352338806	 0.8882408059	 0.098524
H	-4.4366619576	-0.9657409413	-0.9487977986	 0.075065
H	-1.5384893262	-2.5939926476	-0.8643572418	 0.099079
H	-1.2286234915	-2.4179526413	 0.8718128877	 0.104896
68.1907	125.0136	165.1386	174.693	244.4379	267.8195	377.9023	385.0305	449.2511	646.7704	668.5461	704.2673	749.4656	798.9046	878.5929	908.0458	960.6883	977.204	993.4134	1053.1316	1059.441	1074.5447	1098.4582	1117.87	1132.8289	1170.8012	1187.6765	1205.6905	1222.2018	1242.6486	1250.3472	1255.077	1284.0219	1343.4507	1380.3557	1467.4401	1470.4643	1487.4503	1508.686	1520.1674	1771.2226	2931.1586	2942.2943	2961.2858	2994.6079	3012.5901	3059.4969	3065.7596	3131.8601	3143.6535	3835.4278
OCC1=C2CCC2OC1	OC[C]1[C]2CC[C@@H]2OC1	
InChI=1S/C7H10O2/c8-3-5-4-9-7-2-1-6(5)7/h7-8H,1-4H2	InChI=1S/C7H10O2/c8-3-5-4-9-7-2-1-6(5)7/h7-8H,1-4H2/t7-/m0/s1
