19
gdb 616	2.6217113	2.0642526	1.5705174	1.7905	73.15	-0.24978	0.07798	0.32776	912.0539	0.160887	-422.552649	-422.545961	-422.545017	-422.583595	27.476	
C	-0.9658679952	-0.3551632029	-0.9168295285	-0.236498
C	-0.7512895159	-1.5781038062	 0.0027358562	-0.19759
C	 0.1297739711	-1.0542845889	 1.1491054066	 0.109897
O	-0.7381084285	-0.4925790436	 2.1576864176	-0.270497
C	-0.5625880301	 0.8691647677	 2.4055496515	 0.015715
O	-0.6248799932	 1.638763004	 1.2241073589	-0.23808
C	 0.4768934022	 1.358588666	 0.4067935478	 0.090123
C	 0.3296823483	 0.4490957824	-0.7831637603	-0.077186
C	 1.0521504334	-0.0319773548	 0.471492598	-0.155648
H	-1.1500806345	-0.6443706178	-1.9539145711	 0.097074
H	-1.8199560188	 0.2385779715	-0.5774560968	 0.12258
H	-1.6753483009	-2.024660824	 0.3790912058	 0.105087
H	-0.1914990057	-2.3494830442	-0.5397799347	 0.093937
H	 0.703850558	-1.8515053784	 1.6327394767	 0.07964
H	-1.3946148763	 1.1838559954	 3.0392100941	 0.116147
H	 0.3976999056	 1.0618593257	 2.914002258	 0.078685
H	 1.1635132618	 2.1980749095	 0.3154587921	 0.091791
H	 0.8900552135	 0.7100563819	-1.6737094073	 0.086011
H	 2.1244648353	-0.1756098234	 0.5203262755	 0.08881
104.9002	225.5222	336.5931	389.9246	467.6364	519.4361	570.4526	642.0337	678.8439	755.8457	776.5424	809.9234	833.6408	871.4063	914.7684	936.9773	971.9256	984.4823	1019.0866	1035.9856	1044.1664	1059.3284	1100.5713	1113.832	1135.3239	1183.3345	1199.7704	1213.8975	1231.0492	1296.5014	1299.4182	1312.5438	1328.4372	1344.7371	1358.2112	1363.7071	1411.2029	1445.3334	1477.1009	1495.6501	1516.3232	2952.7621	3033.931	3051.6155	3061.0104	3100.5389	3108.5778	3110.96	3117.3823	3171.1146	3183.3314
C1CC2OCOC3C1C23	C1C[C@@H]2OCO[C@@H]3[C@H]1[C@H]23	
InChI=1S/C7H10O2/c1-2-5-6-4(1)7(6)9-3-8-5/h4-7H,1-3H2	InChI=1S/C7H10O2/c1-2-5-6-4(1)7(6)9-3-8-5/h4-7H,1-3H2/t4-,5+,6-,7-/m1/s1
