19
gdb 5121	3.3299238	1.3631514	1.1866874	2.6549	74.64	-0.23908	0.05404	0.29312	1113.7343	0.156413	-422.487819	-422.479693	-422.478749	-422.520661	30.861	
C	 1.3134687768	 0.9929933089	 0.4336453896	-0.377678
C	 0.8247065309	-0.4159865697	 0.06794167	-0.31647
C	 1.4638123844	-0.9296139949	-1.1838279077	 0.432033
O	 2.8389611498	-1.3302503854	-1.1295677212	-0.274386
C	 1.8934547063	-2.2711007202	-1.6445510707	-0.08365
C	 1.636301745	-1.9159570487	-3.1296285188	-0.12702
C	 2.7570250995	-1.1355157646	-3.8565120191	-0.082253
O	 2.2471461107	 0.1350904717	-3.3702724032	-0.2864
C	 1.1782978028	-0.5146630043	-2.6696062006	 0.037366
H	 0.8292339718	 1.3479556408	 1.3478758615	 0.113419
H	 2.3951972939	 0.9946412817	 0.5937266832	 0.138482
H	 1.0931817711	 1.7085957444	-0.3650397293	 0.126694
H	 1.0432546827	-1.1147753295	 0.8834039293	 0.111226
H	-0.264344374	-0.4131204821	-0.0672085974	 0.102623
H	 1.8468636276	-3.240762446	-1.160419886	 0.104197
H	 0.9971058587	-2.589010309	-3.6973036627	 0.086504
H	 3.7784039999	-1.3245586018	-3.515254389	 0.117414
H	 2.7051912665	-1.1838372214	-4.9501352381	 0.099334
H	 0.1906912754	-0.0874962698	-2.8658425901	 0.078565
76.9529	115.8278	192.4757	233.4355	285.7712	335.169	359.5937	496.4072	589.4297	670.3626	727.6986	772.5375	814.1196	837.1479	861.621	894.8533	916.9086	959.8296	977.5759	994.2644	999.9048	1034.8959	1059.6855	1075.9945	1105.1529	1159.1201	1169.1062	1185.6384	1218.5185	1243.5453	1275.5455	1289.3616	1312.8109	1348.9895	1355.8029	1409.9522	1453.1549	1472.5271	1497.8045	1503.5498	1508.6788	3027.274	3032.0849	3041.673	3068.2042	3072.0614	3096.1134	3111.0611	3121.5918	3137.9953	3174.9346
CCC12OC1C1COC21	CC[C@@]12O[C@@H]1[C@@H]1CO[C@H]21	
InChI=1S/C7H10O2/c1-2-7-5-4(3-8-5)6(7)9-7/h4-6H,2-3H2,1H3	InChI=1S/C7H10O2/c1-2-7-5-4(3-8-5)6(7)9-7/h4-6H,2-3H2,1H3/t4-,5+,6-,7+/m1/s1
