19
gdb 3196	3.1029175	1.5986881	1.3872892	2.3412	74.03	-0.24669	0.07276	0.31945	980.6444	0.158391	-422.535067	-422.527572	-422.526628	-422.566325	30.946	
O	 0.2943294888	 0.1883111347	 0.1277022294	-0.457892
C	-0.3689419567	 0.8417850482	 1.1860138645	 0.190728
C	-1.4796479347	 0.0509014827	 1.9229430375	-0.108646
C	-2.0874434793	 1.1776194679	 2.8067427329	-0.3123
C	-0.7321868245	 1.0758939219	 3.5187577306	 0.433388
O	-0.4234553767	 1.6605710586	 4.7378767783	-0.486138
C	-0.6583403821	-0.460772609	 3.1840265112	-0.103683
C	 0.8487469864	-0.3043355339	 2.9321291124	-0.269777
C	 0.4558202448	 1.1223876017	 2.4647045345	-0.109853
H	 0.6418121343	-0.6484637685	 0.4507050878	 0.280334
H	-0.7630086348	 1.7593522427	 0.7412324077	 0.084315
H	-2.1061455779	-0.6130816535	 1.3302051525	 0.07076
H	-2.3964548298	 2.1106421188	 2.324450764	 0.096389
H	-2.8913476531	 0.8107406593	 3.4548848687	 0.087502
H	-1.1203221517	 1.4389385102	 5.3652018565	 0.279879
H	-1.1062134479	-1.2384701103	 3.8025253275	 0.064062
H	 1.3915413395	-0.2753949131	 3.8795674088	 0.115378
H	 1.383338596	-0.968295616	 2.2433053701	 0.074258
H	 1.1693069396	 1.9449233277	 2.4559484549	 0.071295
174.5109	235.0927	287.6756	310.0526	359.0724	369.4266	445.3637	481.5873	500.4233	636.1424	681.2023	708.3069	787.3608	824.6688	861.1208	904.8818	925.2273	940.407	962.8994	988.4362	1000.0071	1040.492	1048.3169	1077.2201	1086.3722	1125.9993	1134.6003	1147.7382	1184.4826	1216.3859	1223.1464	1226.4699	1253.8901	1280.0384	1290.154	1323.7013	1328.2726	1375.3101	1445.6316	1504.8865	1507.7196	3032.5108	3034.6427	3075.6754	3089.9652	3107.037	3116.3064	3131.5794	3136.2772	3801.4048	3825.6069
OC1C2CC3(O)C2CC13	O[C@H]1[C@@H]2C[C@@]3(O)[C@@H]2C[C@@H]13	
InChI=1S/C7H10O2/c8-6-3-2-7(9)4(3)1-5(6)7/h3-6,8-9H,1-2H2	InChI=1S/C7H10O2/c8-6-3-2-7(9)4(3)1-5(6)7/h3-6,8-9H,1-2H2/t3-,4-,5+,6+,7-/m1/s1
