19
gdb 4581	2.5485953	1.4234171	0.971067	1.8298	77.36	-0.25749	0.03205	0.28954	1211.6122	0.156511	-422.525776	-422.516983	-422.516039	-422.558969	33.248	
C	 2.0378574238	-0.2393838081	-1.298405981	-0.416242
C	 1.5649488062	 0.0560206359	 0.124656263	 0.001667
C	 2.6304384835	-0.3205105347	 1.1638253956	-0.101885
O	 2.2286363367	 0.033905559	 2.4780594976	-0.23222
C	 1.939037556	 1.4010399407	 2.5566010565	 0.016905
O	 0.8867406854	 1.7840122153	 1.7090685948	-0.250318
C	 1.2137462052	 1.5490691449	 0.3375980245	-0.076416
C	 0.0944726826	 1.9925177532	-0.4856066516	 0.310643
C	-0.818115278	 2.3364871423	-1.1866610352	-0.414062
H	 2.275201487	-1.3016731661	-1.4155933265	 0.119809
H	 1.2669902292	 0.0187428086	-2.0288396798	 0.137007
H	 2.9405452068	 0.3321893433	-1.544671921	 0.116654
H	 0.6575994368	-0.5172881184	 0.345146433	 0.100029
H	 2.8075600595	-1.3995506136	 1.1689964965	 0.11503
H	 3.5837393395	 0.1791047392	 0.9137161083	 0.086525
H	 1.6122170472	 1.607037676	 3.5773192686	 0.121862
H	 2.845154486	 1.9916686619	 2.3156071448	 0.074363
H	 2.1054287375	 2.1502673639	 0.0776632756	 0.091791
H	-1.6270279607	 2.6516130166	-1.7983812237	 0.198857
98.4071	142.4787	184.3743	213.4545	275.2432	294.8792	383.6068	407.6644	423.9759	461.7456	533.8765	555.3522	623.3224	672.9708	684.6391	840.6968	902.0721	946.7771	962.2873	1001.2537	1035.3813	1061.0261	1091.3828	1134.5777	1155.3893	1170.5075	1200.1028	1253.4895	1308.6219	1319.0275	1332.9397	1363.3679	1380.3272	1401.2146	1413.119	1443.8686	1491.3494	1498.2214	1501.4752	1507.9746	2244.4171	2908.4802	2925.8122	2950.4991	3031.7149	3053.9053	3088.4088	3097.7407	3119.1226	3121.2624	3504.5059
CC1COCOC1C#C	C[C@H]1COCO[C@@H]1C#C	
InChI=1S/C7H10O2/c1-3-7-6(2)4-8-5-9-7/h1,6-7H,4-5H2,2H3	InChI=1S/C7H10O2/c1-3-7-6(2)4-8-5-9-7/h1,6-7H,4-5H2,2H3/t6-,7+/m0/s1
