19
gdb 1387	4.1581872	0.6689407	0.599691	1.3762	78.61	-0.26485	0.03052	0.29536999999999997	1807.8916	0.153927	-422.496786	-422.486671	-422.485727	-422.53289	35.85	
O	-1.494837698	-1.9141651925	 4.2424256162	-0.417631
C	-0.3240380804	-2.4683666446	 3.6420705231	-0.063875
C	 0.402951803	-1.4468076595	 2.7472416523	-0.186693
C	-0.5041970451	-0.8906424532	 1.6435440211	-0.221717
C	 0.1991526407	 0.1393214087	 0.795654155	 0.08884
C	-0.0163121186	 0.2511698821	-0.651441027	-0.180117
O	 1.1701008134	-0.3544024554	-0.1343797397	-0.237696
C	 0.5797183445	-3.0303924125	 4.6493031897	 0.29077
C	 1.3262442026	-3.4445170542	 5.4958279412	-0.434527
H	-1.2060563498	-1.3531937643	 4.9710738783	 0.285398
H	-0.6998461739	-3.2815107671	 3.0077784281	 0.119292
H	 0.7754896634	-0.6318160767	 3.3820098545	 0.096579
H	 1.2817185983	-1.9254985419	 2.3018781834	 0.127917
H	-0.8448395421	-1.7089222373	 0.9974067603	 0.101643
H	-1.396666494	-0.4454111165	 2.0972650395	 0.11687
H	 0.5238900225	 1.0376603763	 1.3258379929	 0.088439
H	-0.7123892626	-0.4284527983	-1.141981284	 0.112546
H	 0.1253293832	 1.2083105232	-1.151824793	 0.113489
H	 1.9800034527	-3.8309884263	 6.238413038	 0.200474
54.6765	61.9252	95.4641	130.9976	190.9805	222.3542	263.9984	301.5041	384.1427	442.0484	456.5202	562.8152	572.4217	631.9469	672.9676	758.5694	809.1582	852.3067	902.5949	947.9668	971.0187	1023.7679	1060.6299	1073.6997	1107.2482	1120.9439	1160.3203	1169.3388	1207.0018	1253.0542	1277.9669	1296.0819	1321.1474	1341.449	1382.8192	1418.8003	1449.6566	1471.868	1489.8072	1531.5942	2232.8612	3020.029	3031.2163	3037.9394	3070.0343	3079.7661	3083.477	3095.3472	3166.1892	3503.0035	3803.8086
OC(CCC1CO1)C#C	O[C@@H](CC[C@@H]1CO1)C#C	
InChI=1S/C7H10O2/c1-2-6(8)3-4-7-5-9-7/h1,6-8H,3-5H2	InChI=1S/C7H10O2/c1-2-6(8)3-4-7-5-9-7/h1,6-8H,3-5H2/t6-,7-/m1/s1
