19
gdb 4453	3.543218	1.1894895	1.0512535	1.6456	78.13	-0.25093	-0.00713	0.2438	1179.1743	0.15771	-422.555203	-422.546927	-422.545983	-422.587961	31.992	
O	 0.4060842081	 0.2183124147	 0.5035524423	-0.438608
C	-0.6143419451	 0.8027270665	 1.3239023583	 0.09104
C	-1.0763836697	 2.1702147115	 0.7986771556	-0.233535
C	-2.0448383968	 2.0184398237	-0.3795418866	-0.306743
C	-3.2486057112	 1.1863766336	 0.0186994334	 0.414308
C	-4.4520943526	 1.1756498594	-0.829825446	-0.24572
O	-4.444938307	 1.9219198627	 0.3819821569	-0.277794
C	-2.9567880034	 0.0276637962	 0.8986821524	-0.094923
C	-1.7726001804	-0.150342185	 1.4898140119	-0.12207
H	-0.0285843774	-0.1851741066	-0.2549328007	 0.27823
H	-0.125915493	 0.9459281732	 2.2945463308	 0.090577
H	-1.576010882	 2.7096870165	 1.6122815116	 0.110342
H	-0.1952632754	 2.7491975997	 0.5079141581	 0.104859
H	-2.3869576915	 2.9913708479	-0.7427538443	 0.112092
H	-1.5312791945	 1.5238121982	-1.2152000492	 0.097071
H	-4.4570183239	 1.765251459	-1.7469560469	 0.112344
H	-5.1021000985	 0.3006255796	-0.8416103519	 0.111604
H	-3.7693626388	-0.6764329816	 1.0584615488	 0.096917
H	-1.594515697	-1.0315115194	 2.1005766954	 0.10001
71.7949	169.4958	200.9438	263.9646	311.6467	375.1784	387.2251	404.5774	445.1001	543.758	607.794	688.9094	725.1391	780.4702	817.9769	844.8592	901.0252	949.6779	974.3453	989.0765	998.2642	1007.7497	1077.6266	1101.1688	1132.0972	1151.1614	1161.9649	1195.7387	1238.9156	1265.8396	1299.4298	1337.9058	1359.0699	1380.2287	1391.5476	1415.1198	1445.4646	1473.8528	1479.6515	1525.4869	1704.5512	3018.6881	3035.0463	3048.7634	3070.0117	3092.2229	3094.7948	3152.5979	3155.5357	3175.0812	3813.8544
OC1CCC2(CO2)C=C1	O[C@H]1CC[C@@]2(CO2)C=C1	
InChI=1S/C7H10O2/c8-6-1-3-7(4-2-6)5-9-7/h1,3,6,8H,2,4-5H2	InChI=1S/C7H10O2/c8-6-1-3-7(4-2-6)5-9-7/h1,3,6,8H,2,4-5H2/t6-,7-/m1/s1
