19
gdb 5654	2.1209775	1.3414485	0.8749838	4.8299	79.9	-0.23199	-0.03989	0.1921	1317.7521	0.156126	-422.599047	-422.589671	-422.588726	-422.633762	33.868	
C	 1.3266279379	 0.7087195465	-0.5451447849	-0.495417
C	 0.0338075111	 0.1071896119	-0.0948684324	 0.328893
C	-0.236542879	-1.2007924522	 0.0377511743	-0.296058
C	-1.6091385973	-1.4192399828	 0.5364672172	 0.390691
O	-2.1490340835	-2.4797651655	 0.7544704603	-0.33659
C	-2.2307715305	-0.0307167827	 0.7461980325	-0.348437
C	-1.1609240883	 0.9752016473	 0.2782937638	-0.126232
C	-1.6412875547	 1.8529212307	-0.8938370708	-0.073259
O	-2.807824066	 2.5910145207	-0.5789591976	-0.408756
H	 1.6914919685	 1.4391122711	 0.1878580071	 0.135252
H	 2.0971615214	-0.0521529353	-0.6886094147	 0.136671
H	 1.2056534225	 1.2525177269	-1.489847918	 0.143524
H	 0.4415051553	-2.0193781506	-0.1718239565	 0.108488
H	-3.1641610453	 0.0614055213	 0.184419213	 0.144168
H	-2.4913506308	 0.0867544803	 1.8022760031	 0.128268
H	-0.8663800633	 1.6546835126	 1.0929204419	 0.074823
H	-0.8302951855	 2.5159812717	-1.231101904	 0.090418
H	-1.9146576557	 1.2119499703	-1.7396028995	 0.119596
H	-2.5901109269	 3.2083858778	 0.1270485051	 0.283955
51.264	113.1611	134.3477	180.9347	182.453	272.4536	298.2399	338.2041	429.9087	502.2976	534.4578	566.8656	579.4671	639.676	836.5095	856.6712	877.8562	911.4813	946.6172	1005.2331	1021.521	1058.3294	1091.3863	1092.9494	1143.3236	1157.9517	1189.3118	1231.0762	1252.9312	1283.2501	1331.5087	1347.7842	1387.7581	1410.6485	1413.2824	1457.2341	1478.3445	1479.442	1508.1845	1678.9257	1812.2195	2981.8971	2989.5092	3024.7531	3067.8221	3070.3633	3073.5675	3108.9748	3122.5493	3210.3949	3811.6637
CC1=CC(=O)CC1CO	CC1=CC(=O)C[C@@H]1CO	
InChI=1S/C7H10O2/c1-5-2-7(9)3-6(5)4-8/h2,6,8H,3-4H2,1H3	InChI=1S/C7H10O2/c1-5-2-7(9)3-6(5)4-8/h2,6,8H,3-4H2,1H3/t6-/m1/s1
