19
gdb 551	3.4066816	1.6807129	1.5106092	2.1903	72.64	-0.23323	0.0787	0.31193	929.0401	0.160958	-422.552121	-422.545645	-422.544701	-422.58268	26.871	
C	-0.5011113834	 1.1688633296	-0.0447900647	-0.114208
O	-0.1133377966	-0.2257661194	-0.075546062	-0.303063
C	 1.2836356297	 0.1111564389	 0.0719311634	 0.129293
C	 0.9654445773	 1.6344443273	 0.0116555394	-0.046859
C	 1.6542880832	 2.0703244519	-1.2980021454	-0.071815
C	 3.1644791782	 1.9616722225	-1.016589818	-0.069797
O	 3.3963071163	 0.542220727	-0.8877218358	-0.283259
C	 2.1439017686	-0.1021821018	-1.1841431093	 0.078127
C	 1.490367667	 0.8302081305	-2.208653071	-0.251114
H	-1.0798598096	 1.4588019924	-0.9309941104	 0.101102
H	-1.0882200379	 1.400499318	 0.8526106218	 0.103153
H	 1.7300519238	-0.3164670185	 0.9739052808	 0.080452
H	 1.2353252036	 2.2586780978	 0.8644440491	 0.079069
H	 1.3387468015	 3.0326366721	-1.7037668891	 0.070425
H	 3.7712592365	 2.3583027595	-1.8413525667	 0.096635
H	 3.46642099	 2.4644869121	-0.0902300021	 0.099193
H	 2.3357277105	-1.1351966086	-1.474040514	 0.078824
H	 2.0632965691	 0.8992822477	-3.1362069661	 0.103364
H	 0.4576522522	 0.5627680012	-2.4339651596	 0.120476
176.6215	274.2851	278.83	367.0336	432.6119	503.1782	576.6224	752.9747	780.7157	827.0564	853.8382	878.1794	902.2953	912.8768	940.9211	951.4321	959.9296	989.9573	1006.5963	1018.3496	1027.6687	1065.6925	1073.2772	1100.681	1132.8044	1161.8718	1182.7135	1204.8369	1225.4039	1251.9812	1272.8331	1282.0531	1292.0172	1313.0038	1335.4033	1349.9279	1364.6487	1381.1208	1490.9496	1524.3491	1527.667	3009.3171	3010.7872	3051.2449	3053.1521	3073.5909	3080.4682	3100.4923	3109.1715	3125.0922	3140.5869
C1OC2C1C1COC2C1	C1O[C@@H]2[C@H]1[C@H]1CO[C@@H]2C1	
InChI=1S/C7H10O2/c1-4-2-8-6(1)7-5(4)3-9-7/h4-7H,1-3H2	InChI=1S/C7H10O2/c1-4-2-8-6(1)7-5(4)3-9-7/h4-7H,1-3H2/t4-,5-,6-,7-/m1/s1
