19
gdb 938	3.4780281	0.8715451	0.7289526	3.7108	76.43	-0.24397	-0.02825	0.21572	1506.0728	0.155662	-422.602741	-422.593689	-422.592745	-422.637864	32.381	
O	 0.5534106574	-0.8615181899	-0.3221188044	-0.237078
C	 0.5520961383	 0.3017338801	-0.014400257	 0.163913
C	-0.2515402294	 0.9013283378	 1.1184118802	-0.29476
C	-1.1451253329	 2.058704189	 0.6527333675	 0.003206
C	-1.8744131845	 2.7843785349	 1.8093763133	-0.232097
C	-2.9969841399	 3.5709104572	 1.1192724425	-0.323046
C	-3.3550450473	 2.7426290059	-0.1225065469	 0.401838
O	-4.3057137212	 2.9190216243	-0.8372855472	-0.306712
C	-2.288830186	 1.6537477406	-0.2947214014	-0.326148
H	 1.1715884947	 1.0427811997	-0.5745540454	 0.071477
H	-0.8397124779	 0.1073448092	 1.5898351113	 0.120549
H	 0.4654123762	 1.2820663679	 1.8612534033	 0.11944
H	-0.5147658724	 2.7967525034	 0.1358704096	 0.084447
H	-2.3012798679	 2.0395856555	 2.4925401987	 0.109361
H	-1.1986436629	 3.4122489222	 2.3960951674	 0.107006
H	-3.8813543807	 3.7565471593	 1.733057967	 0.132556
H	-2.6418568215	 4.5483523381	 0.7670472186	 0.133676
H	-2.7361031688	 0.7017456873	 0.0252338308	 0.137826
H	-2.0110431834	 1.5359859873	-1.3448232578	 0.134546
50.1162	77.0876	81.7754	148.8577	201.5822	326.5028	382.9051	454.168	484.1153	505.8126	557.5997	591.5972	728.3864	787.9664	816.2966	873.705	908.576	952.5256	969.4912	1002.1886	1037.278	1065.9983	1118.473	1149.4055	1164.3675	1179.2914	1218.6606	1255.5673	1266.3149	1278.652	1303.9333	1335.7928	1350.3792	1387.7459	1429.517	1446.4351	1451.9692	1461.1257	1500.712	1837.5783	1850.9059	2845.4696	2999.9518	3006.8892	3024.8319	3034.1028	3038.5559	3087.4078	3094.2701	3106.7637	3110.4092
O=CCC1CCC(=O)C1	O=CC[C@@H]1CCC(=O)C1	
InChI=1S/C7H10O2/c8-4-3-6-1-2-7(9)5-6/h4,6H,1-3,5H2	InChI=1S/C7H10O2/c8-4-3-6-1-2-7(9)5-6/h4,6H,1-3,5H2/t6-/m0/s1
