19
gdb 1305	2.4379868	1.2188859	0.9572267	0.8337	77.88	-0.26042	0.02101	0.28142999999999996	1292.2003	0.152483	-422.507279	-422.4969	-422.495956	-422.542765	37.759	
C	 1.2939274983	-6.5822428084	 3.3981059895	-0.409836
C	 1.6883335858	-5.8593241454	 2.1128624655	 0.078557
O	 1.0280620988	-6.4139539149	 0.9758796309	-0.426883
C	 1.4408524016	-4.350051878	 2.1518694696	-0.02961
O	 0.7517104977	-3.7777993906	 3.2660461244	-0.276923
C	 2.1211793244	-3.3815519363	 3.0434060456	 0.199193
C	 2.3036606787	-1.9426995972	 2.5995832249	-0.470784
C	 3.0878136982	-3.8372406654	 4.017268659	 0.294789
C	 3.9354661148	-4.1497589046	 4.8109700195	-0.423623
H	 1.864174337	-6.2153404685	 4.253207464	 0.140313
H	 0.2323298408	-6.4246641626	 3.6165752451	 0.118106
H	 1.4775947941	-7.6531190231	 3.2785009262	 0.118742
H	 2.7540952578	-6.0208417748	 1.9109412044	 0.104918
H	 0.0844148652	-6.4387999172	 1.1708539256	 0.279968
H	 1.1242551222	-3.9627283391	 1.1812117597	 0.097478
H	 2.219091553	-1.2692374541	 3.457419505	 0.138541
H	 3.2914588763	-1.800722927	 2.1513994995	 0.134338
H	 1.5371169406	-1.6767902961	 1.868040073	 0.131393
H	 4.6736988146	-4.4407618267	 5.5172274986	 0.201321
32.9231	121.6324	151.7214	194.3116	205.5608	229.8642	254.1084	292.928	317.1687	384.7511	402.9983	447.1653	548.0412	602.3088	605.5012	629.4207	666.6183	684.8865	804.7655	870.5699	910.7943	958.8042	1014.9661	1041.9954	1086.232	1109.0276	1120.5643	1142.9771	1239.99	1288.4242	1319.8788	1351.839	1404.9846	1408.3576	1415.6768	1435.8586	1479.2697	1488.6335	1493.7927	1496.8079	2233.4131	3041.0928	3045.4206	3046.5051	3093.7623	3117.0773	3117.4617	3132.087	3144.4366	3499.9598	3796.827
CC(O)C1OC1(C)C#C	C[C@@H](O)[C@H]1O[C@@]1(C)C#C	
InChI=1S/C7H10O2/c1-4-7(3)6(9-7)5(2)8/h1,5-6,8H,2-3H3	InChI=1S/C7H10O2/c1-4-7(3)6(9-7)5(2)8/h1,5-6,8H,2-3H3/t5-,6-,7+/m1/s1
