19
gdb 1616	3.0877311	1.177779	0.9845202	3.0668	78.3	-0.2406	-0.02255	0.21805000000000002	1251.2033	0.155776	-422.550537	-422.541597	-422.540653	-422.584662	33.662	
O	-1.0915183668	 2.6350099823	-3.2052731131	-0.475089
C	-0.4506989245	 2.7958777365	-1.9860858192	 0.356835
C	-1.0097390924	 3.8489070785	-1.045155212	-0.32216
C	 0.2875622684	 4.103977742	-1.760505477	-0.322151
C	 0.095875988	 1.5115452058	-1.4533814847	 0.338808
O	-0.072970801	 0.500296438	-2.1216355383	-0.386432
C	 0.8176832289	 1.4739175559	-0.1565921043	-0.119462
C	 1.9501421476	 0.4621596488	-0.0267045433	-0.251927
C	 0.6655052665	 0.209588866	 0.6809061976	-0.251914
H	-1.0064009349	 1.6846148574	-3.391568138	 0.293624
H	-1.8959182128	 4.3492372042	-1.4180464504	 0.137284
H	-1.0021078282	 3.6646741489	 0.0230610773	 0.122269
H	 0.2685629086	 4.7747695547	-2.6116015317	 0.137284
H	 1.2151471709	 4.1005929949	-1.1995622895	 0.12227
H	 0.9300121737	 2.4068227693	 0.3804168489	 0.093488
H	 2.1551666602	-0.1245809357	-0.9143323179	 0.142727
H	 2.8172598296	 0.7683034838	 0.5468125035	 0.120909
H	 0.0082764775	-0.5466813994	 0.268246286	 0.142723
H	 0.6214689108	 0.3366214179	 1.7562956559	 0.120915
49.3326	76.186	177.5162	216.8813	275.5458	303.9284	375.0715	421.3257	428.1107	471.1955	537.4789	725.5438	740.5159	777.4782	801.6898	829.6072	850.7276	879.2751	916.4111	922.6542	940.0062	1005.3488	1046.7561	1063.6746	1069.6005	1089.1035	1096.9522	1117.299	1126.5531	1196.484	1210.1318	1224.6553	1235.4565	1325.6069	1416.8806	1452.104	1454.7369	1455.3178	1485.0248	1496.7894	1734.007	3141.0379	3141.3412	3143.5071	3145.3165	3192.5347	3226.1301	3231.9839	3240.1798	3246.4928	3663.4001
OC1(CC1)C(=O)C1CC1	OC1(CC1)C(=O)C1CC1	
InChI=1S/C7H10O2/c8-6(5-1-2-5)7(9)3-4-7/h5,9H,1-4H2	InChI=1S/C7H10O2/c8-6(5-1-2-5)7(9)3-4-7/h5,9H,1-4H2
