19
gdb 5867	4.6805668	0.5830344	0.5543537	1.8505	83.89	-0.25234	0.01981	0.27215	2047.7511	0.153273	-422.483763	-422.473243	-422.472299	-422.521084	35.83	
C	 4.8278809126	-0.6898619838	-5.1242915706	-0.219109
O	 4.2127350981	-0.2640987645	-3.9302826774	-0.228004
C	 3.1781200245	-1.1399569012	-3.5267245813	-0.206833
C	 2.5739744348	-0.6704558909	-2.2878855036	 0.043271
C	 2.0715912271	-0.3064292601	-1.2560559132	 0.117065
C	 1.4346629141	 0.144652342	-0.0409903891	 0.211665
C	-0.0575420373	 0.390648686	-0.124447846	-0.467339
C	 2.2518625104	 0.8549570375	 0.9659472668	-0.207798
O	 1.8793821621	-0.5028844239	 1.1697475443	-0.257797
H	 5.2869931629	-1.685568083	-5.0164158663	 0.106319
H	 4.1129591462	-0.7313093827	-5.9617154285	 0.105154
H	 5.6086275041	 0.0359729717	-5.3614235921	 0.132187
H	 2.4062899143	-1.2124725538	-4.3133198169	 0.11557
H	 3.5721027682	-2.1613114121	-3.3810896377	 0.119781
H	-0.4384562626	 0.7189758617	 0.8456604866	 0.128333
H	-0.2790828144	 1.155884172	-0.8743648155	 0.132388
H	-0.5785508609	-0.527440801	-0.4113646522	 0.13612
H	 3.3078550244	 1.0299524448	 0.7695250133	 0.124585
H	 1.7656982515	 1.5821637909	 1.6160360995	 0.114442
25.9675	67.1178	73.4723	122.1562	184.1088	212.3919	232.9106	294.9266	314.6227	356.0218	386.761	462.3785	553.3843	559.4309	663.5138	796.4382	871.3384	925.5751	976.3286	1023.1082	1030.3439	1068.7956	1097.9321	1137.2797	1150.0075	1166.9976	1182.6992	1219.8201	1254.1185	1289.4386	1368.0055	1409.005	1411.6059	1476.9167	1478.4701	1484.8573	1494.0406	1494.4545	1515.8952	1520.4675	2368.38	2943.6863	2961.5842	2969.3665	3012.2221	3044.5726	3080.666	3115.9546	3121.9739	3129.5516	3174.7393
COCC#CC1(C)CO1	COCC#C[C@]1(C)CO1	
InChI=1S/C7H10O2/c1-7(6-9-7)4-3-5-8-2/h5-6H2,1-2H3	InChI=1S/C7H10O2/c1-7(6-9-7)4-3-5-8-2/h5-6H2,1-2H3/t7-/m1/s1
