19
gdb 3951	4.1626142	1.3824877	1.294588	2.4666	74.87	-0.24845	0.06478	0.31323	1037.8308	0.157963	-422.489147	-422.481873	-422.480929	-422.520383	29.485	
C	 3.3223538538	 1.5529417005	 0.5868525176	-0.413534
C	 2.4849793618	 0.2804285148	 0.6560384002	 0.036465
C	 2.2682698499	-0.4263003284	-0.7548090234	-0.34356
C	 2.8453795651	-1.7583505101	-0.3104259675	 0.365414
C	 2.9221759797	-3.2664604373	-0.4976622823	-0.177736
O	 2.7586389162	-3.4265751133	 0.945506112	-0.297038
C	 2.2924784961	-2.0612891389	 1.0870579273	 0.100855
C	 3.2402869737	-0.8918059802	 1.3915643254	 0.005536
O	 4.1134692182	-1.3420166644	 0.3284881752	-0.325282
H	 3.4519521603	 1.9993642004	 1.5786835836	 0.113255
H	 4.3124261882	 1.3299306511	 0.1780228743	 0.135368
H	 2.8482499396	 2.301484326	-0.0563245342	 0.115655
H	 1.5197319378	 0.4902288175	 1.1308889705	 0.074146
H	 1.216952971	-0.4809929063	-1.0471197158	 0.106142
H	 2.8398769773	 0.059250963	-1.549018091	 0.112538
H	 2.0817399106	-3.7131852091	-1.0440761843	 0.105244
H	 3.8753640841	-3.6630367491	-0.8561048129	 0.12502
H	 1.2413988146	-2.0069447881	 1.3821934613	 0.07944
H	 3.7366276922	-0.665179038	 2.337476824	 0.082072
151.6946	243.4834	247.5922	294.6691	350.6995	425.5338	439.5525	503.5586	634.4406	718.8115	751.2387	785.0986	818.9102	855.6969	897.7423	913.4692	926.4245	955.6549	991.3056	1006.0353	1017.5409	1045.7967	1064.0364	1108.2745	1138.0614	1160.5118	1177.0069	1198.1974	1213.9796	1243.1432	1270.0482	1284.1227	1301.0381	1333.1333	1360.4736	1367.6143	1405.0839	1491.8492	1493.923	1496.7161	1507.0364	3022.1659	3032.3421	3040.4294	3067.0615	3075.6059	3096.654	3101.7249	3105.6451	3113.8188	3120.6455
CC1CC23COC2C1O3	C[C@H]1C[C@]23CO[C@H]2[C@H]1O3	
InChI=1S/C7H10O2/c1-4-2-7-3-8-6(7)5(4)9-7/h4-6H,2-3H2,1H3	InChI=1S/C7H10O2/c1-4-2-7-3-8-6(7)5(4)9-7/h4-6H,2-3H2,1H3/t4-,5-,6-,7-/m0/s1
