19
gdb 1503	2.5007522	1.6009684	1.2999977	4.5506	75.02	-0.25864	0.01367	0.27231	1060.6236	0.156588	-422.605797	-422.597372	-422.596428	-422.638312	32.63	
C	-1.9763325436	-1.0126852956	-2.166900973	-0.415317
C	-2.0630391889	-0.7433402358	-0.6629385735	 0.337468
C	-3.15293967	-1.5841986142	-0.0048161946	-0.416622
O	-0.7888457865	-1.1307896592	-0.0725174636	-0.261752
C	 0.0172169263	-0.0521316888	 0.1701194896	 0.427819
O	 1.1821395824	-0.1669735886	 0.4210678139	-0.349196
C	-0.8024960717	 1.1954329407	 0.0779662838	-0.181896
C	-1.9912224721	 1.2142322364	 1.0247784672	-0.310886
C	-2.1684726114	 0.7586763099	-0.3884463894	-0.062131
H	-1.7461785393	-2.0654407869	-2.3498855987	 0.132989
H	-2.926798637	-0.7744693289	-2.6552366633	 0.117659
H	-1.1910692196	-0.4034718769	-2.623908732	 0.126119
H	-3.1868470722	-1.4134794968	 1.0735291068	 0.124761
H	-4.130341195	-1.3287549812	-0.4254568771	 0.120031
H	-2.9702665432	-2.6482078279	-0.1785806215	 0.131635
H	-0.3078632275	 2.1150448141	-0.2017513763	 0.117887
H	-2.0171257255	 0.491011292	 1.8327217596	 0.134674
H	-2.3768744641	 2.1935636115	 1.2838135604	 0.126984
H	-2.7518784811	 1.3574362761	-1.077507298	 0.099773
109.9136	190.978	209.0913	245.4256	250.982	334.1361	343.6496	381.8279	487.3742	506.0098	593.6862	634.1334	755.4296	774.2445	799.2461	846.0099	918.5353	937.6345	939.583	968.4368	988.5217	996.0057	1028.0631	1059.9914	1078.629	1101.9446	1158.1975	1197.4671	1208.0622	1233.0375	1285.6085	1331.1753	1375.096	1401.7087	1420.8392	1474.3905	1481.4217	1488.0338	1497.5359	1505.1849	1877.6397	3039.3427	3047.8774	3111.8973	3118.8151	3125.4158	3129.0099	3137.5913	3184.7111	3216.2333	3226.9821
CC1(C)OC(=O)C2CC12	CC1(C)OC(=O)[C@@H]2C[C@H]12	
InChI=1S/C7H10O2/c1-7(2)5-3-4(5)6(8)9-7/h4-5H,3H2,1-2H3	InChI=1S/C7H10O2/c1-7(2)5-3-4(5)6(8)9-7/h4-5H,3H2,1-2H3/t4-,5+/m1/s1
