19
gdb 2206	2.4769985	1.8979109	1.5195594	1.6728	73.36	-0.2169	0.05911	0.27601000000000003	948.2726	0.158892	-422.571387	-422.563901	-422.562957	-422.602558	31.035	
O	-1.4800744847	-1.1895757915	-0.3983753749	-0.495576
C	-1.8370297587	-0.1094246118	 0.3934045295	 0.38776
C	-2.4772160749	-0.3090003463	 1.7543229349	-0.273249
C	-2.5453729804	 1.1954266426	 2.1345858594	-0.051355
C	-3.2701166799	 1.8075621135	 0.9047196908	-0.218886
C	-2.3429374152	 1.2256428868	-0.1551252097	-0.183171
C	-0.967787784	 1.1270739252	 0.4869203918	 0.328253
O	 0.1638397889	 1.2369113324	-0.3201887458	-0.48939
C	-1.0827718674	 1.66523833	 1.9055418074	-0.297182
H	-0.7313057835	-0.8993035008	-0.9363258367	 0.278551
H	-3.4655531448	-0.777827963	 1.704823271	 0.100276
H	-1.8458616188	-0.8922314657	 2.4332254167	 0.093324
H	-2.9719461077	 1.4218218596	 3.1110813	 0.06758
H	-4.3026056274	 1.4557291147	 0.8089486347	 0.097525
H	-3.2764427564	 2.9027336349	 0.9239596699	 0.095319
H	-2.4450851425	 1.3904283717	-1.2198381599	 0.089253
H	 0.8999640897	 0.8247032938	 0.1477692225	 0.285012
H	-0.3773306284	 1.19519712	 2.6016639312	 0.086177
H	-0.968063784	 2.752522364	 1.9680745471	 0.09978
199.9344	237.2939	245.6347	360.1731	389.3229	419.8278	426.4434	437.2544	518.1327	594.7358	614.4661	690.3431	717.4844	801.4698	894.5893	898.4755	902.1389	925.5231	927.6968	962.2985	977.1547	1016.1049	1059.5802	1105.9849	1129.0603	1140.7419	1147.2898	1179.6049	1189.1311	1225.0147	1272.3284	1280.5441	1298.6818	1304.6642	1340.7833	1350.8682	1412.1597	1456.0753	1491.8874	1493.0895	1522.8251	3029.6209	3038.6703	3043.6445	3078.7121	3083.7082	3087.7695	3122.5793	3205.1016	3753.6122	3778.4865
OC12CC3CC1C2(O)C3	O[C@]12C[C@@H]3C[C@H]1[C@@]2(O)C3	
InChI=1S/C7H10O2/c8-6-2-4-1-5(6)7(6,9)3-4/h4-5,8-9H,1-3H2	InChI=1S/C7H10O2/c8-6-2-4-1-5(6)7(6,9)3-4/h4-5,8-9H,1-3H2/t4-,5+,6+,7-
