19
gdb 5612	2.7864118	1.2819623	0.9512267	3.0279	78.33	-0.23841	-0.04955	0.18886000000000003	1248.8005	0.155841	-422.579589	-422.570368	-422.569424	-422.613963	33.262	
C	 1.5219967674	 0.1042903709	-0.0892174635	-0.236644
O	 0.1507540196	-0.1798308332	 0.084214688	-0.248461
C	-0.4565371614	 0.5224679867	 1.151366211	 0.068504
C	-1.9525382199	 0.3460689674	 1.0373453123	-0.074924
C	-2.5275419252	-0.0180713497	 2.1864836503	-0.187453
C	-1.499509805	-0.1697781223	 3.2434672257	 0.376652
O	-1.6851592084	-0.3754721833	 4.4200997993	-0.335026
C	-0.1203459466	 0.0077315222	 2.5747964102	-0.121605
C	 0.8184237854	 0.8604774631	 3.4288740717	-0.412526
H	 2.1320474593	-0.2523943556	 0.7532276435	 0.112915
H	 1.8445425618	-0.4128564301	-0.9959195899	 0.131372
H	 1.6991689243	 1.1842192711	-0.2120938249	 0.106742
H	-0.2017589365	 1.5949354163	 1.0691117502	 0.079215
H	-2.4534707841	 0.5176665325	 0.091240775	 0.124955
H	-3.5823637748	-0.1759335408	 2.3721854984	 0.12208
H	 0.2946437278	-1.0016967794	 2.4560129577	 0.117006
H	 0.841181632	 0.4703825827	 4.4497496041	 0.143864
H	 1.8374703146	 0.8648973397	 3.0321873915	 0.113861
H	 0.4709393399	 1.8982454416	 3.4782947694	 0.119474
53.4898	96.6379	184.8192	195.7642	207.1638	254.6668	295.7602	308.4124	400.0231	479.6584	536.3883	595.2099	686.9889	749.7815	776.8449	834.0633	901.7242	988.1812	998.5231	1012.4026	1053.6061	1079.8389	1112.614	1145.6675	1151.1045	1174.059	1181.8886	1214.5175	1251.494	1286.2875	1339.8821	1347.3033	1379.817	1408.3609	1478.2178	1489.3301	1494.8146	1501.4421	1508.9993	1657.5303	1815.0206	2934.5998	2978.8633	3030.0314	3032.6677	3039.4583	3105.9141	3117.1488	3124.9706	3199.6392	3228.2527
COC1C=CC(=O)C1C	CO[C@H]1C=CC(=O)[C@@H]1C	
InChI=1S/C7H10O2/c1-5-6(8)3-4-7(5)9-2/h3-5,7H,1-2H3	InChI=1S/C7H10O2/c1-5-6(8)3-4-7(5)9-2/h3-5,7H,1-2H3/t5-,7-/m0/s1
