19
gdb 3663	2.8950853	1.3503824	1.231088	0.8791	76.05	-0.24377	0.07547	0.31923999999999997	1115.6958	0.155692	-422.496102	-422.487588	-422.486644	-422.528792	32.869	
C	-0.0285208255	-0.4432323832	-0.2852780311	-0.413938
C	 0.8408935619	 0.3682567529	 0.6384021362	-0.091517
O	 2.0328857471	-0.3010557344	 1.1559558764	-0.339317
C	 2.1842014392	 0.8042771668	 0.2968969942	 0.476358
C	 3.0553734242	 0.9186609187	-0.9626895322	-0.169309
C	 2.7414363618	 2.4500302307	-0.9098192324	-0.258521
C	 3.0511026163	 2.050974513	 0.5545319972	 0.305037
O	 3.0179228379	 2.9214068905	 1.6213931337	-0.470964
C	 4.2532068296	 1.2043454987	-0.0020362997	-0.29753
H	-0.5984404816	-1.1894472327	 0.2780804119	 0.130224
H	-0.7444452614	 0.2052326171	-0.8021061237	 0.123744
H	 0.5754869325	-0.9628300038	-1.0332068427	 0.12633
H	 0.307966716	 0.9315178302	 1.4066385234	 0.094902
H	 3.0575247794	 0.2783562112	-1.839881902	 0.089952
H	 3.4794294179	 3.0959632453	-1.3898051813	 0.101162
H	 1.7173875186	 2.7585965635	-1.1327015055	 0.097926
H	 3.159162315	 2.4104557572	 2.4268209069	 0.291057
H	 5.0805749177	 1.7770733585	-0.427787787	 0.095621
H	 4.5975148235	 0.3691849698	 0.6111901378	 0.108783
134.3001	151.1338	177.5761	210.6	256.9836	300.0672	375.1405	447.4096	476.834	507.0671	620.2845	644.3518	685.9378	786.5978	806.7787	811.385	936.5648	943.1368	950.8625	965.1509	1011.112	1031.7068	1037.1267	1073.556	1104.3103	1107.5973	1126.7831	1153.745	1178.0538	1191.7727	1203.6236	1225.4375	1303.5116	1353.693	1384.9739	1409.0494	1477.3662	1489.0023	1491.6905	1521.5408	1573.701	3036.5072	3061.9886	3064.7134	3091.9314	3099.9393	3126.9798	3133.0017	3136.59	3164.6822	3799.5232
CC1OC11C2CC1(O)C2	C[C@H]1O[C@]21[C@H]1C[C@]2(O)C1	
InChI=1S/C7H10O2/c1-4-7(9-4)5-2-6(7,8)3-5/h4-5,8H,2-3H2,1H3	InChI=1S/C7H10O2/c1-4-7(9-4)5-2-6(7,8)3-5/h4-5,8H,2-3H2,1H3/t4-,5-,6-,7-/m1/s1
