19
gdb 5584	3.7909543	1.1058938	0.9796036	1.3736	74.74	-0.23104	0.07104	0.30208	1239.1769	0.157401	-422.514053	-422.505939	-422.504995	-422.546906	31.215	
O	 1.4216507655	 0.7102570042	-0.5284780585	-0.416853
C	 0.1168553206	 0.3384728176	-0.1025490321	-0.11477
C	-0.8141051539	 0.4244816208	-1.2825089389	-0.059445
C	-2.2474571566	 0.8284652966	-1.0350165325	 0.075705
O	-3.2391897659	 0.4261029023	-1.9477280874	-0.262366
C	-3.1164051253	 1.1524564832	-3.1498782214	 0.100778
C	-1.9626878261	 0.8528519486	-4.0698574339	-0.326912
C	-1.8767806113	 2.0110566843	-3.0918747545	-0.082514
C	-1.305935073	 1.7970364018	-1.7065699953	-0.078705
H	 2.0242102131	 0.5805972783	 0.210253079	 0.285453
H	 0.1079683611	-0.6871063326	 0.2994500717	 0.090921
H	-0.241524369	 1.0048840216	 0.700070258	 0.079836
H	-0.626512385	-0.3136937238	-2.0539967671	 0.09489
H	-2.6228087169	 0.9282516678	-0.0209960452	 0.094489
H	-4.0742955698	 1.4720785567	-3.5463709383	 0.097721
H	-1.3725157842	-0.0406171338	-3.908919295	 0.124928
H	-2.0967269741	 1.1127623266	-5.1151425133	 0.11082
H	-1.8609607991	 3.021838728	-3.4804723888	 0.092427
H	-0.9079485003	 2.663311872	-1.1920421066	 0.093596
74.4185	128.7341	209.3933	264.7403	283.3875	313.1292	384.1984	484.3527	523.1984	704.4141	713.153	771.2362	782.9528	829.5392	873.3508	921.3462	937.1968	968.0095	992.5002	1012.6571	1028.8985	1053.1659	1059.4067	1077.8452	1088.3341	1092.8449	1103.9849	1136.5566	1166.1465	1196.9742	1211.4644	1247.7347	1260.676	1298.2349	1310.0659	1344.2173	1382.0777	1427.5846	1466.6632	1480.9624	1517.9371	2955.6693	2988.4964	3137.197	3150.4529	3163.953	3174.5387	3179.429	3190.9675	3228.1447	3822.0964
OCC1C2OC3CC3C12	OC[C@H]1[C@@H]2O[C@@H]3C[C@@H]3[C@H]12	
InChI=1S/C7H10O2/c8-2-4-6-3-1-5(3)9-7(4)6/h3-8H,1-2H2	InChI=1S/C7H10O2/c8-2-4-6-3-1-5(3)9-7(4)6/h3-8H,1-2H2/t3-,4+,5+,6+,7-/m0/s1
