19
gdb 2455	2.4689315	2.1816448	1.5537542	1.3321	72.58	-0.24374	0.08366	0.3274	910.8356	0.160026	-422.557967	-422.551209	-422.550265	-422.588526	28.747	
O	 0.1245386419	 0.2449845052	 0.6707237262	-0.513582
C	-1.0013892707	 1.0052722705	 0.3611666284	 0.492995
C	-1.2525374061	 2.1489102817	 1.3362112294	-0.292907
C	-2.8005097102	 2.3211136803	 1.2707758274	-0.22062
C	-3.1934029397	 1.5630709265	-0.0128755504	-0.053939
C	-2.4419003625	 2.1984763543	-1.2242560259	-0.224957
C	-1.2224941076	 1.268496195	-1.1749483644	-0.011001
O	-1.8652962479	-0.047603975	-1.2621202352	-0.324377
C	-2.3391285864	 0.2613505303	 0.0768676559	 0.008352
H	 0.1503269005	-0.4786725056	 0.0306445901	 0.283679
H	-0.9037127693	 1.8680535986	 2.3329180217	 0.114963
H	-0.7150400646	 3.0577884604	 1.0489069689	 0.105544
H	-3.2718875831	 1.8610214401	 2.1465822169	 0.101047
H	-3.1151860268	 3.36815429	 1.2472932815	 0.101174
H	-4.2656566044	 1.4304654247	-0.1548618126	 0.069549
H	-2.9703707262	 2.0764771135	-2.1721712319	 0.10982
H	-2.2109963993	 3.257471716	-1.0782703387	 0.097859
H	-0.395508257	 1.4063823459	-1.873063635	 0.076695
H	-2.7057253807	-0.5972664723	 0.6396571277	 0.079708
212.4396	274.4509	325.8826	379.9504	418.5961	484.9541	504.9726	579.5821	627.4331	678.4474	725.535	806.1869	836.3052	854.7674	896.8368	905.8761	932.2115	949.3419	960.0354	996.5619	1017.1156	1026.4612	1066.3214	1095.4465	1120.8037	1138.4857	1176.9138	1201.6986	1214.6435	1235.6736	1259.3699	1277.3382	1291.9046	1307.4532	1315.8081	1347.8803	1362.3291	1412.8527	1483.486	1488.1097	1508.618	3040.6012	3057.1462	3061.9527	3086.8061	3106.5946	3109.5598	3113.1106	3117.162	3126.2749	3765.8296
OC12CCC3CC1OC23	O[C@@]12CC[C@H]3C[C@@H]1O[C@@H]23	
InChI=1S/C7H10O2/c8-7-2-1-4-3-5(7)9-6(4)7/h4-6,8H,1-3H2	InChI=1S/C7H10O2/c8-7-2-1-4-3-5(7)9-6(4)7/h4-6,8H,1-3H2/t4-,5-,6+,7-/m0/s1
