19
gdb 5314	2.1258318	1.628704	1.0281763	2.7845	77.92	-0.23476	-0.00009	0.23467	1187.4779	0.15623	-422.550267	-422.541323	-422.540379	-422.584045	33.057	
C	 2.5776670629	 0.5928692937	-1.3302062675	-0.494154
C	 1.6507245282	 1.2132616043	-0.3326259527	 0.185661
C	 0.7279534936	 0.6158454156	 0.4425166349	 0.184386
C	 0.3602438254	-0.8310351455	 0.5419917107	-0.174317
O	-1.0356429096	-1.038149216	 0.341703217	-0.4137
C	-0.0417207114	 1.6479348583	 1.2095515702	-0.03809
O	-0.7615641753	 2.5699832459	 0.3541827387	-0.265939
C	 0.5196471957	 2.9588371155	 0.8552636947	 0.033995
C	 1.665710966	 2.7208915197	-0.1166322631	-0.327615
H	 3.6251255388	 0.7818439102	-1.0616719225	 0.130068
H	 2.4445102748	-0.4879012413	-1.4142692581	 0.128941
H	 2.4294135485	 1.0327893198	-2.3245343014	 0.131442
H	 0.9610639317	-1.4402487716	-0.1487935225	 0.091788
H	 0.5595953413	-1.2094734155	 1.5529766206	 0.113648
H	-1.284139412	-0.5607405562	-0.4572336478	 0.288459
H	-0.5309974509	 1.4188124554	 2.151141606	 0.09903
H	 0.5206745712	 3.815023021	 1.5242232587	 0.094752
H	 1.5274185049	 3.2709937398	-1.0559471753	 0.121611
H	 2.6225790863	 3.054831587	 0.3074450091	 0.110037
74.9673	115.3157	156.7437	172.6932	263.264	317.4207	338.1429	355.6907	428.7762	433.8654	577.2797	614.1262	725.6272	776.3149	843.2368	860.7104	880.6012	917.1452	968.7699	978.4285	1006.4771	1042.7052	1064.1272	1103.7533	1122.5291	1185.1252	1188.5555	1213.7248	1244.6099	1260.3236	1310.0353	1354.2092	1363.8972	1410.1064	1419.8268	1423.2098	1458.2076	1479.449	1484.276	1504.2096	1713.7409	2996.8144	3016.5298	3021.1866	3039.1229	3055.2627	3063.1429	3121.0416	3149.2935	3169.6755	3808.9501
CC1=C(CO)C2OC2C1	CC1=C(CO)[C@@H]2O[C@@H]2C1	
InChI=1S/C7H10O2/c1-4-2-6-7(9-6)5(4)3-8/h6-8H,2-3H2,1H3	InChI=1S/C7H10O2/c1-4-2-6-7(9-6)5(4)3-8/h6-8H,2-3H2,1H3/t6-,7+/m1/s1
