19
gdb 3083	3.0232483	1.5527397	1.4385982	2.1717	73.4	-0.23119	0.06766	0.29885	985.696	0.158722	-422.519752	-422.512397	-422.511453	-422.550947	30.213	
O	 0.4989735179	 0.4441458097	 0.4543742324	-0.448845
C	-0.5646762023	 0.6418666964	-0.4514854885	 0.141687
C	-1.9689920468	 0.1837330019	 0.0460871744	 0.092304
C	-2.1097125043	 1.5886398986	 0.7040760445	-0.27933
C	-1.1711390194	 2.0798775827	-0.4502181882	-0.094703
C	-2.0983227069	 2.3005298049	-1.6406340554	-0.054338
C	-2.0019297348	 1.5021471823	-2.92528567	-0.334421
C	-3.0241421646	 1.1378992242	-1.8719754418	 0.106765
O	-2.8556072751	 0.003512825	-1.055125121	-0.271633
H	 0.3023668225	 0.9001481484	 1.2787438561	 0.282024
H	-0.2239656551	 0.215271256	-1.3951878823	 0.084571
H	-2.044329303	-0.7176005925	 0.6566044241	 0.081055
H	-3.1090143533	 2.0244522808	 0.766576089	 0.105869
H	-1.6482054044	 1.6152469387	 1.6953483223	 0.092178
H	-0.4784482473	 2.9084379265	-0.2842939718	 0.068373
H	-2.5165634788	 3.3013071379	-1.703860729	 0.092166
H	-2.3740569501	 1.9721722971	-3.8295623218	 0.110995
H	-1.1623412723	 0.8376267475	-3.0858648909	 0.127714
H	-4.0724466019	 1.3066463841	-2.096774932	 0.097568
204.434	221.0652	264.4033	301.0291	322.2561	435.0314	457.7049	481.397	511.3974	659.2571	744.6585	806.4357	812.31	857.6063	888.3266	904.6142	925.9961	959.4267	967.38	1004.7153	1012.1091	1059.6743	1077.5264	1089.3487	1114.0227	1117.7336	1133.286	1148.8051	1174.7993	1219.901	1224.5644	1253.2387	1264.6467	1277.7506	1310.5891	1345.7986	1361.5942	1401.5619	1439.6941	1488.9042	1495.5144	3058.054	3079.483	3103.0403	3111.964	3117.2448	3139.1499	3142.6976	3156.8941	3232.8027	3821.3307
OC1C2CC1C1CC1O2	O[C@H]1[C@H]2C[C@@H]1[C@H]1C[C@H]1O2	
InChI=1S/C7H10O2/c8-7-4-2-6(7)9-5-1-3(4)5/h3-8H,1-2H2	InChI=1S/C7H10O2/c8-7-4-2-6(7)9-5-1-3(4)5/h3-8H,1-2H2/t3-,4-,5-,6-,7-/m1/s1
