19
gdb 934	3.815833	0.9971337	0.8875733	3.8846	75.74	-0.24325	-0.01768	0.22557	1321.9275	0.15648	-422.526947	-422.518393	-422.517449	-422.561814	30.679	
O	 1.5488516271	-0.0610757755	-0.1646081519	-0.242364
C	 0.3581936366	 0.1172878219	-0.1167323368	 0.15323
C	-0.3802293945	 0.7210500652	 1.0550451367	-0.288406
C	-1.1392821083	 1.992583765	 0.6644489443	-0.006678
C	-2.028059321	 2.6750104654	 1.7573396863	-0.270323
C	-3.2539428245	 2.6284117528	 0.802175102	-0.072879
C	-4.0738750477	 1.3339697626	 0.8969792389	-0.07706
O	-3.1420038783	 0.6277967995	 0.0383784702	-0.29415
C	-2.4003858309	 1.8374865688	-0.2284434785	 0.103711
H	-0.2954041066	-0.1613186191	-0.9756281983	 0.082061
H	-1.1136683161	-0.0176057285	 1.4037784448	 0.128768
H	 0.3359568913	 0.9222527471	 1.8571599123	 0.115865
H	-0.4524830169	 2.7202712586	 0.2182422191	 0.085536
H	-2.1533644203	 2.0957067331	 2.677186373	 0.103474
H	-1.7010279534	 3.6807323133	 2.0281560361	 0.110376
H	-3.7770918533	 3.5594330068	 0.5917281436	 0.081772
H	-4.1609660923	 0.8725015447	 1.8885359616	 0.103464
H	-5.0683377235	 1.3857871607	 0.4356822678	 0.105505
H	-2.3235023472	 2.0463586175	-1.2990699913	 0.078099
38.7277	53.4268	94.2999	188.6082	252.444	348.179	365.9662	476.3713	538.3809	651.641	760.5762	795.0946	839.0316	848.7115	905.6583	924.8486	940.2643	978.1516	1001.0222	1011.5157	1033.6711	1075.071	1096.303	1132.0962	1149.2616	1168.372	1187.3744	1219.2778	1223.2632	1265.5895	1281.0104	1299.4517	1314.6979	1323.431	1355.1214	1364.768	1429.8548	1457.0221	1482.9841	1523.8751	1832.2765	2866.031	3010.0569	3031.4334	3044.8269	3054.7624	3057.1696	3069.4257	3100.7153	3112.4868	3129.798
O=CCC1CC2COC12	O=CC[C@@H]1C[C@@H]2CO[C@H]12	
InChI=1S/C7H10O2/c8-2-1-5-3-6-4-9-7(5)6/h2,5-7H,1,3-4H2	InChI=1S/C7H10O2/c8-2-1-5-3-6-4-9-7(5)6/h2,5-7H,1,3-4H2/t5-,6-,7-/m1/s1
