19
gdb 473	3.2660908	1.3357311	1.2120803	1.513	74.19	-0.24793	0.09182	0.33975	1095.0671	0.15808	-422.521428	-422.513638	-422.512694	-422.554224	29.701	
C	 0.4738619849	-1.2608732929	 3.4832945428	-0.191722
O	 0.0836907535	 0.0103367541	 2.9607216878	-0.226911
C	-0.3778432949	-1.1675429575	 2.2925270182	 0.067319
C	 0.1107982406	-1.4401381883	 0.8810167166	 0.062657
O	-0.811131339	-0.9077395525	-0.0790600827	-0.274581
C	-0.386589238	 0.4088643175	-0.444255355	-0.100086
C	 1.1235557549	 0.3927691194	-0.323575272	-0.035915
C	 1.820072282	-0.8060547195	-0.9143993954	-0.312528
C	 1.4463001662	-0.7972410391	 0.5464388794	-0.04186
H	 1.5303464157	-1.5053381849	 3.3809904324	 0.113112
H	 0.0301927054	-1.5315083396	 4.4403548952	 0.118063
H	-1.445570029	-1.3567335445	 2.4129264941	 0.102547
H	 0.1026893062	-2.5274566368	 0.7249749836	 0.088133
H	-0.7591242482	 0.5921024589	-1.4577612274	 0.10605
H	-0.81338395	 1.167004162	 0.2289812728	 0.10606
H	 1.6515003306	 1.3320500286	-0.2143488965	 0.092377
H	 1.2565388078	-1.4487399136	-1.584015917	 0.121551
H	 2.8716563791	-0.7040347671	-1.1576672715	 0.110759
H	 2.2200445222	-0.7489215641	 1.3011820644	 0.094976
57.5867	122.9133	179.1865	276.8026	297.8138	376.8137	442.6853	544.3033	692.7177	739.7068	788.8745	812.9968	822.4224	881.3607	895.6436	919.7206	940.5043	968.878	1003.326	1022.6273	1060.4964	1080.0884	1087.0778	1099.1689	1108.187	1119.0377	1124.5129	1159.3773	1170.24	1200.7322	1235.9227	1275.9025	1305.5647	1338.7081	1358.2413	1375.2458	1403.9158	1424.8049	1480.955	1516.5823	1530.7478	2996.7117	3018.8482	3067.5168	3083.8201	3105.5297	3128.2327	3167.9559	3188.2876	3198.2905	3219.403
C1OC1C1OCC2CC12	C1O[C@H]1[C@H]1OC[C@@H]2C[C@H]12	
InChI=1S/C7H10O2/c1-4-2-9-7(5(1)4)6-3-8-6/h4-7H,1-3H2	InChI=1S/C7H10O2/c1-4-2-9-7(5(1)4)6-3-8-6/h4-7H,1-3H2/t4-,5-,6+,7-/m0/s1
