19
gdb 4436	2.4094552	1.3947507	1.2354898	3.4683	76.44	-0.23188	-0.02145	0.21043	1119.4646	0.156127	-422.554327	-422.545528	-422.544584	-422.588444	32.737	
O	-1.7260649249	 2.0191823642	-2.0613667765	-0.417851
C	-0.9135775994	 2.1421565606	-0.9296542063	 0.10092
C	-1.2324427329	 3.1992913642	 0.1525050689	-0.267596
C	-0.790807327	 2.1678641423	 1.2243014541	-0.299641
C	-0.9484123024	 1.0271386254	 0.1885903342	 0.202153
C	-2.1359272366	 0.0205253825	 0.1923633917	-0.318642
C	-1.1546463898	-1.1526451932	-0.1211722548	-0.336286
C	 0.0013502222	-0.1598723497	 0.0822441977	 0.337856
O	 1.1926754426	-0.2618336708	 0.172738802	-0.309916
H	-2.6435304426	 2.1213211623	-1.7872051716	 0.283527
H	 0.111841581	 2.2418857599	-1.297868288	 0.113472
H	-0.713345206	 4.1588205489	 0.0980615459	 0.109674
H	-2.3110211753	 3.3883335934	 0.2034762313	 0.095707
H	 0.2576180111	 2.2840165377	 1.5118565254	 0.127944
H	-1.3996468884	 2.0898559513	 2.1274835024	 0.107194
H	-2.6216075594	-0.0686189451	 1.1668938606	 0.109877
H	-2.8981781521	 0.1925630993	-0.5708148618	 0.094947
H	-1.1621934345	-2.0125623282	 0.5536545729	 0.12856
H	-1.2113816455	-1.5182206751	-1.1514181479	 0.1381
42.6942	92.4299	130.4073	225.145	258.4074	323.9495	380.4044	422.7659	496.0176	528.183	590.8734	661.8269	726.6941	737.023	780.9683	844.0954	871.7658	930.2708	942.4016	963.7755	1034.5785	1050.88	1080.0675	1110.5061	1145.2941	1160.2162	1186.2561	1210.409	1220.7664	1232.935	1244.3024	1261.7287	1282.951	1293.4557	1321.302	1428.2226	1433.9239	1476.1925	1479.7446	1493.0999	1876.7133	3040.5698	3057.928	3064.2529	3067.3597	3072.9411	3105.3749	3107.6957	3121.8751	3123.8859	3811.8926
OC1CCC11CCC1=O	O[C@H]1CC[C@]21CCC2=O	
InChI=1S/C7H10O2/c8-5-1-3-7(5)4-2-6(7)9/h5,8H,1-4H2	InChI=1S/C7H10O2/c8-5-1-3-7(5)4-2-6(7)9/h5,8H,1-4H2/t5-,7+/m0/s1
