19
gdb 4006	4.2038716	1.0255581	1.0183362	2.0279	75.48	-0.243	0.06618	0.30918	1233.2612	0.156807	-422.493941	-422.485671	-422.484727	-422.526946	31.204	
O	 0.5820813697	 0.6535046129	 0.095132814	-0.437922
C	-0.5748428908	 0.9567672675	 0.8441857751	 0.129849
C	-1.7869283901	-0.0034735419	 0.5764325542	-0.27926
C	-2.5382905395	 1.1580122232	-0.0869175006	-0.131763
C	-1.3448739363	 2.0933373234	 0.1728384574	-0.140254
C	-2.6529952051	 2.305120669	 0.8614964583	 0.29803
C	-3.5626689741	 3.5191051883	 0.6835640226	-0.154271
O	-3.8844180409	 3.5090579905	 2.0905873734	-0.276884
C	-3.0322937393	 2.3694987978	 2.3424066244	-0.145886
H	 0.9959676658	-0.1226890604	 0.4866037985	 0.282623
H	-0.3224148566	 1.1196410576	 1.9033418241	 0.062706
H	-1.4859395757	-0.7720101037	-0.1388141728	 0.110584
H	-2.2691825788	-0.4759025462	 1.4393546587	 0.092016
H	-3.1752019872	 1.0833897625	-0.9614455924	 0.087249
H	-0.8895491776	 2.8454499459	-0.4611838933	 0.095563
H	-3.0673515656	 4.4516840753	 0.3823007642	 0.102868
H	-4.4515406962	 3.3669805914	 0.0569085635	 0.101912
H	-2.2197808818	 2.6135218585	 3.0395863204	 0.101441
H	-3.5976202798	 1.5137738482	 2.7344090302	 0.101399
84.7377	122.3318	171.8062	223.5476	280.9001	311.6574	405.0377	421.7033	473.4541	586.6918	734.0598	827.4088	851.7106	862.4167	874.1178	941.2081	956.2578	981.3197	991.7104	1009.3941	1011.9762	1032.5362	1053.4236	1112.3142	1117.6295	1139.2527	1155.154	1172.7085	1199.9118	1205.7377	1239.08	1255.8852	1258.1436	1310.4964	1321.3068	1367.0104	1427.405	1462.5228	1476.9256	1510.1055	1535.003	2972.8575	2995.4344	3006.6873	3040.1813	3040.7025	3042.6796	3113.	3167.3236	3183.9294	3811.2866
OC1CC2C1C21COC1	O[C@@H]1C[C@@H]2[C@H]1C12COC1	
InChI=1S/C7H10O2/c8-5-1-4-6(5)7(4)2-9-3-7/h4-6,8H,1-3H2	InChI=1S/C7H10O2/c8-5-1-4-6(5)7(4)2-9-3-7/h4-6,8H,1-3H2/t4-,5-,6-/m1/s1
