19
gdb 5709	3.3013589	1.0541095	0.9311896	2.7249	78.99	-0.23482	-0.01778	0.21704	1323.8738	0.154877	-422.531941	-422.522639	-422.521695	-422.566673	33.286	
C	 1.4601920361	-0.1057883422	-0.0459881593	-0.232443
O	 0.0567840324	 0.0738576929	 0.0204789079	-0.239312
C	-0.3478590036	 0.7779431995	 1.1447160077	 0.076997
C	-0.37539327	 2.2746944317	 1.1123142339	-0.381452
C	-1.6708732822	 1.4915051818	 1.0134074477	 0.194842
C	-2.6818322106	 1.3554528326	-0.1357011881	-0.321179
C	-3.8283724513	 1.2044439713	 0.9193901092	-0.343086
C	-2.7756287081	 1.4134368798	 2.0284737704	 0.339099
O	-2.8123270637	 1.4935387521	 3.2248274954	-0.315357
H	 1.8346621454	-0.6749099578	 0.8174521035	 0.112947
H	 1.667029071	-0.6682114201	-0.9589735043	 0.131653
H	 1.9894498832	 0.856572634	-0.0846401107	 0.11321
H	-0.1438384272	 0.2873766658	 2.0983044203	 0.10478
H	-0.2007994347	 2.8229058649	 2.032592568	 0.133608
H	-0.0393579043	 2.7569819339	 0.2001594252	 0.126445
H	-2.7733206668	 2.2441946844	-0.7636995028	 0.109888
H	-2.5185621194	 0.4845864588	-0.7719880278	 0.125595
H	-4.6100516606	 1.9686274193	 0.8965880188	 0.130416
H	-4.3062566858	 0.221349857	 0.9543058952	 0.133349
71.0864	77.0049	125.1784	138.5682	197.0835	231.2048	294.4255	387.4292	453.9196	510.3861	553.3581	616.4539	725.6913	752.56	835.4151	852.7268	886.7384	926.192	998.6223	1025.1443	1043.8891	1057.2531	1067.4511	1109.7087	1120.761	1172.4697	1175.3292	1183.8195	1209.4292	1224.1678	1247.1966	1258.7303	1327.7826	1399.056	1439.1219	1457.5486	1485.9929	1488.9913	1494.6682	1508.1577	1876.3403	2989.7063	3042.9893	3063.6554	3077.1722	3089.5175	3113.2439	3124.1669	3126.4823	3134.3274	3222.2918
COC1CC11CCC1=O	CO[C@H]1C[C@]21CCC2=O	
InChI=1S/C7H10O2/c1-9-6-4-7(6)3-2-5(7)8/h6H,2-4H2,1H3	InChI=1S/C7H10O2/c1-9-6-4-7(6)3-2-5(7)8/h6H,2-4H2,1H3/t6-,7+/m0/s1
