19
gdb 1296	3.4448375	1.2101366	1.0940746	1.6368	74.95	-0.23386	0.00146	0.23532	1170.8259	0.156255	-422.513938	-422.505537	-422.504593	-422.546921	32.364	
C	 2.3411900691	 1.3370164056	 2.78045926	-0.411652
C	 1.8344115678	 1.3603824427	 1.337106085	 0.094601
O	 2.8163697374	 1.9095715646	 0.454415476	-0.446815
C	 1.5545823676	-0.0368293242	 0.8044660291	 0.049094
C	 0.7500800358	-0.1048375422	-0.5376267932	 0.005896
O	-0.4652143294	 0.1653199431	 0.2432750075	-0.290308
C	 0.1979302505	-0.7006511767	 1.2224222877	-0.007073
C	 0.2689469806	-2.0365248389	 0.4597781337	-0.084954
C	 0.646642913	-1.6245732033	-0.7523783027	-0.082547
H	 3.2648653507	 0.7538895869	 2.8535193475	 0.122813
H	 2.5508292376	 2.3532502756	 3.1337573746	 0.106007
H	 1.5975791585	 0.902316235	 3.456587419	 0.117378
H	 0.9053455617	 1.9438018838	 1.2820904007	 0.083785
H	 3.0138724232	 2.8033303256	 0.7515482957	 0.280833
H	 2.4493580339	-0.6620079308	 0.8660966193	 0.075666
H	 0.9186499258	 0.5719134073	-1.3725694704	 0.088062
H	-0.2247699997	-0.6607613977	 2.2260723719	 0.077101
H	 0.065953032	-3.0236071768	 0.8474430145	 0.110403
H	 0.849907374	-2.1730985096	-1.6599308759	 0.111711
70.167	147.5868	191.0594	237.7916	265.2678	306.4362	412.6427	475.5182	494.752	549.0053	618.9741	711.3868	756.4323	854.0385	864.7433	872.2122	877.2667	901.6473	908.8003	920.5626	958.4896	984.0544	1027.9801	1082.9491	1108.6782	1116.2826	1148.8578	1152.3895	1190.7314	1215.3521	1238.6009	1263.2896	1297.7796	1300.0933	1339.8583	1385.4564	1404.1524	1432.56	1491.6325	1498.8792	1614.6745	3015.3285	3027.2621	3078.7489	3092.9038	3110.6388	3126.4947	3151.8903	3233.3296	3260.6051	3817.7914
CC(O)C1C2OC1C=C2	C[C@@H](O)[C@@H]1[C@@H]2O[C@H]1C=C2	
InChI=1S/C7H10O2/c1-4(8)7-5-2-3-6(7)9-5/h2-8H,1H3	InChI=1S/C7H10O2/c1-4(8)7-5-2-3-6(7)9-5/h2-8H,1H3/t4-,5-,6+,7-/m1/s1
