19
gdb 5779	2.7628031	1.3161688	0.9806542	2.8011	74.95	-0.24105	-0.02957	0.21148	1230.6553	0.156772	-422.570462	-422.561908	-422.560964	-422.604027	31.73	
C	 1.0754028431	-0.6799344701	 1.1083707014	-0.39269
C	 0.9487481353	 0.1007803913	-0.2022201075	-0.181895
C	 1.8063989563	-0.4647183165	-1.3371948024	-0.109818
C	 3.3408729642	-0.3153428379	-1.1697391421	-0.262623
C	 3.8724769518	-0.1263327181	-2.5808309955	 0.046791
O	 3.3878601362	-1.1077051268	-3.4915085103	-0.246092
C	 2.7683254695	 0.1949549628	-3.5062819627	-0.084435
C	 1.5022783954	 0.2099054776	-2.689470634	 0.414201
O	 0.4611911339	 0.7238313004	-3.0114603871	-0.325854
H	 0.7783149842	-1.7261877941	 0.9750575957	 0.117488
H	 2.1029975551	-0.6740274878	 1.4877229738	 0.116259
H	 0.4353775467	-0.2484201878	 1.8838796194	 0.117559
H	-0.0927487536	 0.1092663413	-0.5399043275	 0.121759
H	 1.2207247908	 1.1516079164	-0.0379795072	 0.097586
H	 1.565715519	-1.52801551	-1.4695583549	 0.117311
H	 3.5754942309	 0.5746380676	-0.5727342273	 0.112235
H	 3.8060029115	-1.1740160379	-0.6773530077	 0.120093
H	 4.8856680014	 0.2233419412	-2.7621848222	 0.107333
H	 2.8611409585	 0.7726138285	-4.4199603019	 0.114792
77.5463	93.0354	169.3081	200.9632	252.5201	307.8443	379.5047	396.5895	488.4604	599.4476	654.7466	702.5288	773.7568	813.5565	835.578	853.0184	896.9058	934.866	961.504	995.3079	1030.4851	1067.8629	1091.3075	1126.9216	1142.0497	1184.4667	1200.9475	1241.722	1259.4016	1290.5769	1304.7121	1324.5389	1336.3207	1376.6636	1411.5591	1414.0551	1482.2595	1490.3197	1499.7624	1507.828	1840.0092	3019.7728	3029.3333	3032.789	3039.3357	3074.1333	3091.8669	3099.9621	3104.9302	3149.6955	3181.7955
CCC1CC2OC2C1=O	CC[C@@H]1C[C@H]2O[C@H]2C1=O	
InChI=1S/C7H10O2/c1-2-4-3-5-7(9-5)6(4)8/h4-5,7H,2-3H2,1H3	InChI=1S/C7H10O2/c1-2-4-3-5-7(9-5)6(4)8/h4-5,7H,2-3H2,1H3/t4-,5-,7-/m1/s1
