19
gdb 5664	3.1863745	0.9626464	0.7935791	1.262	78.39	-0.25118	0.04218	0.29336	1427.4108	0.154666	-422.511754	-422.501784	-422.50084	-422.546721	36.265	
O	 1.4245886785	 0.7865600421	 0.1983858702	-0.424637
C	 0.0184703182	 0.5980970734	 0.2554758685	-0.055769
C	-0.577345158	 0.2699716312	-1.1110610405	-0.087925
C	-0.7334280054	 1.4974624393	-2.0551926788	-0.262694
C	-2.2387322343	 1.5975742441	-1.6397584901	-0.163933
C	-3.2329691929	 1.9149392241	-2.6417653359	 0.290293
C	-4.0458206827	 2.1568901997	-3.4947576369	-0.442095
C	-2.1344061246	 0.1400276715	-1.1123308851	 0.110698
O	-2.8064199274	-0.0635058774	 0.1068128991	-0.422646
H	 1.5987482813	 1.5335968041	-0.3831252602	 0.28132
H	-0.1425990507	-0.2391997793	 0.9410774883	 0.106757
H	-0.4847448738	 1.47026233	 0.7000659017	 0.094451
H	-0.0318180478	-0.5793017477	-1.5316081947	 0.075479
H	-0.121470716	 2.3797313648	-1.846512374	 0.097909
H	-0.6231704863	 1.2392420836	-3.1097530462	 0.117988
H	-2.3447141865	 2.2596592642	-0.7740606521	 0.116977
H	-4.76940083	 2.3773294956	-4.2397725124	 0.193771
H	-2.4697211285	-0.5668777077	-1.8811016905	 0.084434
H	-2.8744010233	-1.0090638658	 0.2702271396	 0.289623
69.5458	97.2353	138.7124	166.8154	197.8187	232.6878	268.3913	321.5464	347.6244	422.7347	463.4105	512.0438	574.9228	618.7452	630.349	689.6798	816.5343	837.6123	900.134	921.6778	977.3144	1030.0815	1060.6419	1071.3452	1092.9194	1128.566	1146.1283	1198.7694	1207.1944	1230.1728	1248.659	1261.2423	1306.0291	1332.6219	1356.6011	1389.6127	1418.7201	1433.5506	1488.0369	1501.4748	2234.18	2990.0378	3025.6393	3056.6629	3059.3174	3068.6278	3084.3347	3123.2232	3504.7537	3814.7437	3826.8694
OCC1CC(C#C)C1O	OC[C@@H]1C[C@@H](C#C)[C@@H]1O	
InChI=1S/C7H10O2/c1-2-5-3-6(4-8)7(5)9/h1,5-9H,3-4H2	InChI=1S/C7H10O2/c1-2-5-3-6(4-8)7(5)9/h1,5-9H,3-4H2/t5-,6+,7+/m1/s1
