19
gdb 2690	2.7057119	1.2897138	1.1856514	0.5615	77.25	-0.25635	0.0159	0.27225000000000005	1151.8745	0.153272	-422.516802	-422.50688	-422.505936	-422.551121	36.793	
C	 0.0234485995	 0.5420961146	 0.1137146023	-0.437318
C	 1.4823560033	 0.1424630324	-0.0258484069	 0.373672
C	 2.1804216966	-0.002322323	 1.3196980317	-0.427172
O	 1.6038848944	-1.0901136024	-0.8141750164	-0.325389
C	 2.5342146028	-0.4962429335	-1.7405211622	-0.110014
C	 3.9001334301	-0.9840933987	-1.6005571478	 0.307804
C	 5.0467148906	-1.3207011189	-1.454413733	-0.431037
C	 2.2987049888	 0.9154178192	-1.111026501	 0.037342
O	 3.3940380572	 1.6953741919	-0.7519081141	-0.421616
H	-0.5267451127	-0.2074225418	 0.6916409662	 0.126184
H	-0.0623169909	 1.5037826957	 0.6308505495	 0.122609
H	-0.450776493	 0.6305098684	-0.8680436471	 0.117695
H	 1.6500821446	-0.7350029827	 1.935775364	 0.123784
H	 3.2100626859	-0.348219892	 1.1993799997	 0.116689
H	 2.1966164538	 0.9541628323	 1.8508505293	 0.125145
H	 2.1965893159	-0.6142699459	-2.7766731665	 0.107358
H	 6.0494682953	-1.6562281857	-1.3491412777	 0.20814
H	 1.6538028631	 1.5369768428	-1.7371193534	 0.098265
H	 4.1250912448	 1.1047437074	-0.5274319966	 0.287859
64.3638	130.7229	174.1607	187.8041	215.7673	249.9617	294.3283	333.3573	345.5915	382.8325	417.3799	502.9188	548.685	603.3501	646.3202	670.4135	713.4426	782.9634	859.4596	870.111	937.6942	980.0463	990.4052	999.7692	1047.0655	1159.5604	1166.5391	1191.752	1229.8373	1265.9606	1283.8835	1338.3754	1351.8938	1400.2381	1412.3084	1444.3712	1471.8232	1483.6361	1493.0398	1505.6265	2219.9539	3033.2462	3036.8014	3043.0373	3082.9106	3105.4676	3112.2977	3115.7823	3123.2496	3497.899	3756.8661
CC1(C)OC(C#C)C1O	CC1(C)O[C@H](C#C)[C@@H]1O	
InChI=1S/C7H10O2/c1-4-5-6(8)7(2,3)9-5/h1,5-6,8H,2-3H3	InChI=1S/C7H10O2/c1-4-5-6(8)7(2,3)9-5/h1,5-6,8H,2-3H3/t5-,6+/m1/s1
