19
gdb 3981	4.5575371	0.8606804	0.8277688	2.8811	77.53	-0.24595	-0.01548	0.23047	1407.0472	0.157256	-422.572836	-422.564328	-422.563384	-422.606092	31.972	
O	-3.7615324963	-1.2718844503	-1.8126977767	-0.436856
C	-2.4368455096	-1.2020224243	-1.3124579696	 0.117641
C	-1.5981193012	-0.3049654889	-2.2474137704	-0.232145
C	-0.565467426	 0.3548245115	-1.3512086189	-0.062403
C	-1.0063054037	 0.208967481	 0.0717412589	-0.055761
C	-2.3250434925	-0.5440354454	 0.0897694471	-0.264545
C	 0.2186017043	-0.5668668944	-0.415761754	-0.109839
C	 1.5404962211	-0.0952342364	 0.0437786545	 0.155421
O	 2.4908329098	-0.8040399775	 0.2676237235	-0.273889
H	-4.2424266209	-1.9313881111	-1.3032014242	 0.283954
H	-1.9994916238	-2.2098349873	-1.2805621942	 0.077269
H	-1.1665633882	-0.865769271	-3.0813331807	 0.110833
H	-2.2613811712	 0.4590881466	-2.668754105	 0.121286
H	-0.062284011	 1.250700482	-1.698695858	 0.095481
H	-0.8365176957	 0.9944977577	 0.8004752359	 0.095352
H	-2.4017715758	-1.2728888508	 0.9037132434	 0.100991
H	-3.1505912792	 0.1691054287	 0.197943058	 0.11498
H	 0.1505662701	-1.6417727691	-0.5477437519	 0.101467
H	 1.6052562695	 1.0125281989	 0.1769361122	 0.060765
97.9355	100.0824	192.2191	249.059	281.2143	294.4607	343.5321	373.1731	471.161	511.5397	615.6452	654.0576	802.5467	845.9213	872.2976	898.6838	914.03	997.7692	1007.9933	1013.6021	1053.167	1065.5673	1089.6027	1098.3667	1100.0846	1149.5849	1177.8187	1204.8786	1222.3758	1256.6975	1281.7786	1295.0514	1318.5921	1320.141	1370.7794	1408.5869	1440.2203	1446.9459	1484.6343	1497.0841	1819.826	2831.3064	2993.242	3036.1886	3047.4571	3081.0862	3094.8391	3162.4151	3169.5063	3172.5091	3822.7135
OC1CC2C(C1)C2C=O	O[C@H]1C[C@H]2[C@@H](C1)[C@@H]2C=O	
InChI=1S/C7H10O2/c8-3-7-5-1-4(9)2-6(5)7/h3-7,9H,1-2H2	InChI=1S/C7H10O2/c8-3-7-5-1-4(9)2-6(5)7/h3-7,9H,1-2H2/t4-,5-,6+,7+
