19
gdb 2510	2.1630046	1.7469567	1.0134006	4.8929	79.99	-0.25368	-0.03282	0.22086	1181.8778	0.156662	-422.613097	-422.603909	-422.602965	-422.647232	33.197	
C	 0.8485134705	-2.4862395057	 0.2515083717	-0.487734
C	-0.1806712508	-1.3943677299	 0.1819521038	 0.207232
C	 0.0650563548	-0.1018089109	-0.1052154652	 0.049064
C	 1.4122714666	 0.5131696294	-0.3787928719	-0.478477
C	-1.0682780533	 0.8524526209	-0.3002094033	 0.387819
O	-0.9257478552	 1.9264932664	-0.8296317351	-0.336044
O	-2.3140434637	 0.4752901293	 0.089022699	-0.231144
C	-2.4314098486	-0.6675204061	 0.9407240965	-0.084264
C	-1.6058636602	-1.8323145652	 0.4269300054	-0.307596
H	 0.9127796145	-2.889602714	 1.2704381113	 0.134892
H	 0.5486269613	-3.3237138844	-0.3913431333	 0.135661
H	 1.8447152935	-2.1670323319	-0.0530444433	 0.134797
H	 2.2356488296	-0.1692257558	-0.166556689	 0.11369
H	 1.4822176592	 0.8383748997	-1.4214042338	 0.147048
H	 1.5466555607	 1.4133568622	 0.2288375448	 0.141572
H	-2.1054617368	-0.3931740679	 1.9531660293	 0.110932
H	-3.4982065749	-0.8999217335	 0.9745920312	 0.121889
H	-1.6345473155	-2.647603027	 1.1597577527	 0.112869
H	-2.0394179017	-2.2343135555	-0.5000372307	 0.127794
82.4182	102.8786	126.4499	145.7908	227.8375	315.2481	327.9638	343.0723	447.1749	468.9591	509.2727	536.9131	658.2566	673.0852	781.2432	840.8729	907.6891	940.124	1004.7606	1013.7542	1065.0925	1090.2067	1101.7916	1113.5864	1165.0217	1177.9216	1234.0183	1274.3323	1324.8101	1378.5666	1408.3566	1419.0386	1430.315	1466.1848	1471.0092	1478.5019	1482.3813	1493.5238	1508.6708	1713.2681	1809.9284	3008.6506	3018.9758	3022.5797	3050.6837	3059.8407	3065.3659	3101.6932	3104.3537	3139.185	3153.7135
CC1=C(C)C(=O)OCC1	CC1=C(C)C(=O)OCC1	
InChI=1S/C7H10O2/c1-5-3-4-9-7(8)6(5)2/h3-4H2,1-2H3	InChI=1S/C7H10O2/c1-5-3-4-9-7(8)6(5)2/h3-4H2,1-2H3
