19
gdb 5079	2.956616	1.277927	1.0334707	2.6083	76.29	-0.23601	-0.02434	0.21167	1228.7179	0.15455	-422.541294	-422.531865	-422.53092	-422.575743	33.955	
C	 1.3551096034	-0.3491949804	 1.0157527751	-0.385913
C	 0.8721820693	 0.1683253034	-0.3474587068	-0.319687
C	 1.7155744944	-0.3422165711	-1.4703503574	 0.308354
O	 1.5670792046	-1.7272662424	-1.8935238877	-0.282365
C	 1.4559405157	-0.7108497557	-2.8872866909	-0.072671
C	 2.8916899802	-0.4006999802	-3.3507185686	-0.136403
C	 3.711180989	-1.5089893499	-3.9968839818	-0.411161
C	 3.1611717605	-0.0178307448	-1.8577648675	 0.375416
O	 4.0904024946	 0.4692427498	-1.2839058321	-0.308239
H	 1.309721302	-1.4414355223	 1.0519737323	 0.133914
H	 2.3893070834	-0.0450138562	 1.2000139704	 0.14395
H	 0.7317777252	 0.0463414425	 1.8224508915	 0.115746
H	-0.1669536729	-0.129947678	-0.5257502288	 0.114954
H	 0.9011913283	 1.2646462101	-0.3628507473	 0.114927
H	 0.5245226539	-0.6365329915	-3.4365031959	 0.114294
H	 2.9365657243	 0.5262887231	-3.9375820103	 0.102418
H	 3.5842626083	-2.444225177	-3.4461966078	 0.138853
H	 3.4092666304	-1.6723991783	-5.0364092756	 0.118937
H	 4.7735699255	-1.2473651512	-3.9910334708	 0.134676
63.7542	97.5749	160.2086	181.256	205.8851	224.8482	249.9724	309.8455	381.2282	489.8791	564.4828	634.3715	679.4174	733.5384	762.8564	819.8536	852.7539	908.3071	913.8036	973.8348	1004.0853	1043.1818	1068.3876	1081.5687	1104.4263	1139.6281	1198.2998	1229.8911	1247.7652	1311.2701	1340.9128	1344.7168	1401.4861	1409.2506	1446.0896	1471.4769	1493.3814	1499.0153	1502.9658	1511.5457	1889.6189	3033.1934	3034.3101	3041.1866	3045.879	3073.498	3106.8612	3119.4298	3124.6065	3128.0569	3191.1557
CCC12OC1C(C)C2=O	CC[C@@]12O[C@@H]1[C@H](C)C2=O	
InChI=1S/C7H10O2/c1-3-7-5(8)4(2)6(7)9-7/h4,6H,3H2,1-2H3	InChI=1S/C7H10O2/c1-3-7-5(8)4(2)6(7)9-7/h4,6H,3H2,1-2H3/t4-,6-,7+/m1/s1
