19
gdb 5866	4.5256564	0.5652206	0.5362012	2.7377	82.55	-0.24647	0.0303	0.27677	2062.9242	0.154009	-422.503738	-422.493246	-422.492302	-422.541781	36.249	
C	-0.0696371676	-0.1044763507	 0.2093205605	-0.46647
C	 1.3982228641	 0.171460093	-0.044275234	 0.224717
C	 2.0724286938	 1.291105971	 0.6467957726	-0.210067
O	 2.2626700527	-0.0473665092	 1.0907752099	-0.258085
C	 1.9151380145	-0.2818181395	-1.3151676284	 0.05353
C	 2.3029751878	-0.6885355762	-2.3812473031	 0.083131
C	 2.8108485055	-1.1250152985	-3.6745430636	-0.36436
C	 3.5253972904	 0.0054500738	-4.4438414163	-0.054851
O	 4.0507289468	-0.4430194739	-5.6779926151	-0.40718
H	-0.3570180896	 0.266491595	 1.1961939744	 0.127564
H	-0.6890382778	 0.3820059846	-0.5502685493	 0.129101
H	-0.2655017979	-1.1799173335	 0.1694346005	 0.136754
H	 2.9381333466	 1.7612067804	 0.1837487776	 0.118156
H	 1.4877067122	 1.930582158	 1.3080214306	 0.113089
H	 3.5141327315	-1.9569539032	-3.548215089	 0.144104
H	 1.9838902013	-1.5092884021	-4.2881852467	 0.119137
H	 2.8388189519	 0.8548473035	-4.5716065729	 0.10022
H	 4.3785118212	 0.3596561292	-3.8582540111	 0.126969
H	 3.3128100227	-0.6343488015	-6.2655399066	 0.284539
9.8382	66.5258	75.9991	136.2466	176.6593	209.602	290.437	316.6337	335.6262	359.2119	397.4031	452.0664	555.6223	561.0224	646.9155	778.8421	793.6738	872.293	923.9614	1007.6962	1027.0677	1050.7822	1068.6263	1084.373	1097.8738	1137.0928	1166.3377	1169.0666	1278.8816	1298.3866	1313.0547	1369.6555	1395.3563	1410.713	1412.2576	1470.2118	1478.44	1494.7866	1509.3957	1521.0234	2361.7257	3002.0119	3010.8024	3044.1211	3057.4477	3078.9381	3096.1126	3115.4136	3128.9372	3171.1701	3817.3237
CC1(CO1)C#CCCO	C[C@]1(CO1)C#CCCO	
InChI=1S/C7H10O2/c1-7(6-9-7)4-2-3-5-8/h8H,3,5-6H2,1H3	InChI=1S/C7H10O2/c1-7(6-9-7)4-2-3-5-8/h8H,3,5-6H2,1H3/t7-/m1/s1
