19
gdb 1402	2.1421152	1.7180869	1.2287267	1.3391	74.86	-0.23763	-0.03966	0.19797	1085.2343	0.154728	-422.617208	-422.607643	-422.606699	-422.652855	34.426	
C	-0.1099392607	-2.2096606109	 0.9846708545	-0.417607
C	-0.7568267054	-1.2312742792	-0.0077670715	 0.034131
C	-0.8880897034	-1.8784681528	-1.4046933823	-0.416198
C	-2.1398147838	-0.7699978902	 0.4689042182	 0.378505
O	-3.0059170783	-1.497313934	 0.8824130968	-0.32024
C	-2.2517779057	 0.7539780078	 0.3367699168	-0.336326
C	-0.8069498269	 1.2691780071	 0.2834981715	-0.335392
C	 0.0547061566	 0.0665385949	-0.1230227862	 0.383861
O	 1.2039490392	 0.1278708509	-0.4776551144	-0.323344
H	 0.0128003028	-1.758515984	 1.9743361715	 0.118735
H	-0.7427511872	-3.0940077011	 1.0942057755	 0.138665
H	 0.8770076193	-2.5081423524	 0.6220312113	 0.136047
H	-1.48364146	-2.7925718938	-1.3334420965	 0.138057
H	-1.3732663278	-1.2099630209	-2.1236319681	 0.11862
H	 0.1074331749	-2.1196410255	-1.7867452421	 0.14243
H	-2.783864625	 0.9650728495	-0.5995556775	 0.140514
H	-2.8606124024	 1.16138512	 1.1461656254	 0.137359
H	-0.6384258901	 2.1053723718	-0.3985685103	 0.138713
H	-0.4613643661	 1.5950502127	 1.2726007074	 0.143471
13.0786	91.5267	190.4843	193.9717	219.3995	227.5898	283.3914	292.4264	403.2599	511.5059	525.2367	565.3526	592.1828	656.1978	675.9309	794.7432	807.2208	914.8929	963.9895	967.2672	1002.9381	1049.7633	1058.166	1082.4248	1104.1312	1190.3603	1227.5262	1228.8625	1272.2633	1289.332	1301.59	1384.2466	1409.9696	1448.3233	1462.3438	1480.3912	1483.3035	1498.5059	1506.7108	1822.1417	1860.3889	3036.2261	3039.8303	3042.2247	3044.2267	3107.6657	3109.0448	3113.1392	3117.8946	3127.8126	3132.6354
CC1(C)C(=O)CCC1=O	CC1(C)C(=O)CCC1=O	
InChI=1S/C7H10O2/c1-7(2)5(8)3-4-6(7)9/h3-4H2,1-2H3	InChI=1S/C7H10O2/c1-7(2)5(8)3-4-6(7)9/h3-4H2,1-2H3
