19
gdb 2683	1.8143335	1.3042337	0.8971819	4.3789	79.29	-0.23875	-0.03632	0.20243	1371.8594	0.15368	-422.579177	-422.569052	-422.568108	-422.614958	35.32	
C	 1.3470018425	-0.9453628913	 3.6086836781	-0.416958
C	 0.6462728661	-0.8150125455	 2.2766663679	-0.025492
C	-0.8227583876	-0.4804126674	 2.2108504697	-0.121874
C	-1.7205765198	-1.1983361268	 1.2670792685	 0.138387
O	-2.876788141	-1.4366039694	 1.5260065339	-0.270873
C	 0.2475725254	 0.5302157415	 1.7327412351	-0.145977
C	 0.4415494592	 0.8184569749	 0.2751023892	 0.386949
C	 0.6012945221	 2.2800180993	-0.092700913	-0.485756
O	 0.4829358152	-0.0629045476	-0.5580981455	-0.321041
H	 1.1990258502	-1.9448610282	 4.0301264048	 0.134321
H	 2.4243559561	-0.7817414895	 3.5017778942	 0.129279
H	 0.9651875151	-0.2178927414	 4.3319752879	 0.121742
H	 0.979260835	-1.4954603003	 1.4960697134	 0.122154
H	-1.3143221824	-0.2069912262	 3.1397388988	 0.109643
H	-1.2551897967	-1.5207357553	 0.3167210855	 0.11366
H	 0.3563662368	 1.3833745241	 2.3951792818	 0.096042
H	 1.4640000893	 2.7099903478	 0.4295217395	 0.142738
H	 0.7343707141	 2.3806775456	-1.1699946583	 0.146398
H	-0.2790413698	 2.8482984855	 0.2291810885	 0.146658
45.8671	88.1534	135.7365	158.9471	180.9843	205.5743	235.9774	249.0785	361.4301	366.8103	420.9013	489.9528	593.3623	618.4981	757.2082	825.2488	877.1088	938.1387	963.2926	982.2895	1038.6598	1052.1386	1060.9606	1109.7881	1123.1658	1147.3925	1177.2888	1203.018	1220.736	1290.5279	1362.7465	1383.1987	1416.6968	1424.8328	1460.5796	1466.0433	1473.8272	1490.2036	1501.244	1790.5061	1805.5464	2964.938	3033.8481	3034.5458	3093.5997	3102.0214	3104.6938	3146.3601	3155.9052	3158.164	3169.4136
CC1C(C=O)C1C(C)=O	C[C@H]1[C@H](C=O)[C@@H]1C(=O)C	
InChI=1S/C7H10O2/c1-4-6(3-8)7(4)5(2)9/h3-4,6-7H,1-2H3	InChI=1S/C7H10O2/c1-4-6(3-8)7(4)5(2)9/h3-4,6-7H,1-2H3/t4-,6-,7-/m0/s1
