19
gdb 876	2.2689891	1.7059204	1.1184889	2.9999	75.2	-0.24363	-0.02787	0.21576	1103.2385	0.156522	-422.553235	-422.544651	-422.543707	-422.587122	31.557	
O	-0.5156852039	-1.5402180655	-0.3191138495	-0.25003
C	-0.3359361501	-0.3716674266	-0.0887588344	 0.123816
C	-1.3739910152	 0.530444325	 0.5551779861	-0.002339
O	-1.0365959688	 1.8939552634	 0.325797755	-0.279843
C	-0.9329590247	 2.593556135	 1.5703153565	-0.071659
C	-1.7436560244	 1.7679706294	 2.5709322986	-0.308022
C	-1.4671185911	 0.3552002628	 2.0795954501	 0.313323
C	-2.0338703223	-0.8796252596	 2.7087571723	-0.324946
C	-0.5623197418	-0.5732288195	 2.8605349389	-0.315295
H	 0.622670144	 0.1447131908	-0.3196754809	 0.089165
H	-2.3451839234	 0.3138730258	 0.087172378	 0.104006
H	 0.120608516	 2.6615744962	 1.8789892319	 0.098051
H	-1.314189607	 3.6077405429	 1.4208273115	 0.110948
H	-1.438438163	 1.9299103595	 3.6076448475	 0.107322
H	-2.8103804497	 2.0058403052	 2.4833300019	 0.111614
H	-2.6814424696	-0.764259666	 3.5718008808	 0.115226
H	-2.3009158883	-1.697060879	 2.046984615	 0.13511
H	-0.2068047878	-0.2242495235	 3.8244969076	 0.111009
H	 0.1365910213	-1.2088783262	 2.3296191631	 0.132545
51.4237	81.825	163.8596	202.328	256.1839	321.6354	372.1792	409.9727	488.3418	546.7135	649.4549	763.5321	785.6414	850.7955	896.8441	917.9999	932.7927	967.1856	978.6107	994.9071	1049.7375	1061.8589	1074.5226	1093.559	1112.7206	1125.009	1192.1037	1192.5684	1230.8949	1264.7788	1291.9951	1318.0958	1321.7902	1361.5671	1385.3532	1402.3452	1462.6882	1487.3918	1503.6194	1524.9928	1825.4238	2888.6462	2994.793	3001.0413	3037.2632	3083.7662	3103.6851	3127.6056	3134.4879	3211.0459	3225.4859	51.4236	81.8238	163.8601	202.3279	256.1839	321.6353	372.1793	409.9727	488.3419	546.7135	649.4549	763.5322	785.6413	850.7955	896.8443	917.9998	932.7925	967.1853	978.6107	994.9069	1049.7375	1061.8588	1074.5225	1093.559	1112.7203	1125.0088	1192.1034	1192.5682	1230.8946	1264.7786	1291.9952	1318.0954	1321.7904	1361.567	1385.3531	1402.3452	1462.6881	1487.3911	1503.6192	1524.9922	1825.4237	2888.6462	2994.793	3001.0413	3037.2633	3083.7661	3103.6851	3127.6057	3134.4879	3211.0459	3225.4859
O=CC1OCCC11CC1	O=C[C@@H]1OCCC21CC2	
InChI=1S/C7H10O2/c8-5-6-7(1-2-7)3-4-9-6/h5-6H,1-4H2	InChI=1S/C7H10O2/c8-5-6-7(1-2-7)3-4-9-6/h5-6H,1-4H2/t6-/m0/s1
