19
gdb 3260	2.8344615	1.8875349	1.6193125	0.6179	72.56	-0.24117	0.07668	0.31784999999999997	916.5077	0.159881	-422.565923	-422.559161	-422.558217	-422.596676	27.977	
C	 2.0751741711	 1.412217736	 0.0025697656	-0.420425
C	 1.5315075182	-0.0152304314	 0.0682290415	 0.016293
C	 2.020038844	-0.9105115399	-1.0940176387	 0.053584
O	 1.2178927575	-2.110988464	-1.1788517307	-0.305562
C	 2.026701033	-2.7187640046	-0.1446563131	 0.063236
C	 1.544572259	-2.2593604	 1.2430264381	-0.235608
C	 2.1255480508	-0.8255859649	 1.2537608087	 0.042538
O	 3.480498585	-1.0565448466	 0.8150492937	-0.258438
C	 3.1798333968	-1.6960837801	-0.4019865245	 0.056191
H	 1.7396412375	 1.9998889423	 0.8635445512	 0.114624
H	 3.1688499077	 1.4124250825	 0.0020064239	 0.133575
H	 1.7319615272	 1.9217411975	-0.9038183503	 0.11438
H	 0.4378999037	-0.0148333967	 0.0860206914	 0.083349
H	 2.1397677919	-0.4132762558	-2.0586076511	 0.07626
H	 2.1519561954	-3.7930938339	-0.2852873804	 0.080754
H	 0.4569338562	-2.3078594319	 1.3261790832	 0.110967
H	 2.0004810112	-2.85192058	 2.0418761937	 0.10604
H	 2.1402911514	-0.3166492747	 2.2177749679	 0.076822
H	 4.0740922223	-1.9811009637	-0.9492849	 0.091418
191.551	206.9993	278.1458	347.6147	414.613	487.1478	570.2759	650.1546	674.3452	761.4871	821.756	840.5624	856.1941	886.3343	900.1704	936.7423	940.401	981.6744	995.5907	1018.115	1024.1802	1042.8245	1079.3466	1091.6489	1116.5697	1129.9888	1163.1614	1202.9786	1241.8859	1260.5586	1273.1012	1283.7767	1302.1018	1314.8135	1332.5891	1365.6537	1373.2973	1405.8999	1465.5401	1493.9709	1505.4789	3034.64	3061.1313	3072.1453	3093.0513	3098.9516	3106.6399	3117.0072	3118.4491	3124.6512	3163.5519
CC1C2OC3CC1OC23	C[C@H]1[C@@H]2O[C@@H]3C[C@H]1O[C@H]23	
InChI=1S/C7H10O2/c1-3-4-2-5-7(8-4)6(3)9-5/h3-7H,2H2,1H3	InChI=1S/C7H10O2/c1-3-4-2-5-7(8-4)6(3)9-5/h3-7H,2H2,1H3/t3-,4-,5-,6+,7+/m1/s1
