19
gdb 1126	2.5621474	1.455324	1.1275153	1.858	75.32	-0.23659	-0.01731	0.21928	1148.0948	0.15384	-422.532884	-422.523432	-422.522488	-422.567749	34.025	
C	 3.1767554078	 0.2155699807	-5.1058061676	-0.478147
C	 2.3761891523	 1.2414144836	-4.338735881	 0.349226
O	 2.3930835489	 2.4265627384	-4.5844084377	-0.306115
C	 1.5214428231	 0.7443640625	-3.1788199483	-0.012832
O	 1.3169544711	-0.690971926	-3.0959757344	-0.305266
C	-0.1025651494	-0.4883208574	-3.0341448318	 0.061592
C	-0.5997603431	 0.1357764895	-4.3006583406	-0.353585
C	 0.0110015659	 1.0091602619	-3.2173279395	 0.271832
C	-0.6628285837	 2.1911757386	-2.5901729221	-0.499657
H	 3.8248880388	-0.3420644863	-4.4200018445	 0.148567
H	 2.5077562894	-0.5267137836	-5.5523760647	 0.151777
H	 3.7724608632	 0.7080717993	-5.8752365913	 0.136763
H	 1.9694698357	 1.1124090919	-2.2446537261	 0.108588
H	-0.6710276999	-1.1126819762	-2.3548218639	 0.108661
H	-0.0940841671	-0.062700071	-5.2415521807	 0.115694
H	-1.6788412621	 0.232175471	-4.3779433031	 0.117591
H	-0.3041791204	 2.3599803449	-1.5686345595	 0.12093
H	-0.4614658529	 3.0984796124	-3.1699401676	 0.144847
H	-1.7476211277	 2.0518237257	-2.5488199856	 0.119536
39.9901	110.6885	123.7809	139.5259	188.8637	261.0306	298.9357	387.178	437.7892	469.196	485.3951	596.5258	656.7492	729.4176	813.8977	829.3199	888.0514	936.6799	971.1952	991.1716	1010.6715	1024.464	1036.6176	1046.9274	1071.8888	1102.5533	1129.3064	1202.6097	1240.8522	1257.3682	1279.1684	1336.1011	1382.3809	1397.9115	1424.9819	1451.1502	1463.5316	1482.8457	1490.8738	1500.2048	1806.0826	3007.3581	3028.2523	3042.0539	3092.1701	3102.7251	3103.3693	3115.2094	3155.9123	3183.335	3204.1904
CC(=O)C1OC2CC12C	CC(=O)[C@@H]1O[C@@H]2C[C@]12C	
InChI=1S/C7H10O2/c1-4(8)6-7(2)3-5(7)9-6/h5-6H,3H2,1-2H3	InChI=1S/C7H10O2/c1-4(8)6-7(2)3-5(7)9-6/h5-6H,3H2,1-2H3/t5-,6+,7+/m1/s1
