19
gdb 3850	2.844095	1.5225035	1.2410036	1.8332	78.4	-0.22764	-0.00345	0.22419	1065.8926	0.156273	-422.528686	-422.520238	-422.519294	-422.561174	32.688	
C	-0.1606922713	 1.6770036356	-0.2535667833	-0.443742
C	 0.0630258169	 0.1836894279	-0.059650082	 0.384674
C	-1.1965311193	-0.5742299904	 0.5265201973	-0.316261
C	-0.5105374301	-0.538430278	 1.9506669511	 0.003532
O	-0.8697341077	 0.5841020076	 2.7349036946	-0.426513
C	 0.7663425182	-0.3131293362	 1.1705004424	 0.221288
C	 1.8619399188	-0.9860607639	 0.8428994005	-0.236894
C	 2.043514904	-0.8615890439	-0.6621074812	-0.125065
O	 0.7912786466	-0.3582829412	-1.158442697	-0.321216
H	 0.7941268092	 2.1896729628	-0.4034207888	 0.116951
H	-0.7841327298	 1.8477082001	-1.1375559995	 0.117721
H	-0.6575371628	 2.1060648751	 0.6195461069	 0.130426
H	-2.1620176503	-0.063259436	 0.4563329785	 0.094686
H	-1.2666681949	-1.5899211415	 0.1336310385	 0.113182
H	-0.5559155072	-1.4633344657	 2.5381490474	 0.079232
H	-1.7864651497	 0.4682088399	 3.0062691817	 0.286339
H	 2.4514284739	-1.6553339303	 1.4573390006	 0.106523
H	 2.8683466256	-0.1941983064	-0.9597369837	 0.105035
H	 2.23795151	-1.8417027355	-1.118088304	 0.110103
125.7728	158.9317	223.101	244.187	272.0824	315.332	363.6558	389.1324	399.6611	476.563	615.9447	728.7651	735.509	796.8095	817.4693	832.6664	892.4407	904.0645	922.1605	952.5759	983.8536	1026.726	1045.3386	1098.6056	1134.0176	1146.1047	1168.6976	1178.7304	1198.8086	1219.7206	1245.6605	1303.2654	1327.9297	1364.8556	1400.1872	1412.798	1456.6526	1488.3334	1495.7387	1517.0027	1724.4695	2971.5927	3024.0027	3027.8431	3038.3198	3051.4746	3107.7156	3132.0953	3135.3451	3208.9278	3810.73
CC12CC(O)C1=CCO2	C[C@]12C[C@H](O)[C]1[CH]CO2	
InChI=1S/C7H10O2/c1-7-4-6(8)5(7)2-3-9-7/h2,6,8H,3-4H2,1H3	InChI=1S/C7H10O2/c1-7-4-6(8)5(7)2-3-9-7/h2,6,8H,3-4H2,1H3/t6-,7-/m0/s1
