19
gdb 1950	2.635232	1.570748	1.3658686	0.9557	74.48	-0.23788	0.06568	0.30356	1034.329	0.156	-422.499081	-422.490837	-422.489893	-422.531181	32.523	
C	-0.0247081745	-0.0745244538	 0.0458346803	-0.495257
C	 1.4864448489	-0.0470911847	 0.0558637611	 0.318952
C	 2.2723861398	-1.3488370248	-0.2387118938	-0.149439
O	 3.0778928953	-0.6851707608	-1.248009003	-0.300486
C	 2.3345499711	 0.5474481248	-1.0890200048	-0.014056
C	 2.925667909	 1.6040063584	-0.1241232412	 0.384144
O	 3.0555940201	 2.9443001108	-0.4397737338	-0.462841
C	 3.6480393353	 0.9438312619	 1.0073547009	-0.368101
C	 2.1323661476	 0.9773792075	 1.0252680833	-0.17921
H	-0.4162469401	-0.5398434278	 0.9585168566	 0.120428
H	-0.4341777746	 0.940034342	-0.0079360015	 0.126272
H	-0.406633893	-0.6398748762	-0.8105788808	 0.119377
H	 2.8793268572	-1.7728732463	 0.5696592514	 0.10066
H	 1.6614326194	-2.1437152177	-0.6850059519	 0.098571
H	 1.9172386725	 0.9369377564	-2.0218858959	 0.078797
H	 3.9661379443	 3.1044322866	-0.7124295727	 0.287973
H	 4.2090216846	 0.0271929249	 0.8591684625	 0.127967
H	 4.0972395879	 1.6466464778	 1.702670568	 0.113259
H	 1.5987282391	 1.4600681409	 1.8358504154	 0.092992
143.1958	223.9621	238.1032	260.1109	270.0103	304.6762	339.6186	391.4219	479.7255	504.2801	587.4594	650.7774	756.5205	811.6595	844.4447	885.2085	894.8196	955.623	973.6814	980.6815	986.1181	995.1687	1013.6066	1043.1972	1078.47	1134.885	1157.167	1182.5227	1205.262	1220.4794	1248.1618	1266.9142	1286.7781	1317.8744	1375.9742	1402.0884	1413.1864	1489.5762	1494.099	1496.3396	1520.7427	3012.5026	3023.9804	3060.5675	3076.0963	3086.734	3100.1669	3126.0303	3179.7421	3211.9635	3788.3519
CC12COC1C1(O)CC21	C[C@@]12CO[C@@H]1[C@]1(O)C[C@H]21	
InChI=1S/C7H10O2/c1-6-3-9-5(6)7(8)2-4(6)7/h4-5,8H,2-3H2,1H3	InChI=1S/C7H10O2/c1-6-3-9-5(6)7(8)2-4(6)7/h4-5,8H,2-3H2,1H3/t4-,5+,6+,7+/m1/s1
