19
gdb 922	6.4961329	0.6279213	0.6007296	3.3096	78.49	-0.2478	-0.02547	0.22233	1828.227	0.154679	-422.527258	-422.517845	-422.516901	-422.563002	33.036	
O	 0.3569424908	-1.1833603674	-0.1656417763	-0.237134
C	 0.4607504474	-0.0136358769	 0.0991437044	 0.160021
C	-0.3288971157	 0.696145508	 1.183736096	-0.3124
C	-0.9983438171	 1.9482775703	 0.6554611915	 0.029703
O	-0.1303473736	 3.0503632805	 0.3599851732	-0.263557
C	-1.0757004404	 3.1944452842	 1.4309488893	 0.067558
C	-2.162015676	 4.1949089652	 1.2468692191	-0.011574
C	-3.0522701677	 4.5444450043	 2.417343353	-0.27061
C	-2.0528741439	 5.5480467276	 1.9095320946	-0.264754
H	 1.1668513894	 0.6452923453	-0.4525407232	 0.096665
H	-1.0612025258	-0.0016836105	 1.600887964	 0.125232
H	 0.3767653532	 0.9828229523	 1.9746843649	 0.126032
H	-1.7671463684	 1.7783446345	-0.1006727229	 0.10133
H	-0.6183511323	 3.1908257187	 2.4237150735	 0.086547
H	-2.6255499921	 4.1689340497	 0.2654659063	 0.092461
H	-4.1049737591	 4.7116282776	 2.2208176487	 0.119974
H	-2.8509839269	 4.0628353038	 3.3688331782	 0.11572
H	-2.4155512775	 6.4103711713	 1.3621489791	 0.120367
H	-1.1744390044	 5.7428846716	 2.5158331767	 0.11842
45.6995	58.8993	90.4355	130.0515	163.7007	248.5474	332.9438	382.0329	415.9722	487.9088	552.1171	765.0861	796.4311	819.315	832.1748	877.4007	908.5295	935.601	945.6403	1000.6894	1054.8249	1065.0575	1076.3369	1084.8147	1126.6901	1131.9511	1147.4573	1198.0902	1206.7644	1225.0435	1236.9749	1272.8143	1296.5967	1328.0732	1405.5265	1422.8054	1445.6606	1471.4808	1496.4986	1516.862	1833.5813	2896.7322	3028.6754	3076.4071	3091.262	3105.5567	3133.8626	3138.0844	3157.6459	3213.0367	3228.0498
O=CCC1OC1C1CC1	O=CC[C@@H]1O[C@H]1C1CC1	
InChI=1S/C7H10O2/c8-4-3-6-7(9-6)5-1-2-5/h4-7H,1-3H2	InChI=1S/C7H10O2/c8-4-3-6-7(9-6)5-1-2-5/h4-7H,1-3H2/t6-,7-/m0/s1
