19
gdb 3769	2.4281461	1.2551627	1.0080481	1.7436	77.22	-0.24919	-0.01918	0.23001	1243.0413	0.155212	-422.535884	-422.526736	-422.525792	-422.569783	34.137	
O	 3.4171637538	 0.5495435687	 1.5096695664	-0.427969
C	 2.5145811187	-0.4113951495	 1.0357337268	 0.078969
C	 1.1100563797	-0.4575079018	 1.5869015801	-0.344466
C	 1.3858167439	 0.1284813752	 0.2113689533	-0.107862
C	 0.9101042397	-0.476952165	-1.0767917439	 0.267022
C	-0.1861262903	 0.2591918988	-1.8531375387	-0.305994
C	 1.2059005992	 0.2786936663	-2.377219032	-0.304364
C	 0.8730761978	-1.9488107435	-1.2449708967	 0.109323
O	 1.2210082356	-2.7713609945	-0.4313140133	-0.283514
H	 3.7336485244	 0.2535358864	 2.3697146425	 0.285937
H	 2.9516584218	-1.3600369192	 0.7362884178	 0.108394
H	 0.6330883973	-1.4267823893	 1.6524982356	 0.133629
H	 0.8582058291	 0.2492985305	 2.3702219274	 0.106863
H	 1.3727010174	 1.2152402564	 0.1924983915	 0.091462
H	-0.9279636768	-0.3365100166	-2.3747033496	 0.124777
H	-0.5808662244	 1.1491069385	-1.3766838288	 0.132743
H	 1.4343524753	-0.3037876476	-3.263616705	 0.125593
H	 1.7970977569	 1.180674501	-2.269502996	 0.137786
H	 0.4784938207	-2.2678064045	-2.2391545876	 0.071671
71.0543	133.8353	155.5197	181.6473	258.7156	301.8014	335.9709	346.2124	405.0599	419.4819	496.2668	536.6477	761.1617	784.0861	811.4487	827.4434	908.1902	919.1168	929.1611	969.3028	987.5844	1030.0507	1043.4913	1062.0163	1069.8379	1086.7241	1114.1103	1118.4199	1178.0613	1196.1801	1223.6259	1250.0453	1293.3797	1360.8227	1376.462	1424.8767	1453.5462	1467.844	1495.3601	1500.0271	1807.7542	2846.1168	3135.3451	3136.3315	3139.8932	3144.068	3150.6637	3216.826	3230.995	3243.9362	3803.1203
OC1CC1C1(CC1)C=O	O[C@H]1C[C@@H]1C1(CC1)C=O	
InChI=1S/C7H10O2/c8-4-7(1-2-7)5-3-6(5)9/h4-6,9H,1-3H2	InChI=1S/C7H10O2/c8-4-7(1-2-7)5-3-6(5)9/h4-6,9H,1-3H2/t5-,6-/m0/s1
