19
gdb 5327	3.1403758	1.0950518	0.8787286	5.4142	79.96	-0.25689	-0.0396	0.21729	1344.6142	0.157675	-422.607968	-422.599206	-422.598262	-422.64186	32.095	
C	 1.3196354497	-1.0249342599	-1.1042982086	-0.378088
C	 1.1533110437	-0.030448475	 0.0601506002	-0.280656
C	 1.7808885874	 1.3104147826	-0.2094701649	 0.31418
C	 1.0645216911	 2.4180568567	-0.4454486251	-0.304187
C	 1.672691203	 3.7571526843	-0.5914695924	 0.422251
O	 1.0405662714	 4.7814678796	-0.5529947328	-0.341844
O	 3.0290535557	 3.8137689725	-0.7173143699	-0.237235
C	 3.7238479648	 2.605893491	-1.0478959864	-0.079741
C	 3.2849493646	 1.4286168048	-0.1877248614	-0.316522
H	 0.8609078692	-1.9854586757	-0.8528270602	 0.12516
H	 0.8399917622	-0.6452770297	-2.0112878227	 0.129892
H	 2.3733273452	-1.2117995578	-1.3338274978	 0.121914
H	 0.0881226494	 0.1037690767	 0.2736823425	 0.115133
H	 1.607636383	-0.4602022605	 0.9634785189	 0.11257
H	-0.0199467491	 2.416083931	-0.4458219592	 0.111752
H	 3.5512222989	 2.3757784115	-2.107869604	 0.112975
H	 4.7837201205	 2.8338522562	-0.9153565736	 0.123286
H	 3.7606388002	 0.5141595445	-0.5587601156	 0.11722
H	 3.625801859	 1.557203607	 0.8493599929	 0.13194
64.3319	106.9973	151.8983	208.5027	241.087	284.9167	319.748	440.8586	469.7716	511.5968	582.7429	660.3076	743.3049	782.8852	805.4795	852.3652	911.1498	923.8878	966.3678	1009.2102	1054.9135	1074.1553	1100.1257	1113.0661	1163.6778	1224.679	1233.9018	1267.2598	1293.004	1340.5034	1348.6255	1388.7891	1409.6091	1428.8894	1463.8555	1480.8974	1500.2935	1506.6187	1507.354	1700.029	1824.0503	3012.6891	3017.6885	3022.9472	3041.1497	3073.9436	3074.9367	3106.6633	3112.5827	3117.5769	3195.0464
CCC1=CC(=O)OCC1	CCC1=CC(=O)OCC1	
InChI=1S/C7H10O2/c1-2-6-3-4-9-7(8)5-6/h5H,2-4H2,1H3	InChI=1S/C7H10O2/c1-2-6-3-4-9-7(8)5-6/h5H,2-4H2,1H3
