19
gdb 5530	3.3590408	1.2864597	1.1956669	0.386	73.11	-0.2511	0.05968	0.31078	1091.9769	0.158681	-422.507831	-422.500299	-422.499355	-422.539904	29.896	
O	 1.4925723045	 0.5936419574	-0.2552718654	-0.417888
C	 0.1449032205	 0.2282640415	 0.0184495924	-0.112995
C	-0.7251759892	 0.3023616514	-1.2277365346	 0.022586
C	-2.2421689046	-0.1298565193	-1.2231148389	-0.112598
C	-2.0735115887	-0.2834806451	-2.7611536848	-0.218645
C	-0.6609680012	-0.7974128358	-2.3666812219	-0.113465
C	-0.996106401	-2.0661190763	-1.551198937	 0.043863
O	-2.31701085	-2.5996822226	-1.7436531365	-0.254232
C	-2.1169706562	-1.5924402227	-0.7380652384	 0.044893
H	 1.8463730658	-0.0431809348	-0.884320406	 0.282209
H	 0.0914927338	-0.7610210241	 0.4937836445	 0.087908
H	-0.2121494944	 0.9581743882	 0.7540363136	 0.111145
H	-0.6090657495	 1.3004949302	-1.662581121	 0.082702
H	-3.0191553919	 0.4922301483	-0.7795439397	 0.066951
H	-2.7378009809	-0.9688161071	-3.2818463326	 0.1219
H	-2.0278975452	 0.6839622651	-3.2621753755	 0.098731
H	 0.1576544901	-0.8483746098	-3.0848036932	 0.063594
H	-0.2414005995	-2.7750606043	-1.2285258087	 0.10013
H	-2.3253633224	-1.8914494802	 0.2831859536	 0.103209
81.6437	166.4227	230.4651	294.513	355.3598	443.004	447.6549	553.7187	623.6194	698.5216	776.423	793.5833	801.2508	859.8985	882.4612	886.2882	928.3706	959.9675	977.9632	1006.635	1020.9837	1033.5406	1067.312	1076.0331	1102.4218	1118.9056	1143.4591	1161.6293	1210.9028	1230.2891	1239.2566	1256.1599	1271.9462	1285.126	1315.1864	1355.1218	1400.6362	1402.258	1426.7878	1494.5538	1508.5867	3006.5161	3054.5952	3068.9814	3096.0744	3112.3517	3119.8813	3169.1232	3170.4659	3181.565	3816.3171
OCC1C2CC1C1OC21	OC[C@@H]1[C@H]2C[C@@H]1[C@@H]1O[C@H]21	
InChI=1S/C7H10O2/c8-2-5-3-1-4(5)7-6(3)9-7/h3-8H,1-2H2	InChI=1S/C7H10O2/c8-2-5-3-1-4(5)7-6(3)9-7/h3-8H,1-2H2/t3-,4+,5-,6-,7+
