19
gdb 5807	3.2665758	1.0519219	0.8319613	3.8178	78.77	-0.23551	-0.04577	0.18974	1354.2254	0.157415	-422.595841	-422.587045	-422.586101	-422.629499	32.6	
O	-1.5507447473	 0.6637550924	-1.0369443498	-0.425233
C	-1.315489312	-0.1819168625	 0.0792634531	-0.093185
C	-1.2075841812	 0.6932178	 1.3235462832	 0.000777
C	-0.0863770316	 1.7362077116	 1.1992789067	-0.24758
C	 0.1478076068	 2.472764382	 2.4870975792	-0.060942
C	-0.2403257499	 2.0144589832	 3.6845747539	-0.136911
C	-0.8964770913	 0.7004920457	 3.8504326162	 0.36435
O	-1.2845061608	 0.3056437297	 4.9317530906	-0.331956
C	-1.0130549878	-0.1520782164	 2.5897699575	-0.327566
H	-1.6060866138	 0.1176165339	-1.8261738341	 0.289946
H	-2.1348133103	-0.9062687287	 0.2111610294	 0.091778
H	-0.3837395802	-0.7591754561	-0.0472741669	 0.083892
H	-2.1557592376	 1.239897719	 1.4184187621	 0.09489
H	 0.8518138685	 1.2435064222	 0.8947874866	 0.113839
H	-0.3178723885	 2.4406614644	 0.3951606577	 0.132846
H	 0.6634860822	 3.4288255779	 2.4213739023	 0.107297
H	-0.0772972675	 2.5779993976	 4.5979391482	 0.105058
H	-0.0815221348	-0.7330603661	 2.5071843077	 0.118479
H	-1.824059943	-0.8704082198	 2.7396406465	 0.12022
83.659	121.3507	146.7923	199.3631	259.6232	312.5473	349.1185	393.1698	452.4493	469.5652	534.7764	608.7787	708.4905	756.4162	821.8768	882.5173	903.3742	957.8072	972.4669	1026.2939	1060.7257	1081.1762	1082.5157	1113.8315	1153.5216	1184.0473	1219.3957	1245.11	1259.7391	1283.4709	1303.2723	1330.9342	1368.9536	1396.4118	1407.8394	1458.0075	1458.8516	1472.1632	1518.8746	1681.0655	1778.7202	2955.0369	2981.3969	2989.4964	3000.6956	3026.523	3085.019	3092.1027	3148.0792	3188.2835	3835.1672
OCC1CC=CC(=O)C1	OC[C@@H]1CC=CC(=O)C1	
InChI=1S/C7H10O2/c8-5-6-2-1-3-7(9)4-6/h1,3,6,8H,2,4-5H2	InChI=1S/C7H10O2/c8-5-6-2-1-3-7(9)4-6/h1,3,6,8H,2,4-5H2/t6-/m1/s1
