19
gdb 4226	2.5350953	1.6157295	1.3650465	0.8138	73.92	-0.22095	0.06997	0.29092	1035.018	0.157475	-422.52641	-422.518569	-422.517625	-422.558353	31.227	
C	 1.6013713067	-0.5878364703	-1.2081457527	-0.410539
C	 1.2447618654	 0.1183243409	 0.1018306468	 0.032345
C	 1.840522529	 1.5565513421	 0.210751292	-0.230935
C	 2.2946509941	 1.6464391465	 1.6606206238	 0.013947
O	 1.1318285897	 1.4134992334	 2.5261553329	-0.306983
C	 1.5392002297	 0.0567130166	 2.7034829037	-0.015885
C	 1.8155042315	-0.5882507683	 1.3376641745	-0.123776
C	 2.8612449883	 0.2430831755	 2.0251515138	 0.302581
O	 4.1608962498	-0.1466171919	 2.2489197489	-0.454174
H	 1.1557011354	-1.5870466582	-1.2575088049	 0.112393
H	 1.239012294	-0.01881866	-2.0711776374	 0.112754
H	 2.6865673869	-0.6992582544	-1.3120325123	 0.119141
H	 0.1541089946	 0.1761729637	 0.1860369108	 0.08305
H	 2.7083904644	 1.6694468607	-0.4521897569	 0.098719
H	 1.1159543287	 2.3352109265	-0.0439252452	 0.106544
H	 2.8422456576	 2.5432227078	 1.9593547275	 0.075827
H	 1.1949772754	-0.4762140135	 3.5819412568	 0.105691
H	 1.9361376773	-1.6668647147	 1.3525441494	 0.089243
H	 4.4713298314	 0.2763545979	 3.0578261487	 0.290057
106.2343	209.1066	248.944	297.7969	334.9047	362.0664	376.9329	425.6653	544.7266	596.0266	683.6137	687.116	768.1167	838.5695	853.6376	893.8454	921.1669	942.595	959.8958	977.1798	1002.1153	1021.8855	1035.125	1078.015	1113.3234	1146.5083	1154.2088	1174.1198	1240.5205	1250.0846	1277.9486	1291.0287	1312.8118	1328.1792	1332.6346	1371.0315	1409.7799	1473.6382	1491.3263	1498.063	1499.5544	3024.5924	3028.5325	3040.8622	3089.6291	3093.6485	3095.7103	3098.889	3171.753	3187.3411	3786.5266
CC1CC2OC3C1C23O	C[C@@H]1C[C@H]2O[C@H]3[C@@H]1[C@@]23O	
InChI=1S/C7H10O2/c1-3-2-4-7(8)5(3)6(7)9-4/h3-6,8H,2H2,1H3	InChI=1S/C7H10O2/c1-3-2-4-7(8)5(3)6(7)9-4/h3-6,8H,2H2,1H3/t3-,4-,5-,6+,7+/m1/s1
