19
gdb 1790	3.0773083	1.4038571	1.2291864	3.3197	75.96	-0.24076	-0.02583	0.21493	1084.3189	0.15628	-422.553256	-422.545087	-422.544143	-422.585896	31.338	
C	-1.2188857155	 3.8669089875	 0.2351522216	-0.49382
C	-0.2721626111	 2.8774989459	-0.3793146743	 0.447635
C	 1.2663111802	 3.0538605766	-0.4811329456	-0.275492
C	 1.104442009	 1.8238494624	-1.4290747452	-0.098129
C	-0.2413218721	 2.4694448995	-1.8785010839	-0.269088
C	 0.5531669511	 0.7835730474	-0.4182788126	 0.036587
O	-0.3918297291	 1.5891835632	 0.2827956954	-0.304497
C	 1.6306179601	 0.1997174367	 0.4733859041	 0.139202
O	 1.8974707112	 0.5731267356	 1.5847113282	-0.237589
H	-0.9961760681	 3.9964334574	 1.2984711468	 0.137101
H	-1.1336280223	 4.8379449244	-0.2603594688	 0.118006
H	-2.2520828088	 3.5180801457	 0.1436870799	 0.129215
H	 1.5616642914	 3.954195891	-1.0222972084	 0.101271
H	 1.8391300835	 2.9353763279	 0.4397970428	 0.127126
H	 1.8733264751	 1.4976719538	-2.1277631106	 0.081172
H	-0.0926760564	 3.3148229845	-2.5528511025	 0.104107
H	-1.0398575019	 1.8149767732	-2.2375148298	 0.099998
H	 0.0509192851	-0.0509166322	-0.931624386	 0.086293
H	 2.1994065787	-0.6275226506	-0.015501781	 0.070903
89.8871	133.3296	206.9227	234.5906	295.3853	320.6563	375.7105	489.7169	520.0726	592.0601	663.5169	775.0937	802.6823	823.7525	854.4482	871.7851	896.6326	931.8783	956.8246	976.5512	1009.3319	1031.7702	1044.267	1073.5092	1112.2402	1130.029	1190.1553	1193.8765	1219.6333	1232.9419	1271.6339	1282.6923	1340.6123	1368.8673	1419.1287	1420.7788	1471.9886	1481.1712	1493.8194	1509.3681	1838.4565	2844.6962	2989.2383	3042.9115	3063.3057	3080.7561	3114.0378	3120.6927	3130.2059	3132.9962	3148.6137
CC12CC(C1)C(O2)C=O	C[C@]12C[C@H](C1)[C@H](O2)C=O	
InChI=1S/C7H10O2/c1-7-2-5(3-7)6(4-8)9-7/h4-6H,2-3H2,1H3	InChI=1S/C7H10O2/c1-7-2-5(3-7)6(4-8)9-7/h4-6H,2-3H2,1H3/t5-,6-,7+/m1/s1
