19
gdb 3071	2.6464371	1.5428089	1.3170602	2.4331	74.82	-0.2402	-0.02698	0.21322	1042.3761	0.156782	-422.547637	-422.53952	-422.538576	-422.580373	30.894	
C	-0.1047267329	-0.1676732985	-0.0900365475	-0.438859
C	 1.4089063105	-0.0681892717	-0.0148108821	 0.037214
C	 2.2012656898	-0.8637949382	 1.058280336	 0.093647
C	 3.449456173	-0.6786531298	 0.1650831864	-0.246499
C	 2.3739902449	-0.8836191601	-0.9502731985	-0.091482
C	 1.9697907863	-2.3297106891	-0.6171939063	 0.038352
O	 1.8179896176	-2.237830089	 0.8133309091	-0.296822
C	 0.7191577275	-2.8736227438	-1.2824354666	 0.119735
O	 0.493701435	-2.7657517159	-2.4603390451	-0.252595
H	-0.5674453302	 0.5246933711	 0.6213400059	 0.116245
H	-0.474438425	 0.0834611453	-1.0891321077	 0.130677
H	-0.4584205153	-1.1711643658	 0.1625687488	 0.127139
H	 1.7274204067	 0.9775821353	-0.0158179729	 0.080555
H	 2.164541608	-0.6667566661	 2.1284842767	 0.082359
H	 3.8564865548	 0.3329576738	 0.1859236533	 0.106345
H	 4.2434975849	-1.4227577552	 0.258949083	 0.102431
H	 2.5323428775	-0.6428974762	-1.9991871376	 0.091349
H	 2.7791365648	-3.0366413297	-0.8603781165	 0.107099
H	 0.0388978722	-3.4230377664	-0.5934553484	 0.09311
74.883	163.2245	174.132	232.5735	261.4766	311.1861	431.5736	487.5683	557.4524	640.7487	687.8379	741.2532	802.9955	813.0078	856.715	895.1656	932.8707	972.2377	992.688	1020.2552	1036.0666	1069.4179	1084.0015	1088.5386	1110.7312	1123.4267	1160.9447	1198.5316	1231.1455	1239.864	1266.1592	1286.4018	1329.4348	1349.981	1391.7974	1398.2233	1411.8919	1484.0606	1498.6801	1508.7998	1828.0651	2884.971	2978.6736	3037.1642	3069.8766	3077.2182	3100.6517	3115.1093	3138.2942	3141.6587	3149.1557
CC1C2CC1C(O2)C=O	C[C@H]1[C@@H]2C[C@H]1[C@@H](O2)C=O	
InChI=1S/C7H10O2/c1-4-5-2-6(4)9-7(5)3-8/h3-7H,2H2,1H3	InChI=1S/C7H10O2/c1-4-5-2-6(4)9-7(5)3-8/h3-7H,2H2,1H3/t4-,5-,6+,7+/m1/s1
