19
gdb 5904	2.3709215	1.0575219	0.80121	2.8669	77.98	-0.25599	0.04871	0.30469999999999997	1460.0984	0.153776	-422.480389	-422.470237	-422.469293	-422.516329	35.333	
C	 1.634875168	 0.3535870424	 0.058841689	-0.230549
O	 0.2612506351	 0.0409056462	 0.0820717448	-0.235176
C	-0.4271939381	 0.664809803	 1.1416196212	-0.064347
C	-1.911208266	 0.2628276324	 1.0463729411	-0.242725
C	-2.639730875	 0.7413492957	 2.2164101242	 0.31606
C	-3.201935549	 1.1513973779	 3.1961961385	-0.447815
C	-2.5083464272	 0.7354022138	-0.2779281844	 0.103383
C	-3.3518526192	 1.9290314247	-0.4055601222	-0.187938
O	-3.9155613266	 0.6128950403	-0.4400642554	-0.238277
H	 2.1395881484	 0.0341728899	 0.9837965657	 0.108988
H	 2.0760858256	-0.1783761687	-0.7871149099	 0.131817
H	 1.8049081004	 1.4337966699	-0.0702302994	 0.108277
H	-0.0209489275	 0.348603099	 2.1147118883	 0.103807
H	-0.3320677998	 1.7615551034	 1.0827312041	 0.098623
H	-1.9411039755	-0.835620658	 1.0369301254	 0.126505
H	-3.7153440132	 1.497228173	 4.0591309668	 0.198202
H	-1.920747662	 0.4196198621	-1.1379558514	 0.112649
H	-3.5954748661	 2.5091967216	 0.4815213554	 0.125892
H	-3.3740797021	 2.4709741416	-1.3498918019	 0.112626
60.4463	84.6929	101.6673	124.4002	148.3456	216.641	240.8744	300.0515	340.5552	377.5279	463.9803	570.1971	615.8235	634.9109	655.0654	761.3342	880.6198	916.3117	949.3929	991.8838	1047.5434	1077.3399	1086.5677	1136.1027	1160.074	1161.749	1180.6524	1189.9068	1225.3459	1245.3215	1285.151	1309.93	1335.3257	1413.489	1427.6796	1479.9232	1486.0724	1502.5129	1522.7704	1527.4045	2239.268	2965.7524	2978.1932	3003.5236	3021.1368	3023.1164	3091.0781	3119.0366	3134.946	3184.6006	3503.7794
COCC(C#C)C1CO1	COC[C@@H](C#C)[C@@H]1CO1	
InChI=1S/C7H10O2/c1-3-6(4-8-2)7-5-9-7/h1,6-7H,4-5H2,2H3	InChI=1S/C7H10O2/c1-3-6(4-8-2)7-5-9-7/h1,6-7H,4-5H2,2H3/t6-,7+/m1/s1
