19
gdb 5268	2.5419039	1.6222651	1.1920082	2.3509	77.18	-0.23749	-0.00141	0.23608	1078.9767	0.15779	-422.526492	-422.51836	-422.517416	-422.559084	31.342	
O	 0.0422560304	 1.4554511486	-0.3853709714	-0.424307
C	 0.1256371221	 0.1360222137	 0.1186915984	-0.108189
C	-1.2637361485	-0.4921697121	 0.1525861545	 0.396307
C	-2.1600081335	-0.0373505126	 1.3140691542	-0.298338
C	-2.1292202629	-1.2894704959	 2.2573490093	-0.250857
C	-1.9520176539	-2.4505648999	 1.2749276691	-0.201377
C	-1.4189845537	-1.9785002404	 0.1544777098	 0.145546
C	-1.5405927319	-1.9373091308	-1.3479232571	-0.170899
O	-1.7699905331	-0.4932480099	-1.2480581576	-0.35836
H	-0.4434481107	 1.3798041901	-1.2170947611	 0.291946
H	 0.8048517918	-0.4852002141	-0.4863399143	 0.080815
H	 0.5444895315	 0.2013146112	 1.1285726456	 0.107594
H	-1.827578178	 0.8873774421	 1.7924008721	 0.109359
H	-3.1784490563	 0.1105796947	 0.9430011612	 0.117486
H	-1.3136361421	-1.2234716451	 2.9897429983	 0.112865
H	-3.0536460997	-1.3926954054	 2.8344352111	 0.110539
H	-2.3317463106	-3.4485489806	 1.4592330555	 0.103105
H	-0.6320322414	-2.1538840224	-1.9230596115	 0.11301
H	-2.3898571094	-2.4660254611	-1.7917283159	 0.123754
94.8341	133.1023	199.251	252.5747	297.8435	354.5695	376.3748	488.722	504.9529	606.1807	648.5957	710.2121	775.2857	833.7172	865.99	890.4276	915.2508	926.1309	952.8704	965.1174	996.8988	1029.3723	1065.248	1100.3242	1125.3936	1139.9455	1187.2852	1195.2511	1227.1048	1248.0543	1280.8906	1303.0327	1318.5692	1336.9294	1385.2279	1432.4384	1479.4608	1491.2823	1501.434	1512.5313	1741.6913	2977.9348	3019.42	3022.8768	3059.895	3071.4679	3075.7856	3082.3235	3115.3463	3202.0446	3770.625
OCC12CCC=C1CO2	OC[C@]12CC[CH][C]1CO2	
InChI=1S/C7H10O2/c8-5-7-3-1-2-6(7)4-9-7/h2,8H,1,3-5H2	InChI=1S/C7H10O2/c8-5-7-3-1-2-6(7)4-9-7/h2,8H,1,3-5H2/t7-/m1/s1
