19
gdb 4606	3.196167	0.7890017	0.7076363	1.306	81.36	-0.24842	0.02595	0.27437	1649.4877	0.154717	-422.503772	-422.493595	-422.49265	-422.540614	35.32	
C	 4.5149434499	-1.0236060967	-1.0765536803	-0.429435
C	 3.9557392913	-0.0023882297	-0.089922956	 0.219313
C	 4.633868479	 1.402791754	-0.0982672747	-0.320178
C	 5.0665144811	 1.0559415193	 1.3365267645	-0.065805
O	 4.4624356814	-0.2517317509	 1.2581817769	-0.304709
C	 2.4964520029	 0.0219126571	-0.1212358668	 0.086789
C	 1.2918169495	 0.0421977669	-0.165644899	 0.034242
C	-0.1697496196	 0.0850769407	-0.1519969083	-0.196416
O	-0.7000678013	 1.2360253801	 0.4905748136	-0.401337
H	 4.1546313521	-2.0248693172	-0.825694303	 0.135585
H	 4.1977298064	-0.7852070022	-2.0964026855	 0.126154
H	 5.6075571386	-1.0227186078	-1.0317326761	 0.118298
H	 5.4438324737	 1.4936581116	-0.8237571449	 0.113484
H	 3.9512483681	 2.2452884181	-0.202705601	 0.122887
H	 6.1460602094	 0.9955490559	 1.5162185911	 0.104731
H	 4.6103205754	 1.6687794003	 2.1234043466	 0.105452
H	-0.5538453347	 0.1135015574	-1.1778716337	 0.141074
H	-0.5537695913	-0.8418934779	 0.3033442383	 0.121453
H	-0.2988837919	 1.2864528809	 1.3645375082	 0.288419
29.8594	52.2641	92.9015	114.1206	191.8038	232.7678	275.8395	321.4474	353.3567	357.8718	447.2019	539.2871	586.2535	614.9339	775.0306	824.7817	870.5811	892.4332	973.0385	981.6496	996.7771	1024.3574	1030.1816	1079.7283	1118.9701	1162.0514	1190.8386	1212.8168	1216.2235	1259.7766	1288.6322	1349.358	1360.2086	1399.8994	1417.5069	1478.5222	1485.3562	1488.9078	1491.1887	1531.8828	2349.9943	2977.2194	3020.4328	3041.2476	3060.1097	3062.1005	3086.6159	3119.555	3125.1662	3150.0795	3816.2083
CC1(CCO1)C#CCO	C[C@@]1(CCO1)C#CCO	
InChI=1S/C7H10O2/c1-7(3-2-5-8)4-6-9-7/h8H,4-6H2,1H3	InChI=1S/C7H10O2/c1-7(3-2-5-8)4-6-9-7/h8H,4-6H2,1H3/t7-/m0/s1
