19
gdb 5760	5.3344894	1.0250838	0.9474696	2.6832	75.04	-0.24464	0.06754	0.31218	1257.6398	0.157991	-422.50777	-422.499952	-422.499008	-422.540216	30.259	
O	 1.2344890651	 0.8822991489	 0.0669861888	-0.42237
C	 0.3862682596	-0.0715693239	 0.6716790665	-0.070398
C	-0.899978758	 0.5865143039	 1.145439223	 0.107271
O	-1.5330889223	 1.2510491757	 0.0158816994	-0.325519
C	-2.684358808	 0.3831093118	 0.0872810891	 0.113787
C	-3.8045102194	 0.9620721238	 0.9341500028	-0.064089
C	-4.5596446308	-0.1565064576	 1.5980667279	-0.299094
C	-3.2379472084	 0.2592657733	 2.1790630527	-0.05622
C	-2.1083875609	-0.3445548506	 1.3546117272	-0.119036
H	 0.6832293183	 1.3455413223	-0.5767011076	 0.29278
H	 0.1412289268	-0.8932742494	-0.022344852	 0.081508
H	 0.928805273	-0.5016145095	 1.5215535064	 0.105866
H	-0.6887945792	 1.3003344914	 1.9512510904	 0.08332
H	-2.9165561973	-0.0739793506	-0.8788017582	 0.079936
H	-4.205901554	 1.9628109416	 0.8337836071	 0.09757
H	-5.4348598975	 0.1525376729	 2.1600057181	 0.119101
H	-4.6675034194	-1.1224105755	 1.1090774768	 0.108697
H	-3.1452401842	 0.6394403628	 3.189854449	 0.090859
H	-1.9060514734	-1.4149621014	 1.4345078525	 0.076034
88.4197	133.6167	176.069	286.8443	326.2744	345.3129	477.8395	496.6989	549.1578	685.1053	769.5484	811.2486	837.1225	865.0914	916.6345	938.4776	955.4164	971.0366	1009.501	1031.2514	1047.1406	1061.8864	1066.9852	1069.9618	1091.7031	1096.0042	1115.6871	1173.47	1203.5692	1211.4271	1218.99	1233.6388	1282.927	1299.6396	1340.3619	1343.7399	1357.6056	1398.003	1436.3673	1490.6687	1499.3029	2962.462	3032.7512	3065.8812	3066.0836	3083.2944	3107.7456	3176.2696	3192.4801	3205.1406	3775.7363
OCC1OC2C3CC3C12	OC[C@H]1O[C@@H]2[C@H]3C[C@H]3[C@H]12	
InChI=1S/C7H10O2/c8-2-5-6-3-1-4(3)7(6)9-5/h3-8H,1-2H2	InChI=1S/C7H10O2/c8-2-5-6-3-1-4(3)7(6)9-5/h3-8H,1-2H2/t3-,4+,5-,6-,7-/m1/s1
