19
gdb 5880	7.034207	0.4744772	0.4657149	0.794	83.27	-0.2456	0.0371	0.2827	2364.7229	0.154064	-422.478674	-422.468275	-422.46733	-422.516941	34.703	
C	 6.5793674917	-1.1738582968	-3.989277307	-0.218144
O	 5.7203319804	-0.9224358497	-2.9020946826	-0.228602
C	 4.3821965965	-0.7254764412	-3.3191996205	-0.202537
C	 3.5269597442	-0.4726321518	-2.1681433369	 0.023613
C	 2.7952830011	-0.2684985259	-1.2351255834	 0.129942
C	 1.9262989302	 0.0085850512	-0.0965168718	-0.384028
C	 1.5887346345	 1.4829074021	 0.0489964128	 0.109597
C	 0.3325973105	 1.9216386027	 0.6660250394	-0.181414
O	 0.5174598815	 1.975679101	-0.7506150291	-0.225085
H	 7.5836836955	-1.3117656766	-3.5827125524	 0.130265
H	 6.2895749508	-2.0836108993	-4.5395445307	 0.10418
H	 6.5957276663	-0.3340512292	-4.7025956935	 0.104562
H	 4.3211529498	 0.1232931906	-4.0230896693	 0.115614
H	 4.0178140654	-1.6119392354	-3.8680330127	 0.113749
H	 0.9903099034	-0.5559589422	-0.1867003861	 0.136209
H	 2.4147483027	-0.3341430292	 0.8260467566	 0.13704
H	 2.4519122106	 2.1470908507	 0.0994325753	 0.104375
H	-0.3828840346	 1.177503129	 1.0149823779	 0.113519
H	 0.2827109792	 2.88464317	 1.171817054	 0.117146
14.9833	50.7157	69.0016	102.9737	114.7469	231.7269	263.9575	300.6302	321.6892	379.2943	395.4916	478.3812	555.163	787.2128	818.4355	862.1226	937.9679	959.3427	978.1782	1026.9908	1094.9629	1107.4066	1136.5539	1158.0889	1168.2251	1178.3429	1182.615	1220.241	1245.0685	1254.7823	1293.3411	1320.3436	1411.775	1438.6511	1450.2141	1477.2477	1484.3925	1495.859	1516.7316	1530.3371	2376.9979	2942.7061	2959.8206	2967.5056	3009.2648	3017.0315	3058.3974	3081.8308	3112.4853	3119.732	3168.3265
COCC#CCC1CO1	COCC#CC[C@@H]1CO1	
InChI=1S/C7H10O2/c1-8-5-3-2-4-7-6-9-7/h7H,4-6H2,1H3	InChI=1S/C7H10O2/c1-8-5-3-2-4-7-6-9-7/h7H,4-6H2,1H3/t7-/m1/s1
