19
gdb 1185	2.4606872	1.180446	1.0935143	1.3158	77.71	-0.25591	0.02369	0.2796	1240.4665	0.152136	-422.508196	-422.497464	-422.49652	-422.544013	38.138	
C	 5.2067075094	-1.6305841631	 0.0520016684	-0.426689
C	 4.3672001754	-1.3804152613	 1.2783287669	 0.023393
O	 3.0625834449	-1.9798571083	 1.3390677254	-0.299524
C	 3.1515375318	-0.5498026575	 1.3653595682	 0.393571
C	 2.7855685122	 0.104980726	 2.6786889865	-0.483381
C	 2.5982905643	 0.1402834975	 0.1121341343	-0.114861
O	 3.1631306807	 1.4441366017	-0.0323724401	-0.42153
C	 1.1344808361	 0.180977666	 0.120183328	 0.294323
C	-0.0648260109	 0.2605852968	 0.1456952114	-0.445948
H	 5.6373601997	-2.6363762888	 0.0975099768	 0.129152
H	 4.6323130628	-1.5575897274	-0.8730395494	 0.130255
H	 6.0324334557	-0.9127967547	 0.007009821	 0.131283
H	 4.9243964793	-1.4797466744	 2.2131748589	 0.085681
H	 3.2095725706	-0.4561326578	 3.5143420561	 0.129062
H	 3.1714191925	 1.1286655096	 2.7172572644	 0.122112
H	 1.6987670153	 0.1392301632	 2.801611467	 0.136916
H	 2.9206152116	-0.4295206205	-0.7635528667	 0.120116
H	 2.576074853	 2.0684600019	 0.4059468983	 0.291718
H	-1.1257924343	 0.313375271	 0.1541914946	 0.20435
42.0542	117.9922	143.4797	159.3114	173.1844	198.1199	226.7348	252.5708	269.0714	347.9987	410.8273	472.6349	494.1225	551.5365	601.2092	634.4489	676.6106	753.5528	782.9117	882.0821	931.0064	980.6895	1007.14	1057.9345	1066.1889	1115.145	1131.0762	1167.3829	1250.7626	1262.4333	1297.6178	1370.856	1396.6504	1407.1438	1411.5106	1463.4288	1481.4156	1489.5544	1497.3291	1518.524	2232.3066	3041.6937	3042.8589	3075.4751	3077.3921	3102.8153	3111.1408	3129.0169	3136.307	3501.1384	3825.2388
CC1OC1(C)C(O)C#C	C[C@@H]1O[C@]1(C)[C@H](O)C#C	
InChI=1S/C7H10O2/c1-4-6(8)7(3)5(2)9-7/h1,5-6,8H,2-3H3	InChI=1S/C7H10O2/c1-4-6(8)7(3)5(2)9-7/h1,5-6,8H,2-3H3/t5-,6+,7-/m0/s1
