19
gdb 858	4.0066428	0.9445651	0.8430114	3.3196	76.71	-0.25111	-0.02392	0.22719	1367.08	0.156484	-422.56133	-422.55275	-422.551806	-422.595729	31.48	
O	 1.4072699193	-0.3514545595	 0.0234809482	-0.247908
C	 0.2383611593	-0.0803605557	 0.110550622	 0.152201
C	-0.3905897064	 0.7721888373	 1.1837264054	-0.068365
C	-1.1006882693	 2.0201918271	 0.5993463581	-0.235961
C	-2.0869826728	 2.4575604741	 1.7023825011	-0.300684
C	-2.3746419182	 1.1868447521	 2.5100038955	 0.446529
C	-3.5960132877	 0.9576703399	 3.2875098154	-0.255251
O	-2.3731916506	 1.3204171579	 3.9356059838	-0.270896
C	-1.5405921398	 0.0512640422	 1.9205029238	-0.308839
H	-0.4970877425	-0.459490602	-0.6421207921	 0.06484
H	 0.3915607243	 1.0705018098	 1.8883292776	 0.102647
H	-0.3962076907	 2.8054947258	 0.3163922289	 0.118464
H	-1.6477350761	 1.7310077311	-0.3071597481	 0.105248
H	-1.6266821366	 3.1883386422	 2.3745243027	 0.128646
H	-2.9931415324	 2.9130938098	 1.2942840414	 0.110002
H	-4.3777900822	 1.7168140502	 3.303454373	 0.112841
H	-3.9400926319	-0.0601697043	 3.4724147036	 0.111938
H	-1.2031005471	-0.640276381	 2.6951050954	 0.128124
H	-2.1406418686	-0.5160331372	 1.1957254841	 0.106424
35.3658	74.5721	123.5173	262.5897	318.3145	346.2569	376.2198	398.7899	435.4069	523.5082	615.9811	744.2022	804.9576	836.4066	877.8092	906.5109	939.255	946.2096	980.8505	1002.7357	1025.9794	1088.176	1094.6485	1130.541	1157.2455	1191.208	1204.7772	1216.3735	1257.2146	1260.2363	1296.2134	1307.7607	1334.9514	1355.034	1421.6423	1429.0823	1473.4026	1483.74	1501.3098	1534.385	1837.0806	2824.0639	3018.6927	3029.4091	3057.6212	3072.7354	3073.5074	3097.6412	3109.9873	3115.0585	3156.9464
O=CC1CCC2(CO2)C1	O=C[C@H]1CC[C@@]2(CO2)C1	
InChI=1S/C7H10O2/c8-4-6-1-2-7(3-6)5-9-7/h4,6H,1-3,5H2	InChI=1S/C7H10O2/c8-4-6-1-2-7(3-6)5-9-7/h4,6H,1-3,5H2/t6-,7-/m0/s1
