19
gdb 3421	2.2060508	1.954868	1.8377391	2.0211	73.92	-0.24359	-0.00164	0.24195	908.3808	0.160645	-422.572315	-422.565338	-422.564394	-422.603075	29.239	
O	 0.3852120705	-0.0900286867	 0.2399909333	-0.450173
C	-0.7614680984	 0.7180973037	 0.1979619056	 0.151061
C	-2.1356343554	-0.0234120257	 0.276137442	-0.096963
C	-2.0393902478	-1.00305981	 1.4682078169	-0.231481
C	-1.6996233128	-0.239316973	 2.7651133348	-0.07201
O	-0.694386221	 0.7689614991	 2.5877372841	-0.298621
C	-0.9210916119	 1.6194916393	 1.4387444461	 0.030926
C	-2.3568384626	 2.0771711385	 1.2883164459	-0.09996
C	-3.0400208469	 1.1474414243	 0.6130286099	-0.073589
H	 0.5902964076	-0.2047393439	 1.1785484078	 0.285946
H	-0.718461719	 1.3197039966	-0.7148995637	 0.083959
H	-2.4023301885	-0.5506048975	-0.6432634403	 0.068322
H	-2.9752025446	-1.5533887157	 1.6166341734	 0.096933
H	-1.2589109478	-1.7360928324	 1.2393497266	 0.112684
H	-2.6083276509	 0.222421148	 3.1700438442	 0.102973
H	-1.3016285047	-0.9143164485	 3.5278326483	 0.107962
H	-0.1771008991	 2.4134139501	 1.5272768475	 0.080173
H	-2.7490482061	 2.9956951744	 1.7066351879	 0.100897
H	-4.0961426906	 1.1836291894	 0.3696761895	 0.10096
207.5695	265.6653	313.0087	325.6162	379.224	474.1488	525.1447	551.1708	583.5505	601.0819	749.506	767.3924	788.6492	806.9103	848.6037	865.2496	943.883	970.0685	977.7156	1000.5265	1020.4496	1043.5987	1081.3931	1087.4665	1124.9816	1138.4747	1190.2461	1240.4469	1254.4382	1273.1414	1298.0855	1317.3597	1329.1233	1347.6669	1366.6532	1383.205	1410.9029	1435.8964	1483.3384	1504.2506	1652.2655	3028.549	3040.9855	3066.2906	3078.3425	3081.4487	3094.6167	3098.8986	3186.5195	3215.8297	3740.0672
OC1C2CCOC1C=C2	O[C@H]1[C@H]2CCO[C@@H]1C=C2	
InChI=1S/C7H10O2/c8-7-5-1-2-6(7)9-4-3-5/h1-2,5-8H,3-4H2	InChI=1S/C7H10O2/c8-7-5-1-2-6(7)9-4-3-5/h1-2,5-8H,3-4H2/t5-,6-,7+/m1/s1
