19
gdb 3140	2.2393811	1.4629769	1.3867507	0.879	75.12	-0.25511	-0.03244	0.22267	1076.9334	0.1543	-422.531436	-422.522291	-422.521346	-422.565139	33.726	
C	-0.2508567068	 0.1469715181	 0.0778003273	-0.418346
C	 1.2633359634	 0.0140766298	 0.1420808378	-0.066062
C	 1.9680936812	-0.6656516574	-1.0394629311	 0.028103
O	 1.5528389676	-2.0449744325	-1.0691670994	-0.250037
C	 2.5974883085	-1.668821061	-0.1764099064	-0.011855
C	 1.9182206487	-1.069683633	 1.0957117885	 0.169079
C	 1.0210009882	-2.0383555024	 1.8614644474	-0.473687
C	 2.9798033853	-0.4817348351	 2.004908581	 0.106714
O	 3.3828423995	 0.6533830095	 1.9799435618	-0.247396
H	-0.6649483116	 0.4546359014	 1.0434135592	 0.118978
H	-0.5343252379	 0.9075440061	-0.6577412961	 0.119079
H	-0.7210489127	-0.7955235951	-0.2145768715	 0.131021
H	 1.737829308	 0.9751804661	 0.3584673127	 0.110491
H	 2.303357787	-0.2376044356	-1.9769920265	 0.107333
H	 3.5417445418	-2.1966636949	-0.2532238051	 0.108845
H	 0.3559060887	-1.508452636	 2.5510600454	 0.125988
H	 0.4086594275	-2.6129208733	 1.163841757	 0.146663
H	 1.6189590359	-2.7436418309	 2.4503759728	 0.117193
H	 3.4080196174	-1.2182267436	 2.7245140052	 0.077894
70.1684	139.1211	199.1256	213.3348	227.7715	249.792	260.5064	309.7481	393.7392	447.0022	571.1723	627.7214	674.8828	737.3189	831.2132	845.96	863.7592	883.2904	938.8765	983.4132	1003.506	1038.9932	1055.4696	1077.043	1127.8804	1148.1089	1188.8562	1210.8603	1244.1472	1254.212	1281.0501	1370.4268	1383.7849	1401.2746	1411.0046	1430.7951	1483.9395	1497.3485	1498.6382	1513.1919	1820.9459	2858.19	3032.8917	3036.7776	3081.2726	3094.3487	3098.3859	3119.8556	3134.3757	3174.4327	3193.3935
CC1C2OC2C1(C)C=O	C[C@@H]1[C@@H]2O[C@@H]2[C@@]1(C)C=O	
InChI=1S/C7H10O2/c1-4-5-6(9-5)7(4,2)3-8/h3-6H,1-2H3	InChI=1S/C7H10O2/c1-4-5-6(9-5)7(4,2)3-8/h3-6H,1-2H3/t4-,5+,6+,7+/m1/s1
