19
gdb 1776	2.6250571	1.7058397	1.245875	2.6461	75.51	-0.23626	0.0142	0.25046	1030.9178	0.157009	-422.569077	-422.561068	-422.560124	-422.600636	32.973	
O	-4.0880189499	-0.3327977183	 0.0173431386	-0.486934
C	-2.9676764509	 0.2856732741	 0.595814261	 0.409927
C	-1.730574295	-0.5821930765	 0.984311821	-0.341124
C	-0.894163353	 0.6657485798	 0.5520279322	 0.387923
O	 0.3619295744	 0.5016849097	-0.0490569328	-0.494069
C	-2.0521843448	 1.0114856013	-0.4187726903	-0.280586
C	-0.9241290295	 1.6654459066	 1.6953829643	-0.140897
C	-2.095754512	 1.926673266	 2.2735815863	-0.069506
C	-3.334116034	 1.2279028705	 1.7579588831	-0.323697
H	-4.5994032651	-0.7499741834	 0.7196884566	 0.273405
H	-1.6339409954	-0.9376568549	 2.0137849713	 0.082823
H	-1.6067651124	-1.400009506	 0.2703399853	 0.105505
H	 0.983644426	 0.2105167578	 0.6269364506	 0.274857
H	-2.2403155291	 2.063619676	-0.640884201	 0.097563
H	-1.9759754119	 0.4264257059	-1.3380425315	 0.113625
H	 0.0049084853	 2.1460644229	 1.9881442888	 0.087915
H	-2.1950157554	 2.6345507352	 3.090559012	 0.094136
H	-3.8162762709	 0.6539138249	 2.5651030275	 0.093671
H	-4.0802663563	 1.9566847682	 1.413071677	 0.115463
235.8553	247.8733	258.5441	284.306	327.5619	338.5657	410.9094	442.0876	454.4506	488.8239	526.8616	577.589	700.6538	704.8708	714.5852	863.0362	911.732	924.4199	937.3876	956.6351	969.5576	971.4524	1014.5572	1046.2067	1073.7279	1078.2249	1156.4733	1180.4551	1181.802	1221.5749	1241.5595	1256.9428	1267.4192	1343.6103	1357.5153	1380.0546	1399.5885	1469.6706	1472.7602	1512.0042	1694.128	2984.8979	3031.601	3052.8148	3070.1646	3123.5758	3135.2406	3162.3441	3186.2204	3796.5751	3800.7077
OC12CC(O)(C1)C=CC2	O[C@@]12C[C@@](O)(C1)C=CC2	
InChI=1S/C7H10O2/c8-6-2-1-3-7(9,4-6)5-6/h1-2,8-9H,3-5H2	InChI=1S/C7H10O2/c8-6-2-1-3-7(9,4-6)5-6/h1-2,8-9H,3-5H2/t6-,7+
