19
gdb 583	2.3262116	2.0503319	1.5090098	1.2552	75.34	-0.2416	0.02147	0.26307	953.7266	0.159982	-422.57264	-422.565312	-422.564367	-422.604426	28.641	
C	 0.8914830995	 1.7701665176	 0.2496139538	-0.095431
O	 0.8590456245	 0.3839659293	 0.5589258145	-0.269959
C	 0.6934692189	-0.3440127455	-0.647628259	 0.198761
C	-0.721361577	-0.9111114772	-0.7537495832	-0.275324
C	-1.8606346737	 0.075642369	-0.7890581164	-0.044215
C	-1.8781488331	 1.3542875265	-1.1698866715	-0.057425
C	-0.7566056784	 2.2192190976	-1.6890746665	-0.267644
C	 0.6660773827	 1.8396898644	-1.2753693693	 0.062645
O	 1.0227904656	 0.5278357855	-1.7054158832	-0.258273
H	 0.1093418729	 2.295668956	 0.8089762033	 0.107165
H	 1.8677611026	 2.1832332118	 0.5320291645	 0.101255
H	 1.4205219837	-1.1661363133	-0.6625273703	 0.08494
H	-0.7638956171	-1.545904688	-1.6513895844	 0.116504
H	-0.8600816246	-1.5893133944	 0.0972748835	 0.11371
H	-2.8145118467	-0.3529723192	-0.486350095	 0.087382
H	-2.8441482605	 1.855708387	-1.1476213335	 0.085247
H	-0.7995005791	 2.2340597047	-2.7879453052	 0.121316
H	-0.9301094159	 3.2581252455	-1.3768938754	 0.103636
H	 1.367992446	 2.5301614927	-1.7527264165	 0.085709
101.932	124.7248	277.8951	314.0379	363.9201	394.0024	451.9918	595.5635	689.021	731.4013	767.3538	817.2575	833.0593	861.5451	887.5872	916.8082	943.518	993.3883	997.0789	1021.3775	1043.6291	1061.8664	1080.2792	1112.0184	1170.0123	1214.0704	1232.477	1239.1007	1256.627	1319.675	1350.6344	1358.1875	1372.1564	1384.664	1399.4161	1420.5894	1440.9977	1454.5866	1461.9881	1526.6361	1733.3613	3003.4991	3004.0317	3017.5435	3029.802	3035.4022	3053.2438	3059.3534	3069.222	3125.8688	3150.2009
C1OC2CC=CCC1O2	C1O[C@H]2CC=CC[C@@H]1O2	
InChI=1S/C7H10O2/c1-2-4-7-8-5-6(3-1)9-7/h1-2,6-7H,3-5H2	InChI=1S/C7H10O2/c1-2-4-7-8-5-6(3-1)9-7/h1-2,6-7H,3-5H2/t6-,7+/m0/s1
