19
gdb 820	3.5428868	1.0432917	0.9342063	3.8311	77.75	-0.24549	-0.01534	0.23015000000000002	1285.9671	0.158366	-422.55924	-422.551196	-422.550252	-422.592129	30.31	
O	 0.8809367538	-0.9992445535	-0.2099139305	-0.27191
C	 0.4446778901	 0.077989039	 0.1132325112	 0.157645
C	 0.2035722922	 1.2106896801	-0.8015998874	-0.104218
C	-0.9681705867	 2.1471070524	-0.4961225458	-0.058423
C	-1.7776290276	 2.703230685	-1.6657874218	-0.239916
C	-1.0700220311	 3.9007612466	-2.3116729923	-0.070397
O	 0.3186250595	 3.6589416524	-2.4816521189	-0.238551
C	 0.9993249584	 3.6523061771	-1.2417332789	-0.111425
C	 0.434939143	 2.6217759888	-0.2810142464	-0.068832
H	 0.1811856208	 0.2959800369	 1.1780581367	 0.058129
H	 0.4274876905	 1.0281121894	-1.8474105857	 0.114749
H	-1.5359555897	 1.8906825764	 0.3935303356	 0.095428
H	-1.9428932742	 1.9214603798	-2.4147007083	 0.118457
H	-2.7660615271	 3.0192954352	-1.3157402792	 0.1067
H	-1.4731420521	 4.1061397446	-3.3069013748	 0.112393
H	-1.2133974487	 4.8028921063	-1.6942010047	 0.090485
H	 2.0503952273	 3.4474383391	-1.4679220577	 0.119242
H	 0.9400735315	 4.6502096236	-0.7734654516	 0.095054
H	 0.7868505603	 2.7118355406	 0.7434126506	 0.09539
97.2602	99.4786	217.5156	254.8015	280.8008	345.2625	390.9093	470.793	511.4278	537.6844	714.6092	775.3655	806.5918	863.1148	906.4503	930.5867	958.2486	1016.4676	1046.1168	1054.103	1077.7529	1083.284	1111.395	1130.6333	1145.9099	1163.0522	1222.4013	1237.0016	1266.0227	1277.9118	1324.1903	1352.9001	1367.531	1385.0749	1421.5759	1429.2489	1456.5266	1486.7937	1493.389	1503.9111	1819.9589	2822.3258	2956.8899	2970.8819	3041.9246	3076.2624	3080.0258	3093.8421	3140.1507	3149.9961	3178.1731
O=CC1C2CCOCC12	O=C[C@H]1[C@@H]2CCOC[C@H]12	
InChI=1S/C7H10O2/c8-3-6-5-1-2-9-4-7(5)6/h3,5-7H,1-2,4H2	InChI=1S/C7H10O2/c8-3-6-5-1-2-9-4-7(5)6/h3,5-7H,1-2,4H2/t5-,6-,7-/m0/s1
