19
gdb 5660	2.1623452	1.6151407	1.3002324	4.0287	76.81	-0.2347	-0.00736	0.22734	1072.9621	0.157424	-422.591308	-422.582714	-422.58177	-422.624704	32.343	
O	-2.9951193411	 1.0076992126	-0.2718482968	-0.409057
C	-1.9542140543	 0.0496308393	-0.2633456828	-0.066092
C	-0.6928719762	 0.55629705	 0.4710175922	-0.074163
C	-0.088508029	 1.7915843831	-0.2270234049	-0.312146
C	-0.8597460661	 3.075454166	 0.0287162301	 0.408486
O	-1.0760756617	 3.8930496011	-0.832016394	-0.317627
C	-1.2692345132	 3.3236948612	 1.4814924049	-0.35455
C	-1.3058009123	 2.0930008919	 2.3479568065	-0.062085
C	-1.0285967148	 0.8635517003	 1.9095581618	-0.094527
H	-3.2401783364	 1.1682271336	 0.6470277697	 0.284918
H	-2.284958952	-0.8998472715	 0.1862828442	 0.088294
H	-1.7146334688	-0.1474698609	-1.3134433381	 0.115691
H	 0.0411439462	-0.2593578071	 0.4368932482	 0.081809
H	 0.9215534431	 1.9531558644	 0.1753328494	 0.121162
H	 0.002774579	 1.65117703	-1.3070611269	 0.120721
H	-0.5600822663	 4.0549772614	 1.8987754921	 0.137728
H	-2.2348790625	 3.842637823	 1.4726797951	 0.140453
H	-1.5641589506	 2.2467350874	 3.3934951207	 0.096884
H	-1.0850857229	 0.0220129342	 2.5962260485	 0.0941
77.8464	99.9086	133.0711	213.2151	317.4303	385.8152	406.7336	446.036	454.098	487.7596	561.281	628.0113	714.533	739.4673	792.8285	866.5202	915.8027	935.6298	963.1316	974.6892	1006.9451	1013.7191	1082.2735	1088.0695	1145.5623	1178.5461	1201.6203	1225.8277	1230.6103	1286.021	1323.7627	1337.9428	1368.1677	1390.7515	1409.1535	1426.5978	1438.3903	1458.7993	1502.1966	1716.1547	1824.2431	2979.9518	3004.4579	3014.3193	3026.6105	3059.6781	3075.8458	3102.8119	3140.6918	3163.9933	3787.2936
OCC1CC(=O)CC=C1	OC[C@H]1CC(=O)CC=C1	
InChI=1S/C7H10O2/c8-5-6-2-1-3-7(9)4-6/h1-2,6,8H,3-5H2	InChI=1S/C7H10O2/c8-5-6-2-1-3-7(9)4-6/h1-2,6,8H,3-5H2/t6-/m1/s1
