19
gdb 5622	2.5458127	1.4308721	1.0934977	2.8049	75.65	-0.2437	0.00044	0.24414	1154.7512	0.15611	-422.549833	-422.541013	-422.540069	-422.583134	33.18	
C	-2.6104745169	-1.7975390031	 1.9424211962	-0.490905
C	-2.0994863518	-0.4165977253	 1.6357591656	 0.397276
O	-2.7269680384	 0.2662718092	 0.5399817474	-0.301346
C	-2.8379277991	 0.83857226	 1.8705470099	-0.070342
C	-1.8293459867	 1.9050457239	 2.1372095912	-0.091573
C	-0.596238387	 1.3993715654	 2.0526876788	-0.074885
C	-0.6012223302	-0.0882807733	 1.7580842499	-0.144093
C	 0.202124093	-0.4566209531	 0.4989123362	-0.06923
O	 1.5690142117	-0.0875183024	 0.5950153398	-0.416911
H	-2.3403553664	-2.0965333185	 2.9608011543	 0.121963
H	-3.6981154587	-1.8328628757	 1.8427723764	 0.132169
H	-2.185154547	-2.5352063632	 1.2522227935	 0.127316
H	-3.8497949528	 0.8733991124	 2.2641244373	 0.093236
H	-2.0858730183	 2.9396610577	 2.3285824095	 0.102749
H	 0.3286947615	 1.9587648694	 2.1225413974	 0.112525
H	-0.1757103905	-0.6487004894	 2.6058454073	 0.069574
H	 0.09299614	-1.5321072174	 0.2891008973	 0.087051
H	-0.2054079727	 0.090369165	-0.3544647699	 0.134221
H	 1.9779376403	-0.6376691515	 1.270656882	 0.281205
99.1448	136.593	168.2638	190.047	269.1419	287.7336	315.0065	355.57	479.6248	499.6908	576.2988	603.7019	724.7094	770.5279	817.1986	851.6195	866.1187	932.4072	961.5806	971.3797	1002.9236	1015.6026	1051.1019	1080.1822	1091.958	1111.1663	1139.0009	1182.7392	1213.0463	1270.9164	1299.9377	1326.9528	1367.1221	1389.3563	1404.5692	1409.7816	1446.4588	1484.5392	1494.8832	1508.6439	1659.8831	2976.4002	2984.5303	3031.9557	3092.4765	3109.4417	3123.0871	3156.2394	3200.1122	3223.5932	3814.6599
CC12OC1C=CC2CO	C[C@@]12O[C@@H]1C=C[C@@H]2CO	
InChI=1S/C7H10O2/c1-7-5(4-8)2-3-6(7)9-7/h2-3,5-6,8H,4H2,1H3	InChI=1S/C7H10O2/c1-7-5(4-8)2-3-6(7)9-7/h2-3,5-6,8H,4H2,1H3/t5-,6-,7+/m1/s1
