19
gdb 3998	4.1569669	1.2401401	1.1440973	2.6195	75.36	-0.23733	0.0616	0.29893000000000003	1145.7473	0.155474	-422.496253	-422.487965	-422.487021	-422.528674	31.869	
C	 0.3273741967	 0.541483652	-0.0135682185	-0.413338
C	 0.9414499448	-0.7684707703	-0.463919647	 0.159306
O	 2.3931241835	-0.6588537919	-0.606188938	-0.30902
C	 2.6126197079	-1.6693724488	 0.3824644381	 0.045703
C	 1.1012906055	-1.8707583751	 0.617218119	-0.14567
C	 1.259275507	-3.3257066139	 0.1120296689	-0.074389
O	 1.7860790624	-3.270133601	-1.2172615348	-0.267444
C	 2.7105046616	-3.1488688499	-0.1315559971	 0.402552
C	 3.8846545833	-4.0702163197	-0.0912261337	-0.512256
H	 0.7498412357	 0.8697055269	 0.9414048156	 0.116797
H	 0.5156992612	 1.3226023568	-0.7565937103	 0.128768
H	-0.7569191981	 0.4328810697	 0.1026313455	 0.113834
H	 0.4956316118	-1.1189375079	-1.3997982497	 0.094978
H	 3.3319551073	-1.3891827739	 1.1573918453	 0.077691
H	 0.6279369736	-1.7267328053	 1.5871003879	 0.080887
H	 0.680614183	-4.2038558366	 0.3779400487	 0.103387
H	 4.3495810982	-4.0660666206	 0.8999518709	 0.124482
H	 3.5779765555	-5.0920571624	-0.3308752513	 0.134812
H	 4.6418523392	-3.760450638	-0.8203522797	 0.138921
124.4341	182.1682	189.7594	235.5549	252.309	297.6048	327.3944	396.9009	543.6398	564.8408	670.9642	740.3732	800.1887	819.57	854.5376	861.7561	878.7531	902.5174	961.1773	990.2439	1023.4689	1041.507	1072.9735	1093.5925	1099.7702	1125.4101	1164.5775	1185.9864	1222.3012	1244.4437	1260.7155	1283.9849	1327.1122	1367.5008	1403.0786	1405.0673	1457.7909	1481.4482	1483.3187	1492.2079	1493.9475	3031.1663	3033.6035	3061.4578	3069.1514	3097.4573	3103.7626	3111.9287	3118.8229	3129.2944	3174.9988
CC1OC2C1C1OC21C	C[C@H]1O[C@H]2[C@@H]1[C@H]1O[C@@]21C	
InChI=1S/C7H10O2/c1-3-4-5(8-3)7(2)6(4)9-7/h3-6H,1-2H3	InChI=1S/C7H10O2/c1-3-4-5(8-3)7(2)6(4)9-7/h3-6H,1-2H3/t3-,4-,5+,6-,7+/m1/s1
