19
gdb 1028	2.7555635	1.0051533	0.8864172	1.7548	79.46	-0.24656	0.04107	0.28763	1424.7967	0.155378	-422.52913	-422.519259	-422.518314	-422.567386	33.904	
C	 1.0651345683	-0.6261479245	 0.0269130283	-0.501022
C	-0.3282037233	-0.208332707	-0.0097749988	 0.066384
C	-1.4808317538	 0.1386351046	-0.0415478347	 0.114635
C	-2.8815248422	 0.5923848259	-0.082820261	-0.038099
O	-3.4968771309	 0.5444541911	 1.1870175597	-0.227499
C	-3.9847181927	-0.7849818814	 1.3019013559	-0.125884
C	-4.4297444678	-1.1295353577	-0.1317090276	 0.130831
C	-4.1830974771	-2.5714865855	-0.5474945462	-0.40118
O	-3.6637068585	-0.2237458513	-0.9420570612	-0.264292
H	 1.436007693	-0.676037214	 1.0564723064	 0.152703
H	 1.1954669112	-1.6162702247	-0.4232173101	 0.151356
H	 1.7021709216	 0.0757187036	-0.5221637554	 0.153062
H	-2.937285389	 1.6280141819	-0.4359015148	 0.112108
H	-3.1912494386	-1.4665752072	 1.641740292	 0.102224
H	-4.7994597901	-0.787827821	 2.0283753511	 0.117887
H	-5.4894062331	-0.8754905892	-0.2688858611	 0.083788
H	-4.7859156081	-3.2538119421	 0.062218633	 0.114355
H	-4.456602908	-2.7208046645	-1.5953206299	 0.129869
H	-3.1274036208	-2.831034447	-0.4255603856	 0.128775
5.7959	31.9201	94.7606	127.0841	206.5854	231.4378	321.2384	323.2034	356.5566	446.8485	467.8905	552.871	641.3802	760.2743	835.4357	852.8936	908.5553	949.8252	958.4907	1018.0431	1052.7829	1053.4504	1088.7028	1108.1194	1143.3167	1166.1523	1169.0284	1244.5517	1309.4643	1353.4869	1361.6978	1374.7026	1399.6234	1409.5283	1413.8745	1476.5483	1476.93	1485.1271	1496.3335	1510.279	2366.9097	2999.7252	3013.1547	3029.4523	3037.405	3051.6095	3091.6418	3092.0997	3108.527	3113.9525	3124.4858
CC#CC1OCC(C)O1	CC#C[C@@H]1OC[C@H](C)O1	
InChI=1S/C7H10O2/c1-3-4-7-8-5-6(2)9-7/h6-7H,5H2,1-2H3	InChI=1S/C7H10O2/c1-3-4-7-8-5-6(2)9-7/h6-7H,5H2,1-2H3/t6-,7+/m0/s1
