19
gdb 6093	5.507838	0.5601056	0.5149021	1.8301	80.99	-0.25572	-0.05846	0.19726	2098.4518	0.152618	-422.523797	-422.512965	-422.51202	-422.561349	36.558	
C	 0.3873818824	-4.0319273472	-1.7813580884	-0.38561
C	-0.7140693659	-3.0801745096	-1.3473574623	-0.030722
O	-0.1541680963	-2.0997267416	-0.4959644923	-0.250595
C	-1.1002184876	-1.161680111	-0.0350923819	-0.061696
C	-0.3680687645	-0.1743814731	 0.8626147172	-0.31689
C	-1.2771972606	 0.8961917295	 1.4291721364	 0.227189
O	-2.4646134501	 0.9564529954	 1.1892491141	-0.291485
C	-0.6283950231	 1.8683003918	 2.2961954242	 0.243156
C	-0.0747676842	 2.6633159184	 3.0105069869	-0.381555
H	 0.838323664	-4.5194083326	-0.9122787922	 0.126123
H	-0.0154348624	-4.8045187947	-2.4430080437	 0.11561
H	 1.173292611	-3.4914042786	-2.3165798836	 0.126121
H	-1.1794383254	-2.5992697618	-2.2244535504	 0.087514
H	-1.514390166	-3.6270843128	-0.820562622	 0.087513
H	-1.5752552864	-0.6319832374	-0.8755317518	 0.102679
H	-1.9094864537	-1.6567022334	 0.5240358679	 0.102663
H	 0.1172412619	-0.6995449641	 1.6952797281	 0.142571
H	 0.4474735668	 0.3126122946	 0.3127095037	 0.142585
H	 0.39763183	 3.3750893182	 3.64326801	 0.214829
46.0954	48.7467	79.9531	112.3743	137.4485	163.8524	230.0256	242.8682	248.9202	358.7114	429.565	525.5905	571.4492	611.5918	647.1203	704.9716	806.7106	822.2442	833.1378	909.9345	1036.6979	1058.4995	1072.8456	1102.5546	1162.7804	1170.2965	1184.2518	1219.4853	1293.3875	1297.3486	1330.1857	1391.3389	1409.4334	1445.3059	1460.9066	1483.9649	1499.2188	1514.873	1535.7462	1764.4206	2212.2197	2954.4815	2979.9257	2981.1025	3007.2108	3035.7549	3044.9028	3069.2945	3119.6184	3120.7979	3494.0914
CCOCCC(=O)C#C	CCOCCC(=O)C#C	
InChI=1S/C7H10O2/c1-3-7(8)5-6-9-4-2/h1H,4-6H2,2H3	InChI=1S/C7H10O2/c1-3-7(8)5-6-9-4-2/h1H,4-6H2,2H3
