19
gdb 1049	3.7891633	0.5622237	0.5096647	1.5874	82.99	-0.24142	-0.03405	0.20737	2129.591	0.152703	-422.539798	-422.528485	-422.527541	-422.579278	37.318	
C	 1.5584260067	 0.1105082526	-0.0820311929	-0.497209
C	 0.1043715829	 0.0408299038	-0.045426407	 0.111327
C	-1.0973560494	-0.0295360937	-0.0144132111	 0.021512
C	-2.5539805163	-0.0776473504	 0.0215782906	-0.361872
C	-3.1934621076	 1.320190303	-0.1088906625	-0.176661
C	-4.7234869287	 1.2627893938	-0.0491889472	 0.016595
O	-5.0895407875	 0.7188718462	 1.2111675089	-0.42476
C	-5.2854979993	 2.6725692328	-0.2004799432	 0.123563
O	-5.5781653969	 3.1822707335	-1.2498462873	-0.24097
H	 1.9902104489	-0.0137407416	 0.9173281429	 0.146311
H	 1.978751463	-0.6723991062	-0.72315115	 0.146746
H	 1.9016174865	 1.075183931	-0.4722765517	 0.146557
H	-2.9262493745	-0.7194769335	-0.7885707791	 0.122043
H	-2.897661358	-0.5339045266	 0.9560465758	 0.147177
H	-2.8268517292	 1.9630695886	 0.6993001346	 0.119624
H	-2.8981399029	 1.7827675128	-1.0554558831	 0.127879
H	-5.0998402165	 0.6533866256	-0.88416513	 0.093002
H	-6.0305414932	 0.5179508467	 1.1990667124	 0.293914
H	-5.394621358	 3.2042503315	 0.7737572596	 0.085223
17.9931	39.562	58.6373	79.6557	110.7556	197.1837	215.8707	253.0496	302.2072	311.1943	378.8382	398.8992	416.8727	497.837	580.4211	760.8306	784.9222	906.4866	950.6096	1023.0949	1050.8568	1053.6607	1057.3637	1092.7693	1110.8058	1170.0938	1173.407	1255.2922	1283.1736	1319.9453	1324.1661	1372.702	1390.997	1408.712	1415.5553	1473.0798	1479.0861	1479.6488	1487.3626	1835.6302	2374.0963	2868.2114	3002.675	3015.9363	3025.5601	3049.4736	3068.5572	3085.4399	3085.6814	3103.2745	3823.8376
CC#CCCC(O)C=O	CC#CCC[C@@H](O)C=O	
InChI=1S/C7H10O2/c1-2-3-4-5-7(9)6-8/h6-7,9H,4-5H2,1H3	InChI=1S/C7H10O2/c1-2-3-4-5-7(9)6-8/h6-7,9H,4-5H2,1H3/t7-/m1/s1
