19
gdb 2935	4.0369426	1.3944115	1.2163705	1.6773	74.44	-0.24622	0.09258	0.3388	1061.3797	0.159186	-422.511542	-422.504349	-422.503405	-422.542782	28.917	
C	-0.0338299791	 0.1134580024	-0.088716177	-0.437547
C	 1.4790385426	 0.1716759648	 0.0732632412	 0.028158
C	 2.1917191078	-0.4044518475	 1.3308961681	-0.13506
C	 3.4190134194	 0.4613645535	 0.9166330136	 0.155826
O	 4.3525142674	 0.7770433861	 1.9220424458	-0.278501
C	 3.7798946159	 1.6307212621	 2.8813229492	 0.015598
O	 2.4884968202	 1.2181680619	 3.2496848776	-0.278158
C	 1.728519637	 0.8598075407	 2.1156588566	 0.14872
C	 2.1816241735	 1.4039758401	 0.7158606832	-0.17282
H	-0.5824716282	 0.4110292902	 0.808040785	 0.122786
H	-0.3556442909	 0.7696312641	-0.9046445095	 0.120391
H	-0.3478847166	-0.9040991607	-0.3447676266	 0.121719
H	 1.9615025738	-0.1396361848	-0.8612091126	 0.070198
H	 2.2050694643	-1.4347716577	 1.6875242545	 0.074234
H	 3.9718841812	 0.1541477138	 0.0258967957	 0.082053
H	 4.4092766356	 1.6047480321	 3.773510662	 0.118886
H	 3.736417923	 2.6571352995	 2.4779532013	 0.085502
H	 0.6798732312	 0.9405754738	 2.3970281691	 0.081692
H	 2.1666837319	 2.4314700755	 0.3494782528	 0.076321
180.2075	209.1095	239.5635	282.9959	325.0925	473.073	481.1143	543.67	573.8018	712.5126	757.8314	801.7753	826.9816	882.17	901.448	979.6156	983.5511	1009.9102	1013.5123	1035.0013	1068.6393	1070.6041	1101.3388	1118.8915	1145.2279	1165.7764	1178.9635	1196.3654	1222.9619	1242.1228	1258.2191	1268.4123	1283.3275	1371.9641	1401.663	1423.9538	1433.7529	1452.1648	1496.2527	1504.0862	1525.4129	2951.3007	3028.9677	3037.8249	3085.9715	3094.3134	3101.7705	3106.6866	3110.3631	3116.7748	3132.6634
CC1C2C3OCOC2C13	C[C@@H]1[C@H]2[C@@H]3OCO[C@H]2[C@H]13	
InChI=1S/C7H10O2/c1-3-4-6-5(3)7(4)9-2-8-6/h3-7H,2H2,1H3	InChI=1S/C7H10O2/c1-3-4-6-5(3)7(4)9-2-8-6/h3-7H,2H2,1H3/t3-,4-,5+,6-,7+
