19
gdb 953	3.7768253	1.0298875	0.8732803	2.2021	78.52	-0.25011	0.01107	0.26118	1331.8944	0.158301	-422.602854	-422.594478	-422.593534	-422.636549	30.993	
O	 0.8106538703	 0.4134622001	 0.8257081485	-0.308119
C	 0.3611965536	-0.0652855176	-0.1806407139	 0.178764
O	-0.5978233823	 0.4542990505	-0.9549668057	-0.226063
C	-1.1493733421	 1.7409029055	-0.5413195931	 0.098474
C	-2.2785454043	 1.532195714	 0.4680338679	-0.226185
C	-3.0813043289	 2.8294019927	 0.6315404781	-0.218448
C	-3.7147483599	 3.2634718021	-0.6995126159	-0.242137
C	-2.7669127604	 3.1033381365	-1.8592899042	-0.059032
C	-1.6224014052	 2.4258398373	-1.7909475078	-0.0643
H	 0.6867382917	-1.0214547046	-0.6205612811	 0.108433
H	-0.3283247063	 2.2964720723	-0.0741684408	 0.117
H	-2.9294755427	 0.7332211533	 0.0927750898	 0.10675
H	-1.8614719172	 1.201193047	 1.4227676133	 0.118433
H	-3.8531317764	 2.7017310218	 1.3970840367	 0.10022
H	-2.4137775689	 3.6232167767	 0.9903842939	 0.107632
H	-4.6237130989	 2.6758137236	-0.8979620862	 0.113051
H	-4.0519118375	 4.305675446	-0.6381400275	 0.107101
H	-3.0517490005	 3.5740194134	-2.7974407387	 0.092244
H	-0.9674628244	 2.3451838594	-2.6538921133	 0.096184
50.6025	90.7316	187.8176	238.4767	272.2656	313.0996	414.4419	432.498	473.8452	555.4044	669.3288	742.9715	771.2236	837.3904	868.3977	917.6398	935.9983	955.6424	1008.041	1019.1969	1044.799	1069.7669	1085.641	1112.2382	1155.9199	1208.0666	1217.1636	1247.2513	1274.1315	1339.0067	1344.0406	1371.6665	1378.7013	1387.0983	1408.5838	1423.7091	1475.3099	1492.8075	1500.7998	1727.4821	1813.4863	2999.233	3021.5025	3025.7389	3037.1613	3045.1604	3048.6619	3078.8319	3100.74	3149.3937	3176.3566
O=COC1CCCC=C1	O=CO[C@@H]1CCCC=C1	
InChI=1S/C7H10O2/c8-6-9-7-4-2-1-3-5-7/h2,4,6-7H,1,3,5H2	InChI=1S/C7H10O2/c8-6-9-7-4-2-1-3-5-7/h2,4,6-7H,1,3,5H2/t7-/m0/s1
