19
gdb 1279	3.4469116	1.2302522	1.159355	0.9403	74.06	-0.23001	0.06989	0.2999	1131.918	0.155924	-422.491454	-422.483032	-422.482088	-422.524579	32.207	
C	 2.9422711956	 2.3227998182	 4.8450245061	-0.401493
C	 1.5944088735	 2.3008836829	 5.5719673536	-0.013644
O	 1.7703957881	 2.1793608112	 6.9845153659	-0.423756
C	 0.6750065877	 1.243692576	 5.0274332127	 0.309471
C	 0.8464354959	-0.281376853	 5.0459577021	-0.306488
C	-0.633699809	-0.319363774	 4.5879849902	 0.067296
O	-0.5887050189	 0.2338371923	 3.2408563049	-0.298731
C	-0.3106929384	 1.4862464219	 3.8620547688	 0.047618
C	-0.8389095753	 1.1149579284	 5.2038260539	-0.204513
H	 3.5869756077	 3.0951520476	 5.2723998697	 0.123547
H	 3.452014568	 1.3568086914	 4.9435235392	 0.111709
H	 2.8115675499	 2.5213858244	 3.7768147003	 0.12234
H	 1.1080239208	 3.2772506816	 5.4484275517	 0.085948
H	 2.2423101485	 1.3552982671	 7.1473193064	 0.276691
H	 1.5729872544	-0.7556308082	 4.3780004923	 0.101283
H	 0.9560544096	-0.656012851	 6.0680072473	 0.099747
H	-1.2673333328	-1.1987015564	 4.6782171854	 0.089539
H	-0.3635579173	 2.3932852664	 3.2738003806	 0.108472
H	-1.5389439781	 1.5622594929	 5.8953091188	 0.104965
60.5354	137.4808	184.7736	247.9803	258.967	319.5461	370.4098	463.8788	489.5105	572.4658	645.6191	765.7662	775.2424	800.5071	822.4077	884.9385	913.6463	919.6307	944.872	971.118	995.271	1034.5456	1043.1668	1048.1949	1078.5506	1107.6697	1131.173	1155.4658	1162.4158	1193.8514	1244.0822	1262.2971	1299.1123	1315.4669	1346.4535	1400.3696	1403.2098	1422.9904	1484.7956	1491.52	1494.7476	3025.0226	3031.8472	3040.8669	3099.5508	3102.1958	3122.772	3148.4542	3200.9398	3217.86	3802.8181
CC(O)C12CC3OC1C23	C[C@H](O)[C@]12C[C@@H]3O[C@H]1[C@H]23	
InChI=1S/C7H10O2/c1-3(8)7-2-4-5(7)6(7)9-4/h3-6,8H,2H2,1H3	InChI=1S/C7H10O2/c1-3(8)7-2-4-5(7)6(7)9-4/h3-6,8H,2H2,1H3/t3-,4-,5+,6-,7-/m0/s1
