19
gdb 2464	2.8458202	1.7701394	1.4184353	2.0469	73.29	-0.24016	0.06763	0.30779	966.0264	0.159064	-422.56129	-422.553845	-422.552901	-422.592922	29.765	
O	 0.4397149076	 0.331168887	 0.7701140401	-0.475142
C	-0.508169073	 1.2997861408	 1.1003034174	 0.375911
C	-1.6054577491	 1.5965967036	 0.0860175102	-0.149851
O	-1.8583287378	 2.9947964242	 0.1464428278	-0.27684
C	-1.1638539428	 3.5855601223	 1.2597014455	 0.089533
C	-2.096615712	 3.6356702966	 2.4809990702	-0.201429
C	-2.0939023428	 2.1833155184	 3.023627878	-0.244922
C	-0.749086131	 1.6104076915	 2.5672695132	-0.120374
C	-0.0521365603	 2.6104966449	 1.6561838273	-0.14311
H	 0.0910482159	-0.5291449667	 1.0265716354	 0.284918
H	-1.243952658	 1.3266756842	-0.9142034327	 0.107395
H	-2.5351789737	 1.0392620024	 0.27687653	 0.08795
H	-0.811877961	 4.5700939562	 0.9419306065	 0.079843
H	-1.6708075084	 4.3131413651	 3.2306540668	 0.09545
H	-3.0896358845	 4.0051328182	 2.2124410049	 0.103957
H	-2.1778714501	 2.1554939885	 4.1133683864	 0.100246
H	-2.9400369944	 1.6094655706	 2.6289889287	 0.104905
H	-0.1527177526	 1.0258879973	 3.259891069	 0.084805
H	 0.9903668082	 2.8889842749	 1.7330317554	 0.096755
101.297	205.5342	244.0757	307.3358	342.9631	398.6165	450.758	552.9227	618.9947	696.5825	707.3753	785.6357	824.6341	857.7627	893.1311	904.4756	933.4634	948.611	972.976	995.7439	1026.572	1047.7536	1055.2658	1076.9361	1090.3858	1180.3153	1184.0894	1204.0765	1219.1701	1265.2133	1282.5101	1291.4494	1302.2956	1327.4959	1341.1615	1345.5713	1370.9987	1447.0552	1476.4354	1499.9523	1525.2103	2981.5939	3038.0307	3040.1398	3041.3979	3082.9914	3087.0924	3105.3896	3167.1054	3205.1336	3803.9747
OC12COC3CCC1C23	O[C@@]12CO[C@H]3CC[C@@H]1[C@@H]23	
InChI=1S/C7H10O2/c8-7-3-9-5-2-1-4(7)6(5)7/h4-6,8H,1-3H2	InChI=1S/C7H10O2/c8-7-3-9-5-2-1-4(7)6(5)7/h4-6,8H,1-3H2/t4-,5+,6-,7+/m1/s1
