19
gdb 4935	2.2892533	1.4833025	1.2372196	1.4674	77.65	-0.23404	-0.03729	0.19675	1119.2953	0.155349	-422.564535	-422.555338	-422.554394	-422.598728	33.195	
C	 1.4276855072	-0.0652877324	-0.3220218689	-0.256052
O	 0.0232739419	-0.0956023016	-0.1407175327	-0.290617
C	-0.4430988862	 0.5518747354	 1.0366280866	 0.298486
C	 0.0485561728	-0.0448096076	 2.3778778251	-0.277263
C	-1.1912170486	-0.0484052959	 3.3081856275	-0.269882
C	-2.3461101926	 0.0805826945	 2.3475951832	-0.051383
C	-1.9480935706	 0.3912912366	 1.115706573	-0.142489
C	-0.1631641109	 2.0568694909	 0.9130159746	 0.109692
O	 0.2411050839	 2.7638689766	 1.799434716	-0.248694
H	 1.9574771359	-0.6202901735	 0.4640248175	 0.115342
H	 1.6297990357	-0.5405896661	-1.2843885017	 0.132457
H	 1.8265009018	 0.9596961459	-0.3460438077	 0.115722
H	 0.3736215514	-1.0710106866	 2.1849250822	 0.113363
H	 0.8838937609	 0.5175459852	 2.7975641922	 0.118286
H	-1.2551508744	-0.9491093116	 3.9286777291	 0.108416
H	-1.1696804479	 0.8050270076	 3.9977933078	 0.128369
H	-3.3796798737	-0.0467067056	 2.6510501335	 0.104314
H	-2.5759987794	 0.5620823518	 0.2498439584	 0.106942
H	-0.3992481672	 2.4582611665	-0.0993792858	 0.084989
70.3966	102.4818	130.9295	185.0975	200.7954	261.7171	279.4801	362.3931	439.0673	460.2047	570.6387	587.5469	736.5846	769.8561	799.792	851.0705	924.7248	945.1926	970.5709	990.6181	997.5055	1065.229	1097.5484	1109.5884	1153.6079	1178.1885	1182.3142	1212.8494	1236.6744	1263.8927	1300.4693	1323.7932	1372.1432	1401.8649	1467.2471	1481.6605	1487.3911	1492.2552	1509.349	1680.155	1824.8682	2871.2539	2989.5048	3029.2235	3043.3866	3059.0072	3072.1464	3121.0715	3129.6978	3188.6165	3218.9502
COC1(CCC=C1)C=O	CO[C@@]1(CCC=C1)C=O	
InChI=1S/C7H10O2/c1-9-7(6-8)4-2-3-5-7/h2,4,6H,3,5H2,1H3	InChI=1S/C7H10O2/c1-9-7(6-8)4-2-3-5-7/h2,4,6H,3,5H2,1H3/t7-/m0/s1
