19
gdb 2283	2.6051625	1.8265957	1.4603381	1.3184	75.02	-0.23889	0.01624	0.25512999999999997	962.9929	0.158951	-422.580441	-422.572955	-422.57201	-422.611744	30.509	
O	 0.2837599946	-0.0668281525	 0.3698064518	-0.499022
C	-0.4290465975	 0.8536495282	 1.1693298347	 0.338245
C	-1.5527415081	 0.2105435977	 2.0212538951	-0.103169
O	-2.4961438934	 1.2561995583	 2.2456706467	-0.276859
C	-2.1474361068	 2.3870764974	 1.4226575022	 0.09197
C	-1.2838676885	 1.792689737	 0.3075883308	-0.26249
C	-1.3407568434	 3.3943811271	 2.261077716	-0.256014
C	 0.0441565548	 2.8655562771	 2.5471086118	-0.057088
C	 0.4692487525	 1.7041960291	 2.0502796807	-0.124571
H	 0.8310156262	-0.609179142	 0.9478923974	 0.277618
H	-2.0082742467	-0.6165803176	 1.4574145029	 0.094662
H	-1.1986970094	-0.1682961992	 2.9871433119	 0.092342
H	-3.0794076973	 2.8362993066	 1.0684403651	 0.077593
H	-1.8827746639	 1.2163021334	-0.4030030726	 0.108715
H	-0.6887363384	 2.5318891295	-0.2315047775	 0.108413
H	-1.2818742458	 4.3652937089	 1.7473482763	 0.101818
H	-1.881151589	 3.5760968538	 3.1983520384	 0.117651
H	 0.694784889	 3.4680900377	 3.1758491948	 0.091006
H	 1.4657298911	 1.3242224497	 2.2637889434	 0.079178
162.227	248.137	264.447	306.6496	350.878	391.7423	446.0814	480.6096	508.918	586.3625	663.367	716.1906	778.974	819.1324	880.2683	898.7036	925.2704	958.9263	971.9788	982.4616	996.3755	1034.2809	1070.5624	1092.0822	1115.7044	1168.7562	1182.2959	1188.5431	1215.5483	1249.4182	1289.1803	1322.1814	1329.5585	1349.5471	1380.8156	1396.3403	1417.0675	1461.1374	1490.8866	1523.4191	1706.2598	2995.4379	3003.4351	3048.7135	3055.4327	3062.4272	3074.7446	3126.7236	3143.7302	3168.4342	3805.0092
OC12COC(C1)CC=C2	O[C@]12CO[C@H](C1)CC=C2	
InChI=1S/C7H10O2/c8-7-3-1-2-6(4-7)9-5-7/h1,3,6,8H,2,4-5H2	InChI=1S/C7H10O2/c8-7-3-1-2-6(4-7)9-5-7/h1,3,6,8H,2,4-5H2/t6-,7-/m0/s1
