19
gdb 2312	2.2776097	1.5001648	1.4402708	2.1736	76.65	-0.23721	-0.02699	0.21022000000000002	1048.8392	0.155867	-422.549304	-422.54059	-422.539646	-422.582952	32.769	
O	-0.8366712521	 0.8219196132	-0.307890661	-0.46062
C	-0.096556036	 0.6062147658	-1.4590899364	 0.382126
C	 0.151048825	 1.9068966878	-2.2522399703	-0.257344
C	 1.6901294684	 1.6861627403	-2.1970176477	-0.298692
C	 1.5158236844	 0.313473259	-1.5140275333	 0.192196
C	 1.1947303973	-0.8701116563	-2.4595918656	-0.291249
C	-0.3389436147	-0.666647674	-2.2900756146	-0.288657
C	 2.243247626	 0.0143778278	-0.2567827747	 0.060813
O	 2.3899086163	-1.0942699887	 0.2072153	-0.271479
H	-0.9685233124	-0.0213719901	 0.1402523452	 0.28805
H	-0.2980230527	 1.9217599721	-3.2489171148	 0.103903
H	-0.1923247781	 2.7835657139	-1.7002448239	 0.120541
H	 2.2154243621	 1.6648424903	-3.1552234523	 0.104463
H	 2.1908645614	 2.410589365	-1.5470196622	 0.108295
H	 1.5698873031	-0.7372638098	-3.4770990735	 0.102341
H	 1.5598310696	-1.8185666738	-2.0637497794	 0.131984
H	-0.9412444941	-0.5399218774	-3.1945556745	 0.104969
H	-0.7918460921	-1.4601488577	-1.6857710466	 0.101417
H	 2.6126167286	 0.9114943326	 0.2924693056	 0.066939
62.0797	71.506	200.1845	242.5464	259.8612	347.6055	366.7474	405.7178	466.262	486.7309	586.3018	649.7084	741.2158	747.5372	774.7159	805.1355	904.8438	921.6196	949.1901	966.1544	1013.3352	1035.3648	1061.4957	1072.1206	1109.4255	1194.3621	1217.123	1233.4042	1241.2525	1259.8928	1265.6192	1273.8368	1304.5525	1337.6	1391.2721	1425.1199	1466.5715	1476.2699	1480.7695	1495.324	1790.7211	2857.3679	3039.6484	3048.4222	3064.2859	3069.8431	3092.1853	3098.8636	3127.5642	3134.9017	3797.0423
OC12CCC1(CC2)C=O	O[C@@]12CC[C@@]1(CC2)C=O	
InChI=1S/C7H10O2/c8-5-6-1-3-7(6,9)4-2-6/h5,9H,1-4H2	InChI=1S/C7H10O2/c8-5-6-1-3-7(6,9)4-2-6/h5,9H,1-4H2/t6-,7-
