19
gdb 5035	2.5322663	1.4838573	1.1928377	2.7613	74.93	-0.22483	-0.01771	0.20712	1114.1062	0.156769	-422.548569	-422.540107	-422.539163	-422.581799	31.731	
C	 1.333608187	 0.9869652176	 0.377998047	-0.391067
C	 0.9309748732	-0.4409679643	-0.0125118806	-0.291809
C	 1.6850680105	-0.9989681135	-1.196522481	 0.148312
C	 1.6234156919	-0.4230459287	-2.665494047	-0.293849
C	 2.1900882083	-1.8196733711	-3.0440883457	-0.023814
O	 3.4793409042	-1.8282974399	-2.41590004	-0.279869
C	 3.1992299316	-1.2699062166	-1.1031162142	-0.11339
C	 1.2691949934	-2.3170021837	-1.9076202569	 0.415278
O	 0.4600376519	-3.1727272579	-1.7157473609	-0.321985
H	 0.7369666618	 1.3382799713	 1.2248315183	 0.121248
H	 2.3872596331	 1.0462964221	 0.6694658286	 0.12062
H	 1.1777623861	 1.6848415	-0.4512183486	 0.121766
H	 1.077111923	-1.1137978471	 0.8421234346	 0.112207
H	-0.141848866	-0.474194518	-0.2376991876	 0.112732
H	 0.6053008486	-0.2429492943	-3.0172158965	 0.120777
H	 2.2835517406	 0.4174460182	-2.8894993176	 0.11876
H	 2.243008351	-2.2252280186	-4.050559665	 0.101715
H	 3.4522062486	-1.9976006742	-0.3225316172	 0.113613
H	 3.8001250411	-0.3651790312	-0.9562935196	 0.108755
69.9233	139.3462	163.678	202.1315	279.6888	306.8988	329.2151	452.8844	526.3569	564.4749	685.8255	693.3864	761.5154	797.9329	834.6396	873.1188	910.8905	948.2235	974.2693	995.1156	1011.5762	1025.2985	1051.9397	1080.9951	1135.7378	1166.8987	1194.0052	1197.4139	1219.9951	1260.8569	1290.6102	1317.0298	1362.9594	1393.6571	1414.8037	1472.7279	1484.3272	1500.3744	1506.8212	1530.5685	1903.7865	3020.1286	3027.1921	3037.5394	3057.6685	3062.7894	3069.5019	3105.2386	3109.9819	3140.3316	3171.1173
CCC12CC(OC1)C2=O	CC[C@@]12C[C@@H](OC1)C2=O	
InChI=1S/C7H10O2/c1-2-7-3-5(6(7)8)9-4-7/h5H,2-4H2,1H3	InChI=1S/C7H10O2/c1-2-7-3-5(6(7)8)9-4-7/h5H,2-4H2,1H3/t5-,7-/m1/s1
