19
gdb 5784	2.9518993	1.4757156	1.2402312	0.4349	77.01	-0.23562	0.01044	0.24606	1080.9921	0.157551	-422.533784	-422.525582	-422.524638	-422.566496	31.293	
C	 1.2914165643	-0.5223621658	 0.4030372464	-0.240827
O	-0.0906201342	-0.3906445647	 0.691774923	-0.238403
C	-0.461961359	 0.9094944687	 1.0996507975	 0.153882
O	 0.1358291821	 1.2712743472	 2.3311999768	-0.264539
C	-0.4761289752	 0.8393064017	 3.5134035336	 0.122024
C	-1.0506653974	-0.526602264	 3.7021402546	-0.326794
C	-1.9816004763	 0.68811377	 3.5542776725	-0.124726
C	-2.6517890854	 0.9026738141	 2.2578261818	-0.048548
C	-1.9613523653	 0.9892650516	 1.1200672567	-0.108415
H	 1.911070701	-0.3276368964	 1.2857625331	 0.124931
H	 1.4493141342	-1.5496121872	 0.0676516784	 0.124869
H	 1.5976429115	 0.1663994006	-0.399065017	 0.104665
H	-0.0424656093	 1.6377940653	 0.3883776046	 0.078446
H	 0.0206984142	 1.3107479062	 4.3539021824	 0.10329
H	-1.0212700257	-1.2123335259	 2.8649144943	 0.145818
H	-0.9645944906	-0.9762521054	 4.6858641881	 0.109595
H	-2.5141033233	 1.0154892647	 4.4407229527	 0.088979
H	-3.7339475912	 0.9988740365	 2.2519258253	 0.096108
H	-2.4502867043	 1.1295195127	 0.162704295	 0.099646
96.181	135.4726	167.2464	204.404	298.4293	349.6369	400.5053	492.0948	527.8565	608.7301	653.4904	722.8934	758.6312	796.9761	820.8597	879.3488	950.6432	972.4261	979.2365	1000.643	1005.6789	1049.5699	1086.6475	1098.1782	1114.2081	1128.0073	1178.9287	1186.9783	1197.492	1209.6624	1241.3395	1350.937	1380.8598	1384.1398	1422.585	1438.805	1469.6476	1475.0735	1483.6519	1512.8815	1711.2469	2984.517	2991.85	3065.749	3124.836	3135.0819	3155.9603	3167.1443	3175.282	3197.5873	3241.2181
COC1OC2CC2C=C1	CO[C@@H]1O[C@@H]2C[C@@H]2C=C1	
InChI=1S/C7H10O2/c1-8-7-3-2-5-4-6(5)9-7/h2-3,5-7H,4H2,1H3	InChI=1S/C7H10O2/c1-8-7-3-2-5-4-6(5)9-7/h2-3,5-7H,4H2,1H3/t5-,6+,7+/m0/s1
