19
gdb 703	3.6660947	1.1627039	1.0759826	3.7589	74.97	-0.23487	-0.0145	0.22036999999999998	1177.5009	0.156963	-422.576481	-422.568246	-422.567302	-422.609992	30.925	
O	 1.0322173662	 0.0992961094	 0.8086808186	-0.311947
C	-0.04583264	 0.057004336	 0.2777214123	 0.406134
C	-0.7975209104	 1.2436634376	-0.339499248	-0.318773
C	-2.2223796477	 0.7206499622	-0.5719470871	-0.272907
C	-2.0228348998	-0.7763134773	-0.8636995389	 0.442077
C	-3.2628242039	-1.6728877685	-1.0605620797	-0.363762
C	-2.7599879004	-1.8244599051	-2.5088681891	-0.067108
O	-1.6150769627	-0.986855476	-2.2481627157	-0.325997
C	-0.9175552888	-1.1951213781	 0.1057089384	-0.375452
H	-0.7180673907	 2.132831589	 0.2893938621	 0.125962
H	-0.3095565338	 1.4714244993	-1.2952864546	 0.147787
H	-2.8279252969	 0.8322505659	 0.3362231474	 0.104462
H	-2.7477458311	 1.2152919591	-1.3919259173	 0.110079
H	-3.2693472734	-2.5893707827	-0.4677670434	 0.112608
H	-4.221491174	-1.1632362473	-0.9440194047	 0.111212
H	-2.4650673015	-2.8369360265	-2.8089480087	 0.106337
H	-3.4086150412	-1.4016321696	-3.2853886134	 0.104824
H	-1.34147581	-1.4456836637	 1.0874828888	 0.129245
H	-0.3363054502	-2.052633994	-0.2389579872	 0.135219
59.5992	75.3441	135.2741	245.8054	355.5804	388.3239	441.9396	466.2261	496.9026	589.3251	700.8693	748.8469	784.5092	807.0257	862.2289	869.4124	928.807	958.5769	983.3605	984.2593	1002.2936	1023.1722	1105.1166	1154.0282	1165.5934	1173.2156	1195.6571	1208.1903	1220.6425	1257.3287	1273.642	1291.0825	1298.8938	1341.2923	1361.8873	1426.3904	1446.561	1481.6134	1489.3299	1532.0856	1852.2921	3019.8764	3031.3502	3036.684	3047.1915	3058.5405	3073.7716	3106.1036	3116.1019	3119.1114	3128.2274
O=C1CCC2(CCO2)C1	O=C1CC[C@]2(CCO2)C1	
InChI=1S/C7H10O2/c8-6-1-2-7(5-6)3-4-9-7/h1-5H2	InChI=1S/C7H10O2/c8-6-1-2-7(5-6)3-4-9-7/h1-5H2/t7-/m0/s1
