19
gdb 3802	3.9845959	0.6487241	0.5773044	1.5287	79.5	-0.25372	0.03061	0.28432999999999997	1877.0416	0.153591	-422.484665	-422.474502	-422.473558	-422.52101	35.93	
O	-1.0257664017	-4.3122328472	-1.0903516935	-0.423156
C	-1.2134849054	-2.972674565	-0.746075401	 0.123975
C	-1.7368006181	-2.0751524812	-1.8227082657	-0.308715
C	-0.3085903237	-1.9202092013	-1.3339306079	-0.059537
C	 0.092806536	-0.7276031443	-0.5154778068	-0.066225
O	 1.1815510259	-1.0964040054	 0.3154498102	-0.249457
C	 1.6601312268	-0.0130571068	 1.0866294947	-0.203183
C	 2.7776585982	-0.4447261059	 1.9159864238	 0.281001
C	 3.7002607326	-0.7737035142	 2.61052482	-0.414756
H	-0.2485273928	-4.6286642434	-0.6173127948	 0.289825
H	-1.5747846856	-2.8000949363	 0.2683924007	 0.085652
H	-1.8750848508	-2.5202256982	-2.8009563685	 0.125904
H	-2.4671952598	-1.3184239893	-1.5565404696	 0.112129
H	 0.4600965234	-2.2952781459	-2.0030331152	 0.09809
H	 0.381554813	 0.1163575339	-1.165446086	 0.090465
H	-0.7567629805	-0.3812610889	 0.098940676	 0.082745
H	 1.9826497855	 0.8159836597	 0.4328077747	 0.118097
H	 0.8575974825	 0.3901717599	 1.7289138462	 0.116701
H	 4.5162659145	-1.0703489402	 3.2220200228	 0.200444
40.788	71.961	87.248	128.4843	172.508	278.2256	302.3115	334.2638	343.463	360.7155	442.3834	491.5773	567.2719	608.2281	676.0043	815.1853	839.3116	898.6277	938.4637	974.9962	993.3531	1031.7296	1051.1825	1052.0444	1103.1662	1113.7206	1135.3791	1185.5884	1195.1998	1222.5813	1251.3849	1268.0085	1304.8553	1347.3943	1379.9037	1428.4328	1455.8696	1497.1663	1498.5581	1521.2833	2248.1578	2942.1613	2952.3909	2964.2894	2972.9719	3093.4082	3138.2325	3159.9153	3229.417	3505.779	3802.07
OC1CC1COCC#C	O[C@@H]1C[C@H]1COCC#C	
InChI=1S/C7H10O2/c1-2-3-9-5-6-4-7(6)8/h1,6-8H,3-5H2	InChI=1S/C7H10O2/c1-2-3-9-5-6-4-7(6)8/h1,6-8H,3-5H2/t6-,7+/m0/s1
