19
gdb 994	1.9313597	1.2053414	0.908147	2.8544	80.35	-0.24514	-0.03293	0.21221	1394.5521	0.152327	-422.548266	-422.537342	-422.536398	-422.586622	37.69	
C	 1.4773949493	 0.1414277288	 0.1947905643	-0.498173
C	 0.0258566222	 0.0694913759	 0.1080624067	-0.014278
C	-1.1757639305	 0.0159139934	 0.0486747607	 0.133426
C	-2.6476882495	-0.0479103144	-0.0190394409	 0.160654
C	-3.1677672665	 0.9187634382	-1.0915069469	-0.398152
O	-3.2424033368	 0.3693032068	 1.2043475828	-0.450465
C	-3.0870828919	-1.4962690655	-0.3501289023	-0.316784
C	-2.8018898118	-2.5089049549	 0.7332468696	 0.163404
O	-2.4890885906	-2.2454659365	 1.8704857968	-0.251557
H	 1.8097367358	 0.1381072766	 1.2386519895	 0.153865
H	 1.9494150977	-0.711508527	-0.3052350304	 0.146876
H	 1.8604703383	 1.054915887	-0.2730889348	 0.149254
H	-2.8542858731	 1.9355153589	-0.8462658749	 0.136033
H	-2.7767875818	 0.6571405698	-2.0780460062	 0.116938
H	-4.2608941421	 0.8859752144	-1.1144544147	 0.118788
H	-2.9211548073	-0.2470514421	 1.8782879156	 0.294178
H	-4.1747687632	-1.5170116183	-0.5169119675	 0.135761
H	-2.6277190851	-1.8482223637	-1.2819697951	 0.1271
H	-2.9226254031	-3.5696064874	 0.4202888576	 0.093132
6.6631	69.1082	101.0179	134.4376	160.2279	211.1199	237.3177	288.6754	303.7875	344.6953	366.4918	401.6658	532.3229	552.8548	583.2477	615.135	699.6519	814.8741	849.3326	929.7979	970.1608	1019.477	1046.8553	1052.3737	1054.6399	1095.5789	1169.631	1206.3534	1284.16	1336.5243	1399.5136	1413.3884	1414.973	1430.5519	1432.775	1477.2449	1478.2865	1479.8736	1494.4066	1812.8065	2365.6372	2888.7754	3011.8187	3028.0692	3048.1037	3064.275	3088.7056	3090.5884	3125.4331	3138.3933	3732.5012
CC#CC(C)(O)CC=O	CC#C[C@](C)(O)CC=O	
InChI=1S/C7H10O2/c1-3-4-7(2,9)5-6-8/h6,9H,5H2,1-2H3	InChI=1S/C7H10O2/c1-3-4-7(2,9)5-6-8/h6,9H,5H2,1-2H3/t7-/m0/s1
