19
gdb 3051	3.634579	1.4518769	1.2765596	1.1018	75.19	-0.24665	0.07682	0.32347000000000004	1043.0887	0.157836	-422.476269	-422.468655	-422.467711	-422.508404	29.77	
C	 3.0489380836	-0.5771473852	-1.2076876295	-0.437325
C	 2.6206037423	 0.0170955203	 0.1228398535	-0.042028
C	 1.2234938229	-0.3798916307	 0.8044533236	-0.135639
C	 0.5020301433	 0.5055320424	-0.2312711353	-0.303109
C	 1.7560056797	 1.3117020563	 0.2499247088	 0.403533
O	 1.842009014	 2.7028029167	 0.228252684	-0.333601
C	 0.958551495	 3.0803498233	 1.3135089065	 0.000901
O	 0.5210822021	 1.9096641801	 2.0351599561	-0.295739
C	 1.4559917106	 0.9098730738	 1.6677042618	 0.096735
H	 3.3735605296	-1.6142762864	-1.0713589542	 0.121637
H	 2.2612941164	-0.5702848437	-1.9638918296	 0.124487
H	 3.9002058149	-0.0183941606	-1.6104206689	 0.128835
H	 3.4577630706	-0.0091833497	 0.8292925041	 0.077739
H	 0.9483387007	-1.3776092497	 1.1403872566	 0.085125
H	 0.4828653992	 0.1625259754	-1.2642045039	 0.094186
H	-0.4629603667	 0.9057828558	 0.0766114941	 0.112751
H	 1.5171721828	 3.7566392356	 1.9732971556	 0.112827
H	 0.0654930291	 3.5772728249	 0.9186136687	 0.118058
H	 2.2847984199	 0.8577966914	 2.3824734282	 0.070626
71.3871	180.04	202.4486	261.1747	382.3976	408.8568	487.6386	500.1415	580.4214	702.3424	717.521	740.277	846.9372	853.8402	898.4271	910.8903	957.0986	984.5482	1011.0843	1028.7821	1047.3899	1066.6586	1105.4719	1115.9267	1120.1085	1139.5878	1144.2779	1167.5139	1192.2763	1214.2224	1227.8315	1235.5191	1279.3415	1381.2777	1408.655	1418.2496	1428.8003	1494.5019	1498.0181	1523.0914	1536.2731	3014.5751	3036.2389	3040.6735	3049.6245	3069.3887	3097.6334	3099.8379	3126.4185	3137.9174	3164.817
CC1C2CC11OCOC21	C[C@@H]1[C@@H]2C[C@@]31OCO[C@@H]23	
InChI=1S/C7H10O2/c1-4-5-2-7(4)6(5)8-3-9-7/h4-6H,2-3H2,1H3	InChI=1S/C7H10O2/c1-4-5-2-7(4)6(5)8-3-9-7/h4-6H,2-3H2,1H3/t4-,5+,6+,7+/m1/s1
