19
gdb 1202	2.9158466	1.190444	0.917878	1.1356	77.31	-0.24152	0.0332	0.27472	1284.0352	0.15592	-422.526592	-422.517196	-422.516251	-422.561367	34.176	
O	-1.2519340692	 0.4772534114	 0.1448880686	-0.420228
C	-0.7981877442	 1.693503096	-0.4451594952	-0.069106
C	-1.8644620035	 2.6926203775	-0.5042573152	 0.305048
C	-2.7659469449	 3.4875156913	-0.4867112404	-0.442623
C	 0.4472264387	 2.2315905926	 0.3021791125	 0.120062
C	 1.6256248046	 1.2389111221	 0.2708902749	-0.25581
C	 2.5003032951	 1.7847482012	-0.8694951057	-0.224361
C	 2.2528603531	 3.2886854411	-0.7442273426	-0.058521
O	 0.8905893109	 3.4227270376	-0.3441758618	-0.267118
H	-1.7792953086	 0.7099935197	 0.9170565544	 0.287727
H	-0.489617214	 1.4283556283	-1.4638308298	 0.114502
H	-3.5549601821	 4.1984022636	-0.4939536218	 0.198927
H	 0.1433134202	 2.4693339482	 1.3313069409	 0.071038
H	 2.1710377109	 1.2748236707	 1.2188945701	 0.101273
H	 1.284162302	 0.2132769451	 0.1215131276	 0.126589
H	 3.5544920991	 1.5149493306	-0.7717964322	 0.103592
H	 2.1475225886	 1.4218288921	-1.8406150613	 0.109604
H	 2.9163648731	 3.7334963836	 0.0141956306	 0.090778
H	 2.3867353602	 3.8409612575	-1.6792115537	 0.108627
55.8526	69.7099	124.2713	209.4689	225.5672	255.5761	278.7575	353.0823	420.4213	499.2172	588.2073	600.0184	630.7054	669.4639	719.7037	845.7846	883.5141	914.7285	932.3996	948.211	962.162	1014.6853	1057.1465	1076.0816	1111.9042	1139.3999	1190.8712	1203.6469	1242.9343	1264.1064	1285.51	1312.4147	1326.274	1343.8202	1381.4078	1393.9763	1415.013	1488.747	1501.0205	1527.0184	2234.3762	2979.1504	2999.9817	3041.5613	3050.6419	3061.1481	3079.8928	3108.4273	3125.3116	3503.7552	3807.9356
OC(C#C)C1CCCO1	O[C@@H](C#C)[C@H]1CCCO1	
InChI=1S/C7H10O2/c1-2-6(8)7-4-3-5-9-7/h1,6-8H,3-5H2	InChI=1S/C7H10O2/c1-2-6(8)7-4-3-5-9-7/h1,6-8H,3-5H2/t6-,7+/m0/s1
