19
gdb 2400	2.5926628	1.6095906	1.3755257	2.0637	75.05	-0.24686	0.06541	0.31227	1026.3713	0.156211	-422.511433	-422.503167	-422.502223	-422.544281	32.019	
O	-1.9540384237	 0.325605318	 0.2554094428	-0.48017
C	-1.0849864474	-0.4081066165	-0.5505222873	 0.322809
C	-1.0345488164	-1.9489827414	-0.4043827829	-0.30006
C	-1.0782731069	-2.1050532741	-1.9558303269	-0.218774
C	-1.1327976971	-0.5655628131	-2.1387328778	-0.103729
C	 0.2682058678	 0.1006752298	-2.2370723002	-0.334166
C	 0.2843107619	 0.2475716468	-0.7087473204	 0.425457
C	 0.8597560547	 1.2968387633	 0.1295429466	-0.259574
O	 1.3885213829	-0.039426963	 0.1320459087	-0.276527
H	-2.7524912399	-0.1928071904	 0.3995022396	 0.279204
H	-0.1579561883	-2.3381247896	 0.1189665128	 0.122904
H	-1.9300822947	-2.343240346	 0.0879087255	 0.089981
H	-0.2075388378	-2.5892530406	-2.4050085775	 0.104068
H	-1.9734808553	-2.6213343902	-2.3102007205	 0.101066
H	-1.9254855862	-0.1492763961	-2.7595085874	 0.068673
H	 1.0604611484	-0.5328442347	-2.6458722717	 0.110292
H	 0.2763140166	 1.0579195445	-2.7650420911	 0.108678
H	 1.5037850373	 2.0515233017	-0.321084912	 0.111134
H	 0.3425038441	 1.5952773416	 1.0387866795	 0.128734
51.7252	170.5115	238.922	240.8405	289.4376	349.5634	390.5615	445.2222	461.6314	547.2881	652.6151	712.701	749.1275	809.6496	867.0099	871.1066	890.2223	908.9037	948.8831	977.6544	1022.7173	1051.3268	1070.9318	1098.1672	1105.1426	1129.6753	1155.9755	1173.5152	1194.1003	1222.1939	1230.1714	1235.1333	1276.2236	1287.1194	1299.2813	1369.0934	1445.2374	1474.5365	1475.1366	1495.3225	1530.4864	3042.6646	3054.7961	3060.9877	3084.464	3098.4329	3104.3954	3113.4787	3121.6127	3179.0832	3809.5977
OC12CCC1CC21CO1	O[C@@]12CC[C@@H]1C[C@]12CO1	
InChI=1S/C7H10O2/c8-7-2-1-5(7)3-6(7)4-9-6/h5,8H,1-4H2	InChI=1S/C7H10O2/c8-7-2-1-5(7)3-6(7)4-9-6/h5,8H,1-4H2/t5-,6-,7+/m1/s1
