19
gdb 3824	2.0517612	1.6250683	1.0874164	3.7857	76.12	-0.23616	-0.02111	0.21505000000000002	1156.5307	0.155191	-422.552531	-422.543679	-422.542735	-422.586172	33.6	
C	-3.1438241749	 0.054014526	 1.1728465151	-0.487044
C	-2.1487945869	-0.1732869743	 0.0549630898	 0.355781
C	-2.6366622828	-0.8633749944	-1.2453719825	-0.326288
C	-1.3561868059	-1.7430136624	-1.280345288	 0.162885
O	-1.5169032644	-3.1285945616	-1.4202129032	-0.424266
C	-0.9509865499	-1.2072496655	 0.1505774984	-0.266769
C	 0.0241726528	-0.0411214455	 0.067720394	 0.424356
O	 1.2078622347	 0.0685020718	 0.2134918152	-0.30488
C	-1.1096363879	 0.9723946199	-0.1879943481	-0.418201
H	-3.6997811192	-0.8607737921	 1.405676336	 0.112353
H	-2.6449091941	 0.3841890858	 2.0909538331	 0.121043
H	-3.8744506379	 0.8241899778	 0.8978494823	 0.123937
H	-3.5197982172	-1.4868778286	-1.063749016	 0.095256
H	-2.8407167834	-0.2304078941	-2.1138627757	 0.10422
H	-0.6400129485	-1.4610022438	-2.0563620982	 0.106291
H	-2.1644636322	-3.4276221744	-0.7725437376	 0.279932
H	-0.8176846848	-1.9719036954	 0.9181846248	 0.083844
H	-1.1319235566	 1.7738682602	 0.5574238569	 0.131968
H	-1.1093810507	 1.4302501208	-1.1822079664	 0.125581
51.975	113.4654	227.139	252.7201	286.9676	325.2463	337.7133	371.4751	437.8807	449.2519	515.4698	598.1814	600.7652	750.1931	817.212	826.9086	879.0109	924.0224	943.9579	958.1436	988.1391	1038.6511	1060.7034	1079.6486	1118.9581	1130.3477	1162.2661	1166.3733	1218.4801	1233.3389	1245.5697	1270.2972	1322.0357	1328.3518	1414.5587	1435.2063	1443.7934	1477.8798	1492.9363	1494.2859	1881.3693	3020.5469	3035.4876	3049.6201	3074.9476	3085.1054	3090.6673	3095.5579	3102.0133	3103.6398	3801.9323
CC12CC(O)C1C(=O)C2	C[C@]12C[C@H](O)[C@H]1C(=O)C2	
InChI=1S/C7H10O2/c1-7-2-4(8)6(7)5(9)3-7/h4,6,8H,2-3H2,1H3	InChI=1S/C7H10O2/c1-7-2-4(8)6(7)5(9)3-7/h4,6,8H,2-3H2,1H3/t4-,6-,7+/m0/s1
