19
gdb 2465	2.5141452	1.9595206	1.5628121	2.4932	74.79	-0.23884	0.08381	0.32265	938.	0.1574	-422.475101	-422.467527	-422.466583	-422.506695	30.262	
C	-0.1993368883	-0.0363009571	-0.3274744216	-0.492992
C	 1.2812637493	-0.1711278328	-0.0039346194	 0.29717
C	 2.0239951428	-1.0986543321	-0.9726190679	-0.136055
O	 2.5447462499	-0.2046984756	-1.9935143462	-0.288418
C	 2.7918424651	 1.1114472153	-1.4709721093	-0.187662
C	 2.2682030497	 1.0235600212	-0.0679698176	 0.361678
C	 1.6294106711	 1.6886552049	 1.1705367443	-0.323395
C	 1.8309216859	 0.1542184538	 1.4299093464	-0.025575
O	 3.1783022964	 0.288953415	 0.86920186	-0.338174
H	-0.7003243453	 0.7554542298	 0.2334955769	 0.117533
H	-0.3420377503	 0.1601261708	-1.3954609315	 0.135023
H	-0.7167503654	-0.9745316642	-0.0970605976	 0.124843
H	 2.8416170816	-1.6446737446	-0.4962533085	 0.114273
H	 1.3627290916	-1.7987603352	-1.4893221568	 0.099189
H	 3.8643828584	 1.3378961149	-1.4962120127	 0.116985
H	 2.2536615585	 1.8510915499	-2.0762530057	 0.109016
H	 2.3002320919	 2.3226368636	 1.7498352825	 0.116132
H	 0.6240262512	 2.1020565252	 1.0881062331	 0.106238
H	 1.7253612561	-0.3920559727	 2.3689659518	 0.094192
128.4208	196.2677	200.5522	320.882	344.1107	391.9949	454.6217	515.7924	588.1987	622.2896	703.3654	753.2098	780.9758	810.3875	879.6286	880.6558	923.3226	964.1969	972.9157	978.7004	1020.056	1027.7472	1080.5391	1106.5828	1124.3504	1170.9449	1186.6187	1190.8061	1210.1329	1235.4876	1245.8639	1269.686	1325.6718	1359.013	1381.1068	1413.21	1485.8663	1492.9127	1500.3375	1506.3994	1512.0163	3022.2597	3035.0413	3060.7163	3063.8686	3085.2439	3092.464	3102.054	3109.5548	3123.7893	3163.666
CC12COCC11CC2O1	C[C@@]12COC[C@]31C[C@@H]2O3	
InChI=1S/C7H10O2/c1-6-3-8-4-7(6)2-5(6)9-7/h5H,2-4H2,1H3	InChI=1S/C7H10O2/c1-6-3-8-4-7(6)2-5(6)9-7/h5H,2-4H2,1H3/t5-,6-,7-/m0/s1
