19
gdb 4433	2.535631	1.4676002	1.2124063	1.2091	76.13	-0.24934	-0.02976	0.21958	1112.7813	0.155615	-422.545738	-422.536941	-422.535997	-422.579404	32.406	
C	-2.5710688592	 2.1998532126	 1.6886520543	-0.390323
C	-1.2064104102	 2.0955134213	 1.0148353055	-0.06496
C	-0.9763883635	 3.0936753039	-0.1594614783	-0.223319
C	-1.3323969645	 1.9655754872	-1.1670463049	-0.297308
C	-1.1183246641	 0.9424517288	-0.0312772168	 0.336921
O	-1.9637930565	-0.2210875979	 0.0825298704	-0.327037
C	-0.8614845358	-1.1525574225	 0.1142235044	-0.199795
C	 0.1058456018	 0.0295954942	-0.0314008227	 0.28515
O	 1.2875766958	 0.1802732732	-0.1092466514	-0.286817
H	-2.7618521855	 1.3327803893	 2.3271783016	 0.126529
H	-2.6184406024	 3.1020510362	 2.3072330832	 0.116149
H	-3.381466621	 2.2512203561	 0.9543234815	 0.121182
H	-0.4145907514	 2.0731281383	 1.7698877415	 0.081712
H	-1.6138512329	 3.9805731636	-0.1702659568	 0.102841
H	 0.0668201968	 3.4054646186	-0.2410394794	 0.11844
H	-2.3846300172	 1.98023637	-1.4622260354	 0.123277
H	-0.7124350795	 1.853458451	-2.0592279357	 0.112053
H	-0.7903806231	-1.704653528	 1.0596708529	 0.132178
H	-0.8743225776	-1.8609893856	-0.7230159039	 0.133127
81.0942	99.9699	139.1865	212.2522	224.7904	256.2564	355.8153	399.9259	497.5634	539.7082	563.9408	713.4903	734.951	789.8494	867.3026	882.32	908.6618	939.74	953.619	1005.3297	1019.459	1045.7636	1073.5166	1096.8818	1138.6476	1155.9267	1182.4367	1209.1383	1218.3107	1253.9749	1272.7724	1295.029	1297.7352	1350.6698	1410.2057	1471.9427	1482.6379	1490.015	1493.9442	1495.8553	1915.0069	3020.9499	3036.3227	3053.4916	3065.8267	3069.8342	3071.8079	3104.4558	3114.014	3115.2602	3131.3897
CC1CCC11OCC1=O	C[C@@H]1CC[C@@]21OCC2=O	
InChI=1S/C7H10O2/c1-5-2-3-7(5)6(8)4-9-7/h5H,2-4H2,1H3	InChI=1S/C7H10O2/c1-5-2-3-7(5)6(8)4-9-7/h5H,2-4H2,1H3/t5-,7+/m1/s1
