19
gdb 5505	2.5614651	1.5535465	1.1748001	3.7398	75.93	-0.2311	-0.01136	0.21974	1107.2868	0.157671	-422.548806	-422.54065	-422.539706	-422.581792	30.648	
C	 1.5958626311	-0.4348461731	-0.1037343405	-0.238739
O	 0.2134557218	-0.1505482486	-0.0577734617	-0.250684
C	-0.1925366981	 0.5272663667	 1.1032240232	 0.035899
C	 0.0259686952	 2.0561779707	 1.1137667366	-0.062211
C	-1.0497163585	 2.5428844674	 0.1003223136	-0.235967
C	-2.0481960624	 2.0363243956	 1.1987070356	-0.130267
C	-0.9631202026	 2.4948272394	 2.2306662371	-0.245942
C	-1.7528840875	 0.5494942148	 1.1564435026	 0.423627
O	-2.4985654243	-0.3892720317	 1.1462751236	-0.329756
H	 1.9107844221	-1.0336438441	 0.7644300145	 0.109941
H	 1.7739193347	-1.0111007556	-1.014531663	 0.133223
H	 2.2105592065	 0.4765592103	-0.1373489094	 0.10693
H	 0.2211072002	 0.0427876134	 2.0023039209	 0.080148
H	 1.0527214233	 2.4190936939	 1.086059934	 0.071508
H	-1.0773362444	 3.6303072445	 0.0049866664	 0.107089
H	-1.0777575511	 2.067242406	-0.8819467927	 0.121878
H	-3.0925071342	 2.3358114531	 1.2479064352	 0.084561
H	-0.9753689294	 3.5770898566	 2.3746445038	 0.113209
H	-0.9221144225	 1.9868154709	 3.1991669901	 0.105554
79.8519	120.1003	176.6865	191.5754	280.5606	327.461	448.6019	499.303	525.4803	606.6204	692.6945	796.0366	827.4332	848.2266	868.9422	894.0539	929.0497	992.4885	1008.5414	1020.5505	1037.5575	1069.6876	1084.5569	1104.2644	1160.4486	1166.5041	1181.9194	1215.0834	1227.1839	1234.9776	1245.2188	1256.729	1299.3744	1318.9875	1376.2757	1478.34	1487.3736	1490.7537	1507.0915	1518.4251	1880.9623	2976.0856	2983.4809	3030.8264	3053.5468	3071.0377	3117.7962	3119.3149	3122.0461	3134.3659	3150.3516
COC1C2CC(C2)C1=O	CO[C@H]1[C@H]2C[C@H](C2)C1=O	
InChI=1S/C7H10O2/c1-9-7-5-2-4(3-5)6(7)8/h4-5,7H,2-3H2,1H3	InChI=1S/C7H10O2/c1-9-7-5-2-4(3-5)6(7)8/h4-5,7H,2-3H2,1H3/t4-,5+,7-/m0/s1
