19
gdb 2781	2.1538356	1.5292782	1.032846	4.4226	76.32	-0.23359	-0.00725	0.22633999999999999	1197.6037	0.156658	-422.583731	-422.575037	-422.574093	-422.616944	32.923	
C	-2.0401597557	-2.6168257468	-1.9474913808	-0.421087
C	-1.650720688	-1.2601404598	-1.4024956745	-0.02769
C	-2.297349989	-0.7318710189	-0.1645867576	-0.089123
C	-0.8544666876	-1.2045061836	-0.096758121	-0.150975
C	 0.0002836534	 0.0086995917	 0.0792124369	 0.425127
O	 1.161214097	 0.0263719311	 0.4026283902	-0.336426
C	-0.8758884378	 1.2457678504	-0.1871121901	-0.355975
C	-2.3234370733	 0.7859437726	 0.0384991102	 0.114005
O	-2.647471702	 1.1173593542	 1.3838347596	-0.432837
H	-2.3058522256	-3.3062472377	-1.1398062223	 0.120679
H	-2.9040153112	-2.5356247846	-2.6162266993	 0.123815
H	-1.2178974316	-3.0658522276	-2.5138379408	 0.129901
H	-1.3764392189	-0.5362832796	-2.1666751341	 0.092525
H	-3.0918263087	-1.3148151877	 0.2927785968	 0.08356
H	-0.5412647793	-2.1347214881	 0.3604840545	 0.103082
H	-0.6102263943	 2.0596082667	 0.4888598258	 0.144898
H	-0.7086292864	 1.5958767212	-1.2113390355	 0.126232
H	-3.0263043597	 1.2715172346	-0.6547048523	 0.068649
H	-3.5232766514	 0.7670772018	 1.5767351343	 0.281643
90.5578	149.6431	187.4618	219.2322	241.4444	295.916	367.2555	403.2868	438.0517	468.8116	536.2456	638.6149	734.4956	780.1982	826.6773	856.9864	899.771	935.5827	955.6229	984.5628	1006.7925	1056.3181	1076.794	1080.4547	1125.6945	1137.5952	1175.8056	1188.1453	1204.9286	1221.003	1290.8251	1293.5065	1313.0759	1348.6339	1409.8324	1419.2392	1441.8256	1448.4017	1492.5787	1501.3809	1836.9841	2986.5007	3031.9803	3061.0248	3096.6952	3102.5104	3130.9282	3134.2195	3149.2739	3196.5248	3813.7269
CC1C2C1C(=O)CC2O	C[C@H]1[C@H]2[C@@H]1C(=O)C[C@@H]2O	
InChI=1S/C7H10O2/c1-3-6-4(8)2-5(9)7(3)6/h3-4,6-8H,2H2,1H3	InChI=1S/C7H10O2/c1-3-6-4(8)2-5(9)7(3)6/h3-4,6-8H,2H2,1H3/t3-,4-,6+,7-/m0/s1
