19
gdb 1107	2.6889925	1.3056399	1.1307295	3.583	77.39	-0.22829	-0.01117	0.21711999999999998	1185.5641	0.154608	-422.530011	-422.520718	-422.519774	-422.564477	33.635	
C	-2.1254015857	 0.4208046543	-0.6073223101	-0.482422
C	-1.4865663912	-0.8643968695	-1.1101342641	 0.38773
O	-2.0478946189	-1.9342160643	-1.0050433764	-0.316121
C	-0.1272817417	-0.7055445297	-1.7110045903	-0.211768
C	 1.1260870559	-1.3863941386	-1.1508897855	 0.055095
O	 0.8544863458	-2.6617084462	-0.6094171142	-0.275196
C	 0.4376136223	-3.1354774805	-1.9245783667	-0.122436
C	 0.6434669032	-1.738685649	-2.5291285294	 0.22229
C	 1.1743080109	-1.4569458167	-3.9041250748	-0.496901
H	-1.4645197119	 0.9241463776	 0.1072814596	 0.139
H	-2.2845200932	 1.1164433175	-1.439770569	 0.135537
H	-3.0810269299	 0.1954235827	-0.1329122418	 0.140928
H	 0.1058722769	 0.3105069107	-2.0243001615	 0.090036
H	 1.972954761	-0.8294729669	-0.763726063	 0.109604
H	 1.1692797105	-3.8560216472	-2.3075633806	 0.102793
H	-0.5683083769	-3.552035898	-1.9141798425	 0.143293
H	 0.4076246818	-1.6321086499	-4.6677955069	 0.130656
H	 1.500381905	-0.4162924305	-3.9978998879	 0.122453
H	 2.0313284661	-2.0990215857	-4.1355950246	 0.125426
46.6613	119.271	139.0388	182.9619	200.036	245.1248	306.8172	341.8139	416.4514	434.4022	594.9237	623.7818	646.6582	765.5577	815.0861	874.7644	907.7646	924.9558	967.6287	982.3243	1006.2749	1014.4942	1044.5761	1073.7244	1084.4298	1126.6521	1170.6429	1186.859	1244.4158	1253.7393	1297.9928	1365.8046	1379.482	1417.5422	1461.928	1472.7988	1477.9271	1486.7761	1493.7799	1498.08	1792.1399	3025.6727	3032.6743	3040.0433	3087.2001	3093.0459	3100.6779	3130.6562	3151.6131	3152.7107	3170.0515
CC(=O)C1C2OCC12C	CC(=O)[C@H]1[C@H]2OC[C@@]12C	
InChI=1S/C7H10O2/c1-4(8)5-6-7(5,2)3-9-6/h5-6H,3H2,1-2H3	InChI=1S/C7H10O2/c1-4(8)5-6-7(5,2)3-9-6/h5-6H,3H2,1-2H3/t5-,6+,7-/m0/s1
