19
gdb 1417	2.6239569	1.5832128	1.4508644	0.9413	74.2	-0.23196	0.07377	0.30573	1014.0679	0.15449	-422.479084	-422.47051	-422.469566	-422.511432	33.542	
C	 3.7667621716	-1.5739993856	-1.9243665441	-0.454496
C	 2.7132222913	-0.4990802839	-2.1832973451	 0.240515
C	 1.758775634	-0.906883819	-3.3036402763	-0.454488
C	 2.0672570892	 0.1563818491	-0.9259057031	-0.11938
C	 1.8763941668	 1.5357396802	-1.6256224079	-0.018667
O	 2.5375614731	 2.3005193818	-0.5734734496	-0.342213
C	 3.3044972617	 1.0612417186	-0.6446096004	-0.018667
C	 3.2191073328	 0.9570227529	-2.2154467955	 0.361132
O	 4.0502868798	 1.47502949	-3.1748666951	-0.473051
H	 4.4539553839	-1.2927800849	-1.1205280848	 0.114064
H	 3.2953959602	-2.5227440561	-1.6445823417	 0.114219
H	 4.364376158	-1.7553639565	-2.8242496209	 0.125454
H	 1.2412089166	-1.8400184917	-3.0547048056	 0.114224
H	 0.9980165278	-0.1440266247	-3.4953928737	 0.114067
H	 2.3062411328	-1.0724645078	-4.2378182909	 0.125439
H	 1.4084895452	-0.2788446292	-0.1774297191	 0.084181
H	 1.0013281855	 1.9667907438	-2.1093964618	 0.096226
H	 4.1366035321	 0.9250780912	 0.044332108	 0.096227
H	 4.2115425875	 2.4027815616	-2.9610185324	 0.295216
183.4059	187.5484	194.3828	221.2664	241.0204	320.5361	339.7937	350.6801	404.5612	547.1134	594.8429	610.1597	692.8386	777.3773	807.9094	850.8921	886.2429	890.0422	904.9194	919.1957	954.2347	990.6241	1009.6068	1024.3288	1076.7693	1128.5543	1138.2616	1169.7606	1170.6429	1209.6955	1236.0682	1262.6537	1283.2774	1359.617	1405.9545	1416.0555	1429.5218	1479.1677	1489.4293	1502.3896	1511.5305	3028.2827	3032.6167	3091.1917	3095.3093	3102.6334	3104.8548	3129.3098	3131.4929	3150.9548	3778.3919
CC1(C)C2C3OC2C13O	CC1(C)[C@@H]2[C@H]3O[C@@H]2[C@@]13O	
InChI=1S/C7H10O2/c1-6(2)3-4-7(6,8)5(3)9-4/h3-5,8H,1-2H3	InChI=1S/C7H10O2/c1-6(2)3-4-7(6,8)5(3)9-4/h3-5,8H,1-2H3/t3-,4-,5+,7-
