19
gdb 579	3.6619135	1.5267744	1.4106638	1.617	73.85	-0.23691	0.08247	0.31938	971.8282	0.160652	-422.538617	-422.531987	-422.531043	-422.569336	27.153	
C	 0.9745871425	 0.2468572592	-1.8574787466	-0.097936
O	-0.1821636622	 1.1168464567	-1.8099403352	-0.28699
C	-0.336078661	 1.3235622598	-0.4019352481	 0.113318
C	 1.1099987098	 1.5990628521	 0.1035976793	-0.040604
C	 1.2072960086	 1.7777503559	 1.6169006216	-0.106875
O	 0.1345844546	 1.1457689916	 2.29380729	-0.250055
C	-0.2092091429	-0.1123737628	 1.7395548697	-0.106875
C	-0.1596666164	-0.0951261531	 0.2135374017	-0.040603
C	 1.2783042528	 0.1160627918	-0.3655905005	-0.082054
H	 0.7099150737	-0.7033544677	-2.3371314479	 0.099783
H	 1.7795419151	 0.7238978979	-2.4297549073	 0.099782
H	-1.1872271296	 1.9739793046	-0.2086017383	 0.087262
H	 1.683624093	 2.3601822888	-0.4332672286	 0.072225
H	 2.1799352317	 1.401706774	 1.9795430698	 0.088166
H	 1.1447031209	 2.8379671561	 1.8839511901	 0.111428
H	 0.4481761407	-0.909076705	 2.1294964902	 0.088166
H	-1.2251664381	-0.3242819036	 2.0891535096	 0.111428
H	-0.759436452	-0.8997367845	-0.2217222632	 0.072225
H	 2.1260784789	-0.4995192619	-0.0611023564	 0.06821
180.4408	248.2716	317.8558	319.8331	377.237	443.5322	577.3981	672.4446	729.8505	785.3958	861.1536	884.89	914.3306	920.9714	946.8394	971.68	985.4793	991.8036	1006.9889	1037.6917	1066.197	1083.4408	1106.376	1114.3606	1156.0289	1183.0343	1208.6978	1214.7751	1243.1845	1256.1834	1268.1318	1274.5603	1307.5262	1310.2348	1351.2654	1382.9509	1384.2343	1431.9972	1503.8782	1513.7011	1526.2885	2949.3584	2956.1032	3017.766	3057.1963	3061.2149	3061.9128	3073.4269	3075.6102	3107.2367	3142.0226
C1OC2C3COCC2C13	C1O[C@@H]2[C@H]3COC[C@@H]2[C@@H]13	
InChI=1S/C7H10O2/c1-5-4-3-9-7(5)6(4)2-8-1/h4-7H,1-3H2	InChI=1S/C7H10O2/c1-5-4-3-9-7(5)6(4)2-8-1/h4-7H,1-3H2/t4-,5-,6+,7+
