19
gdb 509	3.258968	1.7009462	1.4293602	0.652	74.1	-0.24966	0.06988	0.31954	950.2597	0.159856	-422.502697	-422.495896	-422.494952	-422.53347	27.956	
C	 0.1844647826	 0.8645025241	-1.1814358585	-0.185873
O	 0.4478852224	-0.442142529	-0.5843701004	-0.316539
C	 1.065544867	 0.1853951314	 0.5698411112	 0.138961
C	 2.5890008682	 0.2299506459	 0.7544020268	-0.103994
C	 2.6808239481	 1.0156688203	-0.5754971034	-0.264086
C	 1.2161279872	 1.4883075628	-0.2484757655	 0.260965
C	 1.2492679794	 2.7344972777	 0.5956383694	-0.171614
O	 2.365943044	 2.6081828968	 1.4875295653	-0.271293
C	 2.7526237301	 1.2875133346	 1.8824258896	-0.065809
H	 0.3930280085	 0.8782712709	-2.2565814982	 0.108136
H	-0.854014743	 1.1759432199	-1.0004567621	 0.101461
H	 0.4349110586	 0.084856507	 1.4611320217	 0.070029
H	 3.1916253703	-0.6635149485	 0.9419639505	 0.068763
H	 3.4460107164	 1.7902178357	-0.6444541085	 0.10734
H	 2.7107020498	 0.366203099	-1.4497896641	 0.112405
H	 1.4298308967	 3.6538356421	 0.0263047628	 0.108566
H	 0.3092592199	 2.8555679071	 1.1567665124	 0.094147
H	 3.8068426147	 1.3758016148	 2.1629239226	 0.113731
H	 2.191325669	 0.9721810575	 2.7769184484	 0.094703
185.406	264.2792	297.0968	329.7925	392.6849	428.6436	477.8966	569.7567	688.9668	764.6004	817.4448	850.269	869.6407	898.2703	908.1894	944.4278	962.093	989.7234	1013.9822	1026.6647	1045.0145	1070.868	1122.6646	1130.4387	1154.1262	1177.8148	1193.6529	1233.057	1253.6148	1258.2917	1281.086	1285.0289	1307.3723	1338.778	1362.1757	1388.1983	1413.5856	1482.1849	1507.1613	1514.0544	1517.3015	2972.7577	2980.733	3001.7102	3035.5183	3052.5535	3064.195	3070.64	3076.1629	3087.299	3150.3501
C1OC2C3CC12COC3	C1O[C@H]2[C@H]3C[C@@]12COC3	
InChI=1S/C7H10O2/c1-5-2-8-3-7(1)4-9-6(5)7/h5-6H,1-4H2	InChI=1S/C7H10O2/c1-5-2-8-3-7(1)4-9-6(5)7/h5-6H,1-4H2/t5-,6-,7+/m0/s1
