19
gdb 5675	2.717616	1.1320609	0.9489307	3.3482	78.7	-0.24033	-0.02884	0.21148999999999998	1296.3893	0.155879	-422.563665	-422.554528	-422.553584	-422.598446	32.551	
C	 1.3125227631	-0.3332186467	-0.0362829886	-0.238274
O	-0.0456102699	-0.3444253079	 0.3443551377	-0.250026
C	-0.3866419516	 0.6585777512	 1.2988109053	 0.095913
C	-0.0740051513	 0.2419264955	 2.7596016425	-0.274806
C	-1.3948481136	-0.3496512539	 3.3188386018	-0.11577
C	-1.4305952501	-1.869728373	 3.1954312605	 0.153021
O	-1.7971391224	-2.62153487	 4.060079507	-0.251904
C	-2.4336321023	 0.2479257304	 2.3902846868	-0.083705
C	-1.8898740108	 0.7925008224	 1.3034701555	-0.079596
H	 1.9883873941	-0.5407778358	 0.8072494123	 0.105905
H	 1.4432854933	-1.1165389993	-0.7866718909	 0.131267
H	 1.6017924804	 0.6336298931	-0.4766579591	 0.10655
H	 0.1246385103	 1.5938697731	 1.0241654554	 0.067477
H	 0.7673286691	-0.4557053917	 2.8087477379	 0.111855
H	 0.1953640311	 1.122068748	 3.3502601955	 0.114271
H	-1.5684455556	-0.1009502444	 4.3696853969	 0.093256
H	-1.0896810777	-2.2355529585	 2.2007176211	 0.093623
H	-3.4949169832	 0.176699243	 2.5999118177	 0.113631
H	-2.4301866232	 1.2366065246	 0.4761986847	 0.107312
52.349	81.0323	118.5752	170.2415	188.9673	305.9524	316.0513	362.6882	434.4894	460.462	528.4469	751.1747	769.5572	793.2413	824.8839	911.2624	953.36	960.381	982.1557	984.3851	1039.1861	1081.5446	1086.9497	1126.0328	1137.3717	1180.3032	1202.8337	1225.4911	1240.51	1276.46	1313.4558	1324.3106	1362.7688	1391.4326	1415.2577	1470.251	1476.9112	1487.1297	1508.997	1677.1139	1830.2946	2887.8972	2973.3174	2984.8782	3021.5522	3057.8652	3074.9102	3102.8602	3116.0613	3193.6629	3219.4586
COC1CC(C=O)C=C1	CO[C@@H]1C[C@H](C=O)C=C1	
InChI=1S/C7H10O2/c1-9-7-3-2-6(4-7)5-8/h2-3,5-7H,4H2,1H3	InChI=1S/C7H10O2/c1-9-7-3-2-6(4-7)5-8/h2-3,5-7H,4H2,1H3/t6-,7+/m1/s1
