19
gdb 2164	2.1841725	1.9655123	1.6606512	1.1725	74.72	-0.23131	0.08205	0.31335999999999997	956.5694	0.155944	-422.513219	-422.505119	-422.504175	-422.545212	31.695	
C	 1.1521445572	 2.1904111616	 3.2235528527	-0.533333
C	 1.6502199633	 1.410957377	 2.049321839	 0.366227
O	 2.2233213705	 0.0714409436	 2.2666982708	-0.35162
C	 2.3340440735	 0.2717785665	 0.8204872075	-0.013912
C	 2.7688420722	 1.7519929959	 1.0081095335	-0.132195
C	 2.1176392	 2.5571946492	-0.1004566103	-0.12043
O	 0.8326995993	 1.9077268778	-0.2050924346	-0.318177
C	 0.8991333164	 0.888023496	 0.7694712889	 0.418636
C	-0.3484499864	 0.0610143345	 0.8443273572	-0.499618
H	 0.3665710052	 1.636790354	 3.7473502721	 0.13617
H	 1.9617724173	 2.3938271145	 3.9313795922	 0.134
H	 0.734108412	 3.1456057819	 2.8898636667	 0.132891
H	 2.7915544306	-0.5189497759	 0.2259573694	 0.088436
H	 3.7756753447	 1.984493518	 1.3503958243	 0.083803
H	 1.980486669	 3.6162056444	 0.150413243	 0.106986
H	 2.646362305	 2.4912818971	-1.0590787102	 0.108043
H	-0.2229130569	-0.709026333	 1.6091030356	 0.139729
H	-1.2108632388	 0.684007425	 1.1007423474	 0.126207
H	-0.5527790239	-0.4190848482	-0.1172863452	 0.128157
166.9006	186.4336	208.7945	233.7197	253.8301	285.6933	389.7435	472.4697	504.7582	655.47	673.3983	691.212	727.3306	759.9668	782.9744	873.9357	917.2088	926.3193	949.2728	963.2562	992.6142	1026.2875	1080.4001	1112.1072	1128.29	1145.6229	1168.6449	1204.1013	1214.9563	1239.5543	1274.4593	1328.6954	1352.1777	1386.1742	1409.2712	1423.3631	1474.869	1485.2818	1489.0673	1496.1767	1521.0564	3020.6677	3036.6429	3044.9013	3057.8052	3109.1565	3110.3863	3111.3059	3119.6488	3134.1182	3145.4128
CC12OC3C1COC23C	C[C@]12O[C@@H]3[C@H]1CO[C@]23C	
InChI=1S/C7H10O2/c1-6-4-3-8-7(6,2)5(4)9-6/h4-5H,3H2,1-2H3	InChI=1S/C7H10O2/c1-6-4-3-8-7(6,2)5(4)9-6/h4-5H,3H2,1-2H3/t4-,5-,6+,7+/m1/s1
