19
gdb 1618	1.6786034	1.5463565	1.0717726	2.7214	76.72	-0.24648	-0.05329	0.19319	1223.3437	0.153216	-422.557589	-422.547537	-422.546593	-422.593953	35.06	
C	-1.0532812109	 1.6439819128	 2.2072956928	-0.484909
C	-0.2967264061	 2.1239745576	 0.9793561306	 0.350286
C	-0.1592636134	 3.611916726	 0.7642566709	-0.308823
C	 1.0403147312	 2.7945699193	 1.1837730495	-0.308841
C	-0.4275862807	 1.2721063966	-0.3060710115	-0.226401
C	 0.1300373021	-0.1200615171	-0.0625693506	 0.151476
O	 1.235776111	-0.4608173164	-0.3928950566	-0.244102
C	-1.8761313788	 1.2460977867	-0.7637220793	 0.151467
O	-2.3120375559	 1.9555423191	-1.6323763049	-0.244108
H	-0.7286827672	 0.6487187891	 2.5303230993	 0.125679
H	-0.8792896112	 2.3280187825	 3.042785777	 0.127804
H	-2.1351336519	 1.6072421027	 2.0384430299	 0.125694
H	-0.19771965	 3.9881524163	-0.2517217172	 0.131695
H	-0.6149985783	 4.2692673679	 1.4970135842	 0.117811
H	 1.8213639298	 2.6124037118	 0.4543729211	 0.131698
H	 1.4006674452	 2.8958700695	 2.2019172817	 0.117811
H	 0.1673132362	 1.7415551392	-1.093502763	 0.117943
H	-0.5484965388	-0.8234048476	 0.4717364761	 0.083911
H	-2.5383541123	 0.531289564	-0.2241948397	 0.08391
35.0772	52.7516	68.2004	186.7412	211.4337	227.9406	264.8558	331.1817	353.6989	379.3868	430.2727	470.2299	576.6076	705.0012	783.7291	871.6997	897.7066	930.0445	941.978	952.9817	1013.8594	1051.2522	1077.6444	1080.0796	1082.876	1119.8442	1134.4352	1185.2487	1236.4894	1252.1945	1285.0687	1366.1166	1425.3698	1427.0512	1439.5145	1472.2544	1496.8801	1499.8719	1507.2217	1812.5667	1844.5397	2856.9581	2877.5331	3030.7755	3089.5982	3090.9125	3107.3665	3134.8054	3138.6771	3214.6482	3227.3934
CC1(CC1)C(C=O)C=O	CC1(CC1)C(C=O)C=O	
InChI=1S/C7H10O2/c1-7(2-3-7)6(4-8)5-9/h4-6H,2-3H2,1H3	InChI=1S/C7H10O2/c1-7(2-3-7)6(4-8)5-9/h4-6H,2-3H2,1H3
