19
gdb 4323	2.6978828	1.6391276	1.2420606	1.9544	76.61	-0.24832	0.00105	0.24937	1053.4771	0.157978	-422.555174	-422.547117	-422.546172	-422.588061	30.956	
O	 0.1800528306	-0.0480714198	 0.2953741158	-0.445012
C	-1.0358610359	 0.6487573567	 0.2004909045	 0.079641
C	-1.0239167823	 2.1071330284	 0.7329229813	-0.300764
C	-2.3986121968	 2.2531971591	 1.3327772361	-0.073898
C	-3.0247089945	 1.0823613113	 1.4663194257	-0.129104
C	-2.1751949187	-0.0544979398	 0.9921805132	 0.391306
C	-2.799011389	-1.331328029	 0.3841789305	-0.354933
C	-2.1257032606	-2.0783873566	 1.546429451	-0.072332
O	-1.6067775656	-0.8448101475	 2.0990826408	-0.340639
H	 0.1652264088	-0.4482657754	 1.1787124786	 0.285712
H	-1.3203296593	 0.6658829196	-0.8587650053	 0.089515
H	-0.2408956696	 2.2291279568	 1.4922436716	 0.119403
H	-0.8149101136	 2.839858854	-0.0539407858	 0.107022
H	-2.8086607623	 3.2123088431	 1.6321877668	 0.101129
H	-4.0044873638	 0.9303243096	 1.9049902188	 0.096455
H	-3.8904216232	-1.3509890529	 0.387221419	 0.109979
H	-2.4349673827	-1.5844310156	-0.613099834	 0.119231
H	-2.7961931795	-2.5797106576	 2.2530221088	 0.107873
H	-1.321631842	-2.7667655443	 1.2635733527	 0.109416
65.7239	93.8496	223.1946	250.1744	300.0448	411.5111	458.2678	505.8636	527.2737	573.8379	677.9481	750.508	777.4021	786.2792	848.2086	896.4201	943.7766	967.0337	980.3805	985.3236	1004.3067	1024.9807	1042.6709	1112.6937	1125.2385	1161.2145	1163.8224	1195.8694	1206.7543	1247.6638	1256.7505	1272.7071	1313.6209	1339.6727	1351.6818	1392.6807	1448.4859	1481.9761	1482.4928	1526.5377	1672.6079	3029.1547	3029.8961	3032.1709	3071.3475	3072.3594	3076.2691	3131.9399	3178.4311	3204.1485	3698.7274
OC1CC=CC11CCO1	O[C@@H]1CC=C[C@]21CCO2	
InChI=1S/C7H10O2/c8-6-2-1-3-7(6)4-5-9-7/h1,3,6,8H,2,4-5H2	InChI=1S/C7H10O2/c8-6-2-1-3-7(6)4-5-9-7/h1,3,6,8H,2,4-5H2/t6-,7-/m1/s1
