19
gdb 783	1.945646	1.3379803	0.8515984	2.9163	77.95	-0.25092	-0.05021	0.20070999999999997	1347.8467	0.154695	-422.558452	-422.548915	-422.547971	-422.594327	33.04	
O	 0.9060433173	-0.7065764732	-0.5610415257	-0.245868
C	 0.1043683591	-0.1159580873	 0.1137654885	 0.15831
C	-0.3273942544	 1.3174616511	-0.1301358453	-0.1892
C	-0.3651527915	 2.1190799138	 1.1569139431	 0.158321
O	 0.0795611053	 3.2302637562	 1.2767913096	-0.24586
C	-1.7538344902	 1.2988811595	-0.7326184714	 0.020589
C	-1.9428535928	 0.700832454	-2.1561620569	-0.233379
C	-2.933695738	 1.8572546645	-2.4608267503	-0.218539
C	-2.3498830052	 2.6385117857	-1.2522324011	-0.233387
H	-0.4136608212	-0.6182745417	 0.9640570706	 0.080804
H	 0.3661964276	 1.7899385834	-0.8303260292	 0.114123
H	-0.8829921155	 1.6117887041	 2.0043756385	 0.080787
H	-2.4437041496	 0.8238448164	-0.0249484838	 0.081921
H	-1.0246015351	 0.780693825	-2.7447457693	 0.11991
H	-2.3105328145	-0.3250368604	-2.2273511844	 0.107999
H	-2.8653076955	 2.3296369519	-3.4426396722	 0.107523
H	-3.9719304854	 1.5597685143	-2.2906353853	 0.108054
H	-1.560684564	 3.3327537499	-1.5542172874	 0.119895
H	-3.0444853466	 3.1689661128	-0.597395648	 0.107997
54.5259	57.6446	82.0022	117.9483	192.7653	230.5239	275.8568	356.458	402.5155	461.0601	567.0547	644.0545	768.9293	779.8603	888.8427	933.6432	938.5283	943.036	955.5965	1005.3329	1013.422	1071.6795	1101.0856	1107.0764	1159.2944	1208.1109	1219.222	1248.9844	1259.5908	1263.9709	1269.6221	1291.9921	1295.6654	1362.1748	1424.3179	1437.6617	1479.1308	1486.8375	1509.1165	1813.0356	1845.9682	2845.4172	2866.828	3034.7356	3061.9449	3063.2014	3066.9412	3093.7049	3107.9567	3115.8466	3128.5795
O=CC(C=O)C1CCC1	O=CC(C=O)C1CCC1	
InChI=1S/C7H10O2/c8-4-7(5-9)6-2-1-3-6/h4-7H,1-3H2	InChI=1S/C7H10O2/c8-4-7(5-9)6-2-1-3-6/h4-7H,1-3H2
