19
gdb 2979	3.9617348	1.0080285	0.8832362	2.176	76.29	-0.23189	-0.01739	0.21450000000000002	1359.1629	0.154063	-422.530873	-422.521484	-422.52054	-422.566673	33.632	
C	-3.4742364671	 2.313048923	 2.57044671	-0.424245
C	-3.1734256471	 1.2139634249	 1.5749134978	-0.044169
C	-1.9408260506	 0.3927017139	 1.7908808156	 0.08675
O	-1.8844720413	-0.7089828167	 0.8752481403	-0.297974
C	-1.8177643384	 0.2106722614	-0.2481395697	 0.00549
C	-1.9658557055	 1.417530321	 0.6767479602	-0.123076
C	-0.4895530467	 0.1692582016	-1.0045692268	 0.345911
C	 0.4888987035	-0.9216768609	-0.641442318	-0.47375
O	-0.2821329806	 1.0026890408	-1.8559396894	-0.302608
H	-4.060687073	 1.9312509267	 3.4124468554	 0.125796
H	-2.5519609257	 2.7445391345	 2.9746569084	 0.118691
H	-4.0408094738	 3.1255427964	 2.1039175762	 0.128005
H	-4.0390055205	 0.7005046369	 1.1592981213	 0.092695
H	-1.3847965128	 0.3129333957	 2.7184874552	 0.104458
H	-2.6295199403	 0.0419869389	-0.9686746133	 0.10973
H	-1.4589120654	 2.3647242177	 0.5537303779	 0.112736
H	 0.8050977452	-0.8073192228	 0.4006256937	 0.148924
H	 0.005128686	-1.9021168778	-0.7025986767	 0.150084
H	 1.3528693841	-0.875841845	-1.305208668	 0.136553
12.2091	116.361	140.3618	153.959	214.5917	249.2704	287.8038	318.2549	448.4688	495.6516	515.0584	577.6846	776.6337	788.1111	828.9098	862.5446	893.8323	957.1834	977.2719	1008.0683	1012.5866	1029.9787	1035.0141	1064.9021	1082.5035	1113.0594	1145.7031	1196.3484	1215.1083	1232.8443	1259.1591	1287.7008	1332.7233	1380.8799	1416.1115	1417.9621	1450.2142	1464.9537	1492.9538	1502.9639	1811.1428	3021.6094	3030.9188	3045.1052	3094.6356	3099.5308	3105.9181	3121.287	3156.9634	3173.3474	3211.4704
CC1C2OC(C12)C(C)=O	C[C@@H]1[C@H]2O[C@@H]([C@@H]12)C(=O)C	
InChI=1S/C7H10O2/c1-3-5-6(3)9-7(5)4(2)8/h3,5-7H,1-2H3	InChI=1S/C7H10O2/c1-3-5-6(3)9-7(5)4(2)8/h3,5-7H,1-2H3/t3-,5-,6+,7+/m0/s1
