19
gdb 4202	2.3953706	1.7864782	1.2256719	2.4785	74.43	-0.26015	0.07108	0.33123	1047.0711	0.157682	-422.538135	-422.530202	-422.529258	-422.570326	31.38	
O	 0.1745187228	 0.0017721589	-0.0163531526	-0.430628
C	-1.0852738912	 0.6410963969	 0.0268358987	 0.043242
C	-1.0692259236	 2.0539436003	 0.6741199928	-0.284506
C	-2.4622693957	 2.2274290697	 1.2408526351	 0.03772
O	-3.505607782	 1.8856943916	 0.3168020064	-0.266667
C	-3.1215014325	 0.9156808681	 1.3093903503	-0.038786
C	-2.1862266649	-0.1283181142	 0.7888810405	 0.330949
C	-2.6420997395	-1.4928363867	 0.3597956593	-0.313682
C	-1.8605607003	-1.3341585455	 1.6394732075	-0.327801
H	 0.5238986514	-0.021525519	 0.8813273247	 0.277404
H	-1.3858220412	 0.7303688833	-1.0199722255	 0.112767
H	-0.3411477255	 2.080249488	 1.4967481201	 0.093619
H	-0.7878156931	 2.8327944847	-0.0397747672	 0.117639
H	-2.6915696745	 3.0410108151	 1.9245665321	 0.094699
H	-3.8865733614	 0.6665352001	 2.0411781385	 0.092623
H	-3.6995498317	-1.7267206026	 0.4230266215	 0.114937
H	-2.1284779159	-1.9433073845	-0.4835152694	 0.124116
H	-2.3788463565	-1.4516138817	 2.5857987401	 0.111632
H	-0.8357925748	-1.6888252926	 1.6389554671	 0.110724
88.6772	198.8515	244.3852	261.3591	329.5711	356.5586	400.8053	446.5624	523.8086	585.3753	671.2259	736.299	785.5077	821.312	861.8855	873.8194	923.3651	939.3309	968.3259	974.3932	1008.8314	1038.9489	1053.7037	1062.4574	1086.9382	1103.756	1114.5439	1179.8046	1193.9376	1250.6041	1269.4133	1283.5222	1292.2853	1324.2252	1334.0947	1378.5361	1429.6569	1441.8884	1456.1654	1475.9225	1499.5966	3021.4865	3078.9694	3097.8417	3127.3541	3129.2098	3136.537	3149.1937	3207.3175	3220.9917	3800.5993
OC1CC2OC2C11CC1	O[C@@H]1C[C@H]2O[C@H]2C21CC2	
InChI=1S/C7H10O2/c8-5-3-4-6(9-4)7(5)1-2-7/h4-6,8H,1-3H2	InChI=1S/C7H10O2/c8-5-3-4-6(9-4)7(5)1-2-7/h4-6,8H,1-3H2/t4-,5-,6-/m1/s1
