19
gdb 5323	2.8634766	1.1479843	0.8940208	2.4973	79.85	-0.23638	-0.05002	0.18636	1305.2907	0.156609	-422.594765	-422.585525	-422.58458	-422.629595	33.594	
C	 1.8145047138	-2.171044351	-1.7810063919	-0.403589
C	 2.0059141726	-0.9465004238	-0.8682141227	-0.07959
C	 3.45099447	-0.8068674611	-0.3368672419	-0.353727
C	 3.344059732	-0.8398587264	 1.1944281364	 0.39378
O	 4.2651411318	-0.7887801876	 1.9764761803	-0.332547
C	 1.9030367294	-0.9306101173	 1.5147780451	-0.299501
C	 1.158998208	-0.9766113845	 0.3988921485	 0.293992
C	-0.3450790397	-1.0073330218	 0.3695599921	-0.167993
O	-0.8797425202	-2.1837304175	-0.2301546103	-0.399307
H	 2.1061832972	-3.0891505368	-1.2581923921	 0.111324
H	 0.7749365982	-2.2788235848	-2.0936099223	 0.142281
H	 2.4459049246	-2.0778606958	-2.6701735464	 0.116655
H	 1.7200706778	-0.0555964888	-1.4446817786	 0.089241
H	 4.1057778403	-1.6156419576	-0.6757878569	 0.12981
H	 3.9272704039	 0.1307691445	-0.6397886566	 0.13237
H	 1.5343157033	-0.9348626024	 2.5340175896	 0.109966
H	-0.738179022	-0.8653274587	 1.3862879839	 0.104872
H	-0.7167234445	-0.1781631624	-0.2446242637	 0.123682
H	-0.5779288368	-2.9372774062	 0.2882896675	 0.288281
42.7326	61.3715	150.882	221.566	269.2183	290.9106	313.6331	343.9284	374.665	494.2402	530.4467	576.1002	630.2603	714.3311	772.8159	847.609	885.4883	920.5952	938.0549	972.9138	1033.2008	1058.1038	1076.0825	1113.3753	1144.8551	1184.2073	1201.2705	1208.083	1259.1069	1301.7012	1331.3284	1338.7247	1377.8206	1412.0561	1415.0311	1454.1439	1495.0557	1497.8404	1506.1149	1671.645	1812.9612	3001.8502	3005.2506	3034.5766	3059.0209	3059.2701	3098.355	3099.635	3143.0125	3205.0764	3811.2885
CC1CC(=O)C=C1CO	C[C@@H]1CC(=O)C=C1CO	
InChI=1S/C7H10O2/c1-5-2-7(9)3-6(5)4-8/h3,5,8H,2,4H2,1H3	InChI=1S/C7H10O2/c1-5-2-7(9)3-6(5)4-8/h3,5,8H,2,4H2,1H3/t5-/m1/s1
