19
gdb 5275	2.6496563	1.6396696	1.3102265	2.9109	73.65	-0.24041	0.05715	0.29756	1043.0201	0.156262	-422.487794	-422.479761	-422.478817	-422.520232	31.016	
C	 1.2191564034	-1.2359744922	 1.0439852209	-0.391823
C	 1.4481932615	-0.0627692008	 0.0833851602	-0.285166
C	 1.9988879635	-0.4632444054	-1.2644337926	 0.449759
O	 2.3668812304	 0.655616781	-2.0947607365	-0.327965
C	 3.6683979957	 0.0813416644	-2.3797882572	-0.093298
C	 3.3591962585	-1.1693950943	-1.5302075913	-0.193934
C	 2.5862481044	-2.3034496596	-2.2479769263	 0.016995
O	 1.8661043876	-1.7221004467	-3.3341163862	-0.225318
C	 1.288275945	-1.6310682676	-2.0318256875	-0.041532
H	 0.849411134	-0.8756699313	 2.0080101597	 0.121758
H	 0.4848078162	-1.9478654016	 0.6546650561	 0.122044
H	 2.1480060324	-1.7856461235	 1.2300148276	 0.119236
H	 0.5055021059	 0.4751584828	-0.0862452378	 0.112447
H	 2.1389520331	 0.6612255054	 0.5299218981	 0.109252
H	 3.8169719803	-0.0854338983	-3.4500018703	 0.116744
H	 4.4711127677	 0.7113475275	-1.9794586237	 0.098126
H	 4.036640427	-1.4602043531	-0.7291211941	 0.085409
H	 2.8392759009	-3.3547751145	-2.3230408556	 0.106231
H	 0.2828105223	-2.022096532	-1.9144561233	 0.101035
92.9331	152.047	200.5984	252.7115	289.0179	313.4006	403.7246	476.001	552.1186	645.1556	731.5869	774.5011	805.7904	824.3308	849.5426	904.9002	929.0677	953.3187	968.2998	991.8981	1000.8158	1024.982	1048.2554	1071.5588	1085.5183	1129.8654	1164.6377	1173.6167	1210.0686	1241.7641	1285.8523	1296.3491	1313.1072	1339.2174	1366.1905	1380.42	1414.5446	1483.5283	1502.5376	1505.6827	1506.6221	3021.7598	3029.919	3039.0743	3064.5092	3094.7901	3105.406	3112.6381	3130.5114	3165.4011	3187.2605
CCC12OCC1C1OC21	CC[C@@]12OC[C@@H]1[C@@H]1O[C@H]21	
InChI=1S/C7H10O2/c1-2-7-4(3-8-7)5-6(7)9-5/h4-6H,2-3H2,1H3	InChI=1S/C7H10O2/c1-2-7-4(3-8-7)5-6(7)9-5/h4-6H,2-3H2,1H3/t4-,5+,6+,7-/m1/s1
