19
gdb 5975	4.2494546	1.0647153	0.9976883	1.1866	75.31	-0.22921	0.07429	0.3035	1257.417	0.15597	-422.473889	-422.465547	-422.464603	-422.507468	31.038	
C	 1.5009308399	 0.5372957032	 0.1273884929	-0.219258
O	 0.1333510386	 0.8600462801	 0.2183592582	-0.239445
C	-0.5913504745	-0.046986026	 1.0174008661	-0.203871
C	-2.024627228	 0.3916166406	 1.0455882857	 0.429317
C	-2.8698714232	 0.6903161066	-0.2211264308	-0.261819
C	-3.8014421498	 1.43082111	 0.7384804233	-0.12292
C	-3.7134682165	 0.6306246517	 2.0504225383	 0.097925
O	-2.879352397	-0.5057846762	 1.8172087643	-0.340748
C	-2.6755893208	 1.6503940157	 1.7451486264	-0.192217
H	 1.6565980858	-0.4536201562	-0.3274922969	 0.107051
H	 1.9735109828	 1.2944327368	-0.5027077358	 0.128826
H	 1.9878758855	 0.5408443916	 1.1152450041	 0.106435
H	-0.5401940757	-1.0717396798	 0.6090378319	 0.100751
H	-0.1910640289	-0.0835815995	 2.0436117345	 0.099629
H	-2.3481385219	 1.3780468265	-0.8889261165	 0.11896
H	-3.2447677178	-0.1815362388	-0.7673399779	 0.09413
H	-4.6290828757	 2.0900734345	 0.510832832	 0.090981
H	-4.4887000305	 0.5691057879	 2.8022413063	 0.106335
H	-2.2889811923	 2.5213411416	 2.254709214	 0.09994
64.8113	83.2878	130.1192	221.9925	287.1377	340.416	373.694	470.313	551.506	687.1034	762.6153	766.5295	790.3248	815.7987	844.6679	924.5919	936.2865	962.8405	996.3912	998.9424	1025.1672	1037.5248	1063.5866	1086.5983	1119.6059	1144.1042	1167.1697	1173.2676	1187.2897	1223.6349	1229.4721	1250.8008	1283.9585	1338.5165	1366.686	1433.2061	1480.6926	1484.6819	1490.329	1501.5277	1521.2844	2952.677	2973.5159	2990.7846	3017.4082	3048.9417	3116.5457	3128.849	3199.6463	3207.2554	3223.3508
COCC12CC3C(O1)C23	COC[C@@]12C[C@H]3[C@@H](O1)[C@@H]23	
InChI=1S/C7H10O2/c1-8-3-7-2-4-5(7)6(4)9-7/h4-6H,2-3H2,1H3	InChI=1S/C7H10O2/c1-8-3-7-2-4-5(7)6(4)9-7/h4-6H,2-3H2,1H3/t4-,5+,6-,7-/m1/s1
