19
gdb 3557	2.692455	1.3281793	0.9306505	4.2837	79.07	-0.24031	-0.05124	0.18907	1242.8614	0.156664	-422.600528	-422.591624	-422.59068	-422.633962	33.507	
C	-3.4984288808	-0.3782321611	 2.3676734912	-0.430043
C	-2.684691258	-0.1524924272	 1.0851359144	-0.03207
C	-1.7622823276	-1.312027249	 0.8036023863	-0.044683
C	-0.5705337561	-1.1971753934	 0.2045300853	-0.16493
C	-0.053193562	 0.102573686	-0.2762857466	 0.367659
O	 1.0390713214	 0.2074187556	-0.7960960976	-0.331559
C	-0.9912805376	 1.2919106302	-0.1090200837	-0.324611
C	-1.8873375249	 1.1670295937	 1.1206805168	 0.091082
O	-2.7348199447	 2.3063679038	 1.136884261	-0.433876
H	-4.0735753021	-1.3075540265	 2.3110490813	 0.124537
H	-2.8447828734	-0.4426180331	 3.245094362	 0.123581
H	-4.212193004	 0.4354469657	 2.5283003449	 0.115031
H	-3.3938287277	-0.0673123434	 0.2466737406	 0.104812
H	-2.1079978182	-2.294252296	 1.1217779053	 0.105756
H	 0.0700657252	-2.0559398852	 0.0301598771	 0.108698
H	-0.4021796986	 2.2107966702	-0.0779357365	 0.129174
H	-1.6315134987	 1.3471258082	-1.0010370035	 0.130747
H	-1.2502044322	 1.1525381763	 2.0211015371	 0.075085
H	-3.1265854599	 2.3837184355	 2.0117609046	 0.285612
76.3981	136.5828	217.5085	230.1281	259.9578	290.4087	338.1362	371.1988	403.1497	464.1393	510.8791	540.4819	623.6429	705.7056	774.2633	835.2332	853.0688	924.8842	956.3815	1020.4166	1035.9983	1084.6341	1088.5253	1090.8464	1108.376	1172.946	1206.5171	1240.438	1271.3465	1290.4031	1313.4464	1324.2451	1380.9916	1396.2826	1414.2475	1426.1974	1463.8613	1497.2426	1504.1737	1677.5455	1781.3368	2959.7034	2988.2782	3023.9178	3031.063	3100.7993	3105.6473	3114.5947	3140.8539	3188.81	3830.5676
CC1C=CC(=O)CC1O	C[C@@H]1C=CC(=O)C[C@H]1O	
InChI=1S/C7H10O2/c1-5-2-3-6(8)4-7(5)9/h2-3,5,7,9H,4H2,1H3	InChI=1S/C7H10O2/c1-5-2-3-6(8)4-7(5)9/h2-3,5,7,9H,4H2,1H3/t5-,7-/m1/s1
