19
gdb 1265	2.9789516	1.2359266	1.0956227	4.3664	75.67	-0.27169	0.00466	0.27635	1190.2083	0.155394	-422.565229	-422.556235	-422.555291	-422.598996	33.408	
C	-3.1552567107	 1.0592440193	 1.1044842278	-0.396593
C	-2.5657896082	 2.1453816054	 0.192942057	-0.086739
C	-3.6668410523	 2.9905728477	-0.4703527252	-0.391079
C	-1.6651862133	 1.5559826167	-0.8519877206	 0.503268
C	-0.5029026649	 2.1486171631	-1.556329517	-0.343481
C	-0.3468692402	 0.812819385	-0.8023555228	-0.351255
C	-1.0720530231	-0.2355803132	-1.5965935777	 0.466563
O	-0.8873390293	-1.3397863878	-1.9918300462	-0.326648
O	-2.2326918407	 0.5213725976	-1.7268347637	-0.303832
H	-3.7873465527	 1.5089185703	 1.8757132255	 0.115674
H	-3.7667560043	 0.3610033126	 0.5260033019	 0.140884
H	-2.3670729969	 0.4861153456	 1.6023556322	 0.117638
H	-1.9353040885	 2.8106285226	 0.7982690927	 0.085477
H	-4.3102291823	 3.4458352258	 0.2882841713	 0.116111
H	-3.2404224917	 3.7913450846	-1.0820734497	 0.118233
H	-4.2920811656	 2.3672616527	-1.1171244354	 0.139347
H	-0.471449966	 2.1659212402	-2.6409217544	 0.137896
H	-0.0134054347	 2.9838123044	-1.0632618065	 0.130446
H	 0.3746324552	 0.6572307474	-0.0137648092	 0.12809
68.8179	106.1657	178.6698	212.1713	239.9261	259.888	313.465	395.5209	444.5207	489.1795	516.9342	626.1376	698.037	764.839	831.4436	859.1516	910.8789	930.3395	945.7868	964.8871	966.7458	1002.4014	1016.88	1054.0309	1072.6404	1107.9379	1136.9601	1187.5245	1223.7369	1238.7991	1325.0431	1330.3163	1397.9428	1416.7876	1427.1152	1486.3064	1491.5639	1492.6144	1501.4537	1519.5048	1942.8246	3019.2636	3038.6475	3042.4925	3110.0568	3112.362	3114.6212	3121.7725	3122.4892	3214.0065	3229.2107
CC(C)C12CC1C(=O)O2	CC(C)[C@@]12C[C@@H]1C(=O)O2	
InChI=1S/C7H10O2/c1-4(2)7-3-5(7)6(8)9-7/h4-5H,3H2,1-2H3	InChI=1S/C7H10O2/c1-4(2)7-3-5(7)6(8)9-7/h4-5H,3H2,1-2H3/t5-,7+/m1/s1
