19
gdb 4767	2.0147369	1.2143601	0.8005455	1.2799	79.23	-0.25319	-0.03762	0.21557000000000004	1428.2636	0.152198	-422.53309	-422.522138	-422.521194	-422.570291	37.954	
C	 1.0817785592	-0.9152291497	 0.9442341217	-0.389901
C	 0.8229443219	 0.070675506	-0.19755927	-0.197595
C	 1.6265594743	 1.3676475059	-0.0484375679	 0.133097
O	 1.3157505897	 2.04930315	 1.1515253495	-0.417503
C	 1.4426980794	 2.3071270235	-1.2906031642	-0.312504
C	 2.0762975382	 1.6698927007	-2.5321500496	 0.162136
O	 1.4567133696	 1.1121119774	-3.3971520304	-0.244301
C	 2.0465318418	 3.6161275692	-1.0812070489	 0.312679
C	 2.5867013308	 4.6838938266	-0.9691315715	-0.423619
H	 0.4516461778	-1.8036310303	 0.8451453394	 0.116047
H	 2.1262689175	-1.245467159	 0.9495527845	 0.118078
H	 0.8757795964	-0.4501367254	 1.9115853759	 0.129969
H	 1.0520926912	-0.3943330469	-1.1624501465	 0.122476
H	-0.2451548166	 0.3303653302	-0.2360871313	 0.092461
H	 2.6946308862	 1.1327145624	 0.0402867807	 0.100693
H	 0.381359253	 2.2866561429	 1.1291548636	 0.282303
H	 0.3684597584	 2.4034877132	-1.4940372754	 0.115642
H	 3.1842854456	 1.7569379143	-2.5634469802	 0.098003
H	 3.0467826257	 5.633129669	-0.8455665794	 0.20184
28.9144	66.5956	93.3102	121.8465	177.144	205.5132	244.4239	257.2724	286.7697	365.9007	388.6862	430.9985	491.7803	515.263	593.541	636.061	653.5526	779.7204	872.1105	930.2443	966.0696	996.7716	1042.7108	1068.3607	1087.2819	1112.7436	1139.5579	1202.4417	1263.5494	1276.426	1331.1231	1358.2109	1382.4646	1408.4262	1415.9688	1430.7722	1480.6588	1496.3082	1509.2473	1831.5326	2235.9466	2898.0966	3006.0181	3028.5817	3040.1349	3045.2921	3075.3947	3106.2919	3125.644	3503.2799	3792.1908
CCC(O)C(C=O)C#C	CC[C@H](O)[C@H](C=O)C#C	
InChI=1S/C7H10O2/c1-3-6(5-8)7(9)4-2/h1,5-7,9H,4H2,2H3	InChI=1S/C7H10O2/c1-3-6(5-8)7(9)4-2/h1,5-7,9H,4H2,2H3/t6-,7-/m0/s1
