19
gdb 761	2.3765991	1.7098504	1.1674654	2.8146	75.22	-0.23799	-0.02753	0.21046	1089.6871	0.157867	-422.572094	-422.563976	-422.563031	-422.604895	31.006	
O	 1.1866352918	 0.0230465565	 0.208290723	-0.305314
C	-0.0036563607	 0.0184573564	 0.0014071612	 0.33914
C	-0.8437475484	 1.2821679753	-0.0705010876	-0.3027
C	-1.8909108941	 1.2430432127	-1.1996749145	-0.207942
C	-2.7481880411	-0.0270225509	-1.1231804153	-0.200465
C	-1.8710714044	-1.2850123825	-1.209658156	-0.291879
C	-0.7961086578	-1.278726977	-0.1426981276	 0.330254
C	-0.2035522323	-2.5047598959	 0.3911765206	-0.234824
O	-1.1866684251	-1.7873555032	 1.1523465634	-0.279072
H	-1.3664787405	 1.3532974196	 0.8949303505	 0.136937
H	-0.1740793483	 2.1423116106	-0.1455695661	 0.120869
H	-2.5205327303	 2.1367811001	-1.1423213242	 0.105818
H	-1.3814094036	 1.2824983241	-2.171563207	 0.105993
H	-3.3042589355	-0.0403001877	-0.1772654786	 0.113492
H	-3.4900544148	-0.033802828	-1.9282516232	 0.09966
H	-2.469743013	-2.1951400518	-1.1025022985	 0.110623
H	-1.3873044515	-1.3264038693	-2.195556378	 0.108226
H	-0.5358209796	-3.4652688135	 0.0002001884	 0.113239
H	 0.8080982792	-2.4699619754	 0.7866570797	 0.137946
65.9888	132.4879	223.071	273.3628	296.7304	370.6062	394.7637	435.8184	495.2063	580.2579	639.117	681.3908	788.4983	825.7582	852.6936	869.5019	919.6488	930.9566	980.8523	993.1918	1071.5104	1094.9332	1111.3725	1136.9865	1140.5568	1162.2695	1179.0735	1258.1926	1277.944	1298.0125	1339.6001	1354.0556	1368.5208	1379.2038	1427.925	1458.0965	1470.0331	1492.6623	1500.8151	1517.9331	1816.7243	3011.8613	3016.2221	3024.2584	3032.5747	3074.6114	3078.0404	3083.0121	3095.3861	3105.3765	3194.6347
O=C1CCCCC11CO1	O=C1CCCC[C@]21CO2	
InChI=1S/C7H10O2/c8-6-3-1-2-4-7(6)5-9-7/h1-5H2	InChI=1S/C7H10O2/c8-6-3-1-2-4-7(6)5-9-7/h1-5H2/t7-/m1/s1
