19
gdb 1506	2.4881	1.4689405	1.161163	4.209	78.23	-0.25766	0.0058	0.26346	1138.545	0.155601	-422.610572	-422.601468	-422.600523	-422.645375	33.7	
C	-1.0781990202	-1.6340325062	-2.7178812166	-0.394759
C	-1.6350019075	-1.2292596885	-1.3447376085	 0.29828
C	-2.5263788712	-2.3396526293	-0.7681757985	-0.394508
O	-0.4817805112	-1.1519241274	-0.4628994219	-0.265404
C	-0.0866569789	-0.0729152874	 0.2454300132	 0.404362
O	 0.889605975	-0.1585812864	 0.9406448894	-0.330023
C	-0.8878425913	 1.2145870719	 0.1397672347	-0.411361
C	-2.0662241549	 1.16370998	-0.7791464315	-0.091166
C	-2.3937415248	 0.0625067384	-1.4408452604	-0.072169
H	-0.5076265312	-2.5624723555	-2.6305585099	 0.132649
H	-1.8934724144	-1.7895680146	-3.4307805003	 0.117359
H	-0.420075113	-0.8538114143	-3.1086995686	 0.126747
H	-2.8920741243	-2.0603397663	 0.2232449679	 0.126396
H	-3.3883140278	-2.5150956701	-1.418858258	 0.117503
H	-1.9571226972	-3.2691359593	-0.682897691	 0.13258
H	-1.1890931941	 1.4826103181	 1.1606620042	 0.150064
H	-0.1819727078	 2.0003562203	-0.1579389475	 0.150012
H	-2.6548475413	 2.0703624062	-0.8886991735	 0.103269
H	-3.253935794	 0.0415150403	-2.1039606731	 0.100171
22.3366	69.3408	215.1815	233.104	251.6371	312.9408	337.6302	391.0607	473.5603	502.5835	504.2125	531.362	578.7323	663.693	743.3357	813.9236	893.4279	930.9145	944.9089	971.2352	980.3977	1006.5411	1023.017	1030.1446	1136.172	1193.6415	1214.105	1220.0969	1237.528	1302.2467	1352.9497	1395.2608	1407.8832	1427.1707	1448.6671	1474.4796	1481.164	1494.0783	1505.0923	1751.189	1836.8088	3032.181	3042.2068	3046.5484	3054.3851	3118.0988	3123.3935	3126.3277	3129.3117	3157.1704	3179.5975
CC1(C)OC(=O)CC=C1	CC1(C)OC(=O)CC=C1	
InChI=1S/C7H10O2/c1-7(2)5-3-4-6(8)9-7/h3,5H,4H2,1-2H3	InChI=1S/C7H10O2/c1-7(2)5-3-4-6(8)9-7/h3,5H,4H2,1-2H3
