19
gdb 1346	2.7155534	1.2526038	0.9317196	2.8424	75.58	-0.24983	-0.02785	0.22198	1255.8613	0.155391	-422.532368	-422.523369	-422.522424	-422.566495	32.939	
O	-4.2596477308	 6.3854408037	 0.5647081522	-0.443574
C	-3.8043321523	 5.2666851003	-0.1761575631	 0.018307
C	-3.3372532425	 5.8133055406	-1.5177194611	 0.148611
O	-2.6565737156	 5.1960405233	-2.295307117	-0.246304
C	-4.906286763	 4.2215159405	-0.3886980149	-0.008052
C	-5.3029155621	 3.4678590784	 0.9319787593	-0.280094
C	-4.8066138888	 2.1576056824	 0.31016782	-0.03453
C	-5.5390926218	 1.8869274054	-0.9731178999	-0.286987
C	-4.4208765086	 2.8896981953	-0.9787608507	-0.045361
H	-4.6743001517	 6.0632467101	 1.3711041568	 0.291742
H	-2.9393924929	 4.7811278245	 0.3046405399	 0.092704
H	-3.7029703867	 6.8420161225	-1.7306671767	 0.09577
H	-5.7396286884	 4.6939550301	-0.9234438377	 0.07651
H	-4.6991541641	 3.7870582821	 1.7878719167	 0.097596
H	-6.3586727842	 3.4977355718	 1.2211559755	 0.101426
H	-4.2728702131	 1.3781723584	 0.8396461243	 0.088209
H	-5.3101389665	 0.9385883788	-1.4484347416	 0.115713
H	-6.5713665049	 2.2086816998	-1.0972893654	 0.104454
H	-3.5443201519	 2.7820345217	-1.6032747868	 0.113862
77.3601	93.7722	141.502	154.0463	238.3121	271.8039	351.9745	378.299	435.4518	449.9019	581.8656	716.4415	780.2261	814.2973	856.4071	914.3648	926.5347	965.2636	989.2034	993.8796	1007.2538	1041.039	1068.4791	1081.2071	1087.9696	1105.6244	1142.4909	1167.1445	1208.3138	1230.3147	1245.4546	1252.6642	1279.4344	1302.1801	1352.899	1363.165	1385.2765	1418.5674	1479.4627	1494.3466	1834.2884	2898.5626	2974.506	3027.5828	3035.1462	3082.4197	3101.9071	3184.2323	3197.345	3213.4449	3825.763
OC(C=O)C1CC2CC12	O[C@H](C=O)[C@@H]1C[C@H]2C[C@@H]12	
InChI=1S/C7H10O2/c8-3-7(9)6-2-4-1-5(4)6/h3-7,9H,1-2H2	InChI=1S/C7H10O2/c8-3-7(9)6-2-4-1-5(4)6/h3-7,9H,1-2H2/t4-,5-,6-,7-/m1/s1
