19
gdb 3742	2.8566615	1.1574796	0.9410788	2.5576	76.76	-0.24272	-0.01996	0.22275999999999999	1266.6194	0.154961	-422.533929	-422.524638	-422.523694	-422.56904	33.566	
O	-2.3698737487	-1.3354722526	-2.8064144603	-0.422078
C	-1.4288463984	-1.4383981678	-1.7795215282	 0.042521
C	-1.4906522224	-0.4924644049	-0.6053045992	-0.397786
C	-0.4452997501	-0.3159615966	-1.6814295716	 0.340196
C	-0.317011654	 0.8173946855	-2.7023723956	-0.293869
C	 1.2119652088	 0.5310741732	-2.7668156734	-0.238146
C	 1.0890798719	-0.4784803552	-1.5748580386	-0.178928
C	 1.6390114097	 0.0485515957	-0.2767975468	 0.177653
O	 2.2752990967	-0.5944973213	 0.5190052795	-0.264102
H	-3.2171929599	-1.644180567	-2.4690839446	 0.291172
H	-1.0564340914	-2.4468930759	-1.5936853674	 0.091662
H	-2.3023647612	 0.2287395294	-0.5930124558	 0.11667
H	-1.1857209513	-0.8594816542	 0.3700427868	 0.124221
H	-0.8784339321	 0.6704059605	-3.6269037396	 0.124933
H	-0.5588802916	 1.805214393	-2.2993529625	 0.103176
H	 1.5300037105	 0.0416326185	-3.6885625907	 0.118986
H	 1.8670395277	 1.3873078341	-2.5860430634	 0.107019
H	 1.4755314699	-1.4866527402	-1.7415445693	 0.088901
H	 1.3950798859	 1.1205238055	-0.0811914093	 0.067801
39.1012	56.46	133.9244	193.9679	257.2114	269.5847	288.6623	359.3147	447.8578	454.1475	518.2982	585.0712	738.8164	812.6672	852.5997	865.4376	895.5408	911.1934	947.3801	979.0442	1011.7208	1037.5463	1052.3036	1096.4707	1127.6807	1158.0726	1172.2099	1201.6241	1221.0602	1229.9273	1253.2263	1272.7023	1292.2104	1296.9486	1341.9358	1420.1115	1431.8917	1473.1949	1485.9176	1495.1246	1827.1567	2843.1795	3057.0558	3067.1504	3085.4983	3089.913	3111.9709	3119.5124	3129.9394	3209.8412	3808.4494
OC1CC11CCC1C=O	O[C@@H]1C[C@@]21CC[C@H]2C=O	
InChI=1S/C7H10O2/c8-4-5-1-2-7(5)3-6(7)9/h4-6,9H,1-3H2	InChI=1S/C7H10O2/c8-4-5-1-2-7(5)3-6(7)9/h4-6,9H,1-3H2/t5-,6+,7-/m0/s1
