19
gdb 5126	2.9841309	1.3952101	1.1124707	1.9542	74.61	-0.24494	0.06474	0.30968	1118.1791	0.157731	-422.504455	-422.496415	-422.49547	-422.537186	30.785	
O	 1.4859885511	 1.0147820218	-0.1643236341	-0.413963
C	 0.4601787646	 0.2069985805	 0.4008606486	-0.183425
C	-0.9093949343	 0.771339672	 0.1660279618	 0.346758
C	-1.5133906081	 1.820159086	 1.0707864217	-0.357318
C	-2.2332055383	 0.5098962063	 0.9080453551	-0.139342
C	-2.9868683033	 0.5208166935	-0.4118715304	 0.124806
O	-3.0921686259	-0.7815319523	-1.0138301315	-0.294758
C	-1.9004236618	-0.5704885185	-1.80227014	-0.08859
C	-1.6468604261	 0.811973303	-1.1743261811	-0.16133
H	 1.3835834287	 1.9011444028	 0.1984124885	 0.281527
H	 0.5674445558	-0.771971343	-0.0789820447	 0.113034
H	 0.6137434671	 0.0547177476	 1.4817666423	 0.086968
H	-1.0163810094	 1.9530676729	 2.0273457905	 0.115075
H	-1.9321741418	 2.7359391923	 0.6589203335	 0.11007
H	-2.4308060693	-0.1581782058	 1.7379041852	 0.098846
H	-3.9169482932	 1.091191253	-0.4927272514	 0.078167
H	-1.1405047128	-1.3423753541	-1.6299164851	 0.103531
H	-2.1356513025	-0.5387916083	-2.8733648344	 0.102991
H	-1.4670868605	 1.6511107502	-1.8470171745	 0.076952
78.0281	127.2753	214.2701	232.3023	319.2684	348.2004	405.0095	442.2385	497.7875	648.7868	720.4618	814.92	837.7629	869.0164	906.8862	910.0718	959.5367	988.5147	1007.5989	1023.2631	1026.9991	1040.762	1052.248	1080.3159	1086.7307	1092.1525	1158.0792	1179.0912	1185.3683	1219.3123	1253.2951	1281.6132	1305.1628	1325.5683	1364.0756	1365.3057	1383.7345	1429.4893	1490.0592	1502.4541	1524.5904	2971.1171	3014.5538	3055.2819	3063.3631	3065.788	3102.9455	3104.6763	3184.9561	3194.1857	3807.1149
OCC12CC1C1OCC21	OC[C@]12C[C@H]1[C@@H]1OC[C@H]21	
InChI=1S/C7H10O2/c8-3-7-1-4(7)6-5(7)2-9-6/h4-6,8H,1-3H2	InChI=1S/C7H10O2/c8-3-7-1-4(7)6-5(7)2-9-6/h4-6,8H,1-3H2/t4-,5-,6-,7+/m0/s1
