19
gdb 4789	2.3782618	1.0994397	0.8154354	2.1707	77.65	-0.25528	0.05466	0.30994	1416.8096	0.153234	-422.483393	-422.473136	-422.472192	-422.519561	35.712	
C	 1.3630741987	-0.3549632665	-0.1507614733	-0.238734
O	 0.0110385837	 0.0479068519	-0.0960603349	-0.237084
C	-0.3499971253	 0.7535090796	 1.0738127855	 0.088456
C	-1.8839712267	 0.7038448792	 1.1806884935	-0.374263
C	-2.3964659872	-0.6398621436	 1.4117277931	 0.305553
C	-2.8115580692	-1.7478889414	 1.6205605204	-0.44303
C	 0.1263644552	 2.194978714	 1.009654527	 0.065755
C	 1.299196327	 2.6724946513	 1.7535977478	-0.182514
O	-0.0240036674	 2.9495898497	 2.2132774625	-0.235275
H	 1.6353791619	-0.9692543642	 0.7206963532	 0.110384
H	 1.4784533394	-0.9565668296	-1.0552983112	 0.132787
H	 2.0545803613	 0.497687101	-0.2052640535	 0.10875
H	 0.0838713638	 0.276039324	 1.966649454	 0.081207
H	-2.1884592942	 1.3699784163	 1.9959548525	 0.150202
H	-2.3054245228	 1.1127207944	 0.2537482505	 0.135536
H	-3.1847038762	-2.7259815045	 1.7966644565	 0.192762
H	-0.1629057537	 2.7241832329	 0.0996672125	 0.101497
H	 1.8674077816	 1.9733866521	 2.3660412965	 0.117497
H	 1.85759785	 3.5334662434	 1.3892808375	 0.120514
59.3154	72.4306	77.9417	124.9693	174.1212	215.2298	245.2822	331.7165	345.5728	369.5081	434.1205	498.543	575.4948	611.6256	642.5283	833.5222	866.1733	874.5834	936.3146	979.335	1033.0643	1064.5899	1099.2608	1132.0098	1152.2602	1159.854	1175.3357	1182.1102	1204.9491	1256.057	1279.5515	1290.5756	1346.3704	1371.9274	1444.4902	1461.0079	1480.6207	1489.2028	1508.6354	1525.0732	2242.9639	2980.7167	2987.8238	3031.3354	3036.3286	3075.4988	3082.4356	3098.784	3118.5571	3170.6428	3508.0223
COC(CC#C)C1CO1	CO[C@H](CC#C)[C@@H]1CO1	
InChI=1S/C7H10O2/c1-3-4-6(8-2)7-5-9-7/h1,6-7H,4-5H2,2H3	InChI=1S/C7H10O2/c1-3-4-6(8-2)7-5-9-7/h1,6-7H,4-5H2,2H3/t6-,7+/m1/s1
