19
gdb 4488	2.9639564	1.6613562	1.2664829	2.0523	74.71	-0.24084	0.07296	0.31379999999999997	1017.1787	0.159343	-422.517948	-422.510742	-422.509798	-422.549282	29.155	
O	 1.6955327446	 2.3164902762	-3.8804739655	-0.433145
C	 1.1072351105	 1.8997680311	-2.6539677589	 0.060787
C	 0.93097887	 3.1714553353	-1.8205135105	-0.078236
O	 0.7840500545	 2.877583369	-0.4402042344	-0.283674
C	 1.644019442	 1.8675123663	 0.0121964869	 0.171539
C	 1.4359859726	 0.4139993444	-0.5104759514	-0.101193
C	 2.903426183	 0.1452357567	-0.088169661	-0.242098
C	 2.9470659558	 1.5293224454	-0.7856480072	-0.108961
C	 1.9909658859	 0.9315279561	-1.8747832784	-0.01826
H	 1.7623461514	 1.547588058	-4.4552515575	 0.282458
H	 0.1291603047	 1.4262395276	-2.8389030335	 0.067403
H	 1.8222843178	 3.7934288598	-1.9905772686	 0.106144
H	 0.0511806861	 3.7442115927	-2.1218250425	 0.110825
H	 1.7394386416	 1.9853592904	 1.0945312217	 0.078316
H	 0.565751077	-0.2257231082	-0.3550775241	 0.070691
H	 3.1136686821	 0.1247855932	 0.9851193332	 0.09291
H	 3.4114159741	-0.6689164205	-0.6104399087	 0.095425
H	 3.8217355284	 2.1609460701	-0.9433134452	 0.078523
H	 2.4328730979	 0.1657058264	-2.5243032243	 0.050545
141.3113	214.9552	246.3308	322.2716	383.7359	446.4727	470.3287	498.5329	589.5159	680.4884	776.4993	816.8364	867.6187	893.719	904.4526	946.4378	973.4012	983.4962	1010.4316	1051.0916	1061.5909	1080.758	1092.3652	1106.5451	1111.4403	1135.6165	1168.8655	1173.4233	1206.3547	1233.0191	1241.5922	1245.635	1261.9022	1284.4344	1337.9089	1362.2146	1379.6989	1416.5038	1449.6971	1509.4115	1518.2244	2964.5689	3002.1327	3028.7328	3051.5659	3082.5135	3101.5603	3104.6641	3111.9167	3117.2142	3819.7777
OC1COC2C3CC2C13	O[C@@H]1CO[C@H]2[C@@H]3C[C@H]2[C@H]13	
InChI=1S/C7H10O2/c8-5-2-9-7-3-1-4(7)6(3)5/h3-8H,1-2H2	InChI=1S/C7H10O2/c8-5-2-9-7-3-1-4(7)6(3)5/h3-8H,1-2H2/t3-,4+,5-,6-,7+/m1/s1
