19
gdb 5188	2.5794809	1.7686997	1.28784	1.1279	74.29	-0.22891	0.07622	0.30513	1025.4215	0.15632	-422.495522	-422.487102	-422.486158	-422.528246	32.22	
C	 1.4314762152	 0.0124021627	-0.1010179779	-0.27311
O	 0.0358300573	-0.0690439077	 0.1488601141	-0.294531
C	-0.3758942505	 0.6665705781	 1.2374240104	 0.380217
C	-0.0949448457	 0.2628079603	 2.7141312105	-0.307384
C	-1.4129592217	 0.9829598485	 3.0159217101	-0.065826
C	-1.5070559462	 2.2129996488	 2.1044236976	-0.101387
C	-1.9074070171	 0.8414290128	 1.5982506444	-0.185901
C	-0.2453059983	 2.2304790866	 1.24297793	 0.085352
O	-0.394060197	 2.8153909548	-0.0293910797	-0.446799
H	 2.0166498021	-0.3550406958	 0.7537095902	 0.112162
H	 1.6347363693	-0.6224668737	-0.9658402248	 0.128681
H	 1.7332451519	 1.0415703716	-0.3299780518	 0.133602
H	-0.1933982013	-0.8170518327	 2.8560375275	 0.105233
H	 0.8282647602	 0.6231060108	 3.1825515076	 0.089018
H	-2.0024685596	 0.9250668127	 3.9215906908	 0.092548
H	-2.1505678771	 3.0495064433	 2.3456219489	 0.09189
H	-2.8202684088	 0.4370819502	 1.1876250102	 0.09721
H	 0.6660768417	 2.6651745265	 1.6671101234	 0.076991
H	-1.1233457044	 2.3654176023	-0.4736346114	 0.282035
92.1486	170.5442	183.7169	209.4469	243.8106	320.2827	388.2226	434.0335	447.6697	530.7202	665.2026	720.6161	774.3192	811.8454	829.1806	890.4157	914.3437	943.525	995.4475	999.5589	1015.2215	1029.5111	1040.3279	1066.0425	1113.0012	1123.649	1154.14	1173.9084	1179.8522	1206.0661	1239.8284	1254.9083	1276.1509	1295.6235	1338.194	1353.7164	1437.0913	1483.1347	1491.2038	1501.8895	1506.8757	3000.4441	3030.677	3055.9292	3067.3177	3098.6244	3126.0387	3193.6343	3201.2816	3232.7442	3781.0286
COC12CC3C(C13)C2O	CO[C@]12C[C@H]3[C@H]([C@@H]13)[C@@H]2O	
InChI=1S/C7H10O2/c1-9-7-2-3-4(5(3)7)6(7)8/h3-6,8H,2H2,1H3	InChI=1S/C7H10O2/c1-9-7-2-3-4(5(3)7)6(7)8/h3-6,8H,2H2,1H3/t3-,4+,5-,6-,7+/m0/s1
