19
gdb 4778	6.2595506	0.5168716	0.4956918	4.4443	84.68	-0.26164	-0.05642	0.20521999999999999	2181.2288	0.153179	-422.53546	-422.524428	-422.523483	-422.57387	36.953	
C	-5.197707258	 1.6689197708	 2.3808072169	-0.387131
C	-4.6048103437	 0.8561706701	 1.2278959146	-0.188546
C	-3.0771901384	 0.7428224985	 1.3009809001	 0.145621
O	-2.6398013765	 0.1610397223	 2.5185689278	-0.418967
C	-2.5147848235	-0.022896846	 0.0799374806	-0.400129
C	-1.0644695527	-0.1195044583	 0.0668167566	 0.092829
C	 0.1407700247	-0.1961958405	 0.0434285755	 0.058584
C	 1.5779417195	-0.2634913661	 0.0567534551	 0.016969
O	 2.2438039306	-0.925084468	-0.7073006606	-0.231956
H	-4.8987585799	 1.2468267505	 3.3435872165	 0.130632
H	-4.8470245621	 2.706144875	 2.3505802095	 0.119461
H	-6.2902474143	 1.683193852	 2.3323488142	 0.114649
H	-5.03088802	-0.1584153112	 1.2248279471	 0.089046
H	-4.8825665036	 1.3052739437	 0.2660900512	 0.101003
H	-2.6394389398	 1.7481951127	 1.305598875	 0.102301
H	-3.0214662866	-0.7222551506	 2.582920949	 0.280356
H	-2.9467725866	-1.0341268544	 0.0576200672	 0.132279
H	-2.8500339812	 0.4657994164	-0.8443467849	 0.144269
H	 2.0512859922	 0.3559073631	 0.8459385486	 0.098729
18.8184	52.5652	62.1407	113.7858	163.5412	185.6196	217.8834	238.4004	297.2417	326.2705	394.6696	407.7839	458.1569	553.7914	607.1	780.791	833.1294	849.4988	906.4886	992.2071	1008.5674	1022.9713	1072.5718	1104.4121	1140.5347	1161.2178	1192.8159	1264.3009	1286.3978	1349.4557	1360.977	1385.0886	1408.0658	1421.5245	1424.6637	1450.371	1482.4475	1495.5893	1508.8293	1766.3172	2332.4389	2916.3197	2998.8488	3006.4322	3040.3171	3042.5026	3045.5703	3062.1546	3106.8859	3125.5381	3789.9689
CCC(O)CC#CC=O	CC[C@@H](O)CC#CC=O	
InChI=1S/C7H10O2/c1-2-7(9)5-3-4-6-8/h6-7,9H,2,5H2,1H3	InChI=1S/C7H10O2/c1-2-7(9)5-3-4-6-8/h6-7,9H,2,5H2,1H3/t7-/m1/s1
