19
gdb 4813	3.0749816	0.7584161	0.6366568	3.7939	78.71	-0.24965	-0.02278	0.22687000000000002	1711.9007	0.152885	-422.531917	-422.521092	-422.520148	-422.569035	37.123	
O	 6.6932234988	 2.2349414791	 1.535828862	-0.419419
C	 5.2814930915	 2.2959660806	 1.659333755	-0.108174
C	 4.7113144877	 1.1127756472	 0.8841299893	-0.057523
C	 3.1693585073	 1.0754142573	 0.9678929378	-0.215684
C	 2.5349037094	 0.0962544042	-0.041367333	-0.364349
C	 1.0826100426	 0.0497631	 0.0718278807	 0.291872
C	-0.1136951493	 0.0330059487	 0.1872791195	-0.434952
C	 5.2740095592	-0.1858515298	 1.4391174847	 0.181142
O	 5.5311390125	-1.159899308	 0.7810591588	-0.254607
H	 7.0813121787	 2.9273853785	 2.078852215	 0.292886
H	 4.967686425	 2.2312857867	 2.7148489099	 0.092181
H	 4.876353187	 3.2353936603	 1.2540308279	 0.097761
H	 5.0222984851	 1.1848248753	-0.1640580988	 0.106689
H	 2.8548820204	 0.802813041	 1.9829051954	 0.116299
H	 2.7765998246	 2.0817304666	 0.7849206899	 0.116647
H	 2.8152444614	 0.3956369341	-1.059378218	 0.135045
H	 2.9531923079	-0.9070157144	 0.1002286877	 0.155312
H	-1.1711494117	 0.0045938095	 0.277110576	 0.194882
H	 5.3889066519	-0.195253527	 2.5492084504	 0.073994
48.8857	66.4277	84.9999	105.2151	137.8977	201.0725	233.6819	282.122	325.6016	345.7936	359.5695	427.312	551.9901	564.8462	618.5538	643.0212	760.7202	872.5243	943.7747	950.4736	980.5826	1022.9458	1050.597	1084.8061	1111.0487	1134.9559	1193.6116	1231.6133	1245.1362	1288.9986	1305.1653	1330.6764	1352.7502	1383.2121	1427.138	1454.8589	1473.7975	1494.4084	1521.633	1834.0882	2240.0283	2849.8953	2962.5456	3002.9593	3025.6337	3035.3454	3056.3487	3063.1881	3082.1232	3507.5337	3831.1505
OCC(CCC#C)C=O	OC[C@H](CCC#C)C=O	
InChI=1S/C7H10O2/c1-2-3-4-7(5-8)6-9/h1,5,7,9H,3-4,6H2	InChI=1S/C7H10O2/c1-2-3-4-7(5-8)6-9/h1,5,7,9H,3-4,6H2/t7-/m1/s1
