19
gdb 2061	2.6864222	1.4972095	1.1506013	2.3885	74.9	-0.22993	-0.02183	0.2081	1109.9097	0.15649	-422.561866	-422.55347	-422.552526	-422.594682	32.221	
C	-3.1157788672	-2.4885375827	-0.1730878999	-0.464278
C	-2.279339914	-1.2486487233	-0.4016290524	 0.271043
C	-2.4981833852	-0.4281748456	-1.6697461869	-0.388341
C	-2.9051639973	 0.1133726435	-0.3198909912	 0.101957
O	-2.2314045013	 1.1550257341	 0.3351725065	-0.252285
C	-0.8613311574	 1.2866489286	 0.0268716607	-0.178363
C	-0.0696216192	-0.0242924206	-0.0231023863	 0.328274
O	 1.1257319029	-0.0048538237	-0.1922148723	-0.301809
C	-0.8615002055	-1.31155949	 0.1509659082	-0.351254
H	-3.1788129345	-2.7337912892	 0.8935902551	 0.11959
H	-4.1358843979	-2.3514913073	-0.5454636218	 0.116635
H	-2.6882188686	-3.3556334977	-0.6906857027	 0.121081
H	-1.6316584823	-0.0200154926	-2.1785431074	 0.124706
H	-3.2927477421	-0.7307791599	-2.3436816725	 0.116664
H	-3.9649789663	 0.1930072556	-0.1027527289	 0.103755
H	-0.7063017266	 1.8023711466	-0.9339712986	 0.1277
H	-0.4227190907	 1.9202786524	 0.8037412909	 0.144737
H	-0.2775669209	-2.1302272017	-0.2827534629	 0.127746
H	-0.9144100758	-1.4983641564	 1.2348590224	 0.132442
74.6043	164.1422	214.8866	242.7399	293.5101	335.9922	370.8909	462.8344	471.9695	487.2589	541.3849	607.5738	721.8312	772.7376	806.1112	869.9316	885.0426	928.0661	973.484	1005.1086	1037.5154	1047.1278	1064.0463	1111.1121	1124.1229	1184.6821	1200.0377	1227.6496	1250.1354	1271.1677	1330.6374	1333.9914	1363.957	1414.6355	1418.9991	1452.4677	1466.0217	1489.7079	1492.8377	1505.656	1821.1055	2986.6741	3000.6107	3020.7079	3074.8004	3081.256	3088.2736	3098.4498	3134.2344	3169.7968	3216.3048
CC12CC1OCC(=O)C2	C[C@@]12C[C@@H]1OCC(=O)C2	
InChI=1S/C7H10O2/c1-7-2-5(8)4-9-6(7)3-7/h6H,2-4H2,1H3	InChI=1S/C7H10O2/c1-7-2-5(8)4-9-6(7)3-7/h6H,2-4H2,1H3/t6-,7+/m0/s1
