19
gdb 4155	2.1333135	2.0224351	1.4188625	2.6062	73.33	-0.23197	-0.01928	0.21269000000000002	991.7902	0.158535	-422.59522	-422.587506	-422.586562	-422.627335	30.214	
C	-0.6906306199	-1.4812423987	-2.5938068679	-0.416912
C	-1.6329831826	-1.3772345307	-1.395442484	 0.026029
C	-2.5754505375	-0.1300735968	-1.3750759622	-0.250134
C	-2.3128663903	 0.4428860572	 0.0373951336	 0.073192
C	-0.9587614553	 1.1759602076	 0.0704845687	-0.340831
C	-0.0073898785	-0.0292549175	-0.0443677084	 0.43149
O	 1.1882604686	-0.0239783952	-0.1623615443	-0.325254
C	-0.9558646546	-1.2363017555	 0.0002319997	-0.057138
O	-2.0211662063	-0.736731862	 0.8158583393	-0.264759
H	-0.0287714011	-2.3485627094	-2.5020197473	 0.125357
H	-1.2595664055	-1.5927448278	-3.5219889085	 0.119147
H	-0.0566322062	-0.5946529128	-2.6941530979	 0.129172
H	-2.2455482774	-2.2824230114	-1.3434081721	 0.090685
H	-2.3325472352	 0.5897348646	-2.1623577073	 0.103205
H	-3.6221000032	-0.4174668269	-1.4940257548	 0.110503
H	-3.144837917	 0.9775354821	 0.4940069153	 0.08674
H	-0.783756737	 1.9004202885	-0.7285814338	 0.12601
H	-0.8063192529	 1.6750683411	 1.0326225465	 0.137177
H	-0.5256959481	-2.1440352966	 0.4197162054	 0.096321
95.4547	133.2091	220.2997	302.2893	370.0156	408.5487	435.6969	512.3444	559.4946	605.2194	659.799	779.2012	805.8234	822.297	868.0838	899.4968	919.085	950.7556	965.493	996.0311	1030.0393	1053.3351	1093.2321	1114.3399	1136.9064	1149.1757	1197.5262	1226.3576	1250.256	1254.8634	1295.3917	1321.8831	1337.0994	1341.9756	1364.2526	1418.7387	1445.5601	1494.0237	1498.6083	1499.7357	1861.6834	3036.6705	3052.7126	3061.1768	3063.3943	3103.9957	3107.6132	3111.3736	3116.9253	3127.9814	3144.2906
CC1CC2CC(=O)C1O2	C[C@@H]1C[C@@H]2CC(=O)[C@H]1O2	
InChI=1S/C7H10O2/c1-4-2-5-3-6(8)7(4)9-5/h4-5,7H,2-3H2,1H3	InChI=1S/C7H10O2/c1-4-2-5-3-6(8)7(4)9-5/h4-5,7H,2-3H2,1H3/t4-,5-,7+/m1/s1
