19
gdb 2532	3.1646195	1.0677985	1.0167081	3.0275	79.44	-0.24192	-0.03675	0.20517	1273.9686	0.155537	-422.592771	-422.583607	-422.582663	-422.626736	33.922	
C	 1.3678966888	 0.7481422991	-0.219797288	-0.489716
C	-0.0058838489	 0.2121927494	 0.0284177744	 0.333379
C	-1.1668740753	 0.8316390402	-0.1941989419	-0.246974
C	-2.3752538752	-0.0029094614	 0.1881793387	 0.3126
O	-3.3659894528	-0.0445230924	-0.8088981556	-0.481069
C	-1.7415091776	-1.4052479125	 0.4578975949	-0.289718
C	-0.2209317598	-1.1731782457	 0.6033659862	-0.303112
C	-2.9860816196	 0.5610485932	 1.4634493532	 0.114067
O	-4.1297967859	 0.9439468495	 1.5208257545	-0.278257
H	 1.9544070401	 0.7744997127	 0.7074279846	 0.129408
H	 1.9183947833	 0.1029352565	-0.9160474482	 0.131452
H	 1.3413520809	 1.7585179623	-0.6353443964	 0.129132
H	-1.2873268017	 1.833082848	-0.5922477261	 0.099375
H	-4.1643631554	 0.3296566404	-0.4028029386	 0.289468
H	-2.1823541877	-1.9174787604	 1.3183323265	 0.103311
H	-1.9672785481	-2.0020316057	-0.4287402831	 0.133576
H	 0.0982258963	-1.2064620294	 1.6540569085	 0.109031
H	 0.3765952419	-1.9323656959	 0.0840110797	 0.108316
H	-2.3087203433	 0.6068244422	 2.3406854766	 0.095731
77.8003	95.1035	154.8908	184.3428	271.2718	298.542	336.1186	389.1976	413.8393	447.1257	503.8577	513.4637	593.8877	725.3321	813.761	845.9225	864.9327	890.9435	934.8933	976.6761	1005.6369	1018.2867	1028.5329	1073.9612	1127.4039	1138.8904	1190.1812	1227.1199	1251.5807	1275.9485	1310.8267	1358.0009	1384.5663	1413.9249	1433.0465	1478.5681	1481.351	1485.8306	1499.6209	1714.7442	1807.0733	2927.8456	3013.8392	3020.6397	3045.5008	3061.5183	3066.6172	3114.2595	3117.3686	3196.6312	3683.1943
CC1=CC(O)(CC1)C=O	CC1=C[C@@](O)(CC1)C=O	
InChI=1S/C7H10O2/c1-6-2-3-7(9,4-6)5-8/h4-5,9H,2-3H2,1H3	InChI=1S/C7H10O2/c1-6-2-3-7(9,4-6)5-8/h4-5,9H,2-3H2,1H3/t7-/m0/s1
