19
gdb 935	3.6218191	0.9996368	0.8644023	1.6996	75.78	-0.24676	-0.02778	0.21898	1336.5183	0.156242	-422.526757	-422.518195	-422.517251	-422.561466	30.76	
O	 0.1535025954	-1.002957412	 0.2558549755	-0.238903
C	 0.4542193777	 0.1159625956	-0.0738911699	 0.157285
C	-0.232661955	 0.9078521681	-1.1625158889	-0.298946
C	-1.0704011594	 2.0432405572	-0.5576752519	 0.009656
C	-1.9213259353	 2.8569483973	-1.5885911282	-0.267686
C	-3.2019151671	 2.4710107753	-0.819507505	 0.127994
O	-3.5242607744	 3.3997660368	 0.2368839929	-0.294188
C	-2.8873512536	 2.5633120548	 1.2323064755	-0.086412
C	-2.3785914439	 1.5880452165	 0.1616757056	-0.090536
H	 1.2688981346	 0.6669541607	 0.452984738	 0.074636
H	 0.531159971	 1.3392698741	-1.8236414311	 0.114867
H	-0.8617122487	 0.2294628344	-1.7476695053	 0.119211
H	-0.4327909342	 2.6693593119	 0.0769228442	 0.077916
H	-1.7333479951	 3.9312728417	-1.6425944491	 0.114462
H	-1.8790193733	 2.4331050734	-2.5968429258	 0.102496
H	-4.0859755483	 2.1585719745	-1.3815507816	 0.07867
H	-2.128357596	 3.1048856418	 1.8117752098	 0.099709
H	-3.6261911558	 2.1364407685	 1.922557698	 0.104499
H	-2.5180599188	 0.5192751093	 0.3184008673	 0.09527
39.8913	66.0982	97.3303	190.4226	256.4223	319.8332	395.9654	417.6613	519.0993	674.6143	760.7327	809.4802	831.9104	870.2853	887.1357	935.1488	966.4188	982.1	992.8656	1013.9509	1035.9047	1067.3491	1099.565	1110.5134	1155.2576	1172.2431	1180.308	1208.7665	1229.5523	1260.0404	1270.28	1280.1053	1311.3285	1315.9807	1359.4433	1374.325	1427.7575	1462.5704	1469.5913	1522.5849	1830.362	2853.8055	3006.0276	3020.8895	3035.8231	3049.4825	3052.3564	3073.5982	3091.4174	3119.857	3124.0221
O=CCC1CC2OCC12	O=CC[C@H]1C[C@@H]2OC[C@H]12	
InChI=1S/C7H10O2/c8-2-1-5-3-7-6(5)4-9-7/h2,5-7H,1,3-4H2	InChI=1S/C7H10O2/c8-2-1-5-3-7-6(5)4-9-7/h2,5-7H,1,3-4H2/t5-,6+,7-/m0/s1
