19
gdb 1214	3.6975357	0.7106212	0.6839176	3.4784	83.49	-0.26883	-0.0644	0.20443	1701.2366	0.152486	-422.546794	-422.535933	-422.534988	-422.583809	37.861	
C	 0.5651867605	-1.4269802349	 1.3558738849	-0.398175
C	 1.6779206664	-2.3527296174	 0.8642104979	 0.345001
C	 1.1011728292	-3.6186960313	 0.2170009304	-0.417928
O	 2.4405494269	-2.6835221514	 2.0177130487	-0.456793
C	 2.5811507052	-1.5753500723	-0.1440677513	-0.375082
C	 3.7685672183	-2.3216908846	-0.5260149975	 0.042541
C	 4.7466750206	-2.983018406	-0.7890335798	 0.065295
C	 5.9199989805	-3.7406539817	-1.1376412064	 0.023961
O	 6.2948479151	-4.7292436702	-0.5487597892	-0.231555
H	-0.0686704521	-1.9560621077	 2.0721349274	 0.127708
H	 0.9906106829	-0.554288544	 1.8594302159	 0.123874
H	-0.0591330546	-1.0854952732	 0.5249725782	 0.1125
H	 0.5108817213	-4.1706345716	 0.9530617694	 0.128257
H	 0.4567867926	-3.3758108145	-0.6343955949	 0.113036
H	 1.9018815953	-4.2734875155	-0.1421734965	 0.125654
H	 3.1580977056	-3.2669056906	 1.7417900473	 0.287935
H	 2.0079165192	-1.3041404241	-1.039257075	 0.136038
H	 2.89632835	-0.6375341171	 0.32957529	 0.146727
H	 6.4745902571	-3.3432302218	-2.0117602395	 0.101005
34.8688	58.2049	71.6325	172.6081	196.9828	219.1983	261.7845	302.7549	328.7361	370.7818	377.8389	398.8729	406.7287	450.4879	520.635	645.451	764.3415	832.1182	866.1302	918.38	939.5878	987.5401	1017.7257	1022.4851	1127.8835	1154.5676	1173.2233	1227.3669	1284.7665	1299.6623	1384.6588	1406.6592	1420.3574	1422.5094	1445.1935	1478.5916	1489.1383	1498.5054	1509.2391	1765.3789	2319.1265	2921.5784	3028.0683	3035.8156	3045.8461	3067.9188	3104.6792	3119.323	3121.3817	3125.9972	3782.0576
CC(C)(O)CC#CC=O	CC(C)(O)CC#CC=O	
InChI=1S/C7H10O2/c1-7(2,9)5-3-4-6-8/h6,9H,5H2,1-2H3	InChI=1S/C7H10O2/c1-7(2,9)5-3-4-6-8/h6,9H,5H2,1-2H3
