19
gdb 1935	3.1633127	1.4795731	1.2354663	0.4035	74.29	-0.2555	0.0769	0.33240000000000003	1077.73	0.155751	-422.547431	-422.539055	-422.538111	-422.579788	32.41	
C	 2.4354019275	-2.5056440165	 3.5251646827	-0.486243
C	 2.1010963883	-1.8984881904	 2.1911251815	 0.433042
C	 3.2118622336	-1.3558132766	 1.2881291372	-0.318257
C	 2.5153251025	-0.2897637871	 0.4559273013	-0.00863
O	 2.0229923479	 0.8168787334	 1.2301523489	-0.303239
C	 1.0879936328	-0.1913952676	 0.798006504	 0.409831
C	-0.0116853789	 0.2372633362	-0.1297702598	-0.498742
C	 0.8414545374	-1.2056410804	 1.8868654453	-0.121152
O	 1.0606788913	-2.5534530473	 1.4359807434	-0.302068
H	 3.0883140261	-3.3768128696	 3.4011207267	 0.127449
H	 2.95850363	-1.7812376258	 4.1579138857	 0.128466
H	 1.5279843077	-2.831746808	 4.0392114622	 0.130456
H	 4.029425871	-0.9239110742	 1.8752309706	 0.113636
H	 3.6265798501	-2.1508246353	 0.6589269965	 0.113812
H	 2.8845953314	-0.0299033386	-0.5330111756	 0.094625
H	-0.4609602687	-0.636746142	-0.6123282465	 0.137546
H	-0.8002511601	 0.7639341368	 0.4189914462	 0.127467
H	 0.3728136078	 0.9093643185	-0.9008762847	 0.130525
H	 0.0432560922	-1.0716046754	 2.6141779144	 0.091476
140.1941	182.8037	203.3733	213.2832	255.3126	347.9922	374.8406	407.3512	446.8075	512.2336	560.8434	632.7131	735.2191	769.0712	840.5552	856.9458	907.8936	925.543	934.9882	980.1686	1014.8054	1021.2162	1069.4212	1077.8643	1110.857	1119.4063	1213.6593	1233.2718	1247.6664	1284.8097	1316.3005	1339.9525	1408.9718	1411.2178	1444.6462	1461.7478	1468.8978	1486.4916	1488.898	1497.2571	1498.853	3035.3371	3036.5053	3044.7247	3088.1619	3098.7699	3100.5349	3124.8557	3125.2486	3135.0071	3146.2403
CC12CC3OC3(C)C1O2	C[C@]12C[C@@H]3O[C@]3(C)[C@H]1O2	
InChI=1S/C7H10O2/c1-6-3-4-7(2,8-4)5(6)9-6/h4-5H,3H2,1-2H3	InChI=1S/C7H10O2/c1-6-3-4-7(2,8-4)5(6)9-6/h4-5H,3H2,1-2H3/t4-,5-,6-,7-/m0/s1
