19
gdb 5580	3.9715345	1.2080001	1.1414478	0.183	74.47	-0.24006	0.07435	0.31440999999999997	1123.9377	0.158816	-422.512533	-422.505164	-422.50422	-422.544423	29.312	
O	 1.2522926627	 0.6985955642	-0.2019190551	-0.4164
C	 0.2980210704	-0.1732439699	 0.3913510462	-0.091765
C	-0.8139601563	 0.5797730827	 1.1078169227	-0.030952
C	-2.1181939063	-0.2093467989	 1.4109120094	 0.053809
O	-2.8856643381	 0.7667137813	 2.1309130683	-0.27091
C	-3.0459343432	 1.7011922079	 1.0462728985	 0.063204
C	-3.9069399716	 0.8932996221	 0.0528387212	-0.243866
C	-2.6209326265	 0.0645877938	-0.071448673	-0.073649
C	-1.759279442	 1.3600482145	 0.1798007445	-0.052812
H	 1.6437024616	 1.2252965003	 0.502599858	 0.281446
H	-0.0991131691	-0.7712935648	-0.434835719	 0.109507
H	 0.7819998657	-0.8718356879	 1.0927975248	 0.08797
H	-0.4144085137	 1.1132220726	 1.9795706886	 0.063854
H	-2.1472909147	-1.1784306621	 1.907976939	 0.077667
H	-3.2987428165	 2.6923114579	 1.4189439087	 0.078581
H	-4.8199619565	 0.4390260585	 0.4457152021	 0.101178
H	-4.1066775076	 1.4381668171	-0.8739828411	 0.101327
H	-2.4314058901	-0.6703755842	-0.8497706106	 0.079406
H	-1.4361654679	 2.0455735048	-0.6003230631	 0.082405
91.7309	161.2057	229.402	303.685	375.7994	432.7837	503.0044	563.958	664.2498	727.6366	794.8109	826.162	843.9751	871.258	915.5857	925.4369	948.6769	971.0021	993.5225	1009.9032	1031.3519	1050.6809	1064.0282	1079.115	1096.4768	1110.8442	1166.8427	1173.696	1194.4933	1209.7903	1227.7759	1243.7491	1258.6124	1264.0756	1284.9858	1325.7302	1372.591	1388.9988	1426.5968	1481.1671	1507.2984	2974.3981	3027.9173	3058.146	3080.6998	3120.4512	3125.3146	3135.9217	3145.3662	3153.2664	3811.0065
OCC1C2OC3CC2C13	OC[C@@H]1[C@H]2O[C@@H]3C[C@H]2[C@H]13	
InChI=1S/C7H10O2/c8-2-4-6-3-1-5(6)9-7(3)4/h3-8H,1-2H2	InChI=1S/C7H10O2/c8-2-4-6-3-1-5(6)9-7(3)4/h3-8H,1-2H2/t3-,4-,5+,6+,7-/m0/s1
