19
gdb 1372	3.983376	0.7645648	0.7262721	2.355	77.7	-0.24314	0.02766	0.2708	1579.9575	0.154807	-422.495135	-422.485261	-422.484317	-422.531318	34.703	
O	-2.630367002	 2.5481551969	 0.9273432448	-0.423017
C	-2.3618593685	 2.2611973831	-0.4438014874	-0.062274
C	-0.8457358358	 2.4046305406	-0.646070348	-0.210173
C	-0.0439374475	 1.4427434054	 0.2218316349	-0.030427
C	 1.4785081092	 1.379745683	-0.037946546	-0.096851
O	 1.4119808189	-0.0174178105	-0.3884146802	-0.271634
C	-0.0161764383	-0.0467382893	-0.197799096	-0.079039
C	-3.1188704863	 3.1419789337	-1.3377134526	 0.302503
C	-3.7610818995	 3.8618386045	-2.0551175722	-0.445643
H	-3.5856397882	 2.5813132269	 1.0411705243	 0.290843
H	-2.6460724085	 1.2195248447	-0.6716117722	 0.098471
H	-0.620098694	 2.2369864464	-1.7055322659	 0.112002
H	-0.5714616876	 3.4400000815	-0.414144672	 0.118091
H	-0.3020230483	 1.5899339145	 1.2710912275	 0.103612
H	 1.8357980823	 1.9963022631	-0.8743839155	 0.096135
H	 2.1243208415	 1.5553282017	 0.8311441879	 0.100802
H	-0.548685716	-0.2825510379	-1.1304686995	 0.09263
H	-0.3129094736	-0.771891526	 0.5696840397	 0.102373
H	-4.3238881477	 4.4981513574	-2.6928156516	 0.201595
39.8918	60.2568	87.508	118.079	192.4388	244.4765	277.9156	327.5534	386.4438	437.0992	533.9984	578.5796	629.6504	672.9725	765.8235	849.2682	876.0517	895.1009	927.7109	980.1674	1005.7387	1037.9038	1049.0324	1072.2882	1111.6589	1148.5878	1164.2655	1166.3888	1231.9607	1264.2516	1297.4478	1312.038	1323.3516	1353.4033	1374.5707	1398.2111	1414.3799	1473.4245	1512.2878	1537.8293	2232.534	2952.1146	2991.4955	3004.5121	3038.3317	3044.3186	3046.4899	3081.3081	3112.4013	3502.1266	3823.5905
OC(CC1COC1)C#C	O[C@H](CC1COC1)C#C	
InChI=1S/C7H10O2/c1-2-7(8)3-6-4-9-5-6/h1,6-8H,3-5H2	InChI=1S/C7H10O2/c1-2-7(8)3-6-4-9-5-6/h1,6-8H,3-5H2/t7-/m0/s1
