19
gdb 4267	2.065305	1.653969	1.2834964	2.5069	76.11	-0.24379	-0.02514	0.21865	1080.9896	0.156066	-422.542239	-422.53342	-422.532476	-422.57603	32.533	
O	 0.5785266491	-0.6994795123	-0.2223761834	-0.431521
C	-0.6489844114	-0.6116746255	 0.4643466293	 0.058553
C	-0.6217494903	-0.3800611589	 2.0070305773	-0.275646
C	-1.5054107534	 0.8855288626	 1.8426903671	-0.067672
C	-0.7278789572	 2.2189580223	 1.7809618708	-0.216779
C	-0.456720136	 1.9944184218	 0.265324832	-0.302315
C	-1.3669839201	 0.7321986106	 0.2545886771	 0.259131
C	-2.5740487856	 0.7510078579	-0.6221750445	 0.059108
O	-3.1092010304	-0.2280310045	-1.0843724037	-0.262315
H	 0.9070520979	-1.6002421916	-0.145062894	 0.288034
H	-1.3246690134	-1.4285653398	 0.1849645773	 0.094767
H	-1.0584221891	-1.1838406743	 2.6040173885	 0.103681
H	 0.3800338124	-0.1595847354	 2.3867099841	 0.10321
H	-2.4751316917	 0.8723521771	 2.3402128999	 0.078261
H	-1.3627107595	 3.088736934	 1.9694922101	 0.103656
H	 0.1467170902	 2.285930587	 2.434404835	 0.102106
H	-0.8195659993	 2.7985106956	-0.380832982	 0.105571
H	 0.574974281	 1.7704950056	-0.0079946744	 0.132732
H	-2.9947431932	 1.7678577477	-0.8078970565	 0.06744
72.1188	83.9032	165.2438	211.2216	238.498	249.315	360.9674	394.4106	459.2987	549.5102	586.0928	721.1434	744.1961	771.2101	842.5103	856.574	885.9548	938.4314	964.375	1019.1813	1026.0263	1064.6823	1073.0503	1109.4508	1130.9307	1158.7237	1185.9255	1228.0979	1239.3399	1246.2053	1270.2371	1280.8801	1290.3601	1311.0704	1337.5297	1424.118	1436.6415	1473.0467	1477.661	1495.0853	1806.6544	2846.7789	3038.9907	3052.1445	3055.8686	3064.1786	3097.2742	3105.6669	3118.7099	3134.0535	3826.6722
OC1CC2CCC12C=O	O[C@H]1C[C@H]2CC[C@@]12C=O	
InChI=1S/C7H10O2/c8-4-7-2-1-5(7)3-6(7)9/h4-6,9H,1-3H2	InChI=1S/C7H10O2/c8-4-7-2-1-5(7)3-6(7)9/h4-6,9H,1-3H2/t5-,6+,7+/m1/s1
