19
gdb 2132	3.7983149	1.4748876	1.3315226	1.1431	75.34	-0.24097	0.05802	0.29899	1012.8086	0.157517	-422.485197	-422.477862	-422.476918	-422.516319	30.214	
C	-0.0740096166	-0.0071810155	 0.2539143838	-0.4845
C	 1.3717153866	-0.0152809535	-0.1484942092	 0.417131
C	 2.5427109954	 0.5109908238	 0.7065876589	-0.318612
C	 3.2445956756	 0.3633292389	-0.6727770986	 0.401826
C	 1.9524897067	 0.9003438187	-1.3292276228	-0.363316
O	 4.6773635147	 0.303717916	-0.7805966004	-0.358076
C	 4.5895042706	-1.1294543056	-0.4371037131	-0.180174
C	 3.1130073532	-1.1017630299	-0.9539744672	 0.083503
O	 1.8294035124	-1.3936557482	-0.4070696993	-0.328306
H	-0.223115	-0.6311913563	 1.1403025785	 0.133794
H	-0.4018288807	 1.0099111591	 0.4847981568	 0.122295
H	-0.7012517271	-0.402031651	-0.5507299812	 0.13201
H	 2.4404661934	 1.5545318673	 1.0105781514	 0.10209
H	 2.8548651302	-0.120455197	 1.5395695456	 0.102525
H	 1.7035791461	 1.9475673001	-1.1480579083	 0.108187
H	 1.7506824634	 0.6135846425	-2.3632297738	 0.107679
H	 5.305582668	-1.7184826807	-1.0140174927	 0.116561
H	 4.7263220587	-1.2908920547	 0.6364003001	 0.11636
H	 3.1256743195	-1.3513595639	-2.0200538485	 0.089021
201.7827	211.8303	264.5794	290.8889	394.4438	437.9305	462.4231	526.7741	548.5149	615.6421	644.3136	735.3869	771.2941	815.2396	834.5917	915.0593	919.979	952.6302	984.3778	998.806	1026.348	1029.3775	1065.9155	1093.7059	1119.1218	1150.1405	1150.7481	1181.0986	1197.0985	1209.473	1240.6039	1290.5894	1320.2849	1344.9739	1399.4719	1417.3729	1474.8743	1478.5826	1493.5393	1505.2008	1516.7236	3043.942	3045.2116	3052.8226	3070.0225	3078.3537	3114.2562	3122.6101	3123.0028	3139.8629	3144.7138
CC12CC3(C1)OCC3O2	C[C@]12C[C@@]3(C1)OC[C@H]3O2	
InChI=1S/C7H10O2/c1-6-3-7(4-6)5(9-6)2-8-7/h5H,2-4H2,1H3	InChI=1S/C7H10O2/c1-6-3-7(4-6)5(9-6)2-8-7/h5H,2-4H2,1H3/t5-,6-,7-/m1/s1
