19
gdb 5262	3.1730949	1.5573992	1.3803938	1.5772	74.86	-0.24891	0.00743	0.25634	1012.8882	0.158046	-422.556968	-422.549183	-422.548238	-422.589045	30.513	
C	 1.4847609379	-0.144646873	-0.0074430166	-0.259674
O	 0.0671796043	-0.0701504204	 0.0874769039	-0.305088
C	-0.4017130074	 0.6910387975	 1.126189576	 0.474176
C	-1.954776435	 0.6458987183	 1.2445008873	-0.257217
C	-2.1496826481	 1.0108500264	 2.7417249107	-0.216703
C	-0.6586643864	 1.197601951	 3.1887522796	 0.001805
O	-0.0133963956	 0.1806514622	 2.4192324729	-0.286863
C	-0.1528893326	 2.4757838847	 2.5269498341	-0.077263
C	 0.0191588399	 2.1622026489	 1.2441527101	-0.167748
H	 1.9159321397	-0.6073769116	 0.8859130568	 0.13639
H	 1.7033533323	-0.7587639778	-0.8829774988	 0.12633
H	 1.9325196413	 0.8487044474	-0.142430897	 0.111657
H	-2.444456176	 1.3338641134	 0.5530641659	 0.102712
H	-2.2872700261	-0.370245629	 1.0232325526	 0.11542
H	-2.7537100517	 1.907028674	 2.9007609083	 0.099411
H	-2.6027993935	 0.1865133786	 3.2970617516	 0.108428
H	-0.4602801914	 1.0679222646	 4.2518149311	 0.0803
H	-0.0899800634	 3.4453205767	 3.0033282811	 0.105763
H	 0.2515680218	 2.8056176581	 0.4062181602	 0.108165
100.4299	156.0573	197.5474	245.8415	360.1139	410.1874	443.0672	489.551	603.6593	642.448	713.709	732.0255	792.0119	820.6299	835.4547	877.4856	910.994	946.268	956.623	992.1752	1009.4936	1044.3123	1052.3447	1081.0447	1102.2867	1176.0627	1180.9055	1204.1971	1222.3989	1229.4309	1267.8476	1292.71	1320.2125	1333.7001	1353.787	1478.4335	1483.4201	1484.4703	1499.4508	1509.1386	1646.9779	3015.1355	3066.9689	3079.6497	3086.8513	3111.8689	3128.7385	3132.9619	3134.0062	3210.1643	3236.7201
COC12CCC(O1)C=C2	CO[C@@]12CC[C@@H](O1)C=C2	
InChI=1S/C7H10O2/c1-8-7-4-2-6(9-7)3-5-7/h2,4,6H,3,5H2,1H3	InChI=1S/C7H10O2/c1-8-7-4-2-6(9-7)3-5-7/h2,4,6H,3,5H2,1H3/t6-,7+/m0/s1
