19
gdb 1861	2.3720841	1.7133011	1.2155495	3.8083	75.73	-0.23411	-0.00861	0.2255	1067.4579	0.156006	-422.587314	-422.578386	-422.577442	-422.620441	33.854	
C	-0.2271824657	 2.5390569904	-0.3611714801	-0.479287
C	-0.7438930323	 1.2470913306	 0.215494625	 0.175611
C	-1.5883816558	 1.2588926621	 1.5023076134	-0.397663
C	-2.2033883581	 0.8167688873	 0.2145127782	 0.365788
O	-3.1355626095	 1.6314985052	-0.4237489212	-0.468225
C	-2.2839956909	-0.6882942438	-0.0346940379	-0.282885
C	-0.8601400309	-1.2196704503	 0.2272235914	-0.345807
C	 0.0603123742	-0.0041424641	 0.0338720887	 0.37115
O	 1.2244076644	-0.048782992	-0.2815174896	-0.328817
H	 0.6523869566	 2.8863965689	 0.1888074628	 0.130003
H	 0.0696758824	 2.4043323155	-1.4054234665	 0.130987
H	-0.9979492811	 3.3126648603	-0.322377316	 0.12439
H	-1.3859740888	 0.5455442744	 2.29513765	 0.116266
H	-1.848846949	 2.2555597725	 1.8429623056	 0.12316
H	-3.9382097097	 1.6483435437	 0.1085940227	 0.287285
H	-3.0457281243	-1.1738260358	 0.5855227833	 0.096731
H	-2.5642914881	-0.8397731281	-1.0821347711	 0.120293
H	-0.7434047255	-1.5921080324	 1.2519074512	 0.129051
H	-0.555008708	-2.0274402343	-0.4402420099	 0.13197
103.8033	144.9422	184.7091	210.7112	243.8369	259.2718	332.5802	426.6271	439.4074	480.906	546.3728	564.5325	662.0177	672.2373	690.0113	807.7749	856.2736	903.1369	938.3073	964.6641	990.9635	1027.845	1046.2151	1074.0928	1105.2232	1125.4831	1187.8083	1219.9755	1232.9742	1275.8914	1305.952	1320.627	1356.7321	1402.5489	1415.018	1462.069	1483.85	1485.9814	1495.2563	1507.4599	1827.6886	3038.3665	3045.3394	3047.4246	3084.2102	3110.1891	3120.0799	3123.2837	3126.8814	3213.9424	3801.8829
CC12CC1(O)CCC2=O	C[C@@]12C[C@]1(O)CCC2=O	
InChI=1S/C7H10O2/c1-6-4-7(6,9)3-2-5(6)8/h9H,2-4H2,1H3	InChI=1S/C7H10O2/c1-6-4-7(6,9)3-2-5(6)8/h9H,2-4H2,1H3/t6-,7+/m0/s1
