19
gdb 3084	2.5643481	1.7380389	1.6651056	0.4937	72.64	-0.25424	0.06826	0.3225	930.7034	0.159653	-422.542353	-422.535237	-422.534293	-422.573353	29.395	
O	-0.552964121	 0.6992937128	 0.3324608344	-0.441925
C	-1.9037620719	 0.3269518848	 0.4035066636	 0.160674
C	-2.9507240565	 1.1836516481	 1.1869218049	-0.075005
C	-3.7405500876	-0.1447509938	 1.3621703067	-0.233534
C	-2.3760306579	-0.8814662119	 1.2774857161	-0.109478
C	-1.6584464469	-0.7953831427	 2.6204964071	 0.032755
O	-2.4553931775	-0.5329279258	 3.7797378124	-0.250482
C	-1.6533747528	 0.5350227311	 3.2643185708	 0.02522
C	-2.3644160722	 1.6635442296	 2.526773526	-0.253833
H	-0.1968042651	 0.7297515005	 1.226135164	 0.285793
H	-2.2289036067	 0.192512024	-0.6311212788	 0.092168
H	-3.4313282171	 2.0074424586	 0.6542747079	 0.064908
H	-4.3117683286	-0.2785099715	 2.2792317531	 0.122036
H	-4.3644612567	-0.3641485538	 0.4929130828	 0.098619
H	-2.3382550301	-1.8865499188	 0.8530863027	 0.064374
H	-0.8351617369	-1.4866316273	 2.7929654446	 0.097246
H	-0.8344856476	 0.819712901	 3.9250541332	 0.096139
H	-3.1473205905	 2.0924683063	 3.1632210406	 0.116951
H	-1.6369787564	 2.4634887989	 2.3397909379	 0.107373
183.8887	215.0499	310.1436	331.8699	365.6465	412.5868	509.0134	558.999	587.1461	630.665	768.4851	773.6905	802.259	852.8188	873.1718	884.4755	927.3139	950.2264	977.002	1016.9004	1066.1579	1068.3555	1075.75	1121.3149	1129.8675	1142.1203	1152.1535	1218.7362	1219.8574	1256.0874	1264.7335	1276.1556	1299.4941	1322.9871	1345.5091	1365.2709	1386.0337	1437.8539	1445.2406	1473.1504	1493.6672	3027.9543	3066.231	3073.5449	3078.1076	3082.9327	3094.5468	3105.7744	3126.5632	3152.6024	3817.6978
OC1C2CC1C1OC1C2	O[C@@H]1[C@H]2C[C@@H]1[C@@H]1O[C@@H]1C2	
InChI=1S/C7H10O2/c8-6-3-1-4(6)7-5(2-3)9-7/h3-8H,1-2H2	InChI=1S/C7H10O2/c8-6-3-1-4(6)7-5(2-3)9-7/h3-8H,1-2H2/t3-,4-,5+,6+,7-/m0/s1
