19
gdb 6053	2.4809668	1.0340024	0.7796921	2.3426	79.13	-0.24705	0.01732	0.26437	1486.1253	0.15398	-422.487361	-422.477459	-422.476514	-422.523423	34.7	
C	 0.0371426769	-0.3490918455	-0.670970926	-0.386147
C	 0.9954257026	 0.1263948436	 0.4063719853	-0.047419
O	 1.4364558467	 1.435429047	 0.0687716329	-0.245085
C	 2.3023231478	 1.9958648786	 1.0018696711	 0.066683
C	 2.7847442021	 3.4052878925	 0.6386582619	-0.106775
O	 4.1692500212	 3.0187687844	 0.7796265249	-0.285545
C	 3.8210319539	 1.6167542077	 0.9115644252	-0.061608
C	 4.4429866058	 0.9610010121	 2.0442473157	 0.313652
C	 4.9294025978	 0.4041518688	 2.9924360424	-0.442603
H	-0.3258183998	-1.3545021401	-0.4385561184	 0.11904
H	-0.8221465263	 0.3234038531	-0.7439726916	 0.129326
H	 0.5353814743	-0.3759788886	-1.6440526071	 0.12975
H	 0.5015543148	 0.144126195	 1.3912744209	 0.09515
H	 1.8570228098	-0.5542962809	 0.4885938844	 0.100958
H	 1.9152707578	 1.8999800081	 2.0250491125	 0.088191
H	 2.5307575146	 3.6791391663	-0.3926201176	 0.112053
H	 2.5144639726	 4.2191658258	 1.3185188326	 0.113161
H	 4.0328058445	 1.0716267528	-0.0191758377	 0.104875
H	 5.3699954728	-0.0845790707	 3.8261701788	 0.202342
47.8795	63.2931	82.2414	146.2272	195.42	211.831	248.5669	331.4089	401.675	440.5203	514.7247	537.7847	619.5728	672.901	731.7535	818.9801	862.3004	915.5989	955.5587	991.2764	1016.4098	1055.484	1071.4897	1096.2791	1151.2118	1163.5922	1183.6713	1186.2862	1236.5135	1267.9282	1298.1704	1323.56	1352.1837	1380.7243	1406.6394	1445.8681	1483.6155	1499.2229	1515.7376	1527.054	2233.3267	2972.5795	3001.2162	3005.3651	3017.8599	3028.7521	3046.8136	3085.8161	3122.3286	3123.7165	3501.7776
CCOC1COC1C#C	CCO[C@@H]1CO[C@H]1C#C	
InChI=1S/C7H10O2/c1-3-6-7(5-9-6)8-4-2/h1,6-7H,4-5H2,2H3	InChI=1S/C7H10O2/c1-3-6-7(5-9-6)8-4-2/h1,6-7H,4-5H2,2H3/t6-,7+/m0/s1
