19
gdb 2601	1.9465557	1.8613384	1.218326	3.6927	76.77	-0.23346	-0.00544	0.22802	1099.3001	0.154322	-422.555666	-422.545935	-422.544991	-422.589874	35.395	
C	-0.651346521	-2.0885396863	-1.1872938541	-0.396466
C	-0.8708037579	-1.1353467651	-0.015552866	-0.203934
C	 0.1263171601	 0.0598574373	-0.0422161714	 0.387541
O	 1.3220531877	 0.1057591984	-0.1414565754	-0.328982
C	-0.9518718446	 1.0903229184	-0.1910589672	 0.147535
C	-0.8617453814	 2.3738393768	-0.9645014521	-0.498288
C	-1.9850023015	 0.874708334	 0.9278402592	-0.396867
C	-1.978291647	-0.0764944726	-0.2128330874	 0.359691
O	-3.0116226865	-0.1957641549	-1.119668189	-0.456039
H	-1.4603596617	-2.8223011258	-1.2504761278	 0.115219
H	-0.6163145702	-1.5481323691	-2.1380686008	 0.127322
H	 0.2945049393	-2.6225918949	-1.064089698	 0.13329
H	-0.9222047093	-1.6885019685	 0.9302320966	 0.079833
H	-0.2799302585	 2.2355381037	-1.8806361334	 0.134946
H	-1.8593864149	 2.7264561089	-1.244257202	 0.128414
H	-0.3768365031	 3.1599103393	-0.3763959083	 0.133095
H	-1.6825751661	 0.5683279973	 1.9261581057	 0.118295
H	-2.7714467457	 1.6239100751	 0.9032990197	 0.122656
H	-3.7835127778	-0.5487438019	-0.6634699584	 0.292738
82.8027	139.3114	167.3874	186.2803	193.9094	213.5293	235.2571	258.5519	408.4754	425.7343	478.5875	541.6367	566.9732	688.7446	691.1649	731.4627	793.4438	852.094	923.8779	973.6531	991.7622	1048.088	1053.2624	1072.9548	1090.1162	1112.3406	1177.3338	1223.8189	1225.274	1290.824	1341.5724	1351.5609	1400.8999	1411.1255	1414.9163	1481.6894	1490.2462	1491.914	1496.7366	1503.1025	1869.2132	3028.6054	3035.8064	3042.5645	3101.0157	3106.0787	3110.9107	3111.4647	3122.6358	3196.4732	3795.8179
CC1C(=O)C2(C)CC12O	C[C@H]1C(=O)[C@]2(C)C[C@]12O	
InChI=1S/C7H10O2/c1-4-5(8)6(2)3-7(4,6)9/h4,9H,3H2,1-2H3	InChI=1S/C7H10O2/c1-4-5(8)6(2)3-7(4,6)9/h4,9H,3H2,1-2H3/t4-,6-,7-/m0/s1
