19
gdb 2986	2.4183154	1.6301562	1.2588034	1.6152	75.25	-0.24703	-0.02569	0.22134	1052.2283	0.157848	-422.56273	-422.554655	-422.553711	-422.595515	30.872	
O	-0.2244136044	-2.3809627792	-2.18039198	-0.445008
C	 0.2016394589	-1.0451809307	-1.9725553743	 0.116108
C	-0.8459160757	-0.0733350502	-2.5319223109	-0.029371
C	-1.9690899924	-0.1533495544	-1.4572091978	-0.228002
C	-0.8889829384	 0.5257477028	-0.5678924773	-0.036943
C	-0.4307924297	 1.2656525621	-1.8583875828	-0.241762
C	 0.1763377292	-0.6108374956	-0.465021102	-0.107743
C	 1.4803214223	-0.1222027065	 0.1061983315	 0.123084
O	 2.4392435762	 0.2197913404	-0.5439348406	-0.249095
H	 0.5003833428	-2.9688003554	-1.94742349	 0.284024
H	 1.1924304104	-0.8720972786	-2.4074127349	 0.091022
H	-1.0508250625	-0.1521531986	-3.5989101208	 0.069087
H	-2.8027919413	 0.5185718709	-1.6733322977	 0.098147
H	-2.3335947456	-1.1421389267	-1.1716571707	 0.108547
H	-1.1395859929	 1.0530980131	 0.3534452001	 0.066906
H	-1.1000862886	 2.086755544	-2.1232112592	 0.101763
H	 0.6117949691	 1.5841508503	-1.9322127891	 0.116824
H	-0.2018040969	-1.424570896	 0.1651269682	 0.085139
H	 1.5079023395	-0.0654111617	 1.2193196881	 0.077272
65.2123	156.2353	198.901	244.8442	266.1481	338.876	410.0291	478.599	529.9699	634.0082	693.8205	806.9631	851.5144	853.7546	857.5427	888.8706	935.7769	972.8654	989.3199	1014.3632	1029.6101	1048.759	1061.5349	1088.2329	1100.4179	1122.0666	1140.7088	1205.7346	1216.028	1237.4696	1255.8827	1271.4692	1285.6412	1307.1909	1312.6386	1358.8414	1425.3856	1439.0397	1486.5863	1518.6591	1811.8982	2859.8696	3043.1066	3046.9855	3066.1784	3069.2669	3105.8693	3125.4967	3128.2648	3131.3498	3825.8312
OC1C2CC(C2)C1C=O	O[C@H]1[C@H]2C[C@H](C2)[C@@H]1C=O	
InChI=1S/C7H10O2/c8-3-6-4-1-5(2-4)7(6)9/h3-7,9H,1-2H2	InChI=1S/C7H10O2/c8-3-6-4-1-5(2-4)7(6)9/h3-7,9H,1-2H2/t4-,5+,6-,7-/m0/s1
