19
gdb 5180	2.8900157	1.3854283	1.2448834	0.9216	74.69	-0.22496	0.06542	0.29037999999999997	1103.3397	0.155781	-422.494822	-422.486299	-422.485355	-422.527872	32.689	
C	 1.0859548334	 1.0602240245	 0.204161436	-0.382279
C	 0.9173748419	-0.4490083233	-0.0173332525	-0.306624
C	 1.5704466663	-0.9233000408	-1.2813537719	 0.345927
C	 1.1376991376	-0.4997301164	-2.7161571072	-0.26311
C	 1.8893148519	-1.7398481526	-3.1876393816	-0.164162
C	 3.0928237043	-1.849629631	-2.1978079146	-0.005523
O	 3.0220643471	-0.7378435409	-1.31565753	-0.325564
C	 1.761983154	-2.4178380298	-1.8449277962	 0.264318
O	 1.2534630952	-3.6491609418	-1.5341884109	-0.447329
H	 0.6287482392	 1.3680640949	 1.148936758	 0.112424
H	 2.1454830702	 1.3284525932	 0.2320662479	 0.140298
H	 0.6142835355	 1.6340879247	-0.599883681	 0.120296
H	 1.3479474542	-0.9988686013	 0.8285058402	 0.101519
H	-0.1462871088	-0.7131580647	-0.0584232515	 0.107223
H	 0.0591757204	-0.6048812836	-2.8607782997	 0.104723
H	 1.4796117295	 0.4851062032	-3.0483730954	 0.0995
H	 1.92083498	-2.1994193892	-4.1670845932	 0.094779
H	 4.0543490639	-2.2774416526	-2.4484539118	 0.109469
H	 1.6773628244	-3.9604422424	-0.7257087747	 0.294113
72.1052	129.6734	194.7211	244.28	252.3338	338.0884	369.711	420.285	505.9463	556.5175	596.9078	677.5493	747.1619	766.1517	783.9981	848.1646	883.3235	926.6416	930.2509	960.4036	984.9533	1017.8611	1034.5169	1037.9357	1099.2018	1109.4917	1117.3839	1167.1496	1211.226	1242.1306	1259.0944	1296.81	1318.5417	1319.2289	1390.465	1407.3985	1470.8147	1475.8747	1495.7258	1497.1719	1507.6921	3028.3297	3041.89	3050.3972	3064.2952	3109.0839	3112.5554	3122.741	3202.5477	3213.3534	3783.122
CCC12CC3C(O1)C23O	CC[C@@]12C[C@H]3[C@@H](O1)[C@@]23O	
InChI=1S/C7H10O2/c1-2-6-3-4-5(9-6)7(4,6)8/h4-5,8H,2-3H2,1H3	InChI=1S/C7H10O2/c1-2-6-3-4-5(9-6)7(4,6)8/h4-5,8H,2-3H2,1H3/t4-,5+,6-,7+/m0/s1
