19
gdb 512	2.9849878	1.904294	1.5545944	0.9405	73.53	-0.23566	0.07967	0.31533	914.6816	0.16002	-422.53753	-422.530956	-422.530011	-422.567981	27.908	
C	 0.6778818924	 0.7569479486	 1.4072501719	-0.289275
C	-0.5633671546	 1.2380023848	 0.5607109116	-0.34594
C	 0.1020041005	 0.5536174963	-0.6392081993	 0.43105
C	-0.0194349861	-0.9776380131	-0.8138266661	-0.282322
C	 1.3634326305	-0.9874735857	-1.4720700015	 0.059475
C	 1.1462503813	 0.1083241689	-2.5569937361	-0.100881
O	 0.1496297226	 1.0039945034	-1.9853659682	-0.341872
O	 2.2067012576	-0.4783469856	-0.4116786324	-0.298233
C	 1.4534986024	 0.6461789635	 0.0551898142	 0.107926
H	 1.0743718713	 1.4589176469	 2.1415957091	 0.107582
H	 0.5100367948	-0.2090296406	 1.8854297113	 0.117959
H	-1.5568305341	 0.8985861495	 0.8580760425	 0.108593
H	-0.569486657	 2.3254156151	 0.453782413	 0.121312
H	-0.0467984636	-1.5662246599	 0.1028119089	 0.10952
H	-0.8517856712	-1.2365302895	-1.4711038142	 0.106546
H	 1.7879366279	-1.9218673197	-1.83671661	 0.085801
H	 2.0752468134	 0.6524766628	-2.7604089463	 0.111547
H	 0.7558586049	-0.3050050892	-3.4930906392	 0.107752
H	 1.9907546269	 1.5760612233	-0.1586014591	 0.083462
209.4483	273.454	330.9903	391.8756	423.2536	501.9512	537.6422	633.8192	673.374	749.8441	793.9828	804.2401	843.8392	861.9656	887.685	926.966	942.2317	946.2013	975.5658	988.3912	1050.9012	1061.1464	1097.7849	1113.6244	1141.6171	1157.2006	1191.9324	1203.3717	1210.7055	1235.8218	1238.9773	1275.3893	1289.3232	1308.1737	1321.3576	1363.3733	1379.7903	1475.0396	1486.1761	1497.6169	1507.9095	3033.6203	3051.2925	3073.7947	3081.5175	3084.8974	3088.2231	3126.8926	3137.7144	3146.2757	3153.3857
C1CC23CC(CO2)OC13	C1C[C@@]23C[C@@H](CO2)O[C@H]13	
InChI=1S/C7H10O2/c1-2-7-3-5(4-8-7)9-6(1)7/h5-6H,1-4H2	InChI=1S/C7H10O2/c1-2-7-3-5(4-8-7)9-6(1)7/h5-6H,1-4H2/t5-,6+,7-/m0/s1
