19
gdb 2112	3.2098957	1.6149504	1.4808747	1.436	73.66	-0.23219	0.09071	0.3229	986.2269	0.157134	-422.569625	-422.561878	-422.560933	-422.601223	31.05	
C	 4.5566016769	-1.1180649395	-1.4217406496	-0.502886
C	 3.4871916312	-0.4516487391	-0.620776006	 0.420454
O	 2.1572696404	-0.6363352322	-1.0817589409	-0.311745
C	 1.4580779364	 0.0619033354	-0.0483279086	 0.439186
C	-0.0301255486	-0.0934872912	-0.1555658561	-0.488358
C	 2.1293710328	 1.4598882731	-0.0776809666	-0.258787
C	 3.5405224894	 0.9164968437	 0.0607508168	-0.221757
C	 3.3561613554	-0.3603258223	 0.8804122455	-0.003071
O	 1.9792878418	-0.5061394734	 1.1596754713	-0.282437
H	 5.5327982308	-0.9634558194	-0.9531022771	 0.122974
H	 4.3746777787	-2.195304104	-1.4897782045	 0.134051
H	 4.5993822532	-0.7119268819	-2.4376998843	 0.129771
H	-0.5205120708	 0.4257145279	 0.6710479194	 0.132718
H	-0.3835254495	 0.328457418	-1.0991509043	 0.132161
H	-0.2963160102	-1.1521009282	-0.1177915416	 0.14105
H	 1.9495254824	 1.9756491448	-1.0235278024	 0.10772
H	 1.8129950221	 2.0823936708	 0.762373864	 0.108225
H	 4.4326839994	 1.5258652764	 0.0995086485	 0.093256
H	 4.0288037481	-0.7629832288	 1.6238931565	 0.107475
171.8642	199.0143	217.6924	237.9361	305.4228	346.7436	452.6274	573.0312	585.4966	620.4584	647.4341	720.441	744.2021	819.7438	831.464	853.7513	880.8068	897.4541	938.462	981.3787	991.283	1023.6732	1031.7255	1063.4572	1118.8237	1120.6914	1152.7919	1165.0524	1195.1188	1246.3241	1273.6432	1289.118	1348.2245	1405.3125	1420.6396	1459.5827	1478.0584	1479.5576	1482.6634	1489.0173	1503.039	3036.5703	3059.7796	3071.7319	3101.888	3114.7128	3128.2328	3139.1941	3140.5288	3212.6699	3227.056
CC12OC3(C)CC1C2O3	C[C@]12O[C@]3(C)C[C@H]1[C@H]2O3	
InChI=1S/C7H10O2/c1-6-3-4-5(8-6)7(4,2)9-6/h4-5H,3H2,1-2H3	InChI=1S/C7H10O2/c1-6-3-4-5(8-6)7(4,2)9-6/h4-5H,3H2,1-2H3/t4-,5+,6+,7-/m0/s1
