19
gdb 2134	3.7438503	1.4319539	1.2886553	2.3902	74.6	-0.23966	0.06698	0.30664	1016.3064	0.158422	-422.500655	-422.493397	-422.492453	-422.531671	30.249	
O	 0.8150501344	 0.726340047	 0.1889116227	-0.476945
C	-0.2183697895	 0.9738808058	 1.0847949657	 0.41129
C	-1.6654430348	 1.1492288549	 0.4508027518	-0.353082
C	-1.8868377475	 1.7643107302	 1.845720525	 0.465184
C	-0.4606305016	 2.3586749785	 1.756754529	-0.352022
O	-2.8955583849	 2.3608482483	 2.6675414002	-0.358543
C	-2.3826619959	 1.5542500595	 3.7886778059	-0.170067
C	-1.7605147355	 0.5646453526	 2.7663544103	-0.021409
C	-0.3690840111	 0.0393317901	 2.3417874282	-0.34146
H	 1.6487951324	 0.7601163406	 0.6706597702	 0.281207
H	-1.610073693	 1.8447467883	-0.3887661933	 0.11223
H	-2.2399808384	 0.257415927	 0.1906776053	 0.100251
H	-0.3968988652	 3.1852978143	 1.046959462	 0.10447
H	 0.0785248111	 2.5894967705	 2.6795435976	 0.08533
H	-1.6722274827	 2.1323329407	 4.3909688218	 0.106907
H	-3.1952859342	 1.1837431734	 4.4181283756	 0.113041
H	-2.5332306425	-0.1699197024	 2.525125822	 0.091125
H	 0.447020696	 0.2179115633	 3.0502569042	 0.097779
H	-0.3787471871	-1.0244885527	 2.0916514459	 0.104714
213.5162	237.8763	280.877	322.1735	390.0636	436.2767	459.2834	522.172	544.0233	569.2409	662.7612	716.5405	780.1589	818.4741	862.481	912.2922	927.8327	953.6221	969.4049	980.6764	1016.2831	1063.3095	1093.0761	1104.388	1122.0219	1141.0459	1152.5776	1174.898	1202.1964	1205.943	1227.2566	1254.6839	1288.087	1308.9785	1324.3238	1372.0899	1392.734	1481.5054	1491.7168	1513.6526	1528.5232	3033.4918	3045.7941	3059.6687	3062.6329	3069.8766	3102.1711	3107.6826	3129.3243	3137.2797	3802.5811
OC12CC3(C1)OCC3C2	O[C@]12C[C@@]3(C1)OC[C@@H]3C2	
InChI=1S/C7H10O2/c8-6-1-5-2-9-7(5,3-6)4-6/h5,8H,1-4H2	InChI=1S/C7H10O2/c8-6-1-5-2-9-7(5,3-6)4-6/h5,8H,1-4H2/t5-,6-,7+/m0/s1
