19
gdb 5550	2.3390013	1.4546658	1.0194887	1.8908	75.09	-0.25369	0.06159	0.31528	1190.2509	0.155901	-422.492426	-422.483776	-422.482832	-422.525739	32.604	
O	 1.3797134998	 0.6653282299	 0.103376297	-0.421332
C	 0.1503144159	-0.0156855639	 0.3044924152	-0.074756
C	-1.0583086114	 0.9049056303	 0.1808417353	-0.158006
C	-1.3051622089	 1.8107237237	 1.4117940416	 0.031099
O	-2.5338600647	 2.5102029935	 1.207612232	-0.250107
C	-2.5933904099	 1.1594937921	 1.6967635811	-0.076363
C	-2.4284798573	 0.2399597622	 0.5037845277	 0.354101
C	-2.7614602748	-1.2260421563	 0.4730239442	-0.336242
C	-3.4977965172	-0.2534808193	-0.420205648	-0.317921
H	 1.4734198822	 1.3267409895	 0.7958131002	 0.284007
H	 0.1128317664	-0.7860416689	-0.4727494012	 0.112031
H	 0.1294800195	-0.5356117515	 1.2755912666	 0.088469
H	-1.0119796684	 1.4571349245	-0.7623533893	 0.09216
H	-0.5824275074	 2.2629354673	 2.0833404347	 0.097957
H	-3.1194029108	 0.990121261	 2.6297676704	 0.102696
H	-2.0570570936	-1.9113865999	 0.0137273868	 0.118488
H	-3.2901575466	-1.6432020715	 1.3244717325	 0.115752
H	-3.2761968208	-0.2758710674	-1.4822736026	 0.119027
H	-4.529442192	-0.0129451253	-0.1858333444	 0.118941
103.2037	125.1795	152.2668	222.4956	263.8384	269.328	290.1048	416.2749	495.3771	551.0254	592.7433	773.7234	818.7401	836.5987	844.9606	872.0759	883.9239	936.2872	960.6734	984.4069	990.3322	1035.6102	1056.3176	1062.3649	1078.0967	1081.3863	1108.5354	1186.472	1190.97	1203.9345	1224.8581	1232.1909	1258.1835	1334.4549	1367.7265	1384.2475	1395.957	1418.7585	1465.7122	1502.536	1505.1016	2978.9003	3067.153	3078.0061	3125.5881	3130.2613	3162.4242	3183.5271	3202.9065	3217.9898	3822.6841
OCC1C2OC2C11CC1	OC[C@@H]1[C@H]2O[C@H]2C21CC2	
InChI=1S/C7H10O2/c8-3-4-5-6(9-5)7(4)1-2-7/h4-6,8H,1-3H2	InChI=1S/C7H10O2/c8-3-4-5-6(9-5)7(4)1-2-7/h4-6,8H,1-3H2/t4-,5-,6-/m1/s1
