19
gdb 1879	2.5156031	1.838571	1.6392915	2.2948	73.84	-0.22856	0.06168	0.29024	931.1252	0.157918	-422.520647	-422.513015	-422.512071	-422.551921	31.617	
O	 0.216592802	 0.3560501093	-0.1100679941	-0.477444
C	-0.864320616	 0.2771393957	 0.7743365535	 0.308218
C	-1.4389280807	 1.550938752	 1.3738775793	-0.441791
C	-2.1739070045	 0.8166485948	 0.2647025016	 0.415147
O	-2.2663197917	 1.3849564407	-1.00108413	-0.488518
C	-3.1003820974	-0.3730471152	 0.5686367595	-0.081473
C	-2.198685586	-1.5490697682	 0.0436544174	-0.223737
C	-1.3077041196	-1.1148777356	 1.2641660006	-0.088914
C	-2.6561308857	-0.8339992282	 1.9839712505	-0.241521
H	 1.0074572226	 0.5958572505	 0.3827169548	 0.29122
H	-1.7914293508	 1.6068427785	 2.3969471343	 0.112677
H	-0.9516445679	 2.4557534828	 1.0230320424	 0.110789
H	-1.3948459108	 1.2927181727	-1.4107640366	 0.289595
H	-4.1495911252	-0.2686066707	 0.2947703051	 0.069601
H	-2.6546349334	-2.5345921254	 0.1698506576	 0.090097
H	-1.7705559203	-1.4480098127	-0.9558565119	 0.10264
H	-0.5455386736	-1.7634735592	 1.6980835065	 0.057839
H	-3.1506821293	-1.7645836156	 2.2700941491	 0.101338
H	-2.6924502716	-0.1356467661	 2.8206332003	 0.094238
198.6264	206.1964	272.9687	303.214	331.5667	393.7433	480.0713	515.3606	529.8395	548.9969	552.6248	735.926	770.3943	814.0567	839.9779	847.2157	891.7429	901.6742	916.2739	941.2578	1006.8157	1025.8992	1039.7514	1049.9616	1074.2868	1082.0839	1105.3903	1155.2772	1197.5856	1217.4498	1219.6891	1237.8508	1247.6796	1267.2858	1280.8079	1332.2012	1386.5003	1392.1918	1478.7925	1496.8173	1535.9582	3061.8555	3075.9429	3105.335	3123.3161	3123.8352	3127.4041	3134.7098	3216.9763	3739.6597	3814.1184
OC12CC1(O)C1CC2C1	O[C@@]12C[C@]1(O)[C@H]1C[C@@H]2C1	
InChI=1S/C7H10O2/c8-6-3-7(6,9)5-1-4(6)2-5/h4-5,8-9H,1-3H2	InChI=1S/C7H10O2/c8-6-3-7(6,9)5-1-4(6)2-5/h4-5,8-9H,1-3H2/t4-,5+,6-,7+
