19
gdb 3847	2.7125817	1.5841935	1.2457286	2.4282	75.82	-0.23517	0.01708	0.25225	1049.0407	0.157333	-422.564042	-422.555925	-422.554981	-422.596344	32.328	
O	 0.8138825341	 0.1964963035	 0.9656669964	-0.440052
C	-0.5681783913	 0.4139076788	 0.7875691563	 0.136428
C	-1.4088421951	 0.2700543269	 2.0904576969	-0.310911
C	-1.4184510429	 1.8249968199	 2.2341881454	 0.396241
O	-0.4197070103	 2.3086580603	 3.1154228359	-0.498034
C	-2.7964093676	 2.5034274846	 2.3390532311	-0.345013
C	-3.2118676001	 2.6156779683	 0.8883122649	-0.061768
C	-2.2255632965	 2.3084463677	 0.0412524936	-0.094308
C	-0.9562404577	 1.9266981432	 0.746952686	-0.107254
H	 1.0949302621	 0.7521250034	 1.7035045443	 0.283315
H	-0.8704847497	-0.1999290667	-0.0642991178	 0.08086
H	-2.4038107361	-0.1483226026	 1.9195650588	 0.103872
H	-0.9153080273	-0.2815751593	 2.8953746123	 0.094163
H	-0.6530228394	 2.0377691594	 4.0105614412	 0.277871
H	-3.5072205974	 1.9221173141	 2.9410513039	 0.098347
H	-2.7059710452	 3.4913078736	 2.8110304412	 0.11125
H	-4.2064420973	 2.9330927336	 0.5931228067	 0.095152
H	-2.3048326861	 2.3375677942	-1.0404086046	 0.096391
H	-0.1122947961	 2.5885803572	 0.5238998575	 0.08345
76.599	197.6962	255.6937	310.6651	350.2673	370.7834	403.0469	431.0719	451.8485	470.411	586.9862	671.127	734.4643	781.9216	823.5248	848.3813	914.4906	952.8374	957.5013	971.7551	982.4381	1012.3671	1032.7168	1044.0973	1094.5621	1122.0067	1136.3913	1169.9084	1193.3152	1223.2971	1241.2587	1265.0869	1273.6358	1296.8347	1330.4738	1359.023	1386.572	1438.93	1456.3253	1480.6481	1670.2694	3010.8868	3043.8347	3051.0045	3057.2414	3083.0496	3119.3478	3176.5916	3200.9964	3776.5149	3793.818
OC1CC2(O)CC=CC12	O[C@H]1C[C@]2(O)CC=C[C@H]12	
InChI=1S/C7H10O2/c8-6-4-7(9)3-1-2-5(6)7/h1-2,5-6,8-9H,3-4H2	InChI=1S/C7H10O2/c8-6-4-7(9)3-1-2-5(6)7/h1-2,5-6,8-9H,3-4H2/t5-,6+,7-/m1/s1
