19
gdb 2148	2.2280753	2.0789621	1.6572086	2.2869	73.97	-0.23299	0.07066	0.30365	929.5748	0.156999	-422.534183	-422.526324	-422.52538	-422.565885	31.472	
C	-0.0819470924	-0.1030737782	-0.0968921899	-0.510688
C	 1.4099057662	-0.0686554445	 0.0177650421	 0.43089
O	 2.146718181	 0.1661986778	-1.196090775	-0.331514
C	 3.3026702571	-0.2503851494	-0.4114725519	 0.067486
C	 3.4873554413	 0.9696202338	 0.5090314926	-0.282822
C	 2.1260183787	 0.7446728686	 1.2059234829	 0.340405
O	 1.4417281768	 1.8069137151	 1.7866898656	-0.493532
C	 2.3619632214	-0.6185594071	 1.9218828245	-0.322335
C	 2.3890836606	-1.1737435635	 0.4891192147	-0.123488
H	-0.5364345406	-0.3609681513	 0.863982601	 0.128154
H	-0.457039125	 0.8826305224	-0.3896206119	 0.140385
H	-0.3967714489	-0.8351299288	-0.8459836809	 0.12544
H	 4.1346504864	-0.6193015697	-1.0098862436	 0.079309
H	 4.3359861089	 0.9097392278	 1.1975295722	 0.088188
H	 3.5346282291	 1.8896784407	-0.076811812	 0.110258
H	 2.0250325762	 2.2497488958	 2.4123015522	 0.281798
H	 3.245840918	-0.7195708247	 2.5588528066	 0.088573
H	 1.4729451649	-0.9618420293	 2.4577466639	 0.105708
H	 2.2880753801	-2.2244364055	 0.225925367	 0.077786
169.8259	181.6072	205.6105	232.4119	326.9263	379.8739	450.4944	483.7688	547.7552	602.0375	645.3247	693.3837	734.2914	821.3784	835.7313	864.9119	895.781	909.0336	941.6211	960.8224	972.9471	1032.7148	1062.7588	1078.0043	1115.6294	1134.8101	1156.6582	1173.038	1189.898	1225.4443	1258.6417	1276.5863	1282.2907	1307.9749	1350.0921	1376.7542	1417.7531	1473.5316	1478.3434	1491.2082	1507.4293	3042.5846	3049.6722	3056.1297	3109.5406	3113.7142	3120.9845	3123.1525	3126.9258	3143.9811	3803.9745
CC12OC3CC1(O)CC23	C[C@@]12O[C@H]3C[C@]1(O)C[C@@H]23	
InChI=1S/C7H10O2/c1-6-4-2-7(6,8)3-5(4)9-6/h4-5,8H,2-3H2,1H3	InChI=1S/C7H10O2/c1-6-4-2-7(6,8)3-5(4)9-6/h4-5,8H,2-3H2,1H3/t4-,5+,6+,7-/m1/s1
