19
gdb 4762	3.1122043	0.8139347	0.7318824	3.9244	83.7	-0.24145	-0.04997	0.19147999999999998	1641.046	0.152527	-422.530689	-422.51943	-422.518485	-422.568992	37.348	
C	-4.7833421547	 0.3578100065	-1.9821866784	-0.245918
O	-4.5653653978	 0.9650289665	-0.722624783	-0.22613
C	-3.2196158517	 1.1478480327	-0.3820318673	 0.027276
C	-3.1730380756	 2.0804177973	 0.8318594737	-0.405215
C	-2.508719484	-0.1817250007	-0.0583597478	 0.189943
O	-3.1032091874	-1.2318389605	 0.0497343715	-0.291568
C	-1.0707939063	-0.0840739847	 0.1032609851	 0.031746
C	 0.127190547	 0.0015343918	 0.2281158916	 0.102994
C	 1.5690539195	 0.0827663725	 0.384566783	-0.503911
H	-4.426630133	-0.6776686353	-2.0050815538	 0.132375
H	-5.862284607	 0.3669032326	-2.1527446878	 0.1276
H	-4.2936394358	 0.9264817251	-2.7884713491	 0.098282
H	-2.6626130006	 1.6111639336	-1.2172035515	 0.076572
H	-3.7260914684	 1.6334153912	 1.6626753424	 0.139187
H	-2.1429705703	 2.2619581826	 1.1466032774	 0.127793
H	-3.6419110004	 3.0332706861	 0.5757012322	 0.130519
H	 1.8505090695	-0.0551674821	 1.4343275021	 0.165336
H	 2.068922085	-0.6991278548	-0.1971040542	 0.164865
H	 1.955411222	 1.0529627896	 0.0558711241	 0.158255
26.71	40.432	80.578	122.6447	139.4455	192.1003	215.6622	229.6774	258.2677	306.4325	337.9832	394.9266	451.1555	482.4948	566.2474	710.1032	774.2418	874.8197	943.9531	1031.3252	1044.7506	1054.3761	1085.3326	1128.3794	1165.477	1177.3809	1199.0638	1248.2543	1312.803	1370.276	1399.2415	1409.8474	1469.8245	1473.2953	1478.3918	1483.8864	1485.6751	1500.5516	1513.5325	1765.8586	2334.7224	2937.3547	2983.0625	3032.6402	3052.3804	3070.2729	3096.4719	3100.2466	3122.2784	3129.9534	3138.9081
COC(C)C(=O)C#CC	CO[C@@H](C)C(=O)C#CC	
InChI=1S/C7H10O2/c1-4-5-7(8)6(2)9-3/h6H,1-3H3	InChI=1S/C7H10O2/c1-4-5-7(8)6(2)9-3/h6H,1-3H3/t6-/m0/s1
