19
gdb 2339	2.5938921	1.5012843	1.2695914	2.0383	74.49	-0.2323	-0.01823	0.21407	1063.6889	0.157149	-422.583819	-422.575548	-422.574604	-422.616888	31.885	
O	-3.2354701637	-1.5031779271	 0.5807019433	-0.486074
C	-2.272757246	-0.7898519398	-0.155920972	 0.435236
C	-2.2737943691	-1.2655027951	-1.6310833421	-0.259392
C	-0.7891429087	-1.7034432865	-1.5051280104	-0.230204
C	-0.7603659364	-1.2058327842	-0.0198092127	-0.192982
C	 0.0175533824	 0.08632522	 0.1585781635	 0.398554
O	 1.1517609753	 0.1918814619	 0.5516450686	-0.322339
C	-0.9054024737	 1.2514324971	-0.2289999557	-0.33092
C	-2.3219780061	 0.7361643339	 0.0725095631	-0.290856
H	-3.1720148688	-1.2377038407	 1.5050250706	 0.274607
H	-2.9738881416	-2.0878439838	-1.7861975714	 0.121117
H	-2.479575837	-0.4860702097	-2.3695342629	 0.098868
H	-0.628659642	-2.7786820355	-1.5946712907	 0.119357
H	-0.0857767921	-1.1981134946	-2.1713277426	 0.110905
H	-0.494511363	-1.9579752456	 0.7233732547	 0.090343
H	-0.6240410184	 2.1654516489	 0.2968559178	 0.128241
H	-0.7748049317	 1.4417006168	-1.3029088646	 0.130332
H	-2.5571344177	 0.9190863909	 1.1300660098	 0.094516
H	-3.1058376016	 1.2159463731	-0.5204639264	 0.110689
50.2902	129.0145	198.882	282.9079	322.6561	365.5108	384.3165	471.233	518.3435	546.2978	622.3952	667.2047	726.6865	766.9698	814.3234	836.8146	918.9178	949.7808	954.7039	970.752	988.7509	1029.9711	1078.689	1113.0978	1138.5047	1153.6768	1171.3856	1215.7819	1231.1228	1246.235	1264.7487	1273.7035	1282.721	1290.5946	1340.1312	1387.4039	1461.616	1470.0322	1487.3265	1495.1848	1838.0969	3013.5209	3030.4857	3063.7667	3071.544	3086.9427	3110.1125	3119.1204	3119.5055	3135.2149	3795.6354
OC12CCC1C(=O)CC2	O[C@]12CC[C@H]1C(=O)CC2	
InChI=1S/C7H10O2/c8-6-2-4-7(9)3-1-5(6)7/h5,9H,1-4H2	InChI=1S/C7H10O2/c8-6-2-4-7(9)3-1-5(6)7/h5,9H,1-4H2/t5-,7-/m0/s1
