19
gdb 2878	2.8189193	1.8016146	1.6021313	2.1775	72.82	-0.23238	0.08511	0.31749	936.4648	0.159629	-422.56098	-422.553806	-422.552862	-422.592297	28.717	
C	 0.0390300692	 0.1532456208	-0.0157530851	-0.410371
C	 1.5565600646	-0.0402949421	 0.0155319377	-0.015292
C	 2.0027612253	-0.9388386884	 1.1613876112	-0.119667
C	 3.3634730674	-1.58397776	 0.9397357002	-0.132521
C	 4.2344548256	-1.051442733	-0.1846122823	-0.088817
O	 3.4694888508	-0.6947692708	-1.3418380129	-0.26997
C	 2.0846657324	-0.8771406017	-1.1738586528	 0.164012
O	 1.7939141708	-2.2263000202	-0.8319343567	-0.25464
C	 2.1092993304	-2.3122272798	 0.5436062891	 0.097443
H	-0.3105202046	 0.6527258311	 0.8936187426	 0.113871
H	-0.2628528296	 0.7673502886	-0.8707026187	 0.114782
H	-0.4724169387	-0.8109971507	-0.0916791064	 0.131584
H	 2.0649208088	 0.9290129491	 0.0132715869	 0.084326
H	 1.62344686	-0.779168092	 2.1637537494	 0.086323
H	 3.9008272505	-1.9319999261	 1.8163495713	 0.092266
H	 4.7988956965	-0.1690686031	 0.1487751095	 0.102557
H	 4.9638004389	-1.8140596718	-0.4875827616	 0.11095
H	 1.626116206	-0.6621337573	-2.1397819285	 0.090746
H	 1.7814681756	-3.2373252126	 0.9992567672	 0.102418
131.2746	206.9413	217.2315	274.4202	416.5161	438.785	515.6172	582.8147	695.558	719.8619	773.0691	777.7051	809.7451	894.3375	909.4796	914.2251	956.2483	978.9484	1003.1693	1031.429	1048.9753	1073.4508	1097.9607	1108.5314	1124.6083	1134.2607	1142.8862	1158.474	1251.197	1264.3252	1283.4918	1318.1774	1335.5832	1368.09	1377.4626	1407.8	1410.0785	1438.8658	1495.909	1501.1973	1524.9232	2997.0371	3030.6775	3034.1012	3060.0099	3099.789	3113.8743	3117.4713	3158.2383	3179.2929	3203.0264
CC1C2C3COC1OC23	C[C@H]1[C@@H]2[C@@H]3CO[C@H]1O[C@H]23	
InChI=1S/C7H10O2/c1-3-5-4-2-8-7(3)9-6(4)5/h3-7H,2H2,1H3	InChI=1S/C7H10O2/c1-3-5-4-2-8-7(3)9-6(4)5/h3-7H,2H2,1H3/t3-,4-,5+,6-,7-/m0/s1
