19
gdb 6031	3.9329042	0.8895681	0.791125	2.1555	76.13	-0.24609	-0.00094	0.24515	1444.3747	0.156955	-422.540274	-422.531684	-422.53074	-422.574078	31.919	
O	 1.3414403463	 0.7928322642	-0.0388916013	-0.416638
C	 0.3941361691	-0.0669514174	 0.5712255898	-0.06195
C	-0.9241074323	 0.6408115384	 0.8969245877	-0.220898
C	-1.993376226	-0.2930671208	 1.4926814295	-0.074381
C	-3.1943766831	 0.4563061997	 2.0444607045	-0.089373
C	-4.332541107	 0.1438659122	 1.4197493848	-0.095404
C	-4.0813306527	-0.9192169493	 0.4028528271	-0.000496
O	-3.5753377895	-2.1485671312	 0.9787234749	-0.262529
C	-2.6377683359	-1.2133667152	 0.4511052044	 0.039771
H	 1.5372797506	 1.5027036365	 0.5811650638	 0.280952
H	 0.2308386763	-0.8764258739	-0.1481755087	 0.116055
H	 0.8005647801	-0.5309064588	 1.485238528	 0.089065
H	-0.7214794107	 1.4499410785	 1.6124233832	 0.087263
H	-1.3093704992	 1.1198177896	-0.0110867088	 0.111506
H	-1.5332176247	-0.8989104626	 2.2866968402	 0.096997
H	-3.1006659802	 1.1480417405	 2.8751084025	 0.101011
H	-5.3122696939	 0.5525343274	 1.6328946522	 0.104285
H	-4.7012341413	-1.0478055583	-0.4790047509	 0.097452
H	-2.0721319459	-1.5540976694	-0.4128789828	 0.097312
84.8107	92.2031	111.9563	214.8175	294.385	322.3804	338.5684	397.6332	477.8727	608.3939	703.9226	757.6706	781.3908	798.8482	848.6553	859.2485	900.8268	951.9236	977.7705	981.8256	1026.442	1050.692	1067.0382	1080.494	1094.8604	1112.1195	1136.7682	1170.7707	1242.7336	1251.572	1285.0174	1303.1963	1335.4527	1339.3613	1376.718	1396.5357	1408.7709	1425.4757	1485.9895	1512.9506	1660.0918	2968.3392	3008.4811	3011.4884	3060.2119	3077.7983	3139.1301	3166.2368	3184.0393	3219.0197	3813.2971
OCCC1C=CC2OC12	OCC[C@H]1C=C[C@@H]2O[C@H]12	
InChI=1S/C7H10O2/c8-4-3-5-1-2-6-7(5)9-6/h1-2,5-8H,3-4H2	InChI=1S/C7H10O2/c8-4-3-5-1-2-6-7(5)9-6/h1-2,5-8H,3-4H2/t5-,6+,7-/m1/s1
