19
gdb 1418	2.6628005	1.601036	1.4657213	1.7838	75.27	-0.25	0.06897	0.31897	1004.7808	0.155373	-422.500232	-422.491736	-422.490791	-422.53242	33.557	
C	-0.0550360409	-0.1860831456	 0.1615068825	-0.47352
C	 1.4471933839	-0.0704752792	-0.0366109036	 0.336121
O	 2.1573576527	-0.7168503056	 1.0090695309	-0.494036
C	 2.0401860777	-0.2162852339	-1.4618372464	-0.115659
C	 1.6513474152	 1.256265157	-1.8525849324	-0.097947
C	 3.0805792567	 1.5743257673	-2.3376221984	-0.283167
C	 3.2937720054	 0.6561479022	-1.1178841705	-0.115737
C	 2.0686161176	 1.3007961968	-0.3521585993	 0.389398
O	 2.0524439668	 2.4469234717	 0.4152231623	-0.482667
H	-0.3429955453	 0.2328199059	 1.1306605746	 0.127102
H	-0.6100589236	 0.3391038909	-0.6201661609	 0.125768
H	-0.3707205594	-1.2371653522	 0.14083323	 0.104451
H	 1.8015141176	-1.6049710005	 1.1154263918	 0.276497
H	 2.0260328451	-1.0746494372	-2.1315751243	 0.070117
H	 0.695470431	 1.5822009849	-2.2632833108	 0.072577
H	 3.3680512169	 1.1714408623	-3.3136982858	 0.088181
H	 3.4096094077	 2.6121548018	-2.2355176757	 0.102562
H	 4.2176188929	 0.2945889498	-0.6699706127	 0.078217
H	 2.4780826922	 2.2416818636	 1.2557389787	 0.291743
188.0393	197.3237	212.8654	229.6369	269.0897	302.3122	330.1163	371.4469	393.5989	555.317	572.6176	622.2486	679.8243	754.7308	831.6204	875.8258	886.0627	912.128	924.4644	928.6753	965.8756	1011.0682	1040.2476	1074.9668	1076.1395	1092.145	1137.7511	1147.3017	1151.0175	1179.2515	1208.7319	1231.155	1240.4407	1261.8726	1297.2222	1371.4907	1408.5635	1422.0348	1489.5266	1496.1784	1507.4748	3023.3978	3045.3526	3089.5753	3104.136	3106.5347	3120.7115	3126.8251	3136.8168	3798.4475	3810.9597
CC1(O)C2C3CC2C13O	C[C@@]1(O)[C@H]2[C@@H]3C[C@H]2[C@]13O	
InChI=1S/C7H10O2/c1-6(8)5-3-2-4(5)7(3,6)9/h3-5,8-9H,2H2,1H3	InChI=1S/C7H10O2/c1-6(8)5-3-2-4(5)7(3,6)9/h3-5,8-9H,2H2,1H3/t3-,4+,5-,6-,7-/m1/s1
