19
gdb 1553	2.6953417	1.5846552	1.3307852	2.6348	74.58	-0.24885	-0.0138	0.23504999999999998	1036.2433	0.156243	-422.55652	-422.548186	-422.547242	-422.588893	32.353	
C	-1.1367946455	 1.2866766941	-2.604357726	-0.456618
C	-1.8241489621	 0.7984047089	-1.3252220831	 0.317299
C	-3.1828851212	 1.4771174348	-1.1299312355	-0.450561
C	-1.9399128867	-0.775712043	-1.2429789263	-0.284443
C	-1.1002592278	-1.0155773904	 0.0222739199	-0.043582
O	-1.5322717004	 0.073762254	 0.9067869269	-0.29503
C	-0.9296978269	 0.9871725349	-0.0693214279	-0.081432
C	 0.1370121652	-0.119413854	-0.2183357458	 0.455302
O	 1.3210519734	-0.2246411962	-0.2746501645	-0.320578
H	-0.16483504	 0.8051325992	-2.7543013184	 0.129442
H	-1.7556850157	 1.072493031	-3.481846734	 0.121693
H	-0.9710840547	 2.3693711027	-2.5730957562	 0.119499
H	-3.6262285635	 1.1847233223	-0.1745443438	 0.133005
H	-3.0871046539	 2.5686451722	-1.1473111789	 0.112373
H	-3.8746341564	 1.1899250226	-1.9297474706	 0.115191
H	-2.972004118	-1.1064386265	-1.1032214006	 0.114645
H	-1.5269126079	-1.2808860446	-2.1210711264	 0.112441
H	-1.0694292978	-1.9959839496	 0.49337739	 0.103224
H	-0.7345663	 1.9899715376	 0.3077287512	 0.098128
123.7315	159.1717	230.2788	253.4941	259.7217	327.9017	363.3635	423.9447	460.0279	518.7113	580.1255	641.5253	753.2026	775.8701	858.1012	871.27	889.9323	937.0687	944.0622	960.0817	964.3247	1032.137	1034.6365	1058.8448	1076.1845	1155.262	1198.9549	1207.1673	1236.5845	1261.0168	1265.8391	1293.2795	1326.5331	1400.2158	1423.4464	1486.2303	1487.8067	1489.4187	1503.8167	1512.4878	1922.4857	3026.4938	3030.4375	3060.1354	3090.1091	3096.5956	3102.149	3110.4498	3118.7616	3143.379	3152.034
CC1(C)CC2OC1C2=O	CC1(C)C[C@@H]2O[C@H]1C2=O	
InChI=1S/C7H10O2/c1-7(2)3-4-5(8)6(7)9-4/h4,6H,3H2,1-2H3	InChI=1S/C7H10O2/c1-7(2)3-4-5(8)6(7)9-4/h4,6H,3H2,1-2H3/t4-,6-/m0/s1
