19
gdb 2681	2.1705685	1.2718233	0.9227366	2.9436	78.11	-0.24821	-0.02396	0.22424999999999998	1299.817	0.155143	-422.526866	-422.517653	-422.516709	-422.561294	32.85	
C	 1.081084281	 1.1594417331	-0.0245456641	-0.416249
C	 0.9370420064	-0.3450245581	 0.0209653544	-0.095392
C	 1.9621430269	-1.1838618473	 0.7956463743	-0.186664
C	 1.4698408624	-2.3168246381	 1.6066460199	 0.163624
O	 1.963913763	-2.6950896216	 2.6400604003	-0.267874
C	 1.8534109791	-1.2464494401	-0.7169582573	 0.262692
C	 1.5319178341	-2.4376483448	-1.6195759573	-0.143873
O	 2.5348604858	-2.0103500078	-2.5653986881	-0.271743
C	 2.9369629797	-0.9000902629	-1.7347867548	-0.137157
H	 0.6746108402	 1.620530364	 0.8809074189	 0.132874
H	 2.1307505918	 1.4573393017	-0.1082365899	 0.124545
H	 0.5460051273	 1.5769132136	-0.8843119804	 0.129714
H	-0.0881106442	-0.7031178269	 0.1084701334	 0.09762
H	 2.8235190192	-0.6676624272	 1.2098153416	 0.105615
H	 0.5639509054	-2.8173011578	 1.1864733192	 0.063797
H	 1.7556461923	-3.4306075066	-1.2091322773	 0.112345
H	 0.5263780624	-2.4473638901	-2.0595825724	 0.107338
H	 3.9712948657	-1.0033101119	-1.3824390704	 0.110481
H	 2.8257850915	 0.0625843389	-2.25033101	 0.108306
74.2045	107.0075	146.0893	181.4228	204.5908	224.2348	251.1333	346.2906	422.8332	468.6824	510.761	567.2222	777.4317	856.394	911.7552	944.3174	960.5536	979.893	1034.3102	1036.5719	1048.8604	1068.0613	1084.2393	1127.4501	1129.435	1155.7581	1160.8986	1173.6819	1206.1565	1275.4673	1308.222	1322.5016	1378.8594	1418.4929	1432.9409	1479.3173	1492.1643	1506.867	1510.4137	1534.7811	1818.096	2835.9033	3001.8731	3012.6332	3035.1195	3048.5214	3049.8987	3099.4191	3104.8532	3121.439	3160.9897
CC1C(C=O)C11COC1	C[C@@H]1[C@@H](C=O)C21COC2	
InChI=1S/C7H10O2/c1-5-6(2-8)7(5)3-9-4-7/h2,5-6H,3-4H2,1H3	InChI=1S/C7H10O2/c1-5-6(2-8)7(5)3-9-4-7/h2,5-6H,3-4H2,1H3/t5-,6-/m1/s1
