19
gdb 2947	2.2807048	2.0189381	1.3658613	2.4494	75.96	-0.2295	0.01217	0.24167	989.0364	0.156825	-422.537601	-422.529565	-422.528621	-422.569229	32.986	
C	-3.6940981391	-0.7675356106	-1.6262798525	-0.441583
C	-2.3822858291	-0.6110753675	-0.8750534015	 0.47107
O	-1.7661758048	-1.8635688027	-0.9513587453	-0.497798
C	-2.3678566716	 0.078414085	 0.5765237184	-0.197134
C	-2.9839115416	 1.4261990812	 0.262221872	-0.095099
C	-2.3739932691	 1.7982018617	-0.8757292799	-0.095794
C	-1.4296062825	 0.647447103	-1.1720927461	-0.162534
C	-0.8622200394	 0.4547421074	 0.2744005033	 0.132144
O	 0.1193738754	-0.5681373335	 0.3718580533	-0.451683
H	-4.2760171647	-1.5705281909	-1.1633694455	 0.119669
H	-4.2892525374	 0.1439011852	-1.6373263905	 0.116921
H	-3.4821327576	-1.0704962374	-2.6563140141	 0.120647
H	-0.9069964298	-1.7943704969	-0.50850874	 0.284135
H	-2.6673284385	-0.4623785049	 1.4754381783	 0.057488
H	-3.7527364501	 1.9325531069	 0.8288169268	 0.100524
H	-2.5190512015	 2.682595947	-1.4797710922	 0.101419
H	-0.776705854	 0.6866739192	-2.0438529585	 0.067968
H	-0.5084770312	 1.3692648953	 0.7628718946	 0.077505
H	 0.3114337167	-0.7139050475	 1.3044867295	 0.292135
191.3407	194.9088	286.5902	303.9397	326.4992	342.9802	394.2664	429.7379	465.3904	565.2197	604.0268	618.1898	660.1126	703.2762	725.4886	848.9273	864.406	910.2194	922.2171	926.8231	962.6406	969.2139	998.8162	1058.9879	1074.8953	1123.1917	1142.0591	1145.6761	1175.0142	1188.1363	1207.4951	1234.5261	1257.8427	1286.8533	1336.2537	1395.6414	1406.7784	1471.2968	1487.3555	1495.4336	1603.9252	3045.7591	3049.2802	3107.8938	3109.1551	3123.894	3160.7128	3216.0704	3241.3449	3687.0066	3810.2254
CC1(O)C2C=CC1C2O	C[C@]1(O)[C@@H]2C=C[C@H]1[C@@H]2O	
InChI=1S/C7H10O2/c1-7(9)4-2-3-5(7)6(4)8/h2-6,8-9H,1H3	InChI=1S/C7H10O2/c1-7(9)4-2-3-5(7)6(4)8/h2-6,8-9H,1H3/t4-,5+,6-,7+
