19
gdb 3461	2.4928854	1.7149488	1.2454118	2.3012	75.64	-0.24572	-0.00729	0.23843	1063.0497	0.155387	-422.561687	-422.55275	-422.551806	-422.594594	34.217	
C	-3.201743084	 0.9334008158	 3.4573951106	-0.497097
C	-2.2885477079	 0.9033179805	 2.2661805599	 0.325578
O	-1.0171039112	 1.6183323998	 2.4062519111	-0.349432
C	-1.0009260628	 0.197902177	 2.1573884144	 0.29602
C	-0.3357900333	-0.6681767516	 3.187106155	-0.499685
C	-0.7351803617	-0.0629778646	 0.6609617612	 0.042459
O	 0.4577815364	 0.5665976563	 0.2219465697	-0.436291
C	-1.9810094728	 0.4921198799	-0.0121229554	-0.130717
C	-2.8285507216	 1.0245388335	 0.8676866456	-0.123833
H	-3.9613380797	 0.1482501203	 3.3792620076	 0.127962
H	-2.6454232014	 0.7929519811	 4.3862596034	 0.133079
H	-3.7211601021	 1.8962222547	 3.5163154253	 0.13167
H	-0.647565565	-1.7122138982	 3.0764304997	 0.123139
H	 0.7509885093	-0.6265578033	 3.0552152268	 0.140188
H	-0.5702015189	-0.3361151886	 4.2008148598	 0.127754
H	-0.5988814173	-1.1321392155	 0.4601563605	 0.088057
H	 0.3963256526	 1.4743487539	 0.5503500501	 0.288173
H	-2.0838257605	 0.5028371519	-1.0910654517	 0.108962
H	-3.7695881581	 1.5136418672	 0.6423976863	 0.104015
122.6617	171.9098	187.8116	205.3254	242.5818	281.9915	309.7794	374.3918	464.3696	495.3762	535.8212	574.622	595.3781	679.1585	700.2194	777.7563	830.6014	865.5086	899.6935	955.168	962.9798	1000.6919	1064.0488	1068.9207	1089.5449	1107.086	1167.8101	1208.6648	1232.2375	1274.1667	1317.3992	1364.3262	1409.9705	1414.9669	1434.402	1458.4169	1475.8254	1487.6235	1495.2821	1511.144	1671.5443	3035.8852	3037.8986	3046.2704	3096.9576	3099.4081	3126.5086	3133.0818	3187.3811	3213.1996	3753.9562
CC12OC1(C)C(O)C=C2	C[C@@]12O[C@]1(C)[C@H](O)C=C2	
InChI=1S/C7H10O2/c1-6-4-3-5(8)7(6,2)9-6/h3-5,8H,1-2H3	InChI=1S/C7H10O2/c1-6-4-3-5(8)7(6,2)9-6/h3-5,8H,1-2H3/t5-,6+,7-/m1/s1
