19
gdb 995	2.0366417	1.0971994	0.7475331	2.7192	81.11	-0.2417	-0.0283	0.2134	1529.2023	0.152071	-422.539518	-422.528093	-422.527149	-422.578056	38.137	
C	 1.496982695	 0.0334260502	 0.0948919027	-0.499359
C	 0.0421503848	 0.0160259211	 0.0515174423	 0.075886
C	-1.1616278499	 0.0072877852	 0.020400402	 0.068598
C	-2.6208546258	 0.0226468343	-0.0484281694	-0.203998
C	-3.1811302022	-1.1958304964	-0.8066635683	-0.386916
C	-3.1263424687	 1.345602261	-0.684175469	 0.053915
O	-4.5456673759	 1.4133819761	-0.7043116504	-0.423114
C	-2.596011078	 2.5655338525	 0.0627238009	 0.159166
O	-1.8206112634	 3.3712312214	-0.3724885513	-0.235074
H	 1.8687391559	-0.2282446556	 1.0916075195	 0.148749
H	 1.9247355157	-0.6805204919	-0.6173908152	 0.14941
H	 1.8852572974	 1.0266032258	-0.1551998028	 0.157626
H	-3.0176729338	-0.0021076981	 0.9801855808	 0.090994
H	-2.9077676722	-2.1219533427	-0.2952649055	 0.124289
H	-4.2693289406	-1.13021991	-0.8736914471	 0.127322
H	-2.7724569659	-1.232803535	-1.8206372102	 0.129404
H	-2.7974358077	 1.4089379481	-1.7245148165	 0.120275
H	-4.8656282959	 1.3567769513	 0.2043852568	 0.285413
H	-3.0386938389	 2.6748885229	 1.0856528707	 0.057414
28.4623	50.4046	56.1173	88.0297	141.826	215.1446	228.2188	274.5715	286.1975	302.3734	331.9207	351.6682	413.1478	485.0264	535.1968	542.1727	761.3882	879.9313	962.3285	997.7783	1051.3833	1052.768	1055.0373	1069.3108	1106.3667	1120.0248	1186.2175	1232.8397	1264.8961	1333.3495	1350.4851	1397.6974	1406.5262	1414.4786	1424.3473	1477.2053	1478.0938	1492.0672	1498.9085	1849.3454	2370.7268	2808.3893	2964.7536	3029.3097	3049.3541	3090.1783	3093.0395	3097.9739	3123.4433	3135.9982	3784.161
CC#CC(C)C(O)C=O	CC#C[C@H](C)[C@@H](O)C=O	
InChI=1S/C7H10O2/c1-3-4-6(2)7(9)5-8/h5-7,9H,1-2H3	InChI=1S/C7H10O2/c1-3-4-6(2)7(9)5-8/h5-7,9H,1-2H3/t6-,7-/m0/s1
