19
gdb 2221	2.5043927	2.0278537	1.802176	0.4954	73.	-0.24126	0.08242	0.32367999999999997	892.9695	0.159484	-422.573207	-422.566364	-422.56542	-422.603891	28.505	
C	-0.0476466139	 0.0939869605	-0.0831724153	-0.512149
C	 1.3771470261	 0.3064047821	 0.3421944568	 0.412518
O	 2.1579546321	 0.96931386	-0.6328824174	-0.292061
C	 3.4070862041	 1.001830852	 0.0796241077	 0.045175
C	 3.6396552725	-0.499383813	 0.3789826667	-0.229039
C	 2.2469020112	-0.8652428467	 0.9174653549	 0.030544
O	 2.0843931856	-0.3620976429	 2.2641176499	-0.307442
C	 1.7348265998	 0.937385199	 1.7329306703	 0.03052
C	 3.0067473893	 1.7286101257	 1.3868632566	-0.229038
H	-0.6031064996	-0.4196078141	 0.7065370035	 0.132753
H	-0.5371233684	 1.0513148864	-0.2868456175	 0.128526
H	-0.0933179797	-0.5134591233	-0.9922802074	 0.128501
H	 4.1635219154	 1.4931382553	-0.5314358314	 0.078771
H	 3.8626078672	-1.0326085716	-0.5500699709	 0.10508
H	 4.4228405832	-0.70038319	 1.1130944568	 0.109294
H	 1.9449546281	-1.9098781272	 0.8199170489	 0.076839
H	 0.9895601743	 1.4534259923	 2.3413952205	 0.076838
H	 2.7802454993	 2.7775954044	 1.1735535976	 0.105079
H	 3.7495386334	 1.6698057208	 2.1853008298	 0.109293
214.386	239.5129	256.4418	358.3498	402.3869	456.9737	555.9016	617.203	638.8835	650.0609	793.8122	836.3278	862.2878	872.9595	897.2558	911.0691	912.3626	945.8522	985.1102	992.2383	1012.7604	1018.3663	1095.2877	1120.6593	1139.5298	1146.7143	1171.5962	1185.4681	1212.3834	1263.0969	1298.5159	1302.7835	1337.6699	1338.012	1358.1209	1361.9353	1418.4702	1457.9131	1472.0624	1484.0388	1495.0128	3041.0776	3059.681	3060.3566	3093.4936	3097.0576	3110.5077	3120.5213	3120.5671	3124.2879	3125.4912
CC12OC3CC1OC2C3	C[C@]12O[C@@H]3C[C@H]1O[C@H]2C3	
InChI=1S/C7H10O2/c1-7-5-2-4(9-7)3-6(7)8-5/h4-6H,2-3H2,1H3	InChI=1S/C7H10O2/c1-7-5-2-4(9-7)3-6(7)8-5/h4-6H,2-3H2,1H3/t4-,5-,6+,7+
