19
gdb 5165	3.1694058	1.3050534	1.0731138	2.1131	77.33	-0.23304	0.01627	0.24931	1156.0434	0.157276	-422.536878	-422.528374	-422.52743	-422.569936	32.161	
O	 1.4481800549	 0.3819436534	-0.45811091	-0.419168
C	 0.0882926485	 0.283802326	-0.0527899032	-0.15478
C	-0.7787193725	 0.4673938129	-1.2772167741	 0.277805
C	-1.012517641	-0.7530376987	-2.158360483	-0.328933
C	-2.1269225638	-0.2011906241	-1.3091927645	 0.037922
O	-3.1761505435	 0.4394747847	-1.9758849208	-0.260749
C	-3.1971334534	 1.857385447	-1.864229239	-0.122713
C	-1.8548689596	 2.4894605993	-2.1341876526	-0.084023
C	-0.7297525672	 1.8217743335	-1.8909946547	-0.139096
H	 1.9953806453	 0.4095224496	 0.3323055451	 0.287949
H	-0.1196035541	-0.6973889137	 0.403796867	 0.082398
H	-0.1572774315	 1.0562585226	 0.6928859368	 0.08997
H	-1.1021480831	-0.5883610322	-3.2254228721	 0.123061
H	-0.5424408115	-1.6862786306	-1.8662462816	 0.111361
H	-2.4501155171	-0.7690092795	-0.4371176065	 0.083571
H	-3.9378851592	 2.1940958752	-2.5967171336	 0.116349
H	-3.5688732959	 2.1629245212	-0.87018248	 0.099018
H	-1.8459568263	 3.4982120874	-2.5365402474	 0.094412
H	 0.2497921509	 2.2448781461	-2.089633376	 0.105647
87.8404	135.8116	166.0546	243.7602	249.683	301.3096	364.1997	429.0727	491.8312	519.205	592.7474	694.7181	727.914	800.6939	876.1215	915.78	923.0482	946.1151	971.2331	996.8236	1040.088	1048.3461	1053.1351	1064.337	1077.5801	1116.0363	1176.9623	1193.3844	1229.2074	1248.7387	1265.4376	1269.9695	1334.9218	1378.5005	1415.6067	1419.5474	1459.2959	1477.0217	1496.1808	1516.9285	1713.6883	2948.5227	2961.9681	2996.1066	3069.6417	3101.5187	3136.4985	3165.8854	3189.0349	3233.0887	3828.0436
OCC12CC1OCC=C2	OC[C@@]12C[C@@H]1OCC=C2	
InChI=1S/C7H10O2/c8-5-7-2-1-3-9-6(7)4-7/h1-2,6,8H,3-5H2	InChI=1S/C7H10O2/c8-5-7-2-1-3-9-6(7)4-7/h1-2,6,8H,3-5H2/t6-,7+/m0/s1
