19
gdb 4858	1.9682268	1.5750237	1.4907573	1.9997	76.05	-0.24346	-0.02315	0.22031	1064.0101	0.155529	-422.592139	-422.582785	-422.581841	-422.626564	34.262	
C	-0.6413574116	 2.0621997148	 1.1516027762	-0.435909
C	-1.0112143466	 1.2010901431	-0.07469278	 0.098459
C	-0.8300551315	 2.0433950874	-1.356436707	-0.092141
O	-0.972217068	 1.290804071	-2.5469625247	-0.429049
C	-2.3737774832	 0.5625210053	 0.0563643215	-0.079244
C	-2.3262692753	-0.7619958732	 0.2009200265	-0.090363
C	-0.9189539076	-1.2951517035	 0.1661230983	-0.37378
C	-0.0938978096	-0.0414094872	-0.146318189	 0.378834
O	 1.0714571105	-0.0155607575	-0.4557230199	-0.337292
H	-0.7892373401	 1.5103913715	 2.0842109943	 0.123128
H	 0.4061623919	 2.3741642024	 1.0953937241	 0.134975
H	-1.2680751191	 2.959857322	 1.1919137397	 0.120796
H	-1.6015927689	 2.8211634325	-1.3846768561	 0.108424
H	 0.1477297882	 2.5423066778	-1.3143489244	 0.103966
H	-0.1560479173	 0.79449086	-2.6686359818	 0.293343
H	-3.2829503096	 1.1544467714	 0.0471487857	 0.099844
H	-3.189141218	-1.4054673731	 0.3270062395	 0.103017
H	-0.5912352774	-1.7328247557	 1.1193793314	 0.136187
H	-0.744042037	-2.0630485892	-0.5970947542	 0.136804
47.1806	82.7588	169.2752	208.7013	218.924	249.6603	292.7546	394.2793	414.1804	483.5649	493.2314	601.3704	624.9431	683.0049	736.1117	752.002	876.4917	930.634	937.8236	971.0962	977.4846	996.3133	1050.9776	1076.8639	1108.1905	1135.6896	1163.8777	1171.4091	1224.9693	1281.1165	1294.0236	1369.4596	1388.1789	1409.3292	1419.0508	1441.2526	1485.6648	1494.1363	1497.8263	1680.2052	1834.5082	3009.2733	3020.3552	3031.8024	3058.2427	3069.801	3101.9714	3114.729	3181.7121	3208.0672	3816.2221
CC1(CO)C=CCC1=O	C[C@]1(CO)C=CCC1=O	
InChI=1S/C7H10O2/c1-7(5-8)4-2-3-6(7)9/h2,4,8H,3,5H2,1H3	InChI=1S/C7H10O2/c1-7(5-8)4-2-3-6(7)9/h2,4,8H,3,5H2,1H3/t7-/m1/s1
