19
gdb 866	3.6039091	1.1002685	0.9468318	2.8765	76.07	-0.24494	-0.02918	0.21575999999999998	1249.918	0.15757	-422.550028	-422.541779	-422.540835	-422.583552	30.8	
O	 1.1052757462	-0.3427668857	-0.8578797171	-0.244625
C	 0.3083685255	 0.0141273856	-0.0295604168	 0.150756
C	 0.3099795843	 1.3600861018	 0.6607036464	-0.093794
C	-0.9592123421	 2.1538546063	 0.2904614138	-0.085705
O	-0.9132547652	 3.4580368213	 0.8368238909	-0.251971
C	-0.8200209464	 3.5068680054	 2.2341040166	 0.101904
C	 0.5455834385	 3.7520725199	 2.8188466857	-0.306839
C	-0.1095405763	 2.3952313477	 2.9640759092	-0.056726
C	 0.3547933311	 1.1697317402	 2.1942357503	-0.248485
H	-0.5233449869	-0.6593523218	 0.2908244933	 0.071072
H	 1.1805196225	 1.9159328608	 0.3000345832	 0.103493
H	-1.0328870135	 2.2889357027	-0.7919686091	 0.123144
H	-1.8557770542	 1.6107324389	 0.6323603465	 0.09232
H	-1.6873528723	 3.9744861568	 2.6945738428	 0.093728
H	 1.3518395395	 3.8589399598	 2.1011483306	 0.123057
H	 0.6376919295	 4.3731686828	 3.7029777305	 0.113375
H	-0.4899129243	 2.1697941464	 3.9560505125	 0.093579
H	 1.3612587995	 0.8691560589	 2.5060727837	 0.118048
H	-0.3126855254	 0.3356371221	 2.4526417871	 0.103668
52.2809	84.4051	191.957	269.8414	290.5364	346.0829	400.3442	429.7782	498.1276	559.6898	681.8495	757.6615	813.4062	850.4715	875.6113	900.5364	935.2918	990.9282	1027.8523	1047.513	1048.7599	1084.3422	1095.0827	1119.9515	1136.1197	1150.9198	1189.8336	1243.4805	1246.4165	1253.2834	1312.4509	1333.4547	1361.349	1370.5615	1409.1257	1415.9388	1431.9767	1478.2007	1492.7788	1502.0054	1833.1579	2837.8088	2970.3672	3010.3243	3057.2029	3075.7849	3094.0079	3125.2542	3134.6067	3147.2759	3223.8991
O=CC1COC2CC2C1	O=C[C@H]1CO[C@@H]2C[C@@H]2C1	
InChI=1S/C7H10O2/c8-3-5-1-6-2-7(6)9-4-5/h3,5-7H,1-2,4H2	InChI=1S/C7H10O2/c8-3-5-1-6-2-7(6)9-4-5/h3,5-7H,1-2,4H2/t5-,6-,7+/m0/s1
