19
gdb 3383	2.7094751	1.5340031	1.1973645	4.2493	74.6	-0.26102	0.01535	0.27636999999999995	1092.1572	0.158251	-422.598883	-422.590808	-422.589864	-422.631842	30.481	
C	-0.5074082302	 2.0193656261	-1.4473109772	-0.410845
C	-0.7989930307	 1.4175642683	-0.063720676	-0.142067
C	-2.1834521332	 0.7979296337	 0.0880530901	-0.027952
C	-2.7522719146	 0.6250630521	 1.5315188029	-0.253262
C	-2.7571444291	-0.9195402974	 1.3379290746	-0.234083
C	-1.9508307709	-0.7423853796	 0.0342591076	 0.101605
O	-0.5449278801	-0.9345880168	 0.2257487711	-0.229219
C	 0.1495929121	 0.2391894778	 0.1978691918	 0.421148
O	 1.3371941651	 0.2776532916	 0.3385097839	-0.34257
H	-0.7110197468	 1.297084308	-2.2451530562	 0.123581
H	-1.1320112126	 2.9004605145	-1.620985062	 0.12041
H	 0.5423245937	 2.3149605653	-1.518472382	 0.144648
H	-0.6021123723	 2.1745392322	 0.7021700465	 0.10911
H	-2.9124056681	 1.1794535194	-0.6282807903	 0.078704
H	-2.0582420806	 0.9661974412	 2.3045228134	 0.112021
H	-3.7230862252	 1.0881896388	 1.7167688741	 0.108833
H	-2.2690469853	-1.5243880117	 2.1042450984	 0.121018
H	-3.7548558776	-1.323640401	 1.1488983134	 0.1098
H	-2.2552000635	-1.3166858426	-0.8434916941	 0.089119
66.7325	112.4463	212.6384	231.7028	246.5583	351.7193	418.0718	499.9063	639.7393	641.7095	711.8059	727.3465	774.7074	799.8424	866.9957	894.1853	943.2525	957.6314	991.1474	1018.601	1042.5467	1068.2754	1096.4597	1119.2802	1143.839	1189.9179	1209.2543	1225.5984	1258.0139	1273.7307	1290.7931	1296.2241	1312.4577	1351.5601	1373.1157	1406.9559	1469.4073	1491.1645	1496.1574	1500.9046	1874.7951	3037.7082	3060.231	3065.0575	3068.5739	3083.0993	3097.8665	3107.7075	3116.6332	3126.0648	3133.1301
CC1C2CCC2OC1=O	C[C@H]1[C@@H]2CC[C@@H]2OC1=O	
InChI=1S/C7H10O2/c1-4-5-2-3-6(5)9-7(4)8/h4-6H,2-3H2,1H3	InChI=1S/C7H10O2/c1-4-5-2-3-6(5)9-7(4)8/h4-6H,2-3H2,1H3/t4-,5-,6-/m0/s1
