19
gdb 4957	2.5008443	1.627728	1.1495412	2.8101	74.46	-0.22165	0.06293	0.28458	1097.8588	0.155953	-422.488708	-422.480182	-422.479238	-422.521727	32.264	
C	 0.2722426483	 0.7855756971	-0.2705867836	-0.413004
C	 0.6053421883	-0.6924146012	-0.1078081326	-0.075287
C	 1.668078897	-1.2211877807	-1.1133318975	 0.063836
O	 1.7631826137	-2.6383730922	-0.8022557879	-0.301289
C	 2.4035222214	-2.2349456919	 0.409650528	 0.044095
C	 2.7994483854	-0.8802430847	-0.0703725975	-0.190669
C	 1.6699288403	-0.9954500044	 0.9550605354	 0.318945
C	 1.6748900146	-0.6166374683	 2.4016629328	-0.220412
O	 2.9317317843	-1.0021619953	 2.946361089	-0.42177
H	-0.3180752493	 1.1585260673	 0.5730932697	 0.116294
H	 1.1819276316	 1.3928971812	-0.3355634977	 0.117587
H	-0.3133674505	 0.9543235432	-1.1808292881	 0.115709
H	-0.3065033166	-1.3014479307	-0.0732761385	 0.070303
H	 1.6303914214	-1.0032030094	-2.1796116517	 0.081827
H	 2.9111310528	-2.9670101052	 1.0212449665	 0.118723
H	 3.736090813	-0.341774807	-0.0930468738	 0.10043
H	 1.5138228859	 0.4686979321	 2.5115735982	 0.090408
H	 0.8428042668	-1.123278784	 2.9194784217	 0.092631
H	 2.9441990117	-0.7603737557	 3.8767035375	 0.291644
86.4803	156.2626	197.1735	225.4891	237.8323	253.6438	299.0764	448.1365	512.6208	556.9518	636.0766	756.5196	769.1324	795.4336	837.3867	878.3188	911.5608	947.3995	960.8095	981.9383	1039.548	1061.3248	1064.742	1076.2536	1089.9535	1127.8016	1142.0226	1167.908	1184.6958	1228.6408	1234.3635	1258.2012	1281.1808	1304.1012	1362.3127	1410.1117	1412.0063	1472.6615	1495.5212	1499.9355	1520.9013	2952.2774	2975.2438	3026.6603	3031.1979	3092.5397	3096.7773	3133.239	3212.5919	3231.1596	3835.5011
CC1C2OC3C2C13CO	C[C@H]1[C@@H]2O[C@H]3[C@@H]2[C@@]13CO	
InChI=1S/C7H10O2/c1-3-5-4-6(9-5)7(3,4)2-8/h3-6,8H,2H2,1H3	InChI=1S/C7H10O2/c1-3-5-4-6(9-5)7(3,4)2-8/h3-6,8H,2H2,1H3/t3-,4+,5-,6-,7+/m0/s1
