19
gdb 5748	3.8921983	1.3103801	1.1748719	2.5533	74.04	-0.22687	0.0732	0.30007	1101.3055	0.157793	-422.506565	-422.498888	-422.497944	-422.538854	29.646	
C	 1.3732840058	-0.221714013	-0.2502421657	-0.234709
O	-0.0010563745	-0.1018166487	 0.0346689232	-0.248287
C	-0.2823472924	 0.6985634327	 1.15338776	 0.176795
C	 0.0918619759	 0.0843556896	 2.5397798345	-0.271371
C	-1.0595160719	 0.516624409	 3.443580684	-0.092693
C	-2.444724228	 0.0793166486	 3.0094300087	 0.104445
O	-2.4219221692	-0.3485529583	 1.6475510214	-0.301409
C	-1.7860963812	 0.9215505575	 1.2854218514	 0.043872
C	-1.9935761527	 1.4730614525	 2.7082340733	-0.163749
H	 1.9223074469	-0.7344483524	 0.5533597297	 0.108352
H	 1.463787251	-0.8110132707	-1.1658671104	 0.128533
H	 1.8416404451	 0.7624668857	-0.4136678899	 0.10084
H	 0.2036774982	 1.6856090951	 1.0436436338	 0.060694
H	 0.1525678123	-1.0041729983	 2.4448398386	 0.119504
H	 1.0521520051	 0.4512423477	 2.9109493211	 0.097574
H	-0.9039199484	 0.6649629012	 4.506373563	 0.087856
H	-3.2120414755	-0.3232122857	 3.6603069834	 0.102389
H	-2.2768256148	 1.3870725452	 0.4303176309	 0.084048
H	-2.3328883916	 2.4481143423	 3.0271620091	 0.097315
94.7143	120.9253	198.5525	242.6302	338.2008	411.603	467.5334	516.5465	670.3747	712.9978	762.5584	803.3098	806.3115	857.8608	871.4852	918.1056	978.7149	988.4921	1007.3187	1031.215	1039.7578	1058.5722	1076.9511	1078.2496	1115.25	1162.0904	1181.5534	1198.4119	1213.634	1236.2658	1258.8871	1266.7946	1284.6515	1319.9776	1355.8138	1380.1618	1406.3629	1480.8486	1484.8894	1492.9201	1508.961	2934.2787	2971.3105	3021.9145	3055.2487	3101.3662	3114.6127	3117.276	3174.9734	3184.2789	3213.4836
COC1CC2C3OC1C23	CO[C@@H]1C[C@@H]2[C@@H]3O[C@H]1[C@H]23	
InChI=1S/C7H10O2/c1-8-4-2-3-5-6(3)9-7(4)5/h3-7H,2H2,1H3	InChI=1S/C7H10O2/c1-8-4-2-3-5-6(3)9-7(4)5/h3-7H,2H2,1H3/t3-,4+,5+,6-,7+/m0/s1
