19
gdb 2517	2.2482303	1.4939727	0.932934	4.1218	81.66	-0.2435	-0.05408	0.18941999999999998	1245.5368	0.156754	-422.578217	-422.569324	-422.56838	-422.611856	32.471	
C	 1.4529795592	 0.7744362265	 0.0825878705	-0.488728
C	 0.0454357935	 0.246507973	 0.0214479288	 0.211154
C	-1.0582445973	 0.9587956968	-0.2893449103	 0.077615
C	-2.4386254021	 0.3307180969	-0.2717300494	-0.155768
O	-2.48467165	-0.925393666	 0.3727693954	-0.24293
C	-1.4475656274	-1.7779245835	-0.0652414802	-0.092522
C	-0.0883330275	-1.2213584979	 0.3561196714	-0.283941
C	-1.0408641658	 2.3729990798	-0.6892903835	 0.089426
O	-2.044773078	 2.9874423104	-0.9894240957	-0.279357
H	 1.8976700918	 0.525872991	 1.0543663458	 0.137679
H	 2.0746353417	 0.2798242152	-0.6743887259	 0.137474
H	 1.5376571221	 1.8508789792	-0.0588512361	 0.137668
H	-3.1306486087	 0.9870030771	 0.2624920746	 0.13591
H	-2.8171151911	 0.2522052671	-1.3055186799	 0.10822
H	-1.6316316273	-2.7570866091	 0.3852510299	 0.110894
H	-1.481550464	-1.8971169653	-1.1612558908	 0.091573
H	 0.0529850871	-1.3529571137	 1.438280677	 0.126903
H	 0.7213035339	-1.7853603474	-0.1259085324	 0.108498
H	-0.0530100698	 2.87381508	-0.7174173795	 0.070232
105.2148	126.8937	146.4523	172.1304	228.3354	318.3617	332.5991	346.1129	439.0716	464.1256	511.8237	588.7568	663.5315	745.6916	854.054	894.5713	963.5083	976.1522	1022.6275	1029.4001	1046.0802	1091.8556	1119.3753	1158.3223	1167.2816	1228.1152	1251.8524	1279.0355	1316.7963	1367.1178	1392.1413	1405.1705	1421.1917	1436.8886	1457.8531	1478.8327	1481.4706	1488.6374	1502.9872	1699.8616	1765.258	2926.7654	2959.5053	2967.3136	3009.9004	3026.4683	3045.1273	3069.5469	3088.9893	3094.2788	3153.2628
CC1=C(COCC1)C=O	CC1=C(COCC1)C=O	
InChI=1S/C7H10O2/c1-6-2-3-9-5-7(6)4-8/h4H,2-3,5H2,1H3	InChI=1S/C7H10O2/c1-6-2-3-9-5-7(6)4-8/h4H,2-3,5H2,1H3
