19
gdb 5794	4.3813437	0.9874147	0.8744035	1.6857	78.59	-0.2354	0.00751	0.24291	1329.7934	0.157456	-422.519532	-422.511194	-422.51025	-422.552653	31.358	
O	-0.0831054746	 1.4855941435	 0.0476948461	-0.421899
C	 0.0274962866	 0.0701183208	 0.041981494	-0.08976
C	-1.3805031313	-0.5100945852	-0.0371945541	-0.005524
C	-1.3951707168	-2.0787573574	 0.0162167121	-0.288043
C	-2.6394618583	-2.4291729812	-0.8124337313	 0.108278
O	-2.5805609763	-3.3023272712	-1.9970872423	-0.309266
C	-3.1124391135	-2.2315316332	-2.8393976121	-0.155497
C	-2.7893956583	-1.2624491757	-1.730412354	 0.183707
C	-2.0601542476	-0.2120331573	-1.3777216561	-0.203156
H	 0.8029080413	 1.8591626057	 0.0415529227	 0.288111
H	 0.616680341	-0.2821224248	-0.8205877321	 0.086462
H	 0.5244317714	-0.2968329755	 0.9547324423	 0.088609
H	-1.9452188049	-0.0908966181	 0.8071925861	 0.091545
H	-0.5087551264	-2.4660330604	-0.4996119841	 0.114807
H	-1.4034952119	-2.4753635981	 1.0353013183	 0.097635
H	-3.502817676	-2.7174556207	-0.1977566458	 0.07863
H	-2.5644378578	-2.1194822532	-3.7807834859	 0.118788
H	-4.1782156292	-2.391673207	-3.0501179261	 0.106627
H	-1.8397496075	 0.6819807289	-1.9472176676	 0.109946
79.6754	121.8389	196.179	226.135	267.1577	313.7732	344.8774	449.7483	464.2385	597.4197	644.2067	763.2125	835.014	855.3699	868.5123	906.8206	925.1236	959.3501	992.5539	1009.2228	1051.2745	1059.0459	1081.8912	1092.9815	1136.186	1141.2352	1171.8216	1219.2385	1238.1657	1243.5086	1269.996	1297.3193	1304.7676	1337.6986	1355.5037	1363.536	1453.9491	1477.5109	1510.0159	1519.3055	1745.7057	2960.1575	2988.1253	3006.5493	3013.2157	3014.1123	3044.0399	3073.5458	3100.9223	3216.8369	3830.533
OCC1CC2OCC2=C1	OC[C@@H]1C[C@@H]2OC[C]2[CH]1	
InChI=1S/C7H10O2/c8-3-5-1-6-4-9-7(6)2-5/h1,5,7-8H,2-4H2	InChI=1S/C7H10O2/c8-3-5-1-6-4-9-7(6)2-5/h1,5,7-8H,2-4H2/t5-,7-/m0/s1
