19
gdb 4522	3.2137633	1.3225243	1.0695551	0.659	77.75	-0.24469	0.00241	0.2471	1144.9321	0.158506	-422.543027	-422.535118	-422.534174	-422.575303	30.859	
O	 0.123395702	 1.4330124728	-0.0452521305	-0.432704
C	 0.0256978563	 0.0046601511	-0.042712117	 0.108421
C	-1.449835971	-0.4680357225	-0.1095687722	-0.236227
C	-2.135337423	-0.5889176923	 1.2717794534	-0.259183
C	-1.3350565743	-1.6440316027	 2.0147611947	 0.110504
O	-1.3263365237	-1.6806106365	 3.4720714713	-0.310291
C	 0.1308311676	-1.6780385417	 3.4943003864	-0.163672
C	 0.1248452488	-1.2980861458	 2.0349418046	 0.253467
C	 0.7656070688	-0.5313046234	 1.1663524932	-0.266535
H	-0.1665847369	 1.7424347854	 0.8201711907	 0.278035
H	 0.5258561763	-0.2913881966	-0.9721339845	 0.093445
H	-1.9861010739	 0.2335508798	-0.7537047981	 0.113035
H	-1.4870367076	-1.4477593439	-0.6037445164	 0.101771
H	-2.0852171155	 0.3576893372	 1.822551592	 0.097398
H	-3.1905174251	-0.8550905554	 1.1595569141	 0.103331
H	-1.5667418923	-2.646261816	 1.6214242814	 0.081955
H	 0.540357198	-0.9483505951	 4.2019791336	 0.119985
H	 0.5302655913	-2.6743863364	 3.7306646242	 0.109497
H	 1.7692443241	-0.1495503279	 1.333885329	 0.097769
94.8442	182.6419	216.9855	288.1955	326.4282	350.1258	439.732	443.9874	466.7107	539.2846	694.1053	749.3934	795.0078	838.1462	875.8112	878.0448	956.5732	967.4938	979.3139	986.3471	1037.1746	1067.3745	1086.52	1111.6373	1115.9137	1140.9494	1167.6887	1200.7499	1257.6502	1280.5261	1301.7016	1323.5378	1332.9227	1365.1035	1370.7156	1387.0499	1420.9664	1478.132	1494.6897	1509.4193	1785.5319	2976.1439	3001.8291	3023.6587	3040.385	3044.5052	3061.5801	3090.6514	3098.0815	3166.0488	3798.8026
OC1CCC2OCC2=C1	O[C@@H]1CC[C@@H]2OC[C]2[CH]1	
InChI=1S/C7H10O2/c8-6-1-2-7-5(3-6)4-9-7/h3,6-8H,1-2,4H2	InChI=1S/C7H10O2/c8-6-1-2-7-5(3-6)4-9-7/h3,6-8H,1-2,4H2/t6-,7+/m1/s1
