19
gdb 3442	2.2592667	1.5926738	1.0737591	0.67	77.68	-0.23912	0.01542	0.25454	1164.2255	0.156781	-422.557544	-422.548909	-422.547965	-422.590775	32.615	
C	 1.3753432103	 0.8650416301	 0.4537621095	-0.473914
C	 0.0658115849	 0.1335104377	 0.3401724273	 0.326654
C	-0.0124896519	-1.1934245345	 0.445366019	-0.141573
C	-1.2690447303	-2.0082556668	 0.3444784697	 0.019118
O	-1.1643129159	-2.8211222086	-0.8307974243	-0.429343
C	-2.5295157042	-1.1661278544	 0.2817000613	 0.014759
O	-2.7864681658	-0.3318666714	 1.4124370493	-0.265338
C	-2.4654516072	 0.2935592554	 0.1618596024	 0.060121
C	-1.1392351818	 1.0086663094	 0.0882937923	-0.335686
H	 1.3601733015	 1.569806913	 1.2952081383	 0.126032
H	 2.2117616935	 0.1770567868	 0.5991697719	 0.124266
H	 1.5744489625	 1.4605330556	-0.4466611853	 0.123787
H	 0.8938467068	-1.7730221471	 0.6016144857	 0.085319
H	-1.3392058161	-2.6554569333	 1.2353006363	 0.080223
H	-1.8164713205	-3.5262781397	-0.7596669586	 0.283125
H	-3.405237612	-1.6916097814	-0.1051299534	 0.079155
H	-3.306928456	 0.8150963696	-0.2951171096	 0.089818
H	-1.04531258	 1.4712720976	-0.9054091635	 0.116167
H	-1.143172168	 1.8479243621	 0.7988382716	 0.117309
71.1813	139.6608	198.7651	243.6586	272.6445	321.6276	339.9219	398.0874	438.1182	489.2574	531.6353	581.6455	740.0798	794.9928	834.7484	868.9897	907.1827	928.8449	958.3242	1024.4695	1029.3215	1053.8147	1069.8102	1084.0988	1104.5744	1157.9568	1178.0619	1237.222	1246.5309	1286.401	1327.3912	1352.4478	1385.4385	1401.6731	1413.8082	1424.7904	1461.1846	1479.602	1488.8369	1491.7292	1751.0552	2953.3393	2999.6267	3016.4703	3024.1907	3062.2185	3084.1393	3107.281	3116.1005	3158.3501	3807.0785
CC1=CC(O)C2OC2C1	CC1=C[C@H](O)[C@H]2O[C@H]2C1	
InChI=1S/C7H10O2/c1-4-2-5(8)7-6(3-4)9-7/h2,5-8H,3H2,1H3	InChI=1S/C7H10O2/c1-4-2-5(8)7-6(3-4)9-7/h2,5-8H,3H2,1H3/t5-,6-,7+/m0/s1
