19
gdb 5631	3.1178639	1.2392367	1.0004849	0.8681	75.69	-0.24344	0.00365	0.24708999999999998	1200.0693	0.158148	-422.545124	-422.536907	-422.535962	-422.578271	30.791	
O	 1.297628201	 0.6369630794	-0.0862536011	-0.419357
C	 0.3216857101	-0.1313925951	 0.5966307389	-0.081563
C	-0.9369902858	 0.6772928345	 0.9574072949	-0.057875
C	-2.0322268589	-0.1977140088	 1.5326626659	-0.083331
C	-2.3246388267	 0.0784691084	 2.8043482284	-0.093457
C	-1.5210649588	 1.2406871286	 3.3186656542	 0.092497
O	-2.2592653706	 2.4923999716	 3.359983976	-0.295266
C	-1.6298673817	 2.942804685	 2.1410819597	-0.088926
C	-0.7053485137	 1.7067630514	 2.0833859283	-0.090628
H	 1.6447474046	 1.2931078744	 0.5259181362	 0.284444
H	 0.0525118744	-0.9427224007	-0.0879853034	 0.109737
H	 0.7338766405	-0.5966381772	 1.5063705018	 0.089499
H	-1.2656748209	 1.1708595864	 0.0323383423	 0.088129
H	-2.5002324809	-0.9807980009	 0.9438386663	 0.101178
H	-3.0680618438	-0.4319446253	 3.4060183444	 0.104089
H	-1.0199645218	 1.0586589698	 4.2758157434	 0.077767
H	-2.3431514881	 3.0202569094	 1.3098743246	 0.101466
H	-1.1352202016	 3.9113599736	 2.2782908702	 0.102146
H	 0.3476302329	 1.9369371254	 2.261195919	 0.05945
77.0643	120.8958	166.6555	216.5118	281.3607	292.4154	402.7251	447.1825	536.4177	665.945	752.7184	762.7825	813.3755	863.3028	897.5614	945.7081	977.4795	980.262	989.7497	1009.2513	1019.1937	1042.4895	1073.1746	1083.6531	1108.5187	1136.6108	1161.622	1193.8197	1217.3766	1263.6912	1270.5809	1303.8177	1328.3393	1343.8525	1359.1982	1384.8232	1387.7203	1415.6223	1501.9302	1520.3617	1673.8735	2977.3966	3008.9098	3015.1039	3043.9614	3054.7584	3072.3728	3080.3775	3176.1381	3207.5639	3821.2137
OCC1C=CC2OCC12	OC[C@H]1C=C[C@@H]2OC[C@H]12	
InChI=1S/C7H10O2/c8-3-5-1-2-7-6(5)4-9-7/h1-2,5-8H,3-4H2	InChI=1S/C7H10O2/c8-3-5-1-2-7-6(5)4-9-7/h1-2,5-8H,3-4H2/t5-,6-,7+/m1/s1
