19
gdb 5854	2.1259889	1.3691216	0.9222906	1.6394	78.12	-0.24386	0.05014	0.294	1296.2232	0.15587	-422.510316	-422.50103	-422.500086	-422.545092	33.572	
C	 1.563151715	-0.2006058513	 0.1796347749	-0.241188
O	 0.1832980292	 0.0649431115	 0.0667518298	-0.242435
C	-0.3279141343	 0.8897731225	 1.0948516859	 0.107885
C	-0.0716845426	 2.3975252653	 0.8632150958	-0.112943
O	-1.2383247952	 2.9069044833	 0.238406241	-0.236217
C	-2.3230995534	 2.2727694006	 0.88587149	-0.103421
C	-1.8837859658	 0.7923732423	 1.0405593461	-0.18992
C	-2.497450464	 0.1095380975	 2.1656858505	 0.308528
C	-3.0114413095	-0.4306209335	 3.1088392898	-0.473559
H	 1.8037671716	-0.6862795411	 1.1380463941	 0.109894
H	 1.8280132289	-0.876264036	-0.6369100104	 0.13279
H	 2.1757318849	 0.7094259055	 0.0919797143	 0.106212
H	 0.0640158657	 0.56168306	 2.0666729719	 0.081654
H	 0.1018530168	 2.9021289577	 1.8281658361	 0.089928
H	 0.7807258744	 2.5862589015	 0.2065270238	 0.115053
H	-2.5121915711	 2.7155313775	 1.8765714581	 0.099135
H	-3.2147642523	 2.3934053401	 0.2678443377	 0.122004
H	-2.1082825075	 0.2570880601	 0.1123544924	 0.129782
H	-3.4689407307	-0.9163683236	 3.9347277984	 0.196817
39.4247	105.4496	154.8513	173.7941	202.8797	266.4072	300.9564	387.3505	403.9303	514.0707	542.2986	587.7908	631.2943	634.9054	725.9768	847.6954	913.4265	965.9979	970.1601	1037.8212	1050.826	1077.1415	1083.738	1125.9197	1152.6579	1183.5426	1209.0517	1233.0141	1259.2332	1273.1989	1300.7091	1319.2032	1359.8711	1386.6489	1409.197	1481.2386	1490.011	1493.0654	1510.1186	1515.1318	2237.9615	2966.8754	2976.8659	2983.4784	3019.4788	3025.2617	3062.1433	3103.9348	3114.2683	3118.4528	3504.1323
COC1COCC1C#C	CO[C@H]1COC[C@@H]1C#C	
InChI=1S/C7H10O2/c1-3-6-4-9-5-7(6)8-2/h1,6-7H,4-5H2,2H3	InChI=1S/C7H10O2/c1-3-6-4-9-5-7(6)8-2/h1,6-7H,4-5H2,2H3/t6-,7-/m0/s1
