19
gdb 3912	4.1072046	1.0368667	0.96841	1.7443	77.	-0.2444	0.00717	0.25157	1253.468	0.15737	-422.543523	-422.535096	-422.534152	-422.577357	31.385	
O	 0.3854055615	 0.3822754609	-0.0516297145	-0.433024
C	-0.8092135196	 0.023540364	 0.6328100645	 0.072654
C	-0.8913204812	 0.560015166	 2.0863147225	-0.343093
C	-2.3323399399	 1.081510768	 2.2748697298	 0.264017
C	-2.5730326286	 2.2524635727	 3.262390477	-0.120863
O	-3.4839736798	 1.4749257938	 4.0610364355	-0.272544
C	-3.2901049042	 0.3132644871	 3.2359182717	-0.115467
C	-2.8129476864	 1.2407007429	 0.8580669107	-0.135191
C	-1.9968742457	 0.6754078834	-0.0281766272	-0.082486
H	 1.1014665779	-0.1569798424	 0.2982157854	 0.283339
H	-0.9269672185	-1.0731408639	 0.6097205734	 0.073043
H	-0.6045881402	-0.1778457508	 2.8414829332	 0.095193
H	-0.189910549	 1.3987827418	 2.1523988289	 0.115219
H	-1.6859448386	 2.5618769519	 3.8314293733	 0.096319
H	-3.0518255513	 3.144308519	 2.8374415621	 0.099476
H	-2.8262254461	-0.5153311487	 3.7886038652	 0.095102
H	-4.2295594814	-0.0376175904	 2.790524444	 0.099456
H	-3.7518182891	 1.7339830575	 0.6269539986	 0.103484
H	-2.1421195497	 0.6343268173	-1.1012812641	 0.105365
46.8822	68.5151	192.7574	258.014	286.0703	313.5909	401.4964	412.1231	457.3553	582.9301	675.7073	794.5219	807.4728	855.9182	872.6037	901.5126	925.905	974.2487	986.6204	994.0234	1011.2513	1047.2028	1057.9272	1110.586	1122.9451	1155.1288	1161.7723	1177.3006	1221.7581	1233.9111	1263.4371	1285.6982	1308.3823	1341.6278	1370.5435	1379.0377	1434.1943	1482.6996	1511.6156	1536.3453	1686.3657	2950.4726	2993.8191	3005.7162	3042.7942	3045.4813	3047.7326	3095.3216	3179.0056	3212.9212	3819.5737
OC1CC2(COC2)C=C1	O[C@H]1CC2(COC2)C=C1	
InChI=1S/C7H10O2/c8-6-1-2-7(3-6)4-9-5-7/h1-2,6,8H,3-5H2	InChI=1S/C7H10O2/c8-6-1-2-7(3-6)4-9-5-7/h1-2,6,8H,3-5H2/t6-/m1/s1
