19
gdb 2861	3.1284127	1.5412003	1.2950699	1.1953	74.12	-0.23753	0.08079	0.31832	1034.1663	0.157565	-422.509982	-422.502212	-422.501268	-422.541637	31.306	
C	 0.0051238007	 0.154084729	 0.0067711096	-0.420259
C	 1.5174092674	 0.0635211069	-0.0098977846	-0.08467
C	 2.1468381795	-1.0440848143	-0.8525794912	-0.149651
C	 3.6647737929	-1.1063098567	-1.0907964778	 0.057229
C	 4.2895478572	-0.0838817635	-0.1174921157	-0.245554
C	 3.7054774602	-1.1265986185	 0.8582796985	-0.021997
O	 4.0751002383	-2.1599458846	-0.1303046897	-0.314464
C	 2.1729365277	-1.0990676651	 0.6715562599	 0.435886
O	 1.4128780524	-1.964732058	 1.4460151818	-0.470205
H	-0.3412180695	 0.6724640904	 0.9066300747	 0.123539
H	-0.3574134593	 0.7091766009	-0.8645201564	 0.115333
H	-0.4515073668	-0.8379857962	 0.0036995175	 0.129481
H	 2.0076964705	 1.0311676911	 0.0286042295	 0.084023
H	 1.4930406339	-1.6914632466	-1.4256216475	 0.09302
H	 4.0316980227	-1.276416129	-2.1024025389	 0.080559
H	 5.3773361536	-0.1441130298	-0.1357586859	 0.114693
H	 3.9575672015	 0.954363415	-0.1019316864	 0.10256
H	 4.08815458	-1.3117736623	 1.8618160269	 0.081969
H	 1.727417107	-2.8579853988	 1.2604484159	 0.288505
176.3372	199.1266	229.5845	233.0514	343.8186	386.797	428.4366	463.2357	523.4778	612.9543	642.0029	708.9015	775.7557	828.6463	847.4007	879.4818	909.3177	929.6738	960.5402	987.9552	1001.5671	1022.4336	1038.0516	1053.0608	1103.8156	1132.5129	1140.3943	1179.0942	1194.823	1224.2256	1248.5163	1268.7772	1285.6923	1297.735	1328.8614	1356.9179	1414.2635	1455.5042	1490.5249	1501.0974	1506.4849	3039.8847	3088.1655	3100.4685	3125.5089	3126.7789	3129.232	3148.1206	3156.1602	3182.3702	3780.0759
CC1C2C3CC(O3)C12O	C[C@@H]1[C@H]2[C@H]3C[C@H](O3)[C@@]12O	
InChI=1S/C7H10O2/c1-3-6-4-2-5(9-4)7(3,6)8/h3-6,8H,2H2,1H3	InChI=1S/C7H10O2/c1-3-6-4-2-5(9-4)7(3,6)8/h3-6,8H,2H2,1H3/t3-,4-,5+,6+,7+/m1/s1
