19
gdb 3305	2.7132524	1.4645494	1.1699915	2.3016	76.14	-0.22509	0.027	0.25209000000000004	1102.0965	0.157365	-422.558674	-422.55033	-422.549386	-422.591	32.886	
O	 0.362970875	 0.0932859007	 0.2760610478	-0.434454
C	-0.8574235969	 0.6532774745	 0.6922703568	 0.000317
C	-2.1499111076	-0.0886452799	 0.403101071	-0.169612
C	-3.313354307	 0.0155986305	 1.3728961422	-0.277278
C	-3.7645155719	 1.4316710049	 1.6123307408	-0.06436
C	-3.4162601925	 2.4720023249	 0.8562126426	-0.050913
C	-2.521213043	 2.3926240824	-0.3506555857	-0.327327
C	-1.7349049499	 1.1043912363	-0.4437780012	 0.430197
O	-1.2431883658	 0.8741100221	-1.7296991959	-0.489086
H	 0.4762924802	-0.7577794492	 0.7110531052	 0.293132
H	-0.7963993824	 1.2594416527	 1.5955732275	 0.095203
H	-2.0170054699	-1.0508840868	-0.0852511313	 0.082936
H	-4.1617505507	-0.564107171	 0.9809909616	 0.116632
H	-3.057515493	-0.4588893989	 2.3320137361	 0.099907
H	-4.4359592076	 1.5854146517	 2.4535845741	 0.08484
H	-3.8093051801	 3.457328936	 1.0941728963	 0.086853
H	-3.1271564238	 2.4757916778	-1.2642417977	 0.1261
H	-1.8346133882	 3.2496682657	-0.3768479802	 0.108473
H	-0.3692571147	 0.4750436155	-1.61220764	 0.288439
116.2989	200.1744	252.2738	259.7962	282.0751	355.326	391.0599	404.837	424.3734	464.5488	547.7424	621.4359	685.3293	705.9238	806.643	846.0886	889.1179	936.1038	944.0678	991.0347	1013.2782	1028.3988	1029.8693	1067.4337	1113.0258	1127.9646	1183.0637	1199.3346	1233.7277	1241.8025	1257.637	1291.8279	1312.9967	1361.1707	1367.025	1407.9615	1425.0274	1467.9361	1477.5611	1486.2012	1729.1376	2991.7725	3007.5133	3013.1782	3031.4457	3108.0087	3141.563	3144.9287	3168.1648	3733.6089	3812.0826
OC1C2CC=CCC12O	O[C@@H]1[C@H]2CC=CC[C@@]12O	
InChI=1S/C7H10O2/c8-6-5-3-1-2-4-7(5,6)9/h1-2,5-6,8-9H,3-4H2	InChI=1S/C7H10O2/c8-6-5-3-1-2-4-7(5,6)9/h1-2,5-6,8-9H,3-4H2/t5-,6-,7+/m1/s1
