19
gdb 4477	2.7206093	1.7917675	1.3958259	1.5831	74.64	-0.23809	0.05418	0.29227	984.8893	0.157225	-422.463646	-422.455985	-422.455041	-422.495638	30.139	
C	 2.2370794603	 1.4729038911	-0.1340410977	-0.399007
C	 1.4944861947	 0.1499415388	 0.0660955734	-0.192731
C	 1.6858819696	-0.8688546408	-1.1416134577	-0.078013
O	 2.6105000536	-1.9368973743	-0.7649849051	-0.289278
C	 3.1956583391	-1.517849173	 0.4441571079	 0.09722
C	 2.9837566236	-2.0943213106	 1.8900898658	-0.017758
C	 1.4708039102	-2.0561750653	 1.680179953	-0.277683
C	 2.0942536713	-0.7443757797	 1.1193955884	 0.444638
O	 2.9378229913	-0.658958026	 2.3462656049	-0.378537
H	 2.1154954236	 2.1226004637	 0.7374388522	 0.132218
H	 3.3088956097	 1.3091592658	-0.2825602327	 0.129387
H	 1.8521508914	 2.0038484785	-1.0100841402	 0.117713
H	 0.4277521121	 0.3380062608	 0.2202216024	 0.086969
H	 0.7405960466	-1.3425255809	-1.4218885312	 0.115238
H	 2.0869830426	-0.3446934766	-2.0168469823	 0.11193
H	 4.1576678152	-1.0117855203	 0.3162731886	 0.082403
H	 3.6074060831	-2.7571120596	 2.4900710651	 0.095702
H	 1.0384590539	-2.7564177335	 0.9645898071	 0.115351
H	 0.8790922281	-1.9317392082	 2.5873465681	 0.104237
87.2803	180.6285	213.7439	283.0567	319.0598	418.7037	439.9366	545.6089	557.922	681.8028	697.2866	736.2329	833.2148	870.9925	903.3761	917.89	928.1339	951.8281	965.6737	988.5497	1026.7298	1050.8658	1085.2124	1089.4154	1122.22	1146.5106	1165.373	1197.1312	1200.7919	1224.375	1233.6885	1276.7044	1312.2863	1347.2533	1371.0163	1386.2603	1415.1892	1481.6704	1494.7248	1498.9427	1511.4801	3033.6984	3040.4066	3059.3146	3063.3133	3082.123	3088.8599	3110.6381	3116.6387	3120.81	3161.5942
CC1COC2C3CC12O3	C[C@H]1CO[C@@H]2[C@@H]3C[C@]12O3	
InChI=1S/C7H10O2/c1-4-3-8-6-5-2-7(4,6)9-5/h4-6H,2-3H2,1H3	InChI=1S/C7H10O2/c1-4-3-8-6-5-2-7(4,6)9-5/h4-6H,2-3H2,1H3/t4-,5-,6+,7-/m0/s1
