19
gdb 1138	2.4608346	1.4903298	1.0977086	2.0508	75.48	-0.23352	-0.01716	0.21636	1154.9111	0.154651	-422.535315	-422.526041	-422.525097	-422.570404	33.221	
C	 1.5837042624	-1.4702526579	-4.7138707548	-0.474924
C	 0.7811888101	-0.1939970157	-4.6348073638	 0.353516
O	-0.0183722605	 0.1505638938	-5.4772852535	-0.312102
C	 1.0153286821	 0.7150641904	-3.4344282779	-0.028784
O	 2.0385932792	 0.2739059196	-2.5177384688	-0.295086
C	 2.8080016318	 1.4883770319	-2.6962091398	-0.140111
C	 1.7980889598	 2.0056089216	-3.7146221554	 0.29139
C	 1.272722539	 3.3893340119	-3.9222849928	-0.321872
C	 2.0346548177	 2.6895007991	-5.0255473877	-0.326183
H	 2.6529185522	-1.2360922552	-4.7544653969	 0.146807
H	 1.4404656615	-2.0643515159	-3.8053340038	 0.151566
H	 1.2883052465	-2.0381633447	-5.596700226	 0.135965
H	 0.051234974	 0.8690952604	-2.9296759587	 0.105277
H	 2.8796000899	 2.0618194489	-1.7632891155	 0.107656
H	 3.8182763255	 1.2799185093	-3.0710003891	 0.106047
H	 0.2011226564	 3.5087976268	-4.0438347051	 0.127764
H	 1.7601330745	 4.2023119988	-3.3929881496	 0.115235
H	 1.4724933613	 2.3368088128	-5.8832650728	 0.1435
H	 3.0430428265	 3.0254077841	-5.2463061877	 0.114339
35.2777	73.5979	118.9584	147.022	226.2949	262.441	312.4206	383.9563	450.2915	483.3525	573.3848	610.8409	764.4964	777.3654	863.7324	879.403	906.7773	932.6952	970.3885	992.4612	1024.2783	1036.4128	1049.5676	1065.2728	1086.1037	1106.0755	1152.9623	1192.6	1215.1888	1245.7273	1254.697	1314.8797	1335.8217	1381.5993	1403.7811	1449.2677	1457.9943	1464.3646	1503.3575	1524.3523	1800.6098	3005.0671	3012.1822	3044.1169	3051.2227	3104.6334	3125.0609	3130.0651	3156.4588	3207.6869	3223.3805
CC(=O)C1OCC11CC1	CC(=O)[C@H]1OCC21CC2	
InChI=1S/C7H10O2/c1-5(8)6-7(2-3-7)4-9-6/h6H,2-4H2,1H3	InChI=1S/C7H10O2/c1-5(8)6-7(2-3-7)4-9-6/h6H,2-4H2,1H3/t6-/m1/s1
