19
gdb 1820	2.5630113	1.9310085	1.431943	0.9572	73.32	-0.25562	0.07328	0.3289	954.9488	0.158708	-422.54624	-422.539009	-422.538065	-422.577215	30.113	
O	 0.4270420507	 0.6185200853	 0.5657440811	-0.494613
C	-0.9673810211	 0.6020751551	 0.7354307383	 0.401156
C	-1.8021799915	 0.8885495677	-0.5360148354	-0.257454
C	-2.8710653092	 1.4807397694	 0.435381959	-0.029566
C	-1.6951007369	 1.7997242549	 1.4048275401	-0.289269
C	-3.7713853036	 0.3676498844	 1.0032227188	-0.241631
C	-2.9445768339	-0.824688029	 1.4633327624	 0.052873
O	-2.108393792	-0.6543663441	 2.6197459225	-0.257909
C	-1.4859231044	-0.7096214667	 1.3307721279	-0.04266
H	 0.8381152046	 0.4954922319	 1.4289465624	 0.278752
H	-1.3295695534	 1.6680630784	-1.137998865	 0.108485
H	-2.0787799444	 0.0424571771	-1.1720871366	 0.09098
H	-3.4645032179	 2.3214709175	 0.0722384224	 0.068588
H	-1.1957535224	 2.7322573361	 1.131037835	 0.099284
H	-1.8756706618	 1.7556689663	 2.4788214951	 0.110545
H	-4.3840860908	 0.7435300472	 1.8316163307	 0.112267
H	-4.4644807404	 0.0227512742	 0.2256766838	 0.102722
H	-3.4163124654	-1.8048132714	 1.4106811181	 0.094075
H	-0.864019916	-1.5852883741	 1.1471152494	 0.093374
210.2339	264.3695	287.3007	338.188	377.498	403.7442	439.5776	467.02	544.6448	611.2063	680.1272	778.7872	837.7095	853.3214	862.2986	881.0525	905.1415	942.1359	959.8894	1008.7726	1019.5438	1028.5971	1069.2674	1094.0881	1110.4325	1137.0361	1161.4802	1200.6996	1228.211	1247.1052	1256.5852	1274.0356	1293.4628	1309.1973	1360.9971	1366.0978	1382.3489	1445.8454	1471.2059	1474.3226	1507.7799	3026.1536	3053.9422	3064.5012	3072.2243	3091.2018	3114.0217	3118.4676	3125.771	3142.6138	3796.6533
OC12CC(C1)CC1OC21	O[C@]12C[C@H](C1)C[C@@H]1O[C@H]21	
InChI=1S/C7H10O2/c8-7-2-4(3-7)1-5-6(7)9-5/h4-6,8H,1-3H2	InChI=1S/C7H10O2/c8-7-2-4(3-7)1-5-6(7)9-5/h4-6,8H,1-3H2/t4-,5-,6-,7-/m0/s1
