19
gdb 606	2.2861547	2.1712765	1.8325562	2.4132	73.13	-0.24615	0.07311	0.31926	878.1109	0.161055	-422.557778	-422.550862	-422.549918	-422.589195	27.583	
C	 2.2999357785	-0.1984978256	-1.3793571677	-0.088907
O	 3.3795791395	 0.0917939227	-0.4913184191	-0.275109
C	 3.160872805	 0.9784513849	 0.5832620409	 0.191629
C	 2.1998839305	 2.1179288886	 0.2323678857	-0.251664
C	 0.8495990377	 1.514268056	-0.0953270139	-0.0682
C	 0.9312344778	 0.2456329418	-0.904738203	-0.062794
C	 0.5442609828	 0.181472469	 0.5550010231	-0.074466
C	 1.4849662513	-0.3879579004	 1.6053293188	-0.089647
O	 2.7144021612	 0.3150004076	 1.746461438	-0.259762
H	 2.510456174	 0.2756538343	-2.3502619602	 0.099751
H	 2.3128255632	-1.2840260198	-1.5429301682	 0.108282
H	 4.1511490396	 1.3560047803	 0.8504314388	 0.09201
H	 2.1431242542	 2.7936574036	 1.0914819986	 0.110041
H	 2.5933025262	 2.6864545364	-0.6188638775	 0.103381
H	 0.0306448931	 2.2035342426	-0.2749500927	 0.082606
H	 0.1449306366	 0.0458452255	-1.6273684139	 0.085982
H	-0.5009935427	-0.0400702304	 0.7484485912	 0.088135
H	 1.0029123496	-0.3467561611	 2.5883395543	 0.108427
H	 1.6918562216	-1.4469792758	 1.3878590466	 0.100303
75.61	159.9835	331.9943	405.4021	434.1798	447.2435	562.318	578.1485	708.9958	759.9724	767.8152	785.3432	867.886	876.2502	907.7204	955.4953	969.131	1015.5469	1035.4103	1058.8974	1089.7024	1099.8112	1113.1588	1124.219	1129.6676	1144.1638	1218.1238	1234.2257	1269.2567	1274.9794	1318.0651	1356.9756	1367.4997	1381.8226	1392.7246	1413.8272	1423.7269	1465.8251	1489.929	1515.3277	1523.7187	2983.42	2984.0355	3027.2127	3032.4999	3054.7377	3079.4642	3083.8927	3141.5201	3146.0043	3159.583	75.6085	159.9828	331.9944	405.4021	434.1797	447.2434	562.3179	578.1485	708.9959	759.9725	767.8152	785.3432	867.8859	876.2501	907.7205	955.4953	969.1308	1015.5468	1035.4105	1058.8973	1089.7022	1099.8114	1113.1587	1124.219	1129.6674	1144.1637	1218.1238	1234.2252	1269.2571	1274.98	1318.0653	1356.9752	1367.4999	1381.8227	1392.7251	1413.8275	1423.7274	1465.8251	1489.9284	1515.3283	1523.7193	2983.42	2984.0354	3027.2127	3032.4999	3054.7376	3079.4643	3083.8926	3141.5201	3146.0043	3159.5829
C1OC2CC3C1C3CO2	C1O[C@H]2C[C@H]3[C@@H]1[C@H]3CO2	
InChI=1S/C7H10O2/c1-4-5-2-8-7(1)9-3-6(4)5/h4-7H,1-3H2	InChI=1S/C7H10O2/c1-4-5-2-8-7(1)9-3-6(4)5/h4-7H,1-3H2/t4-,5+,6-,7+
