19
gdb 3610	1.9322952	1.5659834	1.1692441	0.2477	78.01	-0.25651	0.02885	0.28536	1169.82	0.152981	-422.513197	-422.503061	-422.502117	-422.547938	37.07	
C	 4.2873829704	-1.6382297048	 0.2683813281	-0.409783
C	 2.7777446949	-1.697817393	 0.2604294142	 0.10903
O	 2.1545240635	-0.7089467797	 1.1131108215	-0.320843
C	 1.1256214217	-0.444908968	 0.1307732146	 0.109032
C	 0.7822185105	 1.0199421309	-0.0066723512	-0.409781
C	 1.9788744657	-1.1567604532	-0.97597085	 0.082422
O	 2.7030375148	-0.2894436657	-1.8222715757	-0.459837
C	 1.2996285367	-2.1382174044	-1.8030998124	 0.351963
C	 0.7149211716	-2.97442592	-2.437369993	-0.450678
H	 4.658438872	-1.8434868424	 1.2770991417	 0.13334
H	 4.6994519573	-2.3892218612	-0.4123799478	 0.133803
H	 4.6600303955	-0.6560213919	-0.034734412	 0.107577
H	 2.4317899637	-2.7060395362	 0.5265846862	 0.079743
H	 0.2237625857	-1.031561764	 0.3533265856	 0.079743
H	 0.3871618316	 1.3958810575	 0.9419680724	 0.133345
H	 1.6556939702	 1.6222763195	-0.2707048943	 0.107576
H	 0.020174067	 1.1592113585	-0.779409061	 0.133801
H	 3.1512420151	 0.358962793	-1.2676215715	 0.289128
H	 0.204139562	-3.7070717247	-3.0122188055	 0.200419
64.8333	120.3606	164.267	171.362	178.7656	251.3783	251.6695	320.6945	338.0577	365.2846	487.6249	496.1679	536.7736	587.3018	615.8421	633.3081	669.6394	764.3929	872.4098	874.2027	955.9711	996.3426	1029.1379	1061.6107	1075.1616	1132.1725	1134.979	1171.021	1202.5683	1268.0853	1296.7896	1359.2671	1380.5765	1401.0656	1405.8294	1435.4801	1475.4252	1481.321	1491.7182	1496.2943	2243.2257	3007.2313	3014.1137	3043.2265	3043.731	3115.5826	3116.1781	3120.4842	3121.0216	3500.9883	3805.0079
CC1OC(C)C1(O)C#C	C[C@H]1O[C@@H](C)[C@]1(O)C#C	
InChI=1S/C7H10O2/c1-4-7(8)5(2)9-6(7)3/h1,5-6,8H,2-3H3	InChI=1S/C7H10O2/c1-4-7(8)5(2)9-6(7)3/h1,5-6,8H,2-3H3/t5-,6+,7+
