19
gdb 706	2.8220035	1.5890737	1.2422593	4.2727	74.96	-0.25843	0.00941	0.26783999999999997	1044.6226	0.159028	-422.57875	-422.57101	-422.570066	-422.611694	29.567	
O	 0.230463752	 1.087794577	 3.7540078374	-0.305929
C	 0.336211517	 1.198089327	 2.5626181752	 0.383087
C	-0.3651894606	 0.1983810453	 1.6370360593	-0.334879
C	-0.0593274832	 0.1613559236	 0.145594051	-0.008308
C	 1.4618426982	 0.1192369517	-0.1609871388	-0.240209
C	 1.4124868548	 1.661356977	-0.3308450287	-0.020441
C	-0.1204237158	 1.5495775571	-0.5527912446	-0.240175
C	 1.7893719471	 2.4403137376	 0.9180585322	-0.077944
O	 0.9468245793	 2.3117692716	 2.0737471513	-0.236385
H	-0.1871234506	-0.7845797634	 2.0850405318	 0.137216
H	-1.4337496729	 0.401849154	 1.788588413	 0.140448
H	-0.6635406826	-0.6276884834	-0.3097406243	 0.074415
H	 2.1218696491	-0.2865745922	 0.6131360239	 0.099564
H	 1.6803246138	-0.3857818496	-1.1051279155	 0.103496
H	 2.0034893917	 2.0722653939	-1.1553594721	 0.077205
H	-0.7526914484	 2.3169859047	-0.098180491	 0.10669
H	-0.3723477516	 1.4618382571	-1.6121850735	 0.10336
H	 2.8129702676	 2.1842375392	 1.2233808703	 0.115617
H	 1.7655664052	 3.5132152418	 0.7043898032	 0.123171
40.6708	102.7511	273.7779	295.9308	330.761	358.2399	483.2727	519.9761	563.1803	681.7839	718.6517	807.4807	813.2953	845.0199	882.3866	886.1008	904.3954	977.5667	1006.4905	1061.166	1070.4541	1080.3727	1116.0576	1126.5541	1169.5295	1177.5313	1212.1118	1235.3824	1257.4336	1285.7636	1292.0908	1327.1947	1339.7413	1362.3	1382.245	1430.1923	1450.5268	1475.7091	1500.9776	1507.4949	1823.4929	3016.8611	3030.5393	3043.946	3054.6659	3061.6579	3069.9055	3083.0089	3083.2145	3104.1698	3115.4509
O=C1CC2CC(C2)CO1	O=C1C[C@@H]2C[C@@H](C2)CO1	
InChI=1S/C7H10O2/c8-7-3-5-1-6(2-5)4-9-7/h5-6H,1-4H2	InChI=1S/C7H10O2/c8-7-3-5-1-6(2-5)4-9-7/h5-6H,1-4H2/t5-,6+
