19
gdb 2063	2.5648957	1.7625991	1.4230585	2.5079	74.41	-0.24867	0.08912	0.33779000000000003	995.8885	0.157466	-422.524056	-422.516288	-422.515344	-422.55579	30.744	
C	 0.000836139	-0.0131002716	 0.1209124145	-0.477145
C	 1.5031250826	 0.0313195512	-0.0729178156	 0.278599
C	 2.3532979038	-1.104509482	 0.4574328996	-0.344043
C	 2.1504661346	-0.9462692521	-1.0255925761	 0.052768
O	 3.2579038506	-0.5345087486	-1.7746070021	-0.249861
C	 3.1756683059	 0.7696970231	-2.3180823528	-0.114716
C	 2.8953394097	 1.8185272654	-1.2599903104	 0.032301
O	 3.4927062842	 1.587757926	 0.0179618948	-0.252047
C	 2.0765524698	 1.4251284939	-0.1061672206	-0.01288
H	-0.2801443593	 0.3669724361	 1.1102109378	 0.122823
H	-0.5200832433	 0.5920407671	-0.6305470994	 0.118852
H	-0.3747206893	-1.0372298838	 0.0407774136	 0.120903
H	 3.3408656376	-0.8492785196	 0.8224843601	 0.139526
H	 1.8523969765	-1.9197229197	 0.9685633664	 0.10705
H	 1.5096077174	-1.6542659832	-1.550274347	 0.085079
H	 4.1451794868	 0.9505642986	-2.793229162	 0.121019
H	 2.3989744497	 0.8427910893	-3.0989862447	 0.092312
H	 2.9048508216	 2.8533674309	-1.603065056	 0.092865
H	 1.4933672421	 2.1820117489	 0.4191199001	 0.086596
156.941	193.2288	221.9421	274.0029	309.0194	340.1686	442.8872	486.3393	497.7604	538.6997	675.0198	779.3963	790.3113	839.9718	872.2299	885.8738	944.8534	956.4685	961.3378	1018.5097	1039.7581	1059.1865	1073.4917	1100.5843	1119.7671	1129.8267	1143.4066	1195.9279	1246.4824	1263.5513	1293.0432	1335.4069	1368.031	1386.1179	1414.426	1418.6492	1462.2641	1480.9561	1491.3333	1494.3137	1501.5465	2961.3193	3022.5349	3075.9823	3081.6773	3099.5425	3102.0803	3107.2806	3114.7309	3138.0407	3237.6761
CC12CC1OCC1OC21	C[C@@]12C[C@@H]1OC[C@@H]1O[C@H]21	
InChI=1S/C7H10O2/c1-7-2-5(7)8-3-4-6(7)9-4/h4-6H,2-3H2,1H3	InChI=1S/C7H10O2/c1-7-2-5(7)8-3-4-6(7)9-4/h4-6H,2-3H2,1H3/t4-,5-,6-,7+/m0/s1
