19
gdb 1685	2.4279866	1.3680225	1.0529148	3.2163	75.33	-0.23319	-0.01679	0.2164	1183.1936	0.154877	-422.530901	-422.521688	-422.520743	-422.565793	33.503	
O	-2.3166001544	 1.4081286949	-0.2265441646	-0.488058
C	-1.1022591528	 1.7534737704	-0.8561234052	 0.446914
C	-0.2905021595	 0.4851877126	-1.0487138704	-0.342739
C	 0.2796487096	 0.0014004395	 0.2686218397	 0.166135
O	 1.4516324922	-0.1971709552	 0.4681943268	-0.247459
C	-1.1945002959	 2.8794177271	-1.8532994446	-0.141023
C	 0.1396974971	 3.1701221704	-2.5454841633	-0.241519
C	 0.8185720545	 3.3566562151	-1.1468657601	-0.246319
C	-0.5291984013	 3.087485013	-0.4666702846	-0.146159
H	-2.743284588	 2.2112297512	 0.0902270549	 0.284984
H	-0.9672635556	-0.2836733446	-1.4442728107	 0.128723
H	 0.5305438307	 0.6222003892	-1.7533081521	 0.124348
H	-0.4758067354	-0.1453517756	 1.0705718094	 0.090945
H	-2.1723237784	 3.1929127405	-2.2035574341	 0.086156
H	 0.5355524664	 2.3840702895	-3.1964923289	 0.103629
H	 0.1177845458	 4.1026571474	-3.1132720387	 0.109584
H	 1.6298138593	 2.6696503314	-0.8888200158	 0.120103
H	 1.1697592079	 4.3789743454	-0.9944771894	 0.109908
H	-0.9010717322	 3.6071358877	 0.4114027016	 0.08185
36.9405	66.3991	162.7382	174.5423	240.2354	248.6734	315.1004	389.4738	453.2712	480.7134	513.3567	670.7182	718.4837	784.0912	824.3547	861.4555	890.8677	925.4549	971.5922	977.432	996.4755	1020.7029	1029.199	1079.0226	1101.6724	1116.1903	1150.1551	1187.4082	1221.8019	1231.9245	1256.8342	1272.7529	1286.2801	1298.1501	1356.6243	1419.4146	1449.4918	1460.8979	1485.5901	1507.75	1827.9726	2903.7041	3032.8651	3049.547	3061.4192	3099.7196	3118.8084	3131.4696	3148.8714	3167.77	3813.8992
OC1(CC=O)C2CCC12	O[C@@]1(CC=O)[C@@H]2CC[C@H]12	
InChI=1S/C7H10O2/c8-4-3-7(9)5-1-2-6(5)7/h4-6,9H,1-3H2	InChI=1S/C7H10O2/c8-4-3-7(9)5-1-2-6(5)7/h4-6,9H,1-3H2/t5-,6+,7+
