19
gdb 2883	2.193203	1.7554092	1.594451	2.4127	75.3	-0.24423	0.06502	0.30925	985.9024	0.156173	-422.502313	-422.493941	-422.492997	-422.534491	33.072	
C	-0.5164427432	 3.3885703282	 0.7679530367	-0.52842
C	-1.3050396901	 2.1141323971	 0.657287045	 0.268363
C	-0.8344668928	 0.7147532425	 0.1921929558	 0.101761
O	 0.1584646199	 0.0564615191	 0.9355527225	-0.458281
C	-2.3193330937	 0.4860901236	 0.542135302	-0.165743
C	-2.7270602543	 1.9017496712	 0.0161194064	-0.098477
C	-3.4648924544	 2.2769214781	 1.3244687604	-0.335919
C	-2.2238304817	 1.4790251326	 1.7594277754	 0.341176
O	-1.7393228503	 1.194446341	 3.0329119857	-0.483418
H	 0.351780651	 3.2451889697	 1.4198047178	 0.132482
H	-0.1479602091	 3.7092225632	-0.2124794833	 0.121129
H	-1.1190020711	 4.2029083406	 1.1850174307	 0.119941
H	-0.5573837196	 0.6168727279	-0.86258857	 0.073704
H	-0.0675310783	 0.1602302733	 1.8690403271	 0.285747
H	-2.9275074983	-0.4184831197	 0.4873507393	 0.067027
H	-3.0042348211	 2.138097463	-1.0084392989	 0.08269
H	-3.4954770955	 3.3376984979	 1.5917215236	 0.099357
H	-4.4412198319	 1.8073956102	 1.4852804984	 0.089489
H	-2.3914488158	 0.6605008808	 3.5008369153	 0.287394
170.8281	188.0116	198.4935	209.8093	282.1691	315.1089	394.9722	438.1876	479.5612	524.0044	531.8277	667.7347	678.8956	712.5502	791.8117	865.4332	876.3619	891.4324	923.6272	946.4453	1001.8562	1030.6666	1068.832	1081.8206	1093.9319	1125.2455	1135.4849	1162.2521	1191.4619	1204.9578	1231.4178	1266.3441	1271.1927	1310.2158	1321.5519	1382.4961	1411.3853	1466.494	1484.8677	1493.0125	1513.5662	3028.1209	3038.2622	3061.2452	3093.7275	3097.3858	3098.8708	3101.9222	3147.0191	3767.8929	3796.9637
CC12C(O)C3C1CC23O	C[C@]12[C@@H](O)[C@@H]3[C@H]1C[C@]23O	
InChI=1S/C7H10O2/c1-6-3-2-7(6,9)4(3)5(6)8/h3-5,8-9H,2H2,1H3	InChI=1S/C7H10O2/c1-6-3-2-7(6,9)4(3)5(6)8/h3-5,8-9H,2H2,1H3/t3-,4+,5+,6-,7-/m1/s1
