19
gdb 1642	3.457279	1.2425078	1.0564799	1.684	74.18	-0.252	0.08403	0.33603	1167.6612	0.155639	-422.49597	-422.487599	-422.486655	-422.529	31.804	
C	-1.4510721442	-2.4126579059	 1.4057432239	-0.462884
C	-0.5735868671	-2.2494559965	 0.1819604506	 0.384687
C	-0.4120443161	-3.3855611284	-0.7365711936	-0.229567
O	 0.6240946597	-3.0444330144	 0.1900205041	-0.268803
C	-0.4283294675	-0.827537393	-0.3241852613	-0.089799
C	 0.706349837	-0.5644853051	-1.3785869253	-0.290691
C	 1.3391594313	 0.4238905159	-0.3922626917	 0.042924
O	 0.3552880814	 1.4145740048	-0.0670013082	-0.251389
C	 0.3058090265	 0.1586824203	 0.6166173665	 0.023926
H	-1.4953876001	-3.4611818487	 1.7092842444	 0.128739
H	-1.06363532	-1.8322660571	 2.2491788386	 0.128449
H	-2.4687574053	-2.0640123357	 1.2000657205	 0.125378
H	-0.931678635	-4.3202072259	-0.5295970186	 0.113665
H	-0.17710652	-3.2110116986	-1.7854219284	 0.113738
H	-1.4161932761	-0.451788998	-0.6112284789	 0.088405
H	 1.3301989155	-1.4497295302	-1.5162652208	 0.12849
H	 0.4059419956	-0.150478066	-2.343599732	 0.10448
H	 2.3795607275	 0.7064522129	-0.2842860542	 0.104632
H	 0.345719287	 0.1784413697	 1.6996045844	 0.10562
77.2076	138.9398	181.3159	187.7824	307.2367	346.1967	377.7364	434.2908	459.7296	521.1638	713.2199	758.5829	824.5048	847.7882	856.036	873.6943	918.0294	932.0306	960.0309	989.0129	994.6448	1027.3858	1049.695	1067.5102	1104.6968	1137.4419	1164.4703	1180.5888	1217.3229	1227.7884	1238.1424	1249.3483	1278.92	1350.5834	1387.7943	1398.4063	1418.0454	1461.3904	1483.8512	1495.605	1533.0159	3038.9104	3055.368	3071.7601	3083.8692	3102.7833	3125.9173	3136.5048	3168.7253	3178.9413	3196.0985
CC1(CO1)C1CC2OC12	C[C@@]1(CO1)[C@@H]1C[C@H]2O[C@@H]12	
InChI=1S/C7H10O2/c1-7(3-8-7)4-2-5-6(4)9-5/h4-6H,2-3H2,1H3	InChI=1S/C7H10O2/c1-7(3-8-7)4-2-5-6(4)9-5/h4-6H,2-3H2,1H3/t4-,5-,6+,7-/m1/s1
