19
gdb 5561	2.2937256	1.6315992	1.2477338	3.2965	74.38	-0.23192	-0.03172	0.2002	1080.0197	0.156608	-422.554949	-422.546349	-422.545405	-422.588555	31.908	
C	 1.4999337734	-0.0224906581	 0.00268106	-0.252677
O	 0.0865824045	 0.0343385048	 0.0423920846	-0.242718
C	-0.4807898442	 0.6402693899	 1.1884569873	 0.029399
C	-0.1571848469	 2.1136814556	 1.358623195	-0.068915
C	-0.8137168171	 2.8104490935	 2.5247199024	-0.304253
C	 0.6075624128	 2.3350892471	 2.6579385402	-0.036848
C	 0.8087753462	 0.9981623267	 3.3425275033	-0.333916
C	 0.0053401116	-0.0204914069	 2.5200999241	 0.348018
O	-0.1951284817	-1.1658749671	 2.822210087	-0.301413
H	 1.9100394237	-0.6623672287	 0.7970624968	 0.1184
H	 1.764324965	-0.4598417201	-0.9625858371	 0.134215
H	 1.9609397659	 0.9723241945	 0.0756740429	 0.109155
H	-1.5557703889	 0.4580559506	 1.0867256476	 0.109983
H	 0.059040171	 2.6863199466	 0.464448554	 0.098647
H	-0.9865499357	 3.8766537992	 2.431755623	 0.120205
H	-1.5908469499	 2.2852898193	 3.0756342786	 0.115676
H	 1.3984079742	 3.0738145223	 2.7133384555	 0.09136
H	 1.8607813157	 0.6858617047	 3.3158347011	 0.13286
H	 0.4961722103	 0.9674063461	 4.3913046136	 0.132824
60.4871	99.7207	165.8064	186.1556	270.0225	318.778	358.2069	451.0861	471.8507	578.4589	610.9401	677.0417	759.5122	818.2375	833.9312	865.5113	892.2373	967.7341	1010.1696	1029.7725	1045.1908	1074.5238	1093.1082	1116.6537	1123.4513	1162.9873	1180.0449	1182.6294	1201.7977	1227.2097	1265.9092	1278.8273	1339.3235	1372.5714	1387.1704	1451.3555	1478.2317	1489.7562	1494.0547	1508.4877	1849.3005	2991.3178	3034.8233	3044.6319	3059.6332	3081.5611	3113.5983	3120.3979	3175.1756	3183.096	3208.8594
COC1C2CC2CC1=O	CO[C@@H]1[C@H]2C[C@H]2CC1=O	
InChI=1S/C7H10O2/c1-9-7-5-2-4(5)3-6(7)8/h4-5,7H,2-3H2,1H3	InChI=1S/C7H10O2/c1-9-7-5-2-4(5)3-6(7)8/h4-5,7H,2-3H2,1H3/t4-,5-,7+/m0/s1
