19
gdb 1148	2.9639391	1.0179644	0.8958961	0.6227	78.23	-0.24604	-0.03977	0.20627	1375.4447	0.154364	-422.582217	-422.572308	-422.571364	-422.619007	34.406	
C	-0.4754497958	-0.5457661515	 1.1418689788	-0.474014
C	-0.3270444178	 0.7192208378	 0.3243871733	 0.375191
O	-1.2655635772	 1.402361388	-0.0120922937	-0.296559
C	 1.1030503331	 1.0715614494	-0.1039410432	-0.388554
C	 1.3828177123	 0.4494759296	-1.4798872031	 0.368134
O	 2.1064597783	-0.5173191877	-1.5919418168	-0.331285
C	 0.706133689	 1.0919834624	-2.6370921883	-0.093048
C	 1.5143534647	 1.2157055984	-3.9265142963	-0.25458
C	 0.4104204462	 0.2215096546	-3.8492798624	-0.250845
H	-0.0200780878	-0.4014048133	 2.1288419033	 0.146081
H	-1.5295444453	-0.7984511466	 1.2602795013	 0.143899
H	 0.0665583197	-1.3691189953	 0.6633283975	 0.15704
H	 1.173752573	 2.1602559886	-0.1716776973	 0.136341
H	 1.8402689893	 0.6770232435	 0.5971465224	 0.125265
H	 0.0057926413	 1.8830085411	-2.4000884752	 0.114032
H	 1.373242209	 2.1198766426	-4.5071226852	 0.122842
H	 2.5305004646	 0.8409977379	-3.8812565672	 0.137635
H	-0.5147633142	 0.420320799	-4.377257355	 0.123624
H	 0.6848704775	-0.8225531585	-3.7529980129	 0.138802
35.6069	40.3865	61.7238	134.8401	161.9613	235.1166	253.8881	328.933	404.3393	495.0881	543.7175	605.0553	712.972	752.6477	806.0024	815.8457	831.5049	896.0781	904.8822	919.4419	985.7198	1047.2274	1060.719	1094.1128	1103.0388	1115.6299	1132.6451	1168.0039	1210.6575	1221.8179	1232.3531	1268.9232	1383.2792	1409.6542	1454.8329	1459.6489	1468.8935	1473.4125	1486.7929	1778.7672	1814.0096	3034.993	3068.633	3095.7645	3140.5144	3141.906	3144.589	3155.6193	3195.2676	3229.6897	3244.646
CC(=O)CC(=O)C1CC1	CC(=O)CC(=O)C1CC1	
InChI=1S/C7H10O2/c1-5(8)4-7(9)6-2-3-6/h6H,2-4H2,1H3	InChI=1S/C7H10O2/c1-5(8)4-7(9)6-2-3-6/h6H,2-4H2,1H3
