19
gdb 4078	3.3852475	1.457358	1.2662094	2.863	73.83	-0.23847	0.06785	0.30632	1052.8175	0.15818	-422.5358	-422.52831	-422.527366	-422.567542	29.499	
C	 0.2121700842	 0.3052739187	-0.3103612321	-0.410017
C	 0.9952678164	-0.573801239	 0.6418900746	 0.164862
O	 2.4327858233	-0.4064633623	 0.4817894281	-0.312916
C	 2.6274818417	-1.8267457484	 0.3588737423	 0.106172
C	 3.1193725209	-2.5127333456	 1.6247782423	 0.012951
O	 2.4405998553	-2.0538475963	 2.799936517	-0.240468
C	 2.0130112297	-3.2880969535	 2.2200645156	 0.047606
C	 0.7528621675	-3.1480498185	 1.3816458953	-0.276426
C	 1.0995816102	-2.0883412169	 0.3189167795	-0.101311
H	 0.4133740765	 1.3618391799	-0.1075433575	 0.128395
H	 0.4864591224	 0.0977755131	-1.3495732904	 0.116579
H	-0.8636913233	 0.1341640511	-0.1906389751	 0.113445
H	 0.7082520442	-0.3799002462	 1.6820638789	 0.086965
H	 3.243537534	-2.0855599722	-0.509604964	 0.073152
H	 4.1673358915	-2.7670183966	 1.7622896946	 0.096625
H	 2.1776533186	-4.1723402334	 2.8323012982	 0.095062
H	 0.5141038431	-4.1098736628	 0.9135003403	 0.104994
H	-0.1077898527	-2.8644292055	 1.9976602906	 0.115799
H	 0.6924817065	-2.3302493657	-0.6643186082	 0.078533
115.6362	216.424	220.9574	269.5499	289.0839	369.3838	462.112	551.3904	647.4436	694.8573	786.8159	817.4007	841.7803	861.4365	882.3218	891.3149	922.6118	969.6164	988.0541	1023.0555	1055.5949	1056.8749	1090.9313	1092.8724	1135.5197	1136.4213	1201.7506	1223.0205	1254.1428	1262.3512	1287.2437	1307.2531	1325.7432	1336.5035	1360.2375	1394.8092	1407.8629	1430.6975	1478.3191	1482.8588	1495.2207	3030.8946	3036.8497	3039.9276	3044.6547	3077.344	3094.5522	3102.9082	3111.9143	3134.38	3150.7153
CC1OC2C3OC3CC12	C[C@@H]1O[C@H]2[C@H]3O[C@H]3C[C@@H]12	
InChI=1S/C7H10O2/c1-3-4-2-5-7(9-5)6(4)8-3/h3-7H,2H2,1H3	InChI=1S/C7H10O2/c1-3-4-2-5-7(9-5)6(4)8-3/h3-7H,2H2,1H3/t3-,4-,5-,6+,7-/m0/s1
