19
gdb 593	2.8803312	2.0138599	1.7545297	2.8439	72.44	-0.24919	0.08127	0.33046	867.885	0.161992	-422.593404	-422.587214	-422.58627	-422.623729	26.184	
C	-1.0110436615	-0.5820204496	-0.7747731736	-0.087532
O	-1.4832046094	-0.8593569784	 0.5494793181	-0.261856
C	-0.7794725734	-0.065436313	 1.4681587815	 0.237997
O	 0.3992140824	-0.7145044025	 1.9666770193	-0.288294
C	 1.516942077	-0.0540972728	 1.3500573189	 0.098329
C	 1.4870803781	-0.3389785856	-0.1625034128	-0.234162
C	 0.1672224451	 0.3784004526	-0.6006533191	-0.045867
C	-0.2218700822	 1.1513011783	 0.6979404871	-0.102184
C	 1.1045007662	 1.4236289027	 1.4133571156	-0.236416
H	-0.7279397461	-1.5205142552	-1.2643707439	 0.105466
H	-1.8251347515	-0.1255256637	-1.3541240667	 0.095359
H	-1.4475854724	 0.1214662836	 2.3119408082	 0.085264
H	 2.4231575396	-0.3571490899	 1.8740257905	 0.075664
H	 2.3641108867	 0.0906814212	-0.6568911172	 0.096535
H	 1.4699789557	-1.4117517039	-0.3704753204	 0.109861
H	 0.3073485764	 1.0191016142	-1.4727963705	 0.073289
H	-0.9278064368	 1.9711825002	 0.5696259844	 0.073149
H	 1.7713752707	 2.0929401479	 0.8627174159	 0.09881
H	 0.9844965254	 1.7838153539	 2.4380833647	 0.10659
135.7121	333.2742	385.3204	436.5824	501.7483	571.3387	585.1164	740.4611	790.7713	803.594	846.3038	870.9892	877.3086	920.6059	930.011	952.0594	973.5086	977.8267	981.0426	995.6009	1031.1953	1046.5039	1093.1323	1111.9953	1133.2496	1178.3382	1197.3507	1219.1724	1235.1308	1274.2087	1279.5687	1287.89	1318.4914	1331.1673	1342.7351	1346.9767	1377.9735	1400.9152	1479.1882	1497.9252	1525.6405	3009.3845	3051.6758	3059.2054	3062.7627	3089.2332	3094.3337	3107.8928	3117.1828	3122.3848	3127.6988
C1OC2OC3CC1C2C3	C1O[C@H]2O[C@H]3C[C@@H]1[C@@H]2C3	
InChI=1S/C7H10O2/c1-4-3-8-7-6(4)2-5(1)9-7/h4-7H,1-3H2	InChI=1S/C7H10O2/c1-4-3-8-7-6(4)2-5(1)9-7/h4-7H,1-3H2/t4-,5-,6-,7-/m0/s1
