19
gdb 4955	2.2765366	1.8644264	1.2597258	1.4113	75.3	-0.23686	0.06293	0.29979	1046.0886	0.15626	-422.475204	-422.466807	-422.465863	-422.508079	31.88	
C	 1.3520928879	 0.0445958535	-0.0878809744	-0.269966
O	-0.054418151	 0.1013475156	 0.1061312897	-0.297186
C	-0.4272745497	 0.6737349319	 1.2959219614	 0.411313
C	-0.151004837	 0.2284854777	 2.7510027361	 0.064187
O	 1.1550209696	 0.2513625824	 3.2757060113	-0.446112
C	-1.0654528556	 1.4636605357	 2.8892379793	-0.102482
C	-1.900783464	 1.0568278965	 1.6258393412	-0.101924
C	-1.761701075	 2.4569651548	 0.9939109173	-0.272048
C	-0.4024716095	 2.2189429137	 1.6815428975	-0.146047
H	 1.8453863783	-0.5210550172	 0.7110286313	 0.135265
H	 1.5205655337	-0.45311655	-1.0449656371	 0.128572
H	 1.7893227768	 1.0527553784	-0.1289719784	 0.10616
H	-0.5842690846	-0.7318114937	 3.0480407933	 0.087056
H	 1.5357010894	 1.1191303469	 3.1004378135	 0.2817
H	-1.4615202285	 1.9298193624	 3.7888860987	 0.080609
H	-2.7462370953	 0.3683065237	 1.6195473486	 0.077139
H	-1.7574123703	 2.4993264879	-0.0986139529	 0.105053
H	-2.3907720149	 3.2493737506	 1.4106099631	 0.092329
H	 0.4612560798	 2.8848810692	 1.7260296506	 0.066381
84.4871	157.5363	173.7538	209.5719	287.6768	299.9914	333.4966	414.7088	522.874	564.5886	624.2119	753.2766	799.5614	849.8017	878.365	902.9863	922.8379	939.1988	966.2211	1024.8789	1042.0947	1071.8543	1078.8734	1095.6879	1105.0586	1143.9193	1152.6639	1166.8772	1184.1872	1210.3022	1221.5288	1243.4276	1250.3274	1284.3224	1288.6249	1345.9342	1448.1441	1488.0553	1488.2552	1507.8238	1510.0413	2997.3289	3047.3891	3067.4318	3071.1233	3090.5119	3107.258	3112.1735	3128.0316	3145.2753	3801.975
COC12C(O)C3C1CC23	CO[C@]12[C@@H](O)[C@@H]3[C@H]1C[C@H]23	
InChI=1S/C7H10O2/c1-9-7-3-2-4(7)5(3)6(7)8/h3-6,8H,2H2,1H3	InChI=1S/C7H10O2/c1-9-7-3-2-4(7)5(3)6(7)8/h3-6,8H,2H2,1H3/t3-,4+,5-,6-,7-/m0/s1
