19
gdb 5673	2.8157578	0.8488109	0.7427659	2.8314	81.03	-0.24603	0.02253	0.26856	1618.213	0.155254	-422.509017	-422.498936	-422.497992	-422.546743	34.643	
C	 1.5281521464	-0.0204341146	 0.071901681	-0.497825
C	 0.073805694	-0.0269339004	 0.028074205	 0.049467
C	-1.1305044033	-0.0339912186	-0.0025489475	 0.111362
C	-2.5813214255	-0.0396671758	-0.0467433424	-0.044458
C	-3.2586852719	-0.5770400688	-1.3390871558	-0.325569
C	-3.8271759717	-1.6802098818	-0.4277884396	 0.131063
C	-3.3184882023	-3.0974953862	-0.6355433138	-0.063392
O	-3.5520548038	-3.877307028	 0.5190845038	-0.421848
O	-3.1889623618	-1.1032916611	 0.7449383711	-0.309765
H	 1.9041600073	-0.839059609	 0.6952665652	 0.155563
H	 1.9573130952	-0.1422910336	-0.9286456317	 0.150959
H	 1.9111047703	 0.9175192938	 0.4883517362	 0.151899
H	-2.9705797533	 0.9324782169	 0.2802604493	 0.105001
H	-3.9926993974	 0.0981655209	-1.7789109656	 0.116431
H	-2.5649250642	-0.9193584107	-2.1081124404	 0.119948
H	-4.9166729327	-1.6841861827	-0.3041129739	 0.084467
H	-3.8488168743	-3.5763874382	-1.4669246638	 0.10507
H	-2.2465382039	-3.0621541461	-0.8906942104	 0.087963
H	-3.1779528373	-3.372278896	 1.2522908134	 0.293661
18.2016	28.3484	96.6533	123.8362	147.2013	228.1744	305.5461	324.2205	387.8788	460.1166	476.309	503.5836	522.5264	701.1097	789.3409	875.8727	890.3423	948.2341	971.0266	1028.7936	1050.5187	1052.4322	1061.4626	1084.6609	1098.2762	1163.905	1188.5109	1222.2728	1253.0093	1262.9766	1306.4667	1345.177	1366.4267	1402.8389	1413.7648	1437.4941	1475.5017	1477.7738	1488.8469	1497.9404	2365.8432	2970.8669	3021.7078	3028.5767	3035.8936	3066.1245	3086.817	3090.2794	3091.5709	3145.9326	3777.329	18.206	28.3482	96.6535	123.8364	147.2013	228.1745	305.5463	324.2207	387.8789	460.117	476.3094	503.5838	522.5266	701.1098	789.341	875.8728	890.3425	948.2342	971.0268	1028.7938	1050.5186	1052.4321	1061.4628	1084.661	1098.2764	1163.9052	1188.511	1222.273	1253.0095	1262.9769	1306.4669	1345.1773	1366.4269	1402.8391	1413.7646	1437.4942	1475.5015	1477.7735	1488.8472	1497.9407	2365.8432	2970.867	3021.7079	3028.5767	3035.8936	3066.1246	3086.817	3090.2794	3091.5709	3145.9326	3777.3293
CC#CC1CC(CO)O1	CC#C[C@H]1C[C@@H](CO)O1	
InChI=1S/C7H10O2/c1-2-3-6-4-7(5-8)9-6/h6-8H,4-5H2,1H3	InChI=1S/C7H10O2/c1-2-3-6-4-7(5-8)9-6/h6-8H,4-5H2,1H3/t6-,7-/m0/s1
