19
gdb 2790	2.7321021	1.4161436	1.1918795	2.2315	74.83	-0.20976	0.06018	0.26994	1109.8356	0.155336	-422.469376	-422.460565	-422.459621	-422.50242	34.177	
C	-0.28751616	-0.0526227253	 0.007240321	-0.432095
C	 1.2340355577	 0.0256960985	 0.1286348194	-0.018138
C	 2.1255158853	 1.1837304373	 0.5176911776	-0.087662
C	 2.1195150546	-0.1019422536	 1.3456511568	-0.169679
C	 1.7185955974	 0.7339657527	 2.5896453335	 0.323049
O	 2.3205728298	 0.5408179024	 3.8294795113	-0.462571
C	 0.4661281716	 1.5691041693	 2.5021170169	 0.047022
O	 0.1943380902	 2.2825279816	 3.672335827	-0.450761
C	 1.7313757234	 2.0085321517	 1.7728833301	-0.16963
H	-0.7507775455	-0.5271637233	 0.8764022326	 0.128046
H	-0.7425349464	 0.9324947477	-0.1263365535	 0.135246
H	-0.5562977764	-0.6523144294	-0.8676005591	 0.112084
H	 1.7205157533	-0.5040031298	-0.6908208226	 0.094095
H	 2.9050194529	 1.5330673517	-0.1489536305	 0.09185
H	 2.9017838742	-0.8483630554	 1.4224515404	 0.090902
H	 1.9351083802	-0.2517519782	 4.2262487239	 0.289429
H	-0.4486938099	 1.2820269306	 2.0021215893	 0.092022
H	 0.8822896819	 2.0402701995	 4.3081859488	 0.285285
H	 2.1691581559	 2.9692863921	 2.0107763472	 0.101507
71.3494	191.4325	209.7832	260.5444	271.8117	279.4567	322.6356	370.0943	462.0818	485.2587	515.6081	634.3277	675.3674	682.1586	718.1189	837.606	875.3143	880.4317	907.1248	932.6757	968.3007	986.1274	1057.7819	1069.7348	1074.8276	1078.664	1116.7804	1130.0717	1174.9773	1194.7805	1229.1098	1261.5494	1298.5583	1306.3208	1337.4823	1393.9504	1415.7807	1436.7264	1464.9706	1501.3223	1509.7332	3041.3853	3092.2719	3111.4737	3115.2709	3169.6778	3179.9811	3202.468	3207.5483	3734.4714	3749.8071
CC1C2C1C1(O)C(O)C21	C[C@H]1[C@@H]2[C@H]1[C@]1(O)[C@@H](O)[C@H]21	
InChI=1S/C7H10O2/c1-2-3-4(2)7(9)5(3)6(7)8/h2-6,8-9H,1H3	InChI=1S/C7H10O2/c1-2-3-4(2)7(9)5(3)6(7)8/h2-6,8-9H,1H3/t2-,3+,4-,5-,6-,7+/m0/s1
