19
gdb 1159	4.3003684	0.9486747	0.8843921	2.2765	76.21	-0.23903	-0.00992	0.22910999999999998	1367.7214	0.154921	-422.508208	-422.499386	-422.498442	-422.542847	32.139	
C	 4.0675492006	 1.9139489911	-1.8570315201	-0.474013
C	 3.577832065	 0.4866158021	-1.6910385457	 0.384224
O	 4.1160961817	-0.4437803388	-2.2485846264	-0.298417
C	 2.3644450698	 0.2909999463	-0.7909029296	-0.356496
C	 2.0597787809	-1.167135482	-0.5137714515	 0.046824
C	 0.6277937512	-1.5533272497	-0.0467176566	 0.022168
C	 0.864098843	-2.997155048	-0.5460721423	-0.224757
C	 1.3528581049	-1.9979033832	-1.6191749346	 0.060096
O	 0.1130075212	-1.2060598646	-1.3939129498	-0.32044
H	 3.2451967209	 2.5739193716	-2.1538796787	 0.138583
H	 4.4474790118	 2.2918709351	-0.9006032406	 0.139445
H	 4.8630496498	 1.9507505846	-2.6021622029	 0.142162
H	 2.5204091202	 0.8510470132	 0.1410324854	 0.110902
H	 1.4980024617	 0.7535463742	-1.2805719757	 0.14535
H	 2.881102829	-1.6785990791	-0.0047701137	 0.079698
H	 0.0569407746	-1.1988036993	 0.8128551861	 0.091049
H	 1.6092094433	-3.6091040549	-0.031669727	 0.098239
H	-0.0410521989	-3.545993553	-0.8061678084	 0.109045
H	 1.661556919	-2.1715099657	-2.6485864476	 0.106337
43.3994	76.7315	117.5888	127.979	273.8988	310.4477	342.8295	476.4887	526.227	602.2359	663.1704	734.6782	771.4811	803.7417	833.4737	880.9589	890.0836	911.0548	922.8293	969.4807	1024.0551	1033.0769	1051.422	1121.7254	1126.629	1137.2868	1150.2251	1180.1173	1190.1169	1206.8717	1221.1479	1260.4908	1283.5702	1346.9796	1384.015	1413.7518	1447.519	1464.3752	1476.8346	1487.8885	1806.0829	3022.7984	3037.1139	3060.325	3064.7909	3081.7813	3097.3165	3107.9225	3139.3953	3152.1997	3153.2011
CC(=O)CC1C2CC1O2	CC(=O)C[C@H]1[C@@H]2C[C@H]1O2	
InChI=1S/C7H10O2/c1-4(8)2-5-6-3-7(5)9-6/h5-7H,2-3H2,1H3	InChI=1S/C7H10O2/c1-4(8)2-5-6-3-7(5)9-6/h5-7H,2-3H2,1H3/t5-,6-,7+
