19
gdb 3214	2.8166074	1.6990795	1.3629516	1.9124	74.76	-0.23257	0.07263	0.3052	993.4119	0.158653	-422.498474	-422.491287	-422.490343	-422.529631	29.833	
O	 0.2660644999	 0.6134503532	 0.0472743343	-0.446319
C	-0.6859867451	-0.0906489907	 0.8091968441	 0.090062
C	-0.9438719486	 0.5395517043	 2.2300803531	 0.007251
C	-2.1696100253	-0.2405204095	 2.7005805026	-0.278077
C	-2.7586929009	 0.6365220134	 1.5724514183	 0.443748
C	-4.172222585	 0.4351620339	 1.018109388	-0.351183
C	-3.4978728419	-0.7009472154	 0.136613698	-0.29169
C	-2.1515902963	 0.0911391684	 0.302312253	-0.011759
O	-1.8335295757	 1.7036480039	 1.9808615259	-0.372936
H	 0.0041985104	 1.5422817768	 0.0726912158	 0.28301
H	-0.3214606433	-1.117530962	 0.8932591512	 0.09488
H	-0.0799811371	 0.7832692244	 2.8474661199	 0.086893
H	-2.1804847603	-1.3294817015	 2.6051722563	 0.099108
H	-2.5229570999	 0.0819685154	 3.6807684715	 0.111718
H	-4.9648912266	 0.1597645704	 1.7173253908	 0.106027
H	-4.5067302719	 1.2620842903	 0.3865812632	 0.121688
H	-3.516170309	-1.6695870285	 0.6392396007	 0.115014
H	-3.8734671894	-0.8157641508	-0.8807187354	 0.111733
H	-2.1409543639	 0.8711659639	-0.4661375413	 0.080831
137.8115	271.4334	291.3999	323.9339	388.9183	435.4883	494.2741	539.3625	580.991	658.5491	693.5113	790.176	811.4062	822.9283	839.4628	867.8911	900.2442	934.157	975.8778	994.022	1041.8999	1053.8941	1065.7089	1101.2245	1118.9986	1155.1218	1177.5524	1199.428	1215.7756	1220.7384	1225.5254	1249.3209	1258.7849	1279.5015	1286.0475	1317.2965	1380.6469	1430.7786	1480.0119	1489.572	1498.6925	3051.7376	3064.2196	3066.5318	3083.865	3087.3084	3122.2813	3134.1462	3139.5444	3144.9889	3779.3726
OC1C2CC3(CCC13)O2	O[C@H]1[C@@H]2C[C@@]3(CC[C@H]13)O2	
InChI=1S/C7H10O2/c8-6-4-1-2-7(4)3-5(6)9-7/h4-6,8H,1-3H2	InChI=1S/C7H10O2/c8-6-4-1-2-7(4)3-5(6)9-7/h4-6,8H,1-3H2/t4-,5+,6-,7-/m1/s1
