19
gdb 6078	2.6674489	0.7500365	0.6074289	3.623	79.36	-0.25229	-0.03215	0.22014	1780.7302	0.152845	-422.529551	-422.518604	-422.517659	-422.567198	37.157	
O	 6.6658275582	-2.341845713	 1.498614758	-0.418481
C	 5.2683283919	-2.2907669078	 1.7324781155	-0.079855
C	 4.6855421391	-1.2131098534	 0.8264215812	-0.178453
C	 3.1681309564	-1.0820241543	 0.9807988535	-0.210758
C	 2.5564363549	 0.0246155684	 0.0774352653	-0.255426
C	 3.0318432269	 1.4000717616	 0.5589762461	 0.17219
O	 3.8152963117	 2.0923368555	-0.030727852	-0.241272
C	 1.0989250324	-0.0042834068	 0.1069935609	 0.287861
C	-0.1016719974	 0.0028074922	 0.1693669694	-0.425642
H	 7.044040156	-3.0148683191	 2.0717651616	 0.287331
H	 4.7896289429	-3.259875707	 1.5138664523	 0.085781
H	 5.0466458661	-2.0505535512	 2.7856527333	 0.086011
H	 5.1839743385	-0.263169843	 1.0495580344	 0.12543
H	 4.9380093075	-1.4574596391	-0.2122623422	 0.115195
H	 2.6757267087	-2.0273204198	 0.7287478557	 0.119878
H	 2.9028461849	-0.8674646389	 2.0242415141	 0.111736
H	 2.9214604443	-0.0997819486	-0.948432231	 0.126182
H	 2.5928557333	 1.7047346332	 1.5355471512	 0.089981
H	-1.1632476962	-0.0004551987	 0.2031835126	 0.202311
46.3804	59.8135	74.2664	97.8886	139.0556	175.3321	215.7919	256.2831	281.9166	359.6323	417.8156	466.0786	504.8654	571.6526	636.4737	650.9785	750.8996	841.071	946.8687	957.4846	986.0789	1041.4052	1045.8897	1081.548	1090.4581	1144.2945	1203.9091	1230.2084	1265.4879	1284.2858	1313.5791	1323.0205	1334.4078	1383.7266	1416.5869	1465.1587	1486.9911	1500.5742	1528.9724	1839.3977	2233.8384	2883.2378	2956.0192	2981.1897	3026.2455	3041.6497	3052.4746	3067.6249	3091.1411	3503.2503	3832.1348
OCCCC(C=O)C#C	OCCC[C@H](C=O)C#C	
InChI=1S/C7H10O2/c1-2-7(6-9)4-3-5-8/h1,6-8H,3-5H2	InChI=1S/C7H10O2/c1-2-7(6-9)4-3-5-8/h1,6-8H,3-5H2/t7-/m1/s1
