19
gdb 5886	2.5600223	0.7420729	0.5836803	3.0676	84.71	-0.25419	-0.04868	0.20551000000000003	1930.4021	0.153084	-422.521988	-422.51083	-422.509885	-422.561268	36.445	
C	-0.0179137892	-0.1535307428	-0.0077993277	-0.36818
C	 1.4875828757	-0.0102794968	-0.2947938316	-0.323946
C	 1.9798037259	 1.3516670767	-0.1516987945	 0.037299
C	 2.3773285945	 2.4855698607	-0.0299919911	 0.117363
C	 2.7958410293	 3.8561125858	 0.1298668858	 0.169651
O	 2.0318161687	 4.7431071994	 0.4494886304	-0.288276
C	 4.2682158713	 4.1790181756	-0.1203469145	-0.151763
O	 4.9942131819	 3.0340481801	-0.4706707226	-0.226264
C	 6.3569269714	 3.3004563787	-0.7091819031	-0.230215
H	-0.2498185301	 0.1586532821	 1.0136196775	 0.135941
H	-0.6040852134	 0.4658095696	-0.6914337684	 0.13592
H	-0.3284408128	-1.1949768893	-0.1308925619	 0.119209
H	 2.0619098766	-0.6630511909	 0.375486756	 0.142775
H	 1.7114564946	-0.3592429298	-1.3113281204	 0.142735
H	 4.304585731	 4.9474934311	-0.9112934519	 0.11966
H	 4.6601419338	 4.6507553589	 0.7967773477	 0.119709
H	 6.8538407451	 3.7133144446	 0.1827872071	 0.108624
H	 6.8317967104	 2.3527695529	-0.9728086165	 0.131173
H	 6.4941412152	 4.0119619133	-1.5386003103	 0.108585
26.6192	31.2904	57.0706	91.108	128.5468	138.5338	231.9167	233.7252	233.844	377.9326	396.2698	409.7815	504.6983	605.5113	643.1191	672.0921	779.1139	916.6273	1016.3744	1018.1843	1037.3459	1087.0231	1098.0048	1161.7959	1185.1567	1233.7192	1246.7409	1255.8397	1282.4654	1348.2811	1384.1423	1412.0036	1461.0687	1469.5526	1487.0202	1491.0423	1494.9701	1503.8094	1514.8893	1758.2564	2331.033	2958.9889	2974.8638	2987.9451	3018.8536	3022.7806	3048.8167	3050.5878	3119.2836	3123.3251	3129.773
CCC#CC(=O)COC	CCC#CC(=O)COC	
InChI=1S/C7H10O2/c1-3-4-5-7(8)6-9-2/h3,6H2,1-2H3	InChI=1S/C7H10O2/c1-3-4-5-7(8)6-9-2/h3,6H2,1-2H3
