19
gdb 4379	2.3111444	1.4883188	1.2496534	1.1657	76.7	-0.25484	0.04018	0.29502	1125.9664	0.154267	-422.533104	-422.523632	-422.522687	-422.567293	35.157	
C	 1.0284101398	-0.0077927639	-0.7367844823	-0.403311
C	 0.7076439401	 0.0892787614	 0.747332546	 0.118864
C	 0.9069037593	 1.4934107296	 1.3567792461	-0.132415
O	 1.4772117593	 1.2315929332	 2.6305481483	-0.253354
C	 2.2873643114	 0.0861360826	 2.4486843191	 0.214264
C	 2.4350448233	-0.6413287287	 3.7755927576	-0.431063
O	 1.5873240304	-0.7381641268	 1.5244987217	-0.286986
C	 3.6040155567	 0.4698627408	 1.8837680574	 0.371149
C	 4.6751329225	 0.7824226732	 1.4368186399	-0.48483
H	 0.9226370329	-1.0382880632	-1.085981055	 0.129155
H	 0.3439085535	 0.6208755219	-1.3174151344	 0.114533
H	 2.0541966489	 0.3198220296	-0.9284380865	 0.133034
H	-0.3141736956	-0.2651455879	 0.9340393256	 0.085613
H	 1.5871641657	 2.0978261712	 0.7398822056	 0.105958
H	-0.0250773533	 2.0418868185	 1.5067513457	 0.118174
H	 3.0051504805	-1.5611263266	 3.631215035	 0.137758
H	 2.959018363	-0.006398701	 4.493223302	 0.136181
H	 1.440161798	-0.8824307386	 4.1553826726	 0.128693
H	 5.6216649635	 1.0567496847	 1.0401234953	 0.198581
48.5027	133.795	180.8343	210.837	224.3714	232.0395	269.0459	372.4886	407.7278	461.0256	517.1688	566.5667	640.3958	649.1777	658.2246	660.7358	798.4142	844.6651	885.0357	907.5405	946.311	953.78	1071.623	1100.1029	1120.5654	1145.2782	1171.6192	1194.5545	1221.0616	1258.3468	1346.9651	1364.7101	1398.2436	1402.9777	1410.0824	1477.6364	1479.9074	1485.5055	1497.3304	1512.7194	2227.5168	3005.336	3020.4661	3037.5627	3060.332	3108.6586	3111.543	3126.1172	3145.674	3148.7078	3499.0594
CC1COC(C)(O1)C#C	C[C@@H]1CO[C@@](C)(O1)C#C	
InChI=1S/C7H10O2/c1-4-7(3)8-5-6(2)9-7/h1,6H,5H2,2-3H3	InChI=1S/C7H10O2/c1-4-7(3)8-5-6(2)9-7/h1,6H,5H2,2-3H3/t6-,7+/m1/s1
