19
gdb 5571	3.0091672	1.4904557	1.1633652	2.4286	74.35	-0.24447	0.06417	0.30864	1080.0713	0.157679	-422.506142	-422.498204	-422.49726	-422.538166	31.686	
O	 1.3616114733	 0.8476050253	 0.1670733272	-0.434846
C	 0.3120856141	-0.0517954938	 0.486728893	-0.080888
C	-0.9544158821	 0.6849651331	 0.9084829009	-0.084265
C	-1.9867534463	-0.1906052775	 1.6866294637	-0.082234
C	-3.1453974153	 0.7907824402	 2.0280902888	-0.24179
C	-2.1384587471	 1.4848791325	 2.9417949334	-0.144878
C	-1.2781558879	 0.2346669929	 3.0383699396	-0.130619
C	-0.7698644781	 1.4028319425	 2.2451111682	 0.394647
O	 0.2981982613	 2.2189370632	 2.5957750432	-0.473557
H	 1.5008220064	 1.3878137411	 0.9551524118	 0.285856
H	 0.1269879111	-0.645107265	-0.415512706	 0.099996
H	 0.6119513137	-0.7519766101	 1.2845225864	 0.083519
H	-1.3476389313	 1.2715178751	 0.0681291678	 0.062283
H	-2.184972731	-1.2119527087	 1.367700295	 0.076282
H	-3.5899325507	 1.3533787055	 1.1986563325	 0.089887
H	-3.9351870968	 0.3014442463	 2.6050905039	 0.101727
H	-2.307932864	 2.2188262294	 3.7202569658	 0.087515
H	-0.8810746137	-0.30362352	 3.8855507381	 0.099168
H	 0.0903122647	 3.1226481777	 2.3308361265	 0.292196
124.6072	168.5983	234.8802	298.36	332.5415	369.1256	380.9255	455.8426	524.5721	553.4895	640.1578	739.4663	759.5111	814.093	839.0916	898.0012	910.4082	932.4153	940.5303	969.5547	997.2253	1039.4583	1048.3917	1079.5652	1091.0858	1113.2275	1142.5437	1161.6809	1191.62	1206.0108	1225.9338	1244.3492	1273.0111	1285.8182	1301.8934	1360.0037	1402.7164	1437.5779	1452.4173	1501.6434	1504.5666	2964.974	3022.4391	3032.3668	3063.9103	3092.728	3134.8381	3190.8148	3234.1272	3770.6513	3784.9786
OCC1C2CC3C2C13O	OC[C@H]1[C@@H]2C[C@H]3[C@@H]2[C@@]13O	
InChI=1S/C7H10O2/c8-2-5-3-1-4-6(3)7(4,5)9/h3-6,8-9H,1-2H2	InChI=1S/C7H10O2/c8-2-5-3-1-4-6(3)7(4,5)9/h3-6,8-9H,1-2H2/t3-,4-,5-,6+,7-/m0/s1
