19
gdb 2101	2.8705273	1.5583479	1.206322	1.5514	75.43	-0.21639	0.05924	0.27563	1071.1462	0.155431	-422.512413	-422.503855	-422.502911	-422.544596	34.051	
C	 0.8619244451	 2.8578586194	-1.7410569681	-0.497695
C	 1.9644451138	 1.9333047463	-1.296619317	 0.320852
C	 3.0547750775	 1.4393438698	-2.3048480924	-0.347043
C	 3.1568084702	 0.2341626413	-1.3857571536	 0.3104
O	 3.7640267821	-0.9965225854	-1.5952950407	-0.47309
C	 1.7708944486	 0.4275879775	-0.8181292248	-0.280001
C	 2.9736787904	 0.7165198434	 0.0647438373	 0.378711
O	 3.5005063611	-0.0037846925	 1.1136561579	-0.476833
C	 2.7631800044	 2.2129819993	 0.0225155226	-0.326827
H	 0.1260418063	 3.0088816206	-0.9440426176	 0.119823
H	 1.2652793702	 3.8406428089	-2.0132637598	 0.118874
H	 0.3350383738	 2.4596686656	-2.6146600272	 0.118397
H	 2.6140473657	 1.1744268731	-3.2715458845	 0.09992
H	 3.9329322156	 2.0802612701	-2.4547051835	 0.082714
H	 4.7175721076	-0.8533215398	-1.6408053495	 0.28857
H	 0.9121118133	-0.2236977439	-0.7435847762	 0.096848
H	 3.8118687096	-0.8418876285	 0.7443616385	 0.280061
H	 2.099692552	 2.5557981115	 0.8229481085	 0.101899
H	 3.6384309329	 2.8710009935	-0.04321639	 0.084419
206.2287	212.2412	215.2242	239.8268	247.3813	292.426	379.3674	444.1198	453.1244	454.5485	484.6178	565.6338	638.1708	672.3031	722.7011	778.8501	811.0937	874.6471	891.0259	976.9187	983.4603	1027.1706	1040.4329	1055.818	1106.399	1119.7118	1134.5462	1163.7304	1193.9411	1214.1655	1221.9322	1308.4884	1339.6994	1355.0707	1410.3035	1416.6532	1437.0941	1489.3886	1493.8306	1496.6811	1513.8299	3015.6426	3021.9409	3026.7732	3081.9032	3084.75	3087.7559	3097.3122	3223.4356	3744.6966	3770.3333
CC12CC3(O)C1C3(O)C2	C[C@]12C[C@]3(O)[C@H]1[C@]3(O)C2	
InChI=1S/C7H10O2/c1-5-2-6(8)4(5)7(6,9)3-5/h4,8-9H,2-3H2,1H3	InChI=1S/C7H10O2/c1-5-2-6(8)4(5)7(6,9)3-5/h4,8-9H,2-3H2,1H3/t4-,5+,6-,7+
