19
gdb 3287	4.0562223	1.2060261	1.0400689	0.7526	74.45	-0.24425	0.07788	0.32213	1164.9459	0.157971	-422.520285	-422.512543	-422.511599	-422.552195	30.929	
O	-0.6524615299	 1.3568332826	 0.6001328699	-0.427418
C	-1.698471234	 0.4370688841	 0.5068487481	 0.05455
C	-2.9874906492	 0.8288562473	 1.1753799377	-0.073
C	-4.3374673877	 0.394230836	 0.6028792712	-0.272391
C	-4.9632347684	-0.702573931	 1.4675877021	-0.039838
C	-5.0087671479	-2.140443196	 0.9921509632	-0.312653
C	-3.9880031547	-1.7178650759	 2.0040020991	 0.112132
O	-2.6672943655	-1.5867774921	 1.5420811191	-0.258017
C	-2.1470393184	-0.2989949459	 1.7379415379	 0.035109
H	 0.1710931114	 0.8620377354	 0.6725038228	 0.287467
H	-1.7755274315	-0.1117912949	-0.4332029624	 0.090547
H	-2.9557467445	 1.7670650977	 1.7189389584	 0.099429
H	-5.0107977366	 1.2533713803	 0.5484872273	 0.109024
H	-4.2126291466	 0.0389669314	-0.425117273	 0.109012
H	-5.7552486059	-0.3827917196	 2.1368372323	 0.087711
H	-5.8278303776	-2.7716926516	 1.3192214484	 0.110584
H	-4.6408028085	-2.3498130839	-0.0070562996	 0.118303
H	-4.06968555	-2.0661251203	 3.0320880852	 0.083489
H	-1.5952665544	-0.1493040636	 2.6651146023	 0.08596
101.9072	239.3184	274.3651	288.9473	318.7213	343.5521	426.892	430.843	507.0566	545.7173	735.8126	797.9983	813.3151	836.0433	867.886	884.6989	927.3632	931.4985	1002.7124	1036.0512	1038.9336	1058.2191	1077.4205	1096.786	1113.6043	1125.6018	1137.7119	1168.0278	1171.143	1204.2212	1227.0544	1249.5485	1290.495	1299.1982	1334.1897	1345.2916	1371.0498	1395.4607	1462.341	1472.8595	1493.3986	3046.1813	3088.9122	3092.0333	3108.7941	3114.7621	3130.2541	3157.4456	3169.5217	3219.3919	3798.122
OC1C2CC3CC3OC12	O[C@@H]1[C@H]2C[C@H]3C[C@H]3O[C@@H]12	
InChI=1S/C7H10O2/c8-6-4-1-3-2-5(3)9-7(4)6/h3-8H,1-2H2	InChI=1S/C7H10O2/c8-6-4-1-3-2-5(3)9-7(4)6/h3-8H,1-2H2/t3-,4+,5+,6+,7+/m0/s1
