19
gdb 5953	4.4518447	1.0483022	0.9789914	1.9013	76.4	-0.23193	0.00211	0.23404	1271.3052	0.156121	-422.496621	-422.488246	-422.487302	-422.529969	31.478	
C	 1.3646495527	-0.1327314308	-0.013024971	-0.220532
O	-0.022512622	-0.2064786635	 0.2119960471	-0.232752
C	-0.480580755	 0.7628407771	 1.1229705073	-0.202692
C	-1.9731708046	 0.6679085175	 1.2559331739	 0.384742
C	-2.7907229607	-0.6646114071	 1.233027942	-0.252443
C	-3.8369695218	 0.3960942169	 0.7814965189	 0.008411
O	-2.7511983709	 1.0827435366	 0.0794391878	-0.314815
C	-3.9758463083	 1.2575236978	 2.0538501499	-0.087919
C	-2.6970449555	 1.4458970514	 2.380851493	-0.127602
H	 1.9394069348	-0.2938834506	 0.9134202776	 0.10179
H	 1.621031293	-0.9174402755	-0.7285564735	 0.129321
H	 1.6589170716	 0.8420163794	-0.432965265	 0.107357
H	-0.0192337305	 0.6170404201	 2.1159300775	 0.087987
H	-0.216678304	 1.7792952546	 0.7843405936	 0.104103
H	-2.4723610092	-1.322918745	 0.4236998322	 0.122569
H	-2.9512661289	-1.1974244024	 2.1724049941	 0.093228
H	-4.7075691697	 0.1741475836	 0.1665415131	 0.080557
H	-4.8865640217	 1.5876447281	 2.5312065054	 0.111052
H	-2.2412795394	 1.9778157516	 3.2033717861	 0.107637
74.6233	93.7806	135.4805	233.8104	299.8004	343.1824	365.562	472.5982	534.8894	615.8716	705.6047	719.2902	763.0977	811.7137	845.3744	875.5917	889.7503	901.2314	965.1222	972.4575	1016.2421	1048.2535	1076.1759	1091.3478	1122.6029	1164.6189	1184.5822	1203.0598	1229.367	1234.4789	1258.8598	1279.7193	1300.0866	1326.2107	1434.664	1477.6536	1486.0309	1487.5837	1495.03	1518.4422	1618.4623	2946.1885	2969.1315	2981.3695	3012.6507	3072.2614	3117.0005	3138.0443	3152.0065	3227.7088	3255.973
COCC12CC(O1)C=C2	COC[C@]12C[C@H](O1)C=C2	
InChI=1S/C7H10O2/c1-8-5-7-3-2-6(4-7)9-7/h2-3,6H,4-5H2,1H3	InChI=1S/C7H10O2/c1-8-5-7-3-2-6(4-7)9-7/h2-3,6H,4-5H2,1H3/t6-,7+/m1/s1
