19
gdb 1667	2.5604298	1.664918	1.2829066	2.62	74.24	-0.23482	0.0729	0.30772	1045.4417	0.155531	-422.490524	-422.482186	-422.481241	-422.523287	32.002	
C	 3.1899216896	-0.7948857649	 0.7550902886	-0.433331
C	 3.2398460632	-0.8326583725	-0.7684767279	 0.382071
O	 3.4876018921	 0.5203447375	-1.2814331146	-0.337559
C	 4.808715288	 0.1382005306	-1.6747186951	 0.096182
C	 4.7861674351	-0.8896828646	-2.7545677813	-0.306933
C	 4.5940182282	-1.3121881895	-1.3082646811	-0.1868
C	 1.9519763292	-1.4093157337	-1.3106904991	 0.04187
C	 1.8101959749	-2.8372732129	-1.624481996	-0.180726
O	 1.8993701398	-1.8600850328	-2.6607786506	-0.228445
H	 3.0995502394	-1.8063511891	 1.1660981135	 0.116271
H	 4.1004520657	-0.3367106848	 1.1485990258	 0.127435
H	 2.3331336827	-0.2049146828	 1.0949987968	 0.126288
H	 5.6170029988	 0.8297861719	-1.4685242618	 0.101573
H	 3.9615744803	-0.9307769914	-3.4546975095	 0.14519
H	 5.7611955916	-1.1512868942	-3.1559757384	 0.109861
H	 5.2453853978	-2.0076761077	-0.7957169776	 0.094614
H	 1.0612230658	-0.8626851314	-0.9949341606	 0.098659
H	 2.6753302354	-3.4922554759	-1.5315294249	 0.117272
H	 0.8415245921	-3.3226892918	-1.5166056561	 0.116509
75.183	182.2986	200.4172	227.446	260.5024	289.078	358.3525	460.1585	488.0402	564.2094	636.9855	760.5671	798.9211	845.7957	872.5177	906.7105	909.4233	944.3485	966.0843	977.0621	1006.5478	1033.8421	1048.0782	1056.2287	1089.374	1093.8917	1132.6457	1156.6097	1166.8017	1168.4447	1196.7469	1261.061	1285.4102	1334.725	1353.8478	1401.1856	1429.1986	1474.8764	1486.3843	1487.6697	1526.5885	3036.2945	3084.6127	3094.2768	3107.3629	3125.1001	3133.162	3172.9107	3180.3462	3198.2557	3235.329
CC1(OC2CC12)C1CO1	C[C@]1(O[C@@H]2C[C@H]12)[C@@H]1CO1	
InChI=1S/C7H10O2/c1-7(6-3-8-6)4-2-5(4)9-7/h4-6H,2-3H2,1H3	InChI=1S/C7H10O2/c1-7(6-3-8-6)4-2-5(4)9-7/h4-6H,2-3H2,1H3/t4-,5+,6-,7+/m0/s1
