19
gdb 5739	3.1200951	1.2413793	1.120304	1.1932	77.61	-0.22762	0.00847	0.23609	1155.0805	0.15744	-422.522432	-422.514075	-422.513131	-422.555537	31.318	
O	-0.0019510634	 1.3360266782	 0.3632873689	-0.427594
C	 0.0008849033	-0.0099922856	-0.0978446523	-0.072151
C	-1.4240114256	-0.5201970461	-0.0340976143	-0.0463
C	-1.9689882185	-0.7123557289	 1.4382094564	-0.322898
C	-1.5692305909	-2.1621792904	 1.2672553676	 0.231929
C	-0.7020407201	-3.0785034869	 1.6803970269	-0.238989
C	-0.1513122207	-3.7729513177	 0.4412769043	-0.107128
O	-0.5150763491	-2.9254276224	-0.669243716	-0.280247
C	-1.5634670877	-2.0850288091	-0.2235552875	 0.073909
H	 0.9028179357	 1.6607133261	 0.3389218958	 0.285891
H	 0.3671726394	-0.0811261374	-1.1329668903	 0.096775
H	 0.6512071893	-0.6432014799	 0.5237204875	 0.089914
H	-2.0651185453	 0.0810556403	-0.6835908379	 0.079918
H	-1.4768267357	-0.1428835983	 2.2279107846	 0.125904
H	-3.048373143	-0.5461319836	 1.4921325214	 0.113456
H	-0.3053914908	-3.2421126375	 2.6743568862	 0.10307
H	 0.9425644725	-3.8555340771	 0.4744964513	 0.110536
H	-0.5547533615	-4.7863092646	 0.283784143	 0.104238
H	-2.502005388	-2.329701899	-0.7405624756	 0.079767
88.0768	120.4138	167.4596	218.8408	262.7533	289.3998	351.0583	423.4736	528.3335	657.0948	732.1058	756.9141	791.6445	824.0194	844.3641	889.509	925.9567	954.262	972.6114	1027.5419	1034.4004	1047.9309	1074.3257	1111.2491	1137.2826	1147.9858	1165.628	1195.7754	1224.9878	1238.1135	1259.612	1266.4161	1306.323	1338.001	1354.8612	1378.5628	1462.2216	1481.5208	1516.3396	1517.8087	1726.2428	2971.5722	2984.5705	2999.2869	3015.1193	3034.8302	3063.8036	3080.6799	3128.3105	3213.8261	3828.7362
OCC1CC2=CCOC12	OC[C@@H]1C[C]2[CH]CO[C@H]12	
InChI=1S/C7H10O2/c8-4-6-3-5-1-2-9-7(5)6/h1,6-8H,2-4H2	InChI=1S/C7H10O2/c8-4-6-3-5-1-2-9-7(5)6/h1,6-8H,2-4H2/t6-,7-/m0/s1
