19
gdb 3130	2.4024055	1.5784742	1.150682	3.443	77.78	-0.25181	-0.0329	0.21891	1113.108	0.155934	-422.546084	-422.537303	-422.536358	-422.579299	33.159	
C	 2.3948714362	-0.7196608574	-1.4258342701	-0.394673
C	 1.6342710901	-0.2535148216	-0.1925331402	-0.010151
C	 1.8488196455	 1.2270584402	 0.1715176776	-0.094394
C	 1.2023780403	 1.5792850885	 1.4574413493	-0.350274
C	 2.5031398685	 0.8011651841	 1.5238968279	 0.23803
C	 3.7136527401	 1.337134589	 2.1293040418	 0.059662
O	 4.6162813972	 0.6480862868	 2.5681286298	-0.301162
C	 2.2727655214	-0.6811748699	 1.1830047598	 0.046136
O	 3.4530237218	-1.4210704361	 1.0238335049	-0.435042
H	 2.3169293547	-1.8035346435	-1.5454293075	 0.127681
H	 1.9854213968	-0.245056144	-2.3241134733	 0.106069
H	 3.4562814445	-0.4736097172	-1.3514410808	 0.129575
H	 0.5739696394	-0.5175142883	-0.2801628296	 0.073711
H	 2.2223442486	 1.9854923068	-0.5076458845	 0.103831
H	 1.2709346911	 2.6189007169	 1.7648274746	 0.127321
H	 0.2930548156	 1.0759532367	 1.7777358871	 0.126106
H	 3.7820906124	 2.4474797999	 2.1616063791	 0.082399
H	 1.5756472699	-1.1917637826	 1.8655416895	 0.06445
H	 4.0843185359	-1.0857112085	 1.6782118546	 0.300723
75.441	161.7432	194.4519	218.2378	274.7124	282.3717	314.4629	397.3806	430.3002	482.4723	536.5254	564.4013	707.322	757.6474	815.5264	845.4348	875.0955	944.6566	958.1426	991.4969	1017.0009	1043.278	1049.4059	1087.6536	1105.9591	1144.3407	1178.6691	1221.8718	1239.2884	1280.0864	1308.4998	1358.7426	1364.5055	1372.2991	1410.0487	1422.7047	1443.0555	1486.4933	1489.9967	1495.0161	1761.08	2882.079	2969.551	3034.1972	3042.7125	3108.3141	3109.9855	3132.0762	3175.6833	3197.3655	3701.6512
CC1C2CC2(C=O)C1O	C[C@@H]1[C@H]2C[C@@]2(C=O)[C@@H]1O	
InChI=1S/C7H10O2/c1-4-5-2-7(5,3-8)6(4)9/h3-6,9H,2H2,1H3	InChI=1S/C7H10O2/c1-4-5-2-7(5,3-8)6(4)9/h3-6,9H,2H2,1H3/t4-,5-,6-,7+/m1/s1
