19
gdb 4812	2.5926891	0.8152289	0.6480251	2.0116	79.88	-0.24734	-0.03622	0.21112	1697.2067	0.152371	-422.518141	-422.50733	-422.506386	-422.555324	36.797	
C	 1.4539501305	-0.0120697565	-0.2506876699	-0.243779
O	 0.0956809621	-0.147928784	 0.1203944076	-0.24326
C	-0.2691680488	 0.6331852577	 1.2391093148	 0.028411
C	-1.8003073289	 0.6979185689	 1.2999415485	-0.205362
C	-2.4006414949	 1.3508555649	 0.0383948863	-0.361892
C	-3.8561564166	 1.3969936878	 0.0751843608	 0.290818
C	-5.0565933271	 1.4204865408	 0.1308534394	-0.43362
C	 0.2500765305	 0.0016690624	 2.53013286	 0.133523
O	 0.4435295002	 0.6048387665	 3.5520088477	-0.242101
H	 2.1380663021	-0.3200768559	 0.5539207549	 0.11597
H	 1.6167258534	-0.6582295823	-1.1157970189	 0.136937
H	 1.6931914178	 1.0256961652	-0.5265193314	 0.115799
H	 0.1423505661	 1.65277673	 1.1641876605	 0.089368
H	-2.1996792302	-0.3164570286	 1.4081123355	 0.123163
H	-2.0885838968	 1.2612026139	 2.1921339462	 0.132957
H	-2.0026020489	 2.3687070576	-0.0681251278	 0.128463
H	-2.0638036312	 0.7930796383	-0.8416149494	 0.150574
H	-6.117344407	 1.44788666	 0.1666378203	 0.195338
H	 0.402060158	-1.1001098468	 2.447912435	 0.088694
51.4496	65.1142	84.5711	104.7071	147.6278	176.9279	239.1773	260.9524	279.7811	347.4642	412.4308	459.9927	531.9484	572.5817	618.2442	642.3624	763.5813	901.9983	928.2525	953.217	1025.8744	1069.3021	1077.5614	1101.1758	1149.9532	1181.7893	1188.6333	1242.6788	1258.2477	1315.1376	1318.8458	1349.4471	1381.335	1399.8556	1473.2795	1481.6492	1487.352	1489.0946	1507.31	1837.8716	2239.9318	2865.5964	2979.0981	2986.3454	3023.1703	3033.3926	3053.2676	3074.0976	3108.1468	3125.2576	3506.9069
COC(CCC#C)C=O	CO[C@@H](CCC#C)C=O	
InChI=1S/C7H10O2/c1-3-4-5-7(6-8)9-2/h1,6-7H,4-5H2,2H3	InChI=1S/C7H10O2/c1-3-4-5-7(6-8)9-2/h1,6-7H,4-5H2,2H3/t7-/m0/s1
