19
gdb 5023	2.5760976	1.6508854	1.2093041	3.9984	75.5	-0.23124	-0.00476	0.22648000000000001	1074.7523	0.157162	-422.555834	-422.547645	-422.546701	-422.588613	31.288	
C	 1.2538675739	-0.1226919084	-0.0936690629	-0.260272
O	-0.1490747895	-0.0511983611	 0.0630535429	-0.290513
C	-0.6028455001	 0.6381361301	 1.1605220919	 0.331496
C	-0.2382462287	 0.3282700459	 2.6619381496	-0.303132
C	-0.8654248962	 1.7328214289	 2.8886216648	-0.031423
C	-0.275082771	 2.1395968295	 1.5089379448	-0.303129
C	-2.3491724216	 1.4886163904	 2.5523792456	-0.333611
C	-2.1305369444	 0.6728290143	 1.2638323614	 0.405869
O	-2.9373688275	 0.1852073824	 0.5235738264	-0.333346
H	 1.7365460404	-0.6339508949	 0.7506492293	 0.112222
H	 1.4366345534	-0.6982124174	-1.0033455728	 0.13624
H	 1.706170832	 0.8720632224	-0.2082545971	 0.112219
H	-0.7037516199	-0.5378464053	 3.1399393314	 0.10764
H	 0.8412480393	 0.3214931271	 2.8276389148	 0.106872
H	-0.6382693227	 2.3073258595	 3.7839044948	 0.077937
H	-0.7741819811	 2.9253181898	 0.9354581268	 0.10764
H	 0.800531384	 2.3237681543	 1.5530683604	 0.106871
H	-2.8877847337	 0.9049976367	 3.3054206091	 0.125211
H	-2.9182183764	 2.4018798559	 2.3525743887	 0.125212
79.9987	138.5382	187.2461	193.3449	337.6863	384.4416	394.8768	449.0344	559.247	579.9252	625.799	636.3274	765.4644	816.8647	890.7525	895.9638	907.1078	965.3872	981.009	982.704	1021.2257	1066.6473	1077.9845	1117.2516	1123.9503	1170.0608	1180.3464	1181.3242	1215.1816	1244.9148	1247.3129	1275.8652	1305.1687	1350.2982	1461.4348	1482.7258	1486.7283	1491.6502	1504.8345	1521.7744	1880.9147	2994.9741	3047.6473	3054.7406	3058.9635	3062.4536	3101.682	3121.5548	3123.1756	3126.3106	3137.5125
COC12CC(C1)CC2=O	CO[C@@]12C[C@@H](C1)CC2=O	
InChI=1S/C7H10O2/c1-9-7-3-5(4-7)2-6(7)8/h5H,2-4H2,1H3	InChI=1S/C7H10O2/c1-9-7-3-5(4-7)2-6(7)8/h5H,2-4H2,1H3/t5-,7-
