19
gdb 1077	2.8125387	1.306644	1.1823168	2.914	77.53	-0.23854	-0.0208	0.21774	1146.3841	0.155251	-422.592523	-422.583173	-422.582229	-422.627113	34.328	
C	 1.9376865303	 1.365284015	-0.1211451983	-0.471901
C	 1.4765075107	-0.0243264399	 0.2634014909	 0.364642
O	 1.5615389867	-0.443636807	 1.3938296089	-0.307606
C	 0.8471649285	-0.886133414	-0.8547496685	 0.258614
O	 1.4518041089	-0.4537037111	-2.0788147711	-0.47523
C	 0.9877668366	-2.4092574573	-0.5854385138	-0.27531
C	-0.4173766218	-3.031246407	-0.7848294908	-0.268485
C	-1.324164847	-1.8323510635	-0.8805410715	-0.059913
C	-0.6568218229	-0.6794130128	-0.8905560314	-0.140917
H	 2.2090982237	 1.9183580619	 0.7786523763	 0.131579
H	 2.7984329201	 1.2895382646	-0.7923646898	 0.158493
H	 1.1624742641	 1.8966962954	-0.6815926212	 0.135646
H	 0.9009260461	-0.7782749324	-2.7989841057	 0.276468
H	 1.7441215054	-2.8299855225	-1.2515386796	 0.105786
H	 1.3223322816	-2.5471631761	 0.4440385903	 0.137942
H	-0.4901235016	-3.6503678745	-1.6889253319	 0.10779
H	-0.6965305883	-3.6854002859	 0.0490993865	 0.118801
H	-2.403882136	-1.9212873716	-0.9455288141	 0.102964
H	-1.093359985	 0.3101488387	-0.9683178952	 0.100635
48.9425	64.3256	156.833	184.553	262.1593	278.0988	322.4101	351.644	411.4711	456.5089	550.8117	588.4271	612.234	738.6998	757.5736	795.1837	823.5887	908.1938	929.6079	964.0536	977.4628	999.3964	1009.3746	1042.0629	1092.683	1115.5959	1158.6811	1186.2919	1208.7472	1247.7845	1288.1303	1317.9498	1363.6991	1376.8536	1384.7209	1455.491	1467.3844	1474.1781	1493.0816	1676.7087	1812.6341	3020.6744	3050.4961	3056.3381	3079.1607	3114.3258	3132.5421	3156.4355	3178.5619	3205.0981	3809.2382
CC(=O)C1(O)CCC=C1	CC(=O)[C@@]1(O)CCC=C1	
InChI=1S/C7H10O2/c1-6(8)7(9)4-2-3-5-7/h2,4,9H,3,5H2,1H3	InChI=1S/C7H10O2/c1-6(8)7(9)4-2-3-5-7/h2,4,9H,3,5H2,1H3/t7-/m0/s1
