19
gdb 4288	3.0911694	1.4334783	1.2764058	2.9025	77.2	-0.24817	0.00308	0.25125000000000003	1070.8438	0.158119	-422.563318	-422.555339	-422.554395	-422.596359	30.163	
C	-0.3317399849	 1.2417622233	 0.8032050781	-0.3827
C	-0.0512353935	 0.0016204259	-0.0366337031	 0.143962
C	-1.3323208817	-0.8569417921	-0.3148110739	-0.361543
C	-1.2047763975	-1.8241115133	 0.8074032144	 0.241359
C	-1.8638604153	-2.1599181591	 1.908798422	-0.23581
C	-0.8800743912	-2.6975788824	 2.9187656399	-0.110635
O	 0.4130761361	-2.4819847111	 2.3410110691	-0.271322
C	 0.2616515831	-2.0891738938	 0.9978524012	 0.189225
O	 0.8825216742	-0.8582591437	 0.6588913001	-0.28972
H	 0.6101493987	 1.7081219255	 1.1040654062	 0.130556
H	-0.9148192647	 1.9736517398	 0.2334865336	 0.108359
H	-0.8871254032	 0.9783247765	 1.7089298169	 0.119522
H	 0.4259456213	 0.2958023476	-0.9783477393	 0.081054
H	-2.2454219321	-0.2592374286	-0.2937534092	 0.116355
H	-1.2579640273	-1.3443970776	-1.293581631	 0.115689
H	-2.9093635349	-1.9905856912	 2.1340610308	 0.108521
H	-0.9535600193	-2.1586089322	 3.8738711605	 0.116343
H	-1.0085988172	-3.7686067563	 3.1379232748	 0.111003
H	 0.7029940497	-2.8726384772	 0.360513699	 0.069782
50.8597	95.7998	225.5184	250.1438	349.2433	358.1062	404.2576	431.1282	611.6311	684.6595	724.8797	790.8794	800.8597	824.2677	892.6559	907.5813	927.796	946.3961	987.2823	1023.9348	1036.7601	1047.8123	1078.3203	1093.5087	1118.6579	1187.4018	1195.8969	1201.676	1265.1287	1284.3459	1338.7941	1348.78	1379.1842	1385.5089	1404.7808	1406.4588	1480.2772	1489.0181	1495.9264	1515.9417	1751.5824	2963.4738	2988.3602	3018.9638	3031.1316	3034.2703	3046.4615	3106.628	3116.0022	3121.7463	3213.8893
CC1CC2=CCOC2O1	C[C@@H]1C[C]2[CH]CO[C@@H]2O1	
InChI=1S/C7H10O2/c1-5-4-6-2-3-8-7(6)9-5/h2,5,7H,3-4H2,1H3	InChI=1S/C7H10O2/c1-5-4-6-2-3-8-7(6)9-5/h2,5,7H,3-4H2,1H3/t5-,7-/m1/s1
