19
gdb 3616	3.0453068	1.1018014	0.9166889	1.0239	77.35	-0.24629	-0.02906	0.21723	1332.4643	0.155191	-422.540131	-422.530982	-422.530038	-422.574806	32.975	
C	-1.2327238383	-2.1377613187	-1.1861075348	-0.401722
C	-0.9880050511	-1.1523193464	-0.0576471056	 0.033875
O	-1.9099024306	-0.0339760397	-0.0397081279	-0.315693
C	-0.8667458628	 0.9774226616	-0.0770419247	 0.007845
C	-0.9958638256	 1.9645155616	-1.1962585551	 0.011802
C	-1.7923967821	 3.2322026157	-0.9946901993	-0.269855
C	-0.2923944904	 3.2969007851	-1.086091444	-0.262281
C	 0.1708191141	-0.1552705803	-0.2067346087	 0.308908
O	 1.346013186	-0.2272473025	-0.3981697623	-0.278928
H	-0.4558809446	-2.9085500463	-1.1804665137	 0.135026
H	-2.2049370868	-2.6230607858	-1.0606581323	 0.135089
H	-1.2199344238	-1.633871046	-2.1564778244	 0.126484
H	-0.9714864874	-1.668095082	 0.9140261846	 0.10299
H	-0.7885297907	 1.5022074881	 0.8878903441	 0.096145
H	-1.0384609401	 1.5163182444	-2.1843156358	 0.090016
H	-2.378676957	 3.596406144	-1.8304598499	 0.119273
H	-2.253219032	 3.3893318155	-0.0253805143	 0.119714
H	 0.1585799478	 3.7023986498	-1.9840963165	 0.120896
H	 0.2672334456	 3.5018683618	-0.1797319593	 0.120416
63.5066	65.7599	129.7327	191.7823	193.8499	262.7461	291.6231	389.3551	406.401	541.3976	586.9305	708.3882	771.0895	826.3448	843.6954	863.2317	886.2071	931.2666	957.1966	996.6099	1037.2704	1059.4204	1064.4262	1081.978	1094.0394	1127.9066	1130.0807	1194.67	1195.8192	1223.2669	1239.755	1280.1113	1298.8442	1352.7986	1399.6112	1426.4153	1471.6323	1480.9602	1494.1643	1504.7215	1917.6964	2985.8043	2999.0708	3042.653	3119.3888	3122.4483	3136.9027	3141.1393	3153.9398	3216.0101	3230.4296
CC1OC(C2CC2)C1=O	C[C@@H]1O[C@H](C2CC2)C1=O	
InChI=1S/C7H10O2/c1-4-6(8)7(9-4)5-2-3-5/h4-5,7H,2-3H2,1H3	InChI=1S/C7H10O2/c1-4-6(8)7(9-4)5-2-3-5/h4-5,7H,2-3H2,1H3/t4-,7+/m0/s1
