19
gdb 1394	4.2153401	0.5906704	0.5336528	2.2642	78.83	-0.25605	-0.03112	0.22493	1980.5529	0.152518	-422.53311	-422.522255	-422.521311	-422.570374	37.254	
O	 4.7399491971	-0.4077161709	-3.8757110397	-0.435822
C	 5.0633257271	-1.260395333	-2.7891988404	 0.006636
C	 4.628902498	-0.7185992845	-1.4229677236	-0.186396
C	 3.1095115335	-0.6486097341	-1.2573199082	-0.200828
C	 2.6933887191	-0.1156777429	 0.1288750827	-0.355303
C	 1.2474159525	-0.0366696742	 0.2950312347	 0.289345
C	 0.0514813852	 0.01811473	 0.4022983956	-0.43315
C	 6.5727780421	-1.4679755294	-2.8568217542	 0.157816
O	 7.232555872	-1.912280353	-1.9547051906	-0.24703
H	 3.7876619751	-0.4217014236	-4.0050503694	 0.295837
H	 4.617621876	-2.2619735941	-2.9344884044	 0.09759
H	 5.0723074106	-1.365284026	-0.6575009	 0.123923
H	 5.0677305717	 0.2785180874	-1.2929332962	 0.109834
H	 2.6730557185	 0.0050827995	-2.0223154704	 0.103308
H	 2.6681433359	-1.6423917842	-1.4025761837	 0.111237
H	 3.1185165989	-0.7609782932	 0.9086014649	 0.135209
H	 3.1352586901	 0.8772205881	 0.2844174244	 0.134304
H	-1.0031279348	 0.0717945827	 0.5125157409	 0.195507
H	 7.0137059115	-1.1796890546	-3.8359384425	 0.097985
45.1808	72.9012	94.2332	94.5857	130.7324	173.5358	230.616	262.5084	319.3108	349.2786	425.7343	463.1894	522.4824	611.5222	619.2096	641.1262	742.8653	829.8834	845.0203	957.5348	980.37	997.6165	1041.7228	1070.6654	1117.4691	1130.0653	1188.2712	1219.8607	1251.1927	1294.64	1323.6634	1327.1894	1362.4513	1378.1668	1399.3715	1423.1517	1473.0432	1476.9897	1501.9592	1839.1371	2239.6778	2905.2075	2937.3667	3016.7765	3025.6236	3035.8544	3043.6936	3065.9235	3089.879	3507.38	3843.553
OC(CCCC#C)C=O	O[C@H](CCCC#C)C=O	
InChI=1S/C7H10O2/c1-2-3-4-5-7(9)6-8/h1,6-7,9H,3-5H2	InChI=1S/C7H10O2/c1-2-3-4-5-7(9)6-8/h1,6-7,9H,3-5H2/t7-/m1/s1
