19
gdb 1615	3.3799569	1.1041874	0.9507711	3.5157	77.46	-0.24622	-0.03021	0.21600999999999998	1290.0433	0.15509	-422.536934	-422.527741	-422.526797	-422.571964	33.561	
C	-2.0644323502	 1.8376400092	 1.4371623798	-0.487761
C	-2.0161493612	 0.3308651132	 1.549820433	 0.298556
C	-3.2671536048	-0.4375235967	 1.735835729	-0.196418
O	-2.4031399486	-0.1894995751	 2.8316468422	-0.247429
C	-0.8590249659	-0.4505530595	 0.9302340481	 0.3358
O	-0.7856135463	-1.6505414817	 1.0987897358	-0.337339
C	 0.1533658607	 0.2817579248	 0.1196594688	-0.132867
C	 0.7706707177	-0.4739657809	-1.053015666	-0.24558
C	 1.5830756425	-0.2498681876	 0.1711422788	-0.243444
H	-1.1733052669	 2.2978514826	 1.8761653981	 0.134389
H	-2.1369887959	 2.1603044512	 0.3935210754	 0.12796
H	-2.9366864872	 2.2163843203	 1.9747889725	 0.132327
H	-4.2132373045	 0.1036006745	 1.7444763578	 0.11087
H	-3.2970261861	-1.4705371655	 1.3976080711	 0.134236
H	 0.0326672824	 1.3503035518	 0.0065331991	 0.0928
H	 0.3806496692	-1.4718669716	-1.2162716754	 0.140805
H	 0.9896987952	 0.100827102	-1.9454069231	 0.118946
H	 1.7374610846	-1.0962698222	 0.8299515753	 0.144185
H	 2.3789610651	 0.4854685411	 0.1502604398	 0.119966
32.3614	48.4515	185.0507	238.7711	252.9069	292.5635	327.3858	329.2554	375.635	400.1199	570.0343	725.8172	754.201	797.5544	817.2139	825.3708	853.6781	897.5098	914.7415	937.4264	1030.0324	1048.0624	1080.7473	1095.8228	1102.1055	1112.676	1125.752	1141.3263	1175.7267	1211.554	1224.1174	1265.1179	1365.8169	1410.4027	1415.7365	1452.7969	1484.147	1485.1459	1496.3051	1502.8802	1775.2238	3038.5852	3082.4868	3103.6341	3125.363	3142.0268	3144.5194	3186.9516	3206.6946	3231.2999	3246.3232
CC1(CO1)C(=O)C1CC1	C[C@@]1(CO1)C(=O)C1CC1	
InChI=1S/C7H10O2/c1-7(4-9-7)6(8)5-2-3-5/h5H,2-4H2,1H3	InChI=1S/C7H10O2/c1-7(4-9-7)6(8)5-2-3-5/h5H,2-4H2,1H3/t7-/m1/s1
