19
gdb 3776	4.0355014	0.9803293	0.8756546	0.9221	75.58	-0.22443	0.0737	0.29813	1331.6375	0.15623	-422.488069	-422.479605	-422.478661	-422.521642	32.194	
O	 0.7258428346	 4.1803877044	 0.0339007567	-0.420898
C	 0.7363136915	 2.9287219312	 0.6539228619	 0.109987
C	 0.8002404023	 1.7455133447	-0.2532923068	-0.309476
C	 1.9970043086	 2.0837265408	 0.6190792841	-0.199286
C	 2.4099727237	 1.265178837	 1.7849016178	 0.298045
C	 1.676527331	 0.0582521069	 2.3466962211	-0.35382
C	 3.1090242539	-0.0745784899	 1.9339232979	 0.051227
O	 3.9789122788	 0.3936017155	 2.9652060297	-0.286803
C	 3.4162974983	 1.7269880792	 2.8446702521	-0.132929
H	 1.1770845385	 4.8036551525	 0.6129696246	 0.285239
H	 0.1109637744	 2.8413972488	 1.5425407962	 0.08833
H	 0.1949596964	 0.8793776883	-0.0125413768	 0.114664
H	 0.8983880132	 1.9550762528	-1.3120840251	 0.126045
H	 2.8178362537	 2.5529514972	 0.0806072735	 0.089697
H	 1.4183650534	 0.0031966898	 3.4014656274	 0.112241
H	 0.9568600523	-0.3949411493	 1.6722169777	 0.116689
H	 3.5001163693	-0.7889725033	 1.2186389463	 0.106093
H	 3.0224263794	 2.1042475503	 3.7966276222	 0.101703
H	 4.1663730068	 2.4247620832	 2.4525457397	 0.103252
44.2605	124.8944	176.0835	280.9506	306.347	338.8313	360.6236	402.3384	455.8967	475.1138	670.2346	761.5859	827.6406	838.4815	882.2821	913.2431	925.3965	930.9981	982.4449	986.7782	997.4971	1032.4073	1060.3079	1063.2208	1083.8504	1090.5999	1114.1016	1143.2012	1155.2218	1184.0807	1207.9081	1219.8317	1273.2002	1295.9689	1306.8879	1355.3129	1406.9612	1442.1839	1478.0638	1500.4704	1516.0032	3013.2312	3062.3403	3100.1058	3109.5993	3128.8055	3143.9334	3180.6097	3205.2786	3233.5617	3804.0616
OC1CC1C12CC1OC2	O[C@H]1C[C@@H]1[C@@]12C[C@@H]1OC2	
InChI=1S/C7H10O2/c8-5-1-4(5)7-2-6(7)9-3-7/h4-6,8H,1-3H2	InChI=1S/C7H10O2/c8-5-1-4(5)7-2-6(7)9-3-7/h4-6,8H,1-3H2/t4-,5-,6-,7-/m0/s1
