19
gdb 2972	1.920292	1.7177821	1.1235521	2.3289	77.5	-0.24196	-0.02468	0.21728	1146.2797	0.155532	-422.541795	-422.532718	-422.531774	-422.575329	33.702	
C	 0.897099757	-0.4107151595	-0.7992221233	-0.41831
C	 0.9358392675	 0.1912580266	 0.600599506	-0.042081
C	 1.6604840659	 1.5744469099	 0.6923605889	-0.242824
C	 2.6848041939	 0.9963503509	 1.673427514	-0.122343
C	 2.0387678909	 0.4077880955	 2.8550705541	 0.067961
O	 0.897036035	 1.0103851261	 3.3772932518	-0.413424
C	 1.9813668973	-0.4082869918	 1.563041207	 0.169388
C	 2.6491175038	-1.7124343937	 1.5031192661	 0.042714
O	 3.5842696656	-2.0348590795	 2.2064443107	-0.286535
H	 0.4789550078	-1.4229403846	-0.796894484	 0.119084
H	 0.2725873914	 0.2027259338	-1.4573579175	 0.120243
H	 1.8987622018	-0.4633591776	-1.2413125326	 0.117819
H	-0.0726647436	 0.2055622381	 1.0260578207	 0.072503
H	 2.1153440551	 1.8544150542	-0.2603775236	 0.105504
H	 1.0701916988	 2.4117182286	 1.0707519704	 0.117915
H	 3.7550654397	 1.1641891126	 1.6450199673	 0.111335
H	 2.7206392425	-0.0328164421	 3.5808977421	 0.120607
H	 0.400367126	 0.3432581632	 3.8629605402	 0.292535
H	 2.2388648036	-2.4207710105	 0.7492672817	 0.06791
106.1351	127.6013	180.0065	208.9857	218.5899	263.6149	294.7827	336.9226	375.0993	493.355	524.7378	596.1431	672.9404	738.0151	769.5972	859.6717	884.2892	913.4288	945.3799	1008.5923	1027.3533	1032.6359	1075.6629	1094.1053	1128.2039	1150.1959	1195.6229	1228.7285	1247.0845	1262.1226	1281.0284	1303.2358	1337.3651	1359.9784	1410.7248	1436.9896	1468.3118	1493.4382	1494.5805	1500.844	1777.6662	2877.6757	3025.5391	3047.8789	3068.1383	3094.0251	3096.9185	3122.2556	3130.3391	3185.5344	3810.2466
CC1CC2C(O)C12C=O	C[C@@H]1C[C@H]2[C@@H](O)[C@@]12C=O	
InChI=1S/C7H10O2/c1-4-2-5-6(9)7(4,5)3-8/h3-6,9H,2H2,1H3	InChI=1S/C7H10O2/c1-4-2-5-6(9)7(4,5)3-8/h3-6,9H,2H2,1H3/t4-,5+,6-,7+/m1/s1
