19
gdb 1283	3.6772783	1.0253676	1.0220718	1.8138	76.81	-0.24238	-0.00412	0.23826	1261.5912	0.156466	-422.550675	-422.542041	-422.541097	-422.584137	32.696	
C	 3.7168221915	 2.5816969964	 0.2328427952	-0.388434
C	 4.2675463169	 3.8853405896	 0.8052737693	 0.030984
O	 5.5436998284	 3.5676750537	 1.3711385747	-0.430675
C	 3.3783200658	 4.5069832524	 1.8479571306	 0.307277
C	 2.9040694712	 5.7597505572	 1.8404492274	-0.232208
C	 2.2117321814	 6.0702929885	 3.1248936459	 0.01178
O	 3.0958751406	 5.9835370819	 4.2703628794	-0.261133
C	 2.2890648012	 4.8501132848	 3.9473663502	 0.036183
C	 3.0021622305	 3.7787033669	 3.132759063	-0.333071
H	 3.5884477965	 1.8358628474	 1.0223390072	 0.126455
H	 2.751774482	 2.7520194538	-0.2525110079	 0.117928
H	 4.4163823197	 2.1785418499	-0.5042121922	 0.126324
H	 4.3896216784	 4.6072425173	-0.0178529472	 0.066568
H	 5.8871019997	 4.371016948	 1.7773009999	 0.285324
H	 3.0423194395	 6.4793237363	 1.0418211875	 0.098184
H	 1.4263652855	 6.8151758909	 3.206439119	 0.096808
H	 1.5435796967	 4.5805864815	 4.6906715888	 0.095521
H	 3.8854509874	 3.381974933	 3.6442280243	 0.133145
H	 2.3359918569	 2.9288660604	 2.9376446648	 0.11304
60.1008	110.6366	202.2967	238.6528	267.8849	329.8333	364.3472	380.4181	481.3265	536.4327	549.5493	659.7901	719.3112	820.2907	845.8	850.513	878.894	910.2434	929.3239	964.9284	992.9721	1016.1769	1031.6732	1068.8581	1105.7707	1117.3418	1176.026	1198.2968	1251.9978	1272.125	1285.4353	1307.9937	1340.2693	1372.5879	1392.1054	1411.8147	1419.4529	1462.1442	1485.258	1499.3185	1686.1754	2971.7858	3033.2324	3046.6669	3082.0106	3123.4063	3125.3656	3147.8945	3167.0265	3200.1717	3806.3116
CC(O)C1=CC2OC2C1	C[C@H](O)C1=C[C@@H]2O[C@@H]2C1	
InChI=1S/C7H10O2/c1-4(8)5-2-6-7(3-5)9-6/h2,4,6-8H,3H2,1H3	InChI=1S/C7H10O2/c1-4(8)5-2-6-7(3-5)9-6/h2,4,6-8H,3H2,1H3/t4-,6-,7+/m0/s1
