19
gdb 5589	2.8457643	1.2053263	0.9431661	2.4435	76.96	-0.23393	-0.0101	0.22383	1274.357	0.156826	-422.561601	-422.553009	-422.552065	-422.59507	31.844	
C	 1.5154246421	-0.0172637034	-0.1265535924	-0.242978
O	 0.1060693856	 0.1131470202	-0.0536402969	-0.240296
C	-0.3251404893	 0.7396229491	 1.1025233682	 0.118149
C	-1.6978531964	 0.4167763678	 1.5491083762	-0.096958
C	-2.4105439235	 1.448254649	 2.4267784581	-0.235674
C	-1.4363570477	 1.7526680693	 3.584312718	-0.340883
C	-0.4899032486	 0.5403499955	 3.6626561866	 0.415681
O	 0.1361032019	 0.2007363095	 4.6370880386	-0.334658
C	-0.5224349752	-0.1530759696	 2.3435643313	-0.200415
H	 1.9067075031	-0.6328629126	 0.694828332	 0.119993
H	 1.7414531083	-0.4994279639	-1.079702189	 0.132943
H	 2.0115156111	 0.9637397283	-0.0946821239	 0.112338
H	 0.0758517393	 1.7449126365	 1.2491813588	 0.091195
H	-2.2809970138	-0.233735384	 0.9077708647	 0.107201
H	-2.697362542	 2.3417844603	 1.8634966549	 0.10872
H	-3.3301164002	 1.0032118916	 2.8202254755	 0.115208
H	-0.8297548479	 2.6456797216	 3.387158021	 0.129091
H	-1.9243106964	 1.9110278642	 4.5475955789	 0.130977
H	-0.1925788803	-1.1811440092	 2.2690186293	 0.110366
92.0693	129.3637	147.243	178.254	232.1285	284.0323	398.3065	425.1544	489.6201	528.6513	623.8508	651.1257	800.4365	820.1495	834.1216	899.5255	923.5174	945.3305	1015.6732	1031.248	1045.9689	1059.2755	1084.7867	1160.446	1169.5923	1174.4754	1181.988	1190.1602	1226.389	1242.877	1280.5934	1288.8662	1321.1561	1346.3061	1436.1883	1460.3439	1486.3659	1487.9617	1500.7136	1508.3289	1827.6878	2992.007	3037.9621	3047.7566	3047.9933	3074.7614	3085.8083	3119.3211	3128.1468	3185.9177	3208.5754
COC1C2CCC(=O)C12	CO[C@H]1[C@@H]2CCC(=O)[C@H]12	
InChI=1S/C7H10O2/c1-9-7-4-2-3-5(8)6(4)7/h4,6-7H,2-3H2,1H3	InChI=1S/C7H10O2/c1-9-7-4-2-3-5(8)6(4)7/h4,6-7H,2-3H2,1H3/t4-,6-,7+/m1/s1
