19
gdb 5693	2.8843029	1.4635993	1.1401637	3.4546	76.21	-0.24799	0.07174	0.31972999999999996	1105.4556	0.15683	-422.462239	-422.454208	-422.453263	-422.494812	31.238	
O	 1.756707254	 0.5723157116	 0.3518244227	-0.433925
C	 0.5335354212	-0.1366296376	 0.4466958683	-0.064001
C	-0.4316111769	 0.5840919225	 1.3576081421	-0.137218
C	-1.4224059969	-0.1392642191	 2.2706749666	-0.420898
C	-0.1915975343	 0.493248797	 2.8207886947	 0.459857
C	 1.0274455203	-0.0267840335	 3.6003467865	-0.048512
C	 0.3697696154	 0.4517797865	 4.917131015	-0.219973
C	 0.2080118571	 1.5588528619	 3.8475962704	-0.052924
O	 1.6321776042	 1.3275889286	 3.4513535834	-0.313289
H	 1.9420082387	 0.9383594838	 1.2292527551	 0.288918
H	 0.1369182093	-0.22294669	-0.5713711032	 0.103306
H	 0.6886435958	-1.1640666622	 0.8207652628	 0.071177
H	-0.7565918645	 1.5539949901	 0.9878388641	 0.097142
H	-2.3864983865	 0.3300870982	 2.4377364947	 0.120471
H	-1.4577264644	-1.2242397394	 2.2290738872	 0.12015
H	 1.6704250371	-0.8866041875	 3.414712726	 0.108787
H	-0.5320616499	-0.0641608738	 5.253192139	 0.106142
H	 1.0664728504	 0.682662983	 5.7236706848	 0.111314
H	-0.1201897501	 2.5928151997	 3.9492333197	 0.103476
100.7555	120.3995	185.0308	229.9838	315.4887	397.0288	436.7448	529.7203	549.039	595.1026	675.0502	724.5384	788.5555	823.3778	864.2895	875.1317	915.8813	951.882	981.1686	1007.1175	1029.6941	1045.8321	1062.1026	1072.1384	1087.6432	1119.6258	1135.5467	1166.9645	1169.4045	1170.8994	1215.5609	1229.461	1248.1604	1264.09	1330.2783	1375.0771	1436.1739	1457.382	1479.6027	1513.8073	1520.3655	2945.7951	3055.1292	3071.9917	3121.6272	3126.2659	3130.7187	3137.4831	3154.1303	3206.0465	3715.1846
OCC1CC11C2CC1O2	OC[C@H]1C[C@]21[C@@H]1C[C@H]2O1	
InChI=1S/C7H10O2/c8-3-4-2-7(4)5-1-6(7)9-5/h4-6,8H,1-3H2	InChI=1S/C7H10O2/c8-3-4-2-7(4)5-1-6(7)9-5/h4-6,8H,1-3H2/t4-,5-,6+,7-/m1/s1
