19
gdb 4619	3.7982197	0.7029619	0.6619765	1.1578	83.75	-0.23992	0.02118	0.2611	1748.1298	0.153609	-422.512289	-422.501671	-422.500727	-422.548919	37.467	
C	 5.9429123476	 0.7739928542	 1.302407947	-0.43099
C	 4.680680652	-0.0478658077	 1.2351167814	 0.434142
O	 3.9182989502	 0.096632333	 2.3956554301	-0.468116
C	 4.6707866647	-1.3701257812	 0.5272076887	-0.335087
C	 3.9378935084	-0.1732134352	-0.0987276894	-0.284435
C	 2.5088514338	-0.1305597161	-0.0723700107	 0.008291
C	 1.3037724772	-0.0759305586	 0.0055377372	 0.112268
C	-0.1535378956	 0.0149847138	 0.0884214543	-0.194047
O	-0.6412531846	 1.3444294087	 0.2051472329	-0.40003
H	 6.5419865548	 0.468858011	 2.1665478296	 0.131428
H	 6.5488642904	 0.6422921314	 0.4017700706	 0.114839
H	 5.7033839845	 1.8358352845	 1.4137140057	 0.127044
H	 2.9853576412	 0.0713989277	 2.1435466789	 0.278674
H	 5.5683455989	-1.7124850158	 0.0235516485	 0.118427
H	 4.0498697916	-2.1524379933	 0.9477967821	 0.125191
H	 4.4096730413	 0.2848891798	-0.9630108339	 0.113841
H	-0.6049779309	-0.3860031513	-0.8260740382	 0.143874
H	-0.5090236274	-0.6176808469	 0.9177811208	 0.11856
H	-0.1661122382	 1.7649475819	 0.9293661544	 0.286124
32.4007	70.3548	92.942	158.7273	222.511	227.8455	240.1588	282.5689	308.609	357.5569	406.8793	431.201	512.7573	522.4654	607.4268	705.4266	738.1413	823.1542	911.3939	926.9591	980.2663	984.6092	1017.4959	1048.9625	1052.5819	1091.9778	1106.5064	1195.0764	1214.106	1217.7754	1311.8458	1349.4602	1356.9421	1401.6353	1417.9334	1441.6716	1477.9319	1478.4306	1489.6742	1503.1157	2335.6754	2974.1163	3038.641	3061.2798	3107.1619	3118.8399	3136.4549	3147.8385	3232.4881	3738.556	3817.219
CC1(O)CC1C#CCO	C[C@]1(O)C[C@H]1C#CCO	
InChI=1S/C7H10O2/c1-7(9)5-6(7)3-2-4-8/h6,8-9H,4-5H2,1H3	InChI=1S/C7H10O2/c1-7(9)5-6(7)3-2-4-8/h6,8-9H,4-5H2,1H3/t6-,7+/m1/s1
