19
gdb 2973	2.3917608	1.5319249	1.2521813	2.9219	75.04	-0.2384	-0.00926	0.22914	1084.1594	0.157213	-422.568878	-422.560493	-422.559549	-422.60144	32.316	
C	-0.8597150222	-0.0027699448	 2.4447566003	-0.435188
C	-1.5410375574	-0.0247952091	 1.0831200715	 0.002886
C	-1.0411699242	 1.0300460751	 0.0342011631	-0.137517
C	-1.9509526963	 0.724608212	-1.1774933223	-0.278162
C	-1.9090169067	-0.8485128804	-1.1723690255	 0.138887
O	-3.1703184294	-1.4775494902	-1.1003378144	-0.435525
C	-0.9875794526	-1.0765360501	 0.0509718126	-0.172939
C	 0.0812795036	 0.0041009541	-0.2159883366	 0.425547
O	 1.2613199286	 0.0295168743	-0.3966475837	-0.327419
H	-1.1257481912	-0.8899576427	 3.0284058987	 0.12354
H	 0.2311326294	 0.0193290808	 2.3513067375	 0.1404
H	-1.1637436812	 0.8789378464	 3.0181930268	 0.12222
H	-2.6305471876	-0.0377301598	 1.2021202641	 0.057319
H	-0.8460000132	 2.0692820489	 0.2938831005	 0.083483
H	-2.9753017117	 1.0778820221	-1.0215530749	 0.106224
H	-1.5823776696	 1.1561631641	-2.1113662781	 0.118174
H	-1.4563005923	-1.2460031457	-2.0839057922	 0.103633
H	-3.6220459995	-1.1730830855	-0.3062856104	 0.278451
H	-0.7427584564	-2.1025306597	 0.3181732831	 0.085988
133.6588	157.4897	219.3758	228.8096	260.2299	270.675	347.3651	445.7529	469.5005	527.646	628.6277	652.7542	764.0772	782.0191	806.0177	837.7313	935.0689	949.5065	978.631	998.8496	1034.1453	1059.8678	1065.643	1074.8544	1103.8448	1114.7276	1148.0304	1198.5163	1210.1124	1226.1059	1241.0861	1301.1479	1302.5913	1314.865	1376.487	1421.8393	1441.6462	1491.7712	1496.0645	1501.5285	1900.5478	3031.8036	3034.829	3053.5396	3082.2804	3101.7093	3105.6571	3107.9332	3136.0182	3147.1709	3810.7571
CC1C2CC(O)C1C2=O	C[C@H]1[C@@H]2C[C@H](O)[C@H]1C2=O	
InChI=1S/C7H10O2/c1-3-4-2-5(8)6(3)7(4)9/h3-6,8H,2H2,1H3	InChI=1S/C7H10O2/c1-3-4-2-5(8)6(3)7(4)9/h3-6,8H,2H2,1H3/t3-,4-,5-,6-/m0/s1
