19
gdb 2493	2.2311767	2.0012084	1.4923555	1.5791	75.25	-0.24882	0.0119	0.26072	974.5594	0.158264	-422.580017	-422.5722	-422.571256	-422.612277	30.268	
C	-0.0791063389	-0.1425944748	 0.0040867764	-0.45402
C	 1.4307828083	 0.0432440871	-0.0449550007	 0.347808
O	 1.702964291	 1.440346011	 0.1546861237	-0.28122
C	 2.8717043017	 1.7103927548	-0.5711251009	 0.007003
O	 2.8096325569	 0.9330440569	-1.7493347417	-0.262565
C	 2.1172720713	-0.268652122	-1.4210295685	 0.041537
C	 3.0641802692	-1.468274384	-1.1796970136	-0.283416
C	 3.0703556421	-1.629546326	 0.3209126225	-0.07717
C	 2.1928557517	-0.8322478983	 0.9260699128	-0.121196
H	-0.4639776998	 0.1223126378	 0.9934584642	 0.125987
H	-0.5627530805	 0.5012650176	-0.7359358906	 0.127324
H	-0.3460097065	-1.1840008612	-0.1987104036	 0.119485
H	 2.8881306203	 2.7703829339	-0.8411893779	 0.115789
H	 3.7719087629	 1.4541717426	 0.0146770631	 0.083377
H	 1.4006546181	-0.4599340164	-2.2241519042	 0.083078
H	 2.6979046174	-2.3755171912	-1.6777877555	 0.109182
H	 4.0558754571	-1.261648141	-1.5962724859	 0.120837
H	 3.7157092925	-2.3418901739	 0.8247550754	 0.099633
H	 2.0110124351	-0.7768689128	 1.993594535	 0.098546
70.8245	200.4852	225.2562	250.691	274.5238	375.2677	428.5841	490.2365	598.9759	618.858	720.8067	762.6487	773.3724	837.2177	881.0979	902.7056	952.0368	955.8086	981.9514	994.2494	1024.312	1057.3218	1108.7704	1112.193	1143.6478	1175.7234	1189.8961	1196.8737	1225.0722	1249.9547	1277.3548	1325.0948	1361.6653	1389.1751	1404.6411	1428.0001	1472.1252	1482.109	1494.4702	1541.572	1686.0312	2947.3753	3023.735	3040.2958	3068.1371	3073.7555	3084.6258	3114.7796	3120.0434	3178.652	3206.0962
CC12OCOC1CC=C2	C[C@]12OCO[C@H]1CC=C2	
InChI=1S/C7H10O2/c1-7-4-2-3-6(7)8-5-9-7/h2,4,6H,3,5H2,1H3	InChI=1S/C7H10O2/c1-7-4-2-3-6(7)8-5-9-7/h2,4,6H,3,5H2,1H3/t6-,7+/m0/s1
