19
gdb 5250	2.9965923	1.5407176	1.3949857	1.9687	73.79	-0.24481	0.06917	0.31398	1005.5043	0.158845	-422.524167	-422.516778	-422.515834	-422.556057	29.546	
O	 0.9784687066	 1.0838164048	 0.4160873043	-0.417771
C	 0.4208425546	-0.2082144195	 0.5989754105	-0.193495
C	-0.9179325077	-0.1185174887	 1.2694180485	 0.467138
O	-0.8718901613	 0.4046132074	 2.6094540508	-0.347451
C	-2.2487766449	-0.0800418443	 2.6904584123	 0.066449
C	-2.9682270845	 0.9412389631	 1.7891838876	-0.207892
C	-2.2073096915	 0.4950123012	 0.5233113782	-0.119196
C	-2.7198112827	-0.9607783697	 0.358262301	-0.250488
C	-1.9279212725	-1.2268424656	 1.6492904073	-0.140135
H	 0.9694534672	 1.5106051817	 1.2806139394	 0.295476
H	 0.3196285664	-0.6536309944	-0.3960912555	 0.112913
H	 1.0858820209	-0.8539023917	 1.19322194	 0.095565
H	-2.5889914958	-0.2636131443	 3.7082786237	 0.081229
H	-4.0495750847	 0.8011433721	 1.7049256122	 0.09609
H	-2.7519085568	 1.9588203092	 2.1197988468	 0.106726
H	-2.1190026448	 1.1822176341	-0.3150858419	 0.079139
H	-3.802079435	-1.1176815517	 0.3493346274	 0.095439
H	-2.2676941758	-1.4816806181	-0.4902967155	 0.103536
H	-1.6440578877	-2.2073530658	 2.0285283628	 0.076728
79.9345	142.4767	274.3698	326.7911	408.747	453.2774	474.373	543.022	626.4691	695.0087	732.7078	799.2888	832.393	875.2315	896.5495	916.3195	943.9609	957.5503	976.4914	988.026	1017.6073	1031.0699	1058.51	1083.8553	1096.5955	1105.2227	1140.2807	1178.6911	1215.3403	1226.1257	1232.8794	1249.8692	1284.8175	1303.0717	1318.4115	1341.9206	1382.9724	1439.0749	1481.8981	1494.687	1505.7438	2987.1511	3052.998	3064.0725	3078.0682	3106.5839	3122.7632	3128.157	3139.0293	3146.2601	3801.2255
OCC12OC3CC1CC23	OC[C@@]12O[C@H]3C[C@@H]1C[C@@H]23	
InChI=1S/C7H10O2/c8-3-7-4-1-5(7)6(2-4)9-7/h4-6,8H,1-3H2	InChI=1S/C7H10O2/c8-3-7-4-1-5(7)6(2-4)9-7/h4-6,8H,1-3H2/t4-,5+,6-,7+/m0/s1
