19
gdb 5783	2.5693831	1.5224207	1.4059696	1.9565	75.66	-0.2438	-0.01144	0.23235999999999998	1032.6521	0.15761	-422.531386	-422.523091	-422.522147	-422.564284	31.239	
C	 1.4102466387	-0.1234182706	-0.3204719649	-0.235865
O	 0.0303073136	-0.0993086021	 0.0008718462	-0.257201
C	-0.3616256389	 0.6411709702	 1.1563381122	 0.075417
C	 0.0475961073	-0.0292073113	 2.4936383913	-0.289075
C	 1.2269751962	 0.5728494477	 3.2249752802	 0.060577
O	 2.4262237871	 0.8199032759	 2.4986878902	-0.250493
C	 1.6313458367	 1.9557571313	 2.9256363019	-0.012777
C	 0.907076105	 2.6958262355	 1.8630408068	-0.036356
C	 0.0204190791	 2.1002448668	 1.0643655143	-0.11141
H	 2.018600428	-0.5821325654	 0.4670628008	 0.121541
H	 1.4919466205	-0.7177750561	-1.23421031	 0.116067
H	 1.8102272824	 0.881040338	-0.5083349818	 0.108305
H	-1.4551279364	 0.5854002699	 1.0945279974	 0.090767
H	-0.8056634932	 0.0259584954	 3.1813400513	 0.111356
H	 0.2193411503	-1.094334675	 2.3020703026	 0.123737
H	 1.3918870158	 0.1885680177	 4.2331318198	 0.090882
H	 2.1131750709	 2.5495543132	 3.6993623649	 0.094469
H	 1.1266067872	 3.754151052	 1.753627489	 0.097275
H	-0.4715997203	 2.6663872268	 0.2777820678	 0.102782
86.3351	114.4555	186.8334	210.3911	291.0387	332.2423	389.288	429.5562	499.1359	612.3096	640.6401	724.4482	742.1482	825.864	837.6698	903.808	930.506	951.6288	975.9909	1001.9128	1023.9227	1059.1647	1096.7022	1129.3654	1155.5995	1180.3061	1196.6409	1224.6699	1257.2985	1282.0441	1324.9759	1362.5249	1388.9892	1396.072	1423.2722	1457.5189	1475.093	1482.7427	1487.7339	1506.1821	1710.8978	3013.7414	3021.7035	3037.8739	3074.7683	3076.396	3092.5788	3114.392	3134.1218	3155.9776	3178.379
COC1CC2OC2C=C1	CO[C@H]1C[C@H]2O[C@H]2C=C1	
InChI=1S/C7H10O2/c1-8-5-2-3-6-7(4-5)9-6/h2-3,5-7H,4H2,1H3	InChI=1S/C7H10O2/c1-8-5-2-3-6-7(4-5)9-6/h2-3,5-7H,4H2,1H3/t5-,6+,7-/m1/s1
