19
gdb 4388	2.820161	1.1941076	0.8778544	2.3069	81.55	-0.24624	-0.05644	0.1898	1303.3922	0.155879	-422.591792	-422.582385	-422.581441	-422.626149	33.969	
C	 1.3761355223	 0.8067048002	 0.2559323736	-0.495901
C	 0.0080176115	 0.2555476656	 0.0227244646	 0.172049
C	-1.1336565225	 0.8828740018	-0.3251507124	 0.130592
C	-2.2850933078	-0.0839258288	-0.5113065071	-0.310161
C	-1.7606788365	-1.3801541002	 0.1417256651	-0.257396
C	-0.2217305338	-1.2486131492	 0.120302925	 0.078492
O	 0.4503548165	-1.8755592407	 1.2011288698	-0.427757
C	-1.3060596295	 2.3180315677	-0.553725183	 0.06881
O	-2.3539648251	 2.8202064342	-0.9046254697	-0.27378
H	 1.7799860921	 0.4164948691	 1.1957499747	 0.141982
H	 2.0594428575	 0.4623101129	-0.5316358968	 0.141887
H	 1.4067020469	 1.8969212855	 0.2801000224	 0.132949
H	-3.2128604372	 0.2882769863	-0.0687587247	 0.124139
H	-2.4919897275	-0.224694184	-1.5796736463	 0.120101
H	-2.0815977818	-1.4219659545	 1.1904288455	 0.09696
H	-2.114255345	-2.2934959703	-0.3410933918	 0.110383
H	 0.203712485	-1.729331293	-0.7725188123	 0.103888
H	 0.0460614352	-1.5605036458	 2.017756571	 0.278071
H	-0.4086291704	 2.9494830632	-0.3807417177	 0.064694
76.2968	113.9388	135.1524	181.772	194.9849	259.1648	299.4628	337.6448	391.3324	428.4315	494.5089	565.0865	629.6471	654.1811	756.2363	848.4645	878.7546	960.5384	982.3369	1015.6908	1039.7953	1057.2861	1073.0332	1106.2037	1145.5429	1195.3248	1222.8749	1256.2756	1276.9569	1308.3631	1326.759	1364.0849	1406.8848	1418.6893	1428.6668	1470.0619	1479.0096	1483.2894	1498.306	1694.3872	1771.2445	2898.044	3006.5286	3027.7808	3029.677	3034.4775	3083.6801	3090.561	3109.8752	3137.9459	3791.6839
CC1=C(CCC1O)C=O	CC1=C(CC[C@@H]1O)C=O	
InChI=1S/C7H10O2/c1-5-6(4-8)2-3-7(5)9/h4,7,9H,2-3H2,1H3	InChI=1S/C7H10O2/c1-5-6(4-8)2-3-7(5)9/h4,7,9H,2-3H2,1H3/t7-/m0/s1
