19
gdb 2088	2.8475745	1.6816113	1.423616	2.5967	74.32	-0.23637	0.0719	0.30827	987.6077	0.157001	-422.527638	-422.519853	-422.518909	-422.559195	31.431	
C	 0.0091419114	 0.6980095919	-0.2117662474	-0.502378
C	 1.4012939925	 0.149155928	-0.0216547584	 0.285164
C	 2.3251209059	 0.6051386981	 1.1457613279	-0.359852
C	 3.4613272636	 0.1535941212	 0.2122685566	 0.396745
O	 4.7839973113	 0.5463087272	 0.3211998299	-0.478614
C	 3.1017552529	-1.2820609524	-0.3891686341	-0.008772
C	 1.6225998296	-1.3843319301	 0.0105481602	-0.249423
O	 2.9974405787	-0.7024282728	-1.724049836	-0.293156
C	 2.6182569294	 0.486959855	-1.0279445562	 0.019652
H	-0.6532086608	 0.3967921259	 0.6082612849	 0.117239
H	 0.0113293176	 1.7927444488	-0.2491368736	 0.114876
H	-0.4312583733	 0.3307172822	-1.1454930864	 0.122629
H	 2.3501064506	 1.6928462678	 1.263737878	 0.103475
H	 2.1892878579	 0.1254808702	 2.1203181995	 0.088163
H	 5.1824594529	 0.085714813	 1.0676907719	 0.282499
H	 3.7679573509	-2.1428093048	-0.3317559484	 0.077895
H	 1.0558470625	-1.9379671823	-0.7422498752	 0.105414
H	 1.4397019797	-1.8126922147	 1.000353996	 0.092192
H	 2.6253597766	 1.4114505577	-1.603733649	 0.086254
202.883	209.5859	229.4547	244.3089	301.0885	365.2283	436.6924	472.8684	539.9682	584.0844	616.6972	690.9363	733.268	797.386	858.8079	898.406	912.4902	939.1976	946.884	985.5871	1004.7854	1016.0928	1063.4331	1072.2131	1123.1712	1126.7416	1154.7222	1176.8826	1203.3655	1219.2314	1236.484	1252.578	1300.4122	1310.9298	1348.7153	1403.4799	1414.9194	1478.295	1492.4394	1493.8544	1506.0306	3022.5408	3042.1264	3056.2767	3085.5455	3092.8136	3100.9152	3112.0613	3123.4428	3135.2898	3800.7335
CC12CC3(O)C(C1)OC23	C[C@@]12C[C@@]3(O)[C@@H](C1)O[C@@H]23	
InChI=1S/C7H10O2/c1-6-2-4-7(8,3-6)5(6)9-4/h4-5,8H,2-3H2,1H3	InChI=1S/C7H10O2/c1-6-2-4-7(8,3-6)5(6)9-4/h4-5,8H,2-3H2,1H3/t4-,5+,6+,7-/m1/s1
