19
gdb 2706	2.4767809	1.8225577	1.2676624	1.5913	74.85	-0.23748	0.07269	0.31017	1029.1967	0.15555	-422.513685	-422.504998	-422.504054	-422.546111	33.94	
C	-1.5161081987	-1.5053577571	-0.5541802932	-0.505028
C	-1.879271412	-0.1713129513	 0.0357173588	 0.289585
C	-3.1940187519	 0.0650558693	 0.833262668	-0.286362
C	-3.0602062415	 1.5268326934	 0.4151851027	-0.135821
C	-2.1664125353	 1.1786364739	-0.7622734299	-0.213746
C	-1.5654694159	 1.8751807216	 0.4306648167	 0.345717
O	-1.0986779154	 3.1734969496	 0.4417406704	-0.464876
C	-0.8090894443	 0.6228243378	 0.8659705717	 0.045599
O	 0.5031735965	 0.5471374652	 0.3577090854	-0.444814
H	-1.4494059147	-2.2678811798	 0.2311341879	 0.1187
H	-2.2624827265	-1.839340229	-1.2825467219	 0.113666
H	-0.5415879038	-1.4567193426	-1.0495099414	 0.125446
H	-4.0533043973	-0.416194696	 0.3551861838	 0.09877
H	-3.1839947699	-0.1857036121	 1.9016612276	 0.085799
H	-3.7929575414	 2.3236149871	 0.4570868927	 0.088642
H	-2.2277031072	 1.4427143249	-1.8080114133	 0.096034
H	-1.2162532652	 3.5345627674	 1.3279560424	 0.288176
H	-0.7415547245	 0.37585099	 1.9330063089	 0.068126
H	 0.5410506988	 1.0902397678	-0.4384147575	 0.286386
167.2182	197.9784	200.7668	231.3682	265.2737	294.0562	322.6485	341.0399	445.1007	453.5591	521.9692	597.9237	681.6605	727.6649	811.6627	836.9885	856.0535	889.0307	913.5362	946.3586	968.0184	985.0081	1011.7148	1075.5057	1111.512	1130.2235	1135.2392	1173.5035	1193.5812	1227.3048	1242.8693	1281.8483	1292.7971	1308.6569	1345.5062	1404.373	1417.0752	1461.8123	1487.7014	1491.0375	1501.4729	3017.402	3026.3433	3032.8269	3078.5756	3089.2571	3106.8081	3188.7234	3223.4817	3785.7316	3792.49
CC12CC3C1C3(O)C2O	C[C@]12C[C@@H]3[C@H]1[C@]3(O)[C@@H]2O	
InChI=1S/C7H10O2/c1-6-2-3-4(6)7(3,9)5(6)8/h3-5,8-9H,2H2,1H3	InChI=1S/C7H10O2/c1-6-2-3-4(6)7(3,9)5(6)8/h3-5,8-9H,2H2,1H3/t3-,4-,5-,6+,7+/m1/s1
