19
gdb 4154	2.8921407	1.1207162	0.9432846	2.9025	75.92	-0.24224	-0.01965	0.22259	1276.7345	0.155339	-422.538986	-422.529853	-422.528908	-422.573752	33.253	
O	-2.5684607641	 1.7766699621	-1.3962593331	-0.430194
C	-2.5138548971	 1.9255169658	 0.0026121027	 0.078386
C	-2.8853206857	 3.2881076471	 0.6853114888	-0.27567
C	-1.5540047134	 3.2277320206	 1.4419188141	-0.11084
C	-0.431825609	 3.2387488507	 0.4463810416	-0.336655
C	-1.1533489764	 1.9374549314	 0.7098009638	 0.328544
C	-0.4309662003	 0.7016961682	 1.1877572705	-0.40607
C	 0.2344958294	-0.0296726199	 0.0334881743	 0.16084
O	 1.3679719615	-0.435213741	 0.0447777832	-0.242504
H	-1.9701176921	 2.4199103143	-1.7913795193	 0.281462
H	-3.1421482859	 1.1219036994	 0.3982401193	 0.094071
H	-2.9967987792	 4.1402491898	 0.0062255315	 0.098396
H	-3.7772897987	 3.2195239904	 1.3109338994	 0.109594
H	-1.4047347377	 3.4742725859	 2.4856295634	 0.095271
H	-0.5408709935	 3.7823319032	-0.4913518451	 0.097197
H	 0.5727176693	 3.2824619117	 0.8553861586	 0.124874
H	 0.3323727691	 0.9307772284	 1.9377944777	 0.12065
H	-1.1519146082	 0.0071192984	 1.6452201029	 0.120667
H	-0.418560288	-0.1627384166	-0.8583929742	 0.09198
47.0022	67.3423	122.5154	184.6968	267.3053	283.8446	327.5761	383.6372	441.7142	461.4111	557.8907	658.7258	707.7289	795.6421	827.5839	848.4527	892.7579	944.7805	978.3705	991.3399	1022.6162	1037.2721	1064.3405	1079.4377	1092.6043	1112.2346	1156.1586	1186.4058	1209.6042	1240.9615	1263.5521	1296.5787	1309.1114	1315.0177	1389.9732	1430.2853	1437.6373	1454.3746	1482.1497	1505.7235	1833.4375	2884.5387	3001.3357	3046.4755	3067.7504	3088.3674	3092.1565	3114.2591	3187.6124	3197.4143	3806.5498
OC1CC2CC12CC=O	O[C@@H]1C[C@@H]2C[C@]12CC=O	
InChI=1S/C7H10O2/c8-2-1-7-4-5(7)3-6(7)9/h2,5-6,9H,1,3-4H2	InChI=1S/C7H10O2/c8-2-1-7-4-5(7)3-6(7)9/h2,5-6,9H,1,3-4H2/t5-,6-,7+/m1/s1
