19
gdb 5138	3.0330747	1.2399282	1.0939896	2.5268	75.14	-0.23974	-0.02001	0.21973	1171.3122	0.156007	-422.562449	-422.553852	-422.552908	-422.595837	32.376	
C	 1.3837097474	-0.1735187162	 0.1214200873	-0.258721
O	-0.005587748	 0.0802549285	 0.0322275164	-0.288142
C	-0.5393638001	 0.8047469435	 1.0920747216	 0.448588
C	-1.9182754771	 0.4083683556	 1.5174348479	-0.341104
C	-0.755449708	 0.1776331682	 2.4664691184	-0.121296
C	-0.5221351311	 1.2271488304	 3.5323264184	-0.328838
C	-0.393524837	 2.5568265925	 2.7678275643	 0.381964
O	-0.4668484477	 3.6515205716	 3.259462175	-0.30265
C	-0.1582896257	 2.2637667142	 1.2780893882	-0.406266
H	 1.6429410809	-0.6823317915	 1.0604437603	 0.10823
H	 1.6393439079	-0.8223717955	-0.7191020846	 0.132337
H	 1.98282271	 0.7450421449	 0.0454077052	 0.111217
H	-2.6496577621	 1.1789796868	 1.7469529727	 0.115848
H	-2.3220472278	-0.4702000327	 1.0281490969	 0.127568
H	-0.4540895019	-0.8473842813	 2.6469631055	 0.095932
H	-1.3111425215	 1.3079387273	 4.2869445387	 0.131299
H	 0.4191228466	 1.054025946	 4.07055539	 0.129449
H	-0.7194407427	 2.9661490696	 0.6554611224	 0.134676
H	 0.9070720078	 2.425586648	 1.0690130653	 0.129911
76.2293	101.0364	169.8862	201.8638	284.3811	353.1643	382.0986	467.1888	483.7184	517.7946	533.3198	617.868	701.2418	782.2844	816.2609	841.2098	905.0964	929.8114	953.3767	1021.2627	1041.2481	1064.3251	1088.9095	1109.8278	1142.0515	1156.5188	1179.9364	1200.3559	1217.7889	1234.1212	1281.8433	1289.1133	1317.8669	1384.3136	1450.663	1455.9087	1473.3201	1491.7539	1492.965	1507.7993	1849.4919	2990.3194	3030.9603	3036.9878	3043.0642	3081.5009	3095.1829	3121.0744	3121.8852	3182.4735	3220.9253
COC12CC1CC(=O)C2	CO[C@@]12C[C@@H]1CC(=O)C2	
InChI=1S/C7H10O2/c1-9-7-3-5(7)2-6(8)4-7/h5H,2-4H2,1H3	InChI=1S/C7H10O2/c1-9-7-3-5(7)2-6(8)4-7/h5H,2-4H2,1H3/t5-,7+/m0/s1
