19
gdb 921	5.7466451	0.6418106	0.61018	2.2984	78.12	-0.24773	-0.02213	0.2256	1782.4316	0.154692	-422.524266	-422.514852	-422.513908	-422.560229	32.897	
O	 1.2743087179	-0.6897609944	 0.2145022714	-0.236479
C	 0.1723080154	-0.2075125705	 0.1798360051	 0.169027
C	-0.3788857147	 0.7713270708	 1.1964140281	-0.3071
C	-0.9158535769	 2.0265658995	 0.5319325248	-0.017908
C	 0.0101176918	 3.162198669	 0.1778003395	-0.295986
C	-0.9874167844	 3.3233368221	 1.303329029	-0.040722
C	-2.1606630406	 4.2257018351	 1.1321616541	 0.088374
C	-2.4188644849	 5.3595901379	 2.0286067848	-0.186809
O	-3.1816670313	 4.1555466072	 2.1331105813	-0.238835
H	-0.5379513933	-0.4610552977	-0.6427088979	 0.071064
H	-1.1922828244	 0.267674015	 1.7393315674	 0.127784
H	 0.412516657	 1.0038091927	 1.9151600067	 0.120454
H	-1.7352260393	 1.8518169404	-0.1619949223	 0.094279
H	 1.0580539301	 3.0714914736	 0.4426246964	 0.125682
H	-0.1692592261	 3.7025335361	-0.7459090316	 0.117097
H	-0.5902124041	 3.3025017707	 2.3143828606	 0.0925
H	-2.5459085114	 4.2900957781	 0.1118933893	 0.088674
H	-1.7360143393	 5.5530531535	 2.8553479695	 0.113318
H	-2.9614849915	 6.230732821	 1.6635964139	 0.115586
41.3689	58.9706	72.5488	142.1941	161.0298	270.8068	326.8131	368.8651	425.2333	479.3614	535.1877	757.6898	789.786	849.3721	856.6133	902.8185	908.1961	913.6266	982.8695	1031.1366	1047.1288	1077.4107	1079.4807	1100.3194	1115.9363	1155.6747	1167.595	1168.7498	1207.9434	1218.064	1244.2622	1280.0055	1296.1131	1320.0843	1411.411	1429.469	1457.4244	1468.7681	1500.9765	1533.7798	1837.2331	2851.5854	3010.042	3078.8642	3084.0929	3093.044	3130.9113	3133.8947	3149.7292	3166.2311	3217.5024
O=CCC1CC1C1CO1	O=CC[C@@H]1C[C@H]1[C@@H]1CO1	
InChI=1S/C7H10O2/c8-2-1-5-3-6(5)7-4-9-7/h2,5-7H,1,3-4H2	InChI=1S/C7H10O2/c8-2-1-5-3-6(5)7-4-9-7/h2,5-7H,1,3-4H2/t5-,6-,7+/m1/s1
