19
gdb 3256	3.3605346	1.6244734	1.5615396	2.0439	73.15	-0.24354	0.09176	0.3353	947.8582	0.159783	-422.564312	-422.557518	-422.556574	-422.595107	28.063	
C	 3.1991853133	 0.9935875235	-0.0338353423	-0.423345
C	 2.8085975209	-0.479820408	-0.0265013159	-0.00213
C	 1.6886183989	-0.8645717663	-1.029656422	 0.09121
O	 1.6351676675	-2.2983245095	-1.1499887705	-0.27841
C	 0.9830276243	-2.7201195122	 0.0415086814	 0.179488
C	-0.2561502787	-1.8197888215	 0.1053330705	-0.251078
C	 0.6080036788	-0.5697164138	 0.0745184637	-0.11105
C	 1.7856311028	-0.8798675821	 1.0699282365	 0.091229
O	 1.7425550832	-2.3152676144	 1.1737905626	-0.278414
H	 3.8360610505	 1.2319429751	 0.8246491382	 0.121582
H	 3.7556929897	 1.2444168481	-0.9431159737	 0.121593
H	 2.3261869319	 1.6538574954	 0.0105104722	 0.114137
H	 3.6882973241	-1.1269758564	-0.0718566401	 0.082998
H	 1.6504576549	-0.4159877451	-2.0244474521	 0.073756
H	 0.8814735482	-3.8034105884	 0.0383023797	 0.092061
H	-0.9050118774	-1.9340358269	-0.765316514	 0.10983
H	-0.8220333257	-1.9471283669	 1.0303552702	 0.10983
H	 0.1519848832	 0.4151003857	 0.1027718611	 0.082962
H	 1.8396542796	-0.4458433962	 2.0704285147	 0.073751
197.7639	199.153	250.883	365.646	442.7529	468.3179	561.3285	612.6898	659.8636	818.9046	824.2154	837.9769	863.7945	877.2899	902.1476	923.7115	937.8224	951.6448	992.3645	1012.4866	1022.8396	1061.5316	1076.4729	1096.4105	1124.2862	1124.3154	1157.2393	1219.4607	1232.9801	1259.3609	1262.8354	1284.5187	1288.654	1296.6484	1325.5813	1360.9146	1377.1104	1411.9229	1476.4427	1497.8603	1498.6925	3029.6798	3074.637	3076.7407	3088.7712	3091.2779	3097.7743	3099.5684	3136.869	3155.5318	3168.2979
CC1C2OC3CC2C1O3	C[C@@H]1[C@H]2O[C@@H]3C[C@H]2[C@H]1O3	
InChI=1S/C7H10O2/c1-3-6-4-2-5(8-6)9-7(3)4/h3-7H,2H2,1H3	InChI=1S/C7H10O2/c1-3-6-4-2-5(8-6)9-7(3)4/h3-7H,2H2,1H3/t3-,4-,5+,6-,7+
