19
gdb 5556	3.0584325	1.3271392	1.0748534	2.1673	73.57	-0.2573	0.06086	0.31816	1147.3769	0.15794	-422.528997	-422.521003	-422.520059	-422.561577	30.926	
O	 1.4994342785	 0.6578238193	 0.126703938	-0.422585
C	 0.4627813297	-0.1737012662	 0.6217371375	-0.085737
C	-0.4025369373	 0.504896998	 1.6962111664	-0.051631
C	-1.5772786767	-0.4034876228	 2.0897132845	-0.049944
C	-2.5891970804	 0.0517173312	 3.1075406271	-0.305006
C	-1.4295985628	-0.8085212139	 3.5489989322	-0.060025
C	-0.2174034506	-0.0749329399	 4.0741848639	 0.02488
O	-0.3287754938	 1.3571515375	 4.0477948229	-0.259651
C	 0.3869895431	 0.7144803203	 2.9870437593	 0.033926
H	 2.1938424653	 0.7091469263	 0.7895157499	 0.286178
H	-0.1661115598	-0.4113492468	-0.242517282	 0.114044
H	 0.8577885054	-1.1277979821	 1.0056467147	 0.091313
H	-0.73851894	 1.4677290199	 1.2942433993	 0.097988
H	-1.9064577605	-1.1280678486	 1.3508779037	 0.082857
H	-2.5866583255	 1.0879545169	 3.4216834341	 0.137396
H	-3.5660839126	-0.4182380345	 3.0686791636	 0.108011
H	-1.6007774954	-1.8218947986	 3.891345287	 0.085042
H	 0.3487047336	-0.4789888135	 4.9087333131	 0.09519
H	 1.4459955398	 0.9671905075	 2.944978725	 0.077754
88.7535	145.1987	196.3559	254.6753	302.723	335.3902	389.7986	512.9706	539.8736	694.0942	706.1151	782.047	795.4196	845.4076	862.8399	884.0382	895.8451	980.6133	988.9794	1018.6122	1043.1741	1058.2129	1077.0073	1079.1775	1086.9206	1105.4266	1114.7061	1144.8446	1195.9087	1204.2545	1256.9403	1265.0008	1304.4208	1327.0253	1353.055	1392.3021	1395.4475	1413.9264	1421.6219	1481.1813	1502.3092	2980.448	3048.3966	3074.0613	3109.9504	3139.2218	3149.7707	3154.0656	3186.4732	3235.2097	3834.712
OCC1C2CC2C2OC12	OC[C@H]1[C@@H]2C[C@@H]2[C@@H]2O[C@H]12	
InChI=1S/C7H10O2/c8-2-5-3-1-4(3)6-7(5)9-6/h3-8H,1-2H2	InChI=1S/C7H10O2/c8-2-5-3-1-4(3)6-7(5)9-6/h3-8H,1-2H2/t3-,4+,5+,6+,7-/m1/s1
