19
gdb 814	3.2530451	1.1498584	0.9099288	3.0452	80.54	-0.24948	-0.05273	0.19675	1274.7686	0.157804	-422.570129	-422.561736	-422.560792	-422.603387	31.206	
O	 1.2959324691	-0.7793458334	 0.0305875736	-0.276796
C	 0.3017913748	-0.0963006822	-0.0659993697	 0.095864
C	 0.2731009572	 1.3770914	 0.0605778966	 0.21773
C	-0.9135238972	 1.9763600085	-0.1215082886	-0.126171
C	-1.2067096071	 3.4468251464	-0.0027297989	-0.14499
O	-0.2809779188	 4.1583237131	 0.7846038732	-0.232864
C	 0.9153133156	 4.5504290705	 0.1313671698	-0.069698
C	 1.7183386831	 3.3881578229	-0.4764759446	-0.235916
C	 1.5838928229	 2.0824541995	 0.3234411376	-0.296716
H	-0.6921649312	-0.5561614994	-0.2674382758	 0.068127
H	-1.775190626	 1.352372313	-0.3613498222	 0.09835
H	-1.3107969068	 3.8938969906	-1.0086810071	 0.108739
H	-2.1814965715	 3.5696699554	 0.486201758	 0.126762
H	 0.6981114887	 5.3057893676	-0.6413930178	 0.090844
H	 1.5001602901	 5.0394244967	 0.9167402372	 0.113678
H	 1.4015497696	 3.2022843979	-1.5092766397	 0.104273
H	 2.7694736318	 3.6944756625	-0.529551897	 0.106023
H	 2.3844201237	 1.3860849959	 0.0588754714	 0.128927
H	 1.693911052	 2.2829230345	 1.3963926439	 0.123833
71.4246	123.9271	206.1217	234.3036	273.1593	321.3975	339.8723	369.5059	485.7316	547.8204	624.1328	720.5855	758.1368	822.3366	870.9733	891.9049	922.9327	939.9281	1025.6987	1043.0431	1046.3679	1063.5813	1108.1826	1140.6735	1191.1914	1235.5273	1254.9352	1282.0423	1326.8735	1334.2315	1376.2582	1389.6511	1398.0911	1418.8524	1431.9191	1468.1789	1482.7966	1488.0643	1501.5194	1706.3484	1790.7146	2872.9562	2938.0916	2973.7979	3032.8612	3038.0883	3041.3456	3063.0161	3085.6423	3094.4009	3125.3136
O=CC1=CCOCCC1	O=CC1=CCOCCC1	
InChI=1S/C7H10O2/c8-6-7-2-1-4-9-5-3-7/h3,6H,1-2,4-5H2	InChI=1S/C7H10O2/c8-6-7-2-1-4-9-5-3-7/h3,6H,1-2,4-5H2
