19
gdb 2816	2.5787778	1.5043165	1.2878997	1.0085	75.38	-0.23659	0.0733	0.30989	1066.6375	0.155904	-422.513069	-422.504384	-422.50344	-422.545676	33.665	
C	 0.028083317	 2.3640141409	 3.5305763082	-0.529012
C	-0.8257675946	 1.7665556695	 2.4614934266	 0.275491
C	-1.2559816758	 0.3329986306	 2.1349020045	-0.243057
C	-0.8283933376	 0.4805041857	 0.6790343667	 0.159088
O	 0.4880998831	 0.0514374458	 0.4040137431	-0.446361
C	-0.9897371661	 2.0134611387	 0.8952394109	-0.155263
C	-2.5160054555	 2.2133808778	 1.1181087388	-0.306707
C	-2.2899354364	 1.4461739148	 2.418180205	 0.34681
O	-3.1151214149	 1.395886883	 3.5230970924	-0.467206
H	-0.2420767888	 1.9473600505	 4.5064165978	 0.136191
H	 1.0949280162	 2.1713310606	 3.3674589773	 0.112832
H	-0.1061054498	 3.4505197053	 3.5870997234	 0.126327
H	-1.2033336755	-0.539911442	 2.7758030612	 0.084442
H	-1.4512067288	 0.0289935397	-0.1011400652	 0.076174
H	 1.0435539405	 0.326991464	 1.1426154545	 0.277811
H	-0.4094121164	 2.709377231	 0.2922255159	 0.07593
H	-2.7715519057	 3.2579453663	 1.3184964267	 0.104366
H	-3.1945309643	 1.8031151746	 0.3600866915	 0.085643
H	-3.7612724667	 0.6928559932	 3.3927995107	 0.2865
143.7558	178.4428	192.7928	235.4206	262.3465	294.1572	342.8833	378.7904	424.0417	450.9344	525.117	615.4975	662.4083	740.9862	803.8772	841.5583	897.7218	910.0127	928.6732	938.1655	991.7991	1027.3495	1062.8367	1093.1945	1109.7314	1133.1342	1137.0198	1179.573	1195.3463	1224.6357	1242.4644	1271.1207	1283.4053	1298.8915	1348.8456	1414.232	1433.2322	1475.7077	1483.4378	1495.0799	1516.1513	3019.9564	3024.9542	3050.0433	3075.542	3093.595	3097.8327	3137.1961	3182.5784	3790.4486	3791.1354
CC12C3C(O)C1CC23O	C[C@]12[C@@H]3[C@H](O)[C@H]1C[C@]23O	
InChI=1S/C7H10O2/c1-6-3-2-7(6,9)5(6)4(3)8/h3-5,8-9H,2H2,1H3	InChI=1S/C7H10O2/c1-6-3-2-7(6,9)5(6)4(3)8/h3-5,8-9H,2H2,1H3/t3-,4-,5+,6-,7-/m1/s1
