19
gdb 1198	2.8680732	1.0801305	0.8576841	2.1449	77.44	-0.2463	0.02292	0.26922	1360.0716	0.154087	-422.503899	-422.493885	-422.492941	-422.539508	35.689	
C	 5.4948695982	-1.3526711269	 2.1133965677	-0.41082
C	 4.635858888	-1.3966080846	 0.8676110517	 0.156963
O	 4.3895993408	-2.7487200565	 0.4010175931	-0.296064
C	 2.9644982529	-2.5380644579	 0.3836195994	-0.090325
C	 3.1175769443	-1.1354857535	 1.0051885769	-0.056472
C	 2.5600324659	 0.0598621195	 0.2307166891	-0.077958
O	 3.1016994927	 1.2850156847	 0.7199959102	-0.419395
C	 1.0941960581	 0.0620061216	 0.2387315254	 0.28785
C	-0.1066590912	 0.0577682292	 0.2996739032	-0.435287
H	 5.0408623883	-1.9348989774	 2.9214563395	 0.116667
H	 6.4872439799	-1.766280536	 1.9086436297	 0.128271
H	 5.6156288911	-0.3165631999	 2.4474516809	 0.122234
H	 5.0946979787	-0.7922716034	 0.0716251596	 0.078997
H	 2.5566661238	-2.5433119444	-0.6367960755	 0.1013
H	 2.4275710104	-3.2836451622	 0.9800854226	 0.106464
H	 2.7841580302	-1.0810555339	 2.0460246983	 0.07676
H	 2.9109298216	-0.0033476725	-0.8073588462	 0.12153
H	 2.6668032476	 1.4802807046	 1.5577161464	 0.286067
H	-1.1685037914	 0.0609492993	 0.3306491382	 0.203216
52.8715	60.9539	105.8146	184.1141	214.7529	229.5978	270.1502	297.0224	334.1283	417.4188	468.2231	517.1635	583.1465	635.5722	677.3389	746.3852	856.5293	881.7791	912.8595	945.3879	1018.5887	1035.4269	1079.8291	1086.7421	1111.2586	1125.5433	1146.7759	1164.9869	1237.3156	1256.15	1284.3944	1294.6287	1353.611	1373.0059	1397.2471	1409.1255	1418.9964	1483.7076	1493.5881	1527.8114	2231.1833	2994.0994	3006.1635	3030.5235	3033.8212	3054.6052	3070.9483	3109.3584	3111.4698	3501.2909	3804.9243
CC1OCC1C(O)C#C	C[C@H]1OC[C@@H]1[C@H](O)C#C	
InChI=1S/C7H10O2/c1-3-7(8)6-4-9-5(6)2/h1,5-8H,4H2,2H3	InChI=1S/C7H10O2/c1-3-7(8)6-4-9-5(6)2/h1,5-8H,4H2,2H3/t5-,6+,7-/m1/s1
