19
gdb 5291	2.2154751	1.7390514	1.2192946	2.1867	75.73	-0.22206	-0.02486	0.19720000000000001	1088.8712	0.155422	-422.53328	-422.524338	-422.523394	-422.567334	32.637	
C	 1.4726959033	 0.0062804338	 0.042799614	-0.271419
O	 0.0495469799	 0.0196208651	 0.0320351556	-0.292254
C	-0.5146783548	 0.635579845	 1.1405309898	 0.338397
C	-0.4437868726	-0.099553559	 2.5223718532	-0.304567
C	-1.9960407253	-0.0271458317	 2.6409565301	-0.220865
C	-2.0789137104	 0.7624248263	 1.3112773303	-0.103621
C	-1.9475157858	 2.3038178308	 1.4709504612	-0.356534
C	-0.4265575845	 2.17346116	 1.2514162144	 0.339712
O	 0.4598131014	 2.9657749387	 1.098739564	-0.304485
H	 1.8631123625	-0.5460445163	 0.9096203793	 0.108938
H	 1.7865507001	-0.5040509301	-0.8701533601	 0.127972
H	 1.8814804655	 1.0222794439	 0.0559032329	 0.144376
H	-0.070468576	-1.1180978173	 2.3943546522	 0.120195
H	 0.1366842169	 0.3910528002	 3.3070071492	 0.11017
H	-2.4707829933	-1.0093484306	 2.5950415871	 0.111207
H	-2.3852614195	 0.4986243895	 3.5166654499	 0.102801
H	-2.7641040458	 0.414455486	 0.5405813888	 0.085504
H	-2.4162194955	 2.882487827	 0.6683293578	 0.138568
H	-2.2564630265	 2.7326194388	 2.4287908103	 0.125904
52.3992	112.0021	135.7227	177.6228	220.4514	288.4326	315.7269	419.958	467.1233	506.846	582.2317	666.6132	731.0267	773.0401	821.535	866.6732	927.4076	965.6851	1004.8365	1009.7083	1030.1836	1039.7105	1075.0435	1128.2425	1148.9009	1177.4793	1184.086	1211.9511	1215.8495	1229.2328	1246.9332	1275.9785	1301.3268	1316.3358	1433.4591	1466.7216	1479.137	1487.1707	1493.2841	1512.4146	1874.1875	3000.9601	3052.7462	3061.4703	3067.7126	3077.8268	3103.8864	3106.6808	3125.9171	3128.9026	3134.4689
COC12CCC1CC2=O	CO[C@]12CC[C@H]1CC2=O	
InChI=1S/C7H10O2/c1-9-7-3-2-5(7)4-6(7)8/h5H,2-4H2,1H3	InChI=1S/C7H10O2/c1-9-7-3-2-5(7)4-6(7)8/h5H,2-4H2,1H3/t5-,7+/m0/s1
