19
gdb 2152	2.7145157	1.9263843	1.4511743	2.5426	74.24	-0.22624	0.08335	0.30959	957.5597	0.157912	-422.518912	-422.511436	-422.510491	-422.550266	30.011	
C	 0.0928261347	-0.3962744157	-0.2167963948	-0.461686
C	 1.5774535802	-0.1739482652	-0.0379419092	 0.385784
C	 2.1912776029	-0.9871686139	 1.1046461014	-0.109922
O	 3.4770497599	-0.5227229854	 1.4536966245	-0.241798
C	 4.4001244731	-0.4103577095	 0.3858905132	-0.094941
C	 3.8243285375	 0.1757840609	-0.8898706268	-0.090326
C	 2.741107435	 1.2252331092	-0.9757666453	 0.088777
O	 1.8840529992	 1.2487715366	 0.1604521784	-0.319587
C	 2.4293870277	-0.2063385935	-1.3230405585	-0.20923
H	-0.4499124186	-0.0781440131	 0.6788168341	 0.129673
H	-0.279683323	 0.1790677978	-1.0687457563	 0.127305
H	-0.1214183946	-1.4563059684	-0.3940420101	 0.117485
H	 1.5902825634	-0.8886873065	 2.0145054339	 0.109557
H	 2.2030064977	-2.0525280086	 0.8131025142	 0.084734
H	 5.2157343402	 0.2104755664	 0.7716972747	 0.113057
H	 4.823207703	-1.4015136904	 0.141164121	 0.085254
H	 4.5407706769	 0.2329260228	-1.7070531188	 0.092186
H	 2.8053655117	 2.1245475929	-1.5777045932	 0.103161
H	 2.160731333	-0.6895352166	-2.2534238922	 0.090517
174.346	214.964	244.1482	273.8887	341.2698	377.9523	403.1256	485.5937	582.6493	673.517	724.3153	775.1732	813.2826	838.4851	857.9799	893.8092	915.5976	976.4069	989.4566	1018.2784	1032.3122	1055.0109	1067.8274	1095.0048	1118.339	1151.2951	1173.4973	1209.0142	1238.5141	1266.3116	1298.5384	1317.4056	1333.8147	1387.1633	1407.4327	1419.0142	1443.2924	1481.3847	1486.8492	1491.6249	1501.2599	2938.7617	2953.1463	3034.0685	3064.1978	3073.654	3104.5927	3118.2613	3136.1856	3176.0346	3194.2548
CC12COCC3C(O1)C23	C[C@]12COC[C@@H]3[C@H](O1)[C@H]23	
InChI=1S/C7H10O2/c1-7-3-8-2-4-5(7)6(4)9-7/h4-6H,2-3H2,1H3	InChI=1S/C7H10O2/c1-7-3-8-2-4-5(7)6(4)9-7/h4-6H,2-3H2,1H3/t4-,5+,6-,7+/m0/s1
