19
gdb 5821	2.4589349	1.2664388	1.0290848	1.5125	76.18	-0.25916	0.03323	0.29239	1246.5872	0.155554	-422.521291	-422.511978	-422.511034	-422.556204	33.699	
C	 1.1925313229	-0.4424501562	 0.986205768	-0.383745
C	 0.6917994145	-0.3286988061	-0.4553678001	-0.189518
C	 1.8115276621	-0.4271354232	-1.486199836	 0.121656
C	 1.3383858718	-0.3428160327	-2.9523221767	-0.139169
O	 2.1301342809	-1.3158202557	-3.6247427267	-0.22902
C	 2.3266074737	-2.3381424581	-2.6767948329	-0.018603
O	 2.4741007805	-1.7038270833	-1.4211838999	-0.260399
C	 1.2076833177	-3.3023882917	-2.665054694	 0.348233
C	 0.3073280064	-4.0983443061	-2.6645332938	-0.454315
H	 1.711218879	-1.3929706613	 1.1367357136	 0.138059
H	 1.8929351977	 0.3647977922	 1.2280525315	 0.112885
H	 0.3626185136	-0.3882608087	 1.6968365307	 0.112255
H	-0.0401801451	-1.1176512527	-0.6648903875	 0.111987
H	 0.1772061251	 0.6309376516	-0.6017718302	 0.095972
H	 2.5747746901	 0.3355641032	-1.2817532483	 0.083736
H	 0.2693192799	-0.5841080027	-3.0361162406	 0.107538
H	 1.5266459251	 0.6261053426	-3.4181182116	 0.12145
H	 3.2623968772	-2.8504196147	-2.9239438724	 0.119427
H	-0.4863092931	-4.8046353265	-2.6638556833	 0.201572
34.9221	97.3547	132.6158	188.7983	206.5782	241.2945	288.4059	393.5155	443.3352	515.8103	551.7219	656.9934	663.6289	667.8733	776.0554	798.5254	852.1779	926.9268	954.6889	969.4933	980.917	1013.0815	1038.6693	1103.0945	1111.55	1140.4315	1173.9726	1240.3694	1295.3646	1303.9868	1324.5089	1365.2477	1373.2524	1379.3581	1408.1508	1412.7131	1474.786	1496.7462	1508.1849	1511.4589	2231.4305	3006.4447	3014.6348	3019.2516	3036.7751	3060.5433	3065.7983	3103.3137	3114.8132	3122.1045	3500.1336
CCC1COC(O1)C#C	CC[C@@H]1CO[C@@H](O1)C#C	
InChI=1S/C7H10O2/c1-3-6-5-8-7(4-2)9-6/h2,6-7H,3,5H2,1H3	InChI=1S/C7H10O2/c1-3-6-5-8-7(4-2)9-6/h2,6-7H,3,5H2,1H3/t6-,7+/m1/s1
