19
gdb 5253	4.0206317	1.2996091	1.1724945	1.7298	74.55	-0.23701	0.08952	0.32653	1097.4847	0.157709	-422.514211	-422.506404	-422.50546	-422.546509	30.113	
C	 1.4579009326	-0.0795047833	-0.0013750631	-0.256904
O	 0.0512948858	-0.1151546307	 0.1715319967	-0.2843
C	-0.4094996712	 0.5899107386	 1.2577726921	 0.43394
C	-0.0060794899	 0.3944704097	 2.7215528396	-0.330422
C	-0.548546016	 1.8425884667	 2.9797075812	 0.089079
O	-1.8942774364	 1.8275037522	 3.4339512134	-0.263973
C	-2.6730955482	 1.222338069	 2.3944053012	-0.108644
C	-1.7731931744	 1.2311092557	 1.1647524862	-0.137485
C	-0.5728416329	 2.1011605759	 1.4553529032	-0.1821
H	 1.9845001895	-0.5998473185	 0.8097774284	 0.115856
H	 1.6724489082	-0.5894314135	-0.9428303718	 0.130054
H	 1.8283375787	 0.9534686908	-0.0561832285	 0.111401
H	-0.4682401788	-0.4137335967	 3.2979265454	 0.100072
H	 1.0803095653	 0.3541420676	 2.8409523869	 0.100188
H	 0.0321205675	 2.4890674339	 3.6350689025	 0.085696
H	-2.9770256244	 0.2085008825	 2.6883387198	 0.099824
H	-3.5787888574	 1.8205306926	 2.24063627	 0.105499
H	-2.2049211307	 1.2535827049	 0.1714880064	 0.099873
H	-0.2626442272	 2.9704836826	 0.8927500103	 0.092347
87.6835	160.7688	198.3196	226.1519	306.3348	374.7028	439.7057	532.6962	579.642	697.4726	722.8531	752.6948	843.0499	869.6923	889.8549	897.805	937.488	975.3993	989.7838	1003.2659	1022.7301	1074.6636	1087.0522	1108.1192	1147.6363	1178.3366	1179.5834	1186.836	1206.8488	1221.0961	1245.1602	1260.1218	1299.593	1330.9804	1370.1487	1418.7256	1479.0761	1491.0217	1499.0737	1508.5976	1523.2799	2997.6016	3007.6113	3043.1641	3052.6346	3053.951	3099.2233	3124.8401	3137.1809	3197.0079	3214.5675
COC12CC3OCC1C23	CO[C@]12C[C@@H]3OC[C@H]1[C@H]23	
InChI=1S/C7H10O2/c1-8-7-2-5-6(7)4(7)3-9-5/h4-6H,2-3H2,1H3	InChI=1S/C7H10O2/c1-8-7-2-5-6(7)4(7)3-9-5/h4-6H,2-3H2,1H3/t4-,5-,6-,7+/m0/s1
