19
gdb 446	4.3939785	0.9674242	0.8922847	1.2545	75.6	-0.2279	0.07972	0.30762	1343.2613	0.157536	-422.507028	-422.498971	-422.498027	-422.540275	30.263	
C	 0.1993649959	 3.2985722993	-1.4092681414	-0.269558
C	-1.0630126053	 2.4729467853	-1.3543020995	-0.269514
C	-0.0344373168	 2.3531408554	-0.2558633673	 0.00965
C	 0.7846906589	 1.1101073162	-0.1131349276	-0.125963
C	 1.7856205198	 1.0171021114	 1.0298493015	 0.047505
O	 2.854769976	 0.1088131449	 0.917306067	-0.260581
C	 2.2882585727	-1.144348101	 0.5771600618	 0.016696
O	 0.9352586921	-1.146902091	 0.9971736966	-0.260586
C	 0.5370793356	 0.2003440788	 1.0818258281	 0.047544
H	 0.9535585686	 3.0242337439	-2.1393250688	 0.114284
H	 0.1284221189	 4.3648863514	-1.2252174136	 0.112702
H	-1.9991156417	 2.973432704	-1.1325833192	 0.112693
H	-1.1573558252	 1.6436368585	-2.0474058706	 0.114294
H	-0.2994356084	 2.8212716127	 0.689610066	 0.079009
H	 1.0591880626	 0.6308700131	-1.0495825411	 0.093428
H	 2.0202010324	 1.8646825011	 1.6621035689	 0.111295
H	 2.3461827998	-1.3021810037	-0.5124009352	 0.095226
H	 2.8314702636	-1.9417658585	 1.0950867786	 0.120579
H	-0.2953143394	 0.3498977381	 1.7585219258	 0.111295
59.3554	136.6795	137.2093	214.7675	321.0465	322.9606	407.4907	444.0655	735.685	744.6428	773.8239	817.3884	837.7727	877.9904	880.9457	942.2062	944.0356	977.692	991.2171	1011.2044	1042.8829	1060.4083	1076.7237	1080.9924	1123.4903	1124.2004	1136.6384	1155.6063	1186.2919	1197.3192	1212.5985	1216.191	1236.1844	1273.4724	1300.5206	1383.2507	1434.2786	1453.034	1469.0709	1506.8134	1551.1413	2960.7979	3067.739	3124.9157	3130.5665	3135.6281	3143.8612	3184.9669	3193.9854	3208.915	3224.0945
C1CC1C1C2OCOC12	C1CC1[C@H]1[C@@H]2OCO[C@H]12	
InChI=1S/C7H10O2/c1-2-4(1)5-6-7(5)9-3-8-6/h4-7H,1-3H2	InChI=1S/C7H10O2/c1-2-4(1)5-6-7(5)9-3-8-6/h4-7H,1-3H2/t5-,6-,7+
