19
gdb 2877	2.4962163	1.7736603	1.4595075	2.354	72.96	-0.24428	0.0754	0.31967999999999996	971.6472	0.159154	-422.574985	-422.567491	-422.566547	-422.606288	30.856	
O	-1.0228556899	 0.9093922705	 0.2023176665	-0.456457
C	-2.2137433109	 0.1490041539	 0.1318312871	 0.176772
C	-2.193934403	-1.1553489977	 0.9181911431	-0.160021
C	-3.194443525	-2.0878958941	 0.2423834743	-0.140552
C	-3.7939057966	-1.3140118234	-0.9305004862	-0.231411
C	-2.5346197981	-0.4758507446	-1.2602372886	-0.083873
C	-1.4423429494	-1.5622402561	-1.3803930273	-0.302014
C	-1.7073971762	-2.2282895251	-0.0307971201	 0.40867
O	-0.9346022553	-3.2719128313	 0.4582681638	-0.482375
H	-0.2817881063	 0.2983155201	 0.2620712784	 0.28526
H	-3.0142064467	 0.8250684167	 0.4510786949	 0.08069
H	-1.9914052822	-1.2076595156	 1.9797638201	 0.094092
H	-3.7306788351	-2.834991981	 0.8131439823	 0.086347
H	-4.1038683016	-1.9599588395	-1.7591379758	 0.092984
H	-4.6483557143	-0.6919507832	-0.642993477	 0.098851
H	-2.6144819917	 0.2332877969	-2.0828089247	 0.070024
H	-1.6111381174	-2.2372341783	-2.2274079117	 0.087777
H	-0.431117895	-1.152128383	-1.4666404347	 0.093011
H	-1.1450396654	-4.0644477353	-0.0478353944	 0.282224
161.6065	258.5586	292.8717	296.5968	350.7219	383.0057	422.7576	487.1791	529.6517	595.0258	650.1455	735.5084	791.218	854.9191	871.0974	906.6963	914.5237	921.234	946.4312	990.8744	1001.5469	1013.5438	1045.1592	1076.0862	1082.7897	1131.4413	1139.0597	1172.1739	1205.9619	1224.1432	1264.6149	1268.6223	1285.639	1302.3737	1307.3745	1332.8228	1344.8343	1430.931	1445.9279	1496.5711	1516.2264	3036.4707	3039.8891	3054.5893	3079.3795	3083.8724	3130.0903	3198.5156	3210.4998	3792.3315	3821.4016
OC1C2C3CC1CC23O	O[C@@H]1[C@H]2[C@H]3C[C@@H]1C[C@@]23O	
InChI=1S/C7H10O2/c8-6-3-1-4-5(6)7(4,9)2-3/h3-6,8-9H,1-2H2	InChI=1S/C7H10O2/c8-6-3-1-4-5(6)7(4,9)2-3/h3-6,8-9H,1-2H2/t3-,4-,5-,6+,7+/m1/s1
