19
gdb 5038	2.5282425	1.484069	1.1972531	1.9685	75.12	-0.23193	-0.00164	0.23029	1098.5217	0.157855	-422.566432	-422.558032	-422.557088	-422.599523	31.689	
O	 0.2493097504	-0.1805937495	-0.7727452281	-0.428366
C	 0.5520557013	-0.5453833543	 0.5688594085	-0.192031
C	-0.1753378927	 0.3958300468	 1.486711689	 0.221916
C	 0.1951345082	 1.9134157482	 1.65130493	-0.274262
C	-0.5550994471	 1.8001209214	 3.0217314046	-0.143192
C	-2.0008538736	 1.5179662276	 2.5549092345	-0.228227
C	-1.7195363294	 0.4747856595	 1.4149929166	-0.256337
C	 0.0309119697	 0.3777163315	 3.015920286	 0.397936
O	 0.5792491217	-0.3455178531	 3.7951869566	-0.334176
H	 0.7080724877	-0.7892552386	-1.359280588	 0.289752
H	 0.2332556488	-1.5774927245	 0.7861774356	 0.097767
H	 1.6343281709	-0.4920156693	 0.7644221249	 0.094716
H	 1.2686761664	 2.0836349223	 1.7538565944	 0.112707
H	-0.2397723637	 2.5948447418	 0.9169643921	 0.112626
H	-0.3955791398	 2.493726199	 3.8443939532	 0.08258
H	-2.6249843762	 1.1120187842	 3.3551624666	 0.111337
H	-2.4829536758	 2.4238725206	 2.1779275815	 0.107151
H	-2.1878940723	-0.4951067777	 1.606252418	 0.105757
H	-2.0461126843	 0.8197031641	 0.432135304	 0.122345
76.312	135.6076	166.3748	243.0011	260.9753	314.2066	329.2797	429.2348	545.9982	571.8615	684.125	715.1408	779.8533	815.2027	856.644	877.4807	905.2547	935.1349	963.5527	986.1182	1016.7267	1031.6594	1073.0889	1105.7711	1126.5926	1151.4161	1179.3413	1212.1511	1219.5541	1243.3994	1259.2242	1272.2161	1288.6275	1321.3344	1355.0948	1468.947	1491.5657	1495.2486	1515.0382	1518.8432	1890.0794	2971.0205	3000.5096	3056.0685	3064.7311	3069.1833	3098.8532	3119.0329	3135.3039	3147.0613	3827.7203
OCC12CC(CC1)C2=O	OC[C@@]12C[C@@H](CC1)C2=O	
InChI=1S/C7H10O2/c8-4-7-2-1-5(3-7)6(7)9/h5,8H,1-4H2	InChI=1S/C7H10O2/c8-4-7-2-1-5(3-7)6(7)9/h5,8H,1-4H2/t5-,7+/m1/s1
