19
gdb 2949	2.8109532	1.4829141	1.1605873	2.1082	77.58	-0.22488	0.01348	0.23836	1103.8474	0.156285	-422.543148	-422.534483	-422.533539	-422.575878	33.216	
C	 1.4154100852	-1.6598254161	-2.3279668686	-0.451415
C	 0.338029846	-0.6359491077	-2.0732957937	 0.376587
O	-0.2261217205	-0.1005857779	-3.2479114803	-0.299493
C	-1.5509263601	-0.5256205733	-3.5426416635	-0.131196
C	-2.4911846832	-0.3862214059	-2.3721817196	-0.081523
C	-2.0302219677	-0.4746728838	-1.1256323498	-0.080877
C	-0.5942858705	-0.7431797259	-0.8847294432	-0.190956
C	 0.4631155444	 0.3643528668	-0.9597463583	 0.030969
O	 1.5924515644	 0.2882915669	-0.1462736221	-0.4221
H	 1.9143429498	-1.9357458176	-1.3966582549	 0.129575
H	 0.9950590518	-2.5620979714	-2.7848405691	 0.11236
H	 2.1650844792	-1.2484695631	-3.0112194242	 0.127053
H	-1.8777824455	 0.1014859868	-4.3783552477	 0.114328
H	-1.5533156783	-1.5678746718	-3.9068475418	 0.102688
H	-3.5423978087	-0.2179780339	-2.5854867127	 0.093966
H	-2.6895725141	-0.3642819699	-0.2687620012	 0.090038
H	-0.3551797396	-1.5270297994	-0.169776208	 0.095344
H	 0.101787942	 1.3652046653	-1.1938019377	 0.095249
H	 1.3380100255	 0.5470950518	 0.7457448066	 0.289404
130.9341	161.7614	189.8349	228.8986	262.9315	298.5119	344.2239	391.4443	416.656	471.4248	535.7525	594.526	686.8023	709.7893	842.3541	848.3353	910.2948	945.5801	972.7351	978.2578	987.7449	1042.6342	1061.2541	1079.5452	1103.4519	1136.2892	1150.6877	1197.8468	1227.3316	1261.424	1268.4932	1284.9666	1343.9832	1391.8779	1405.3981	1415.2491	1466.6694	1482.1486	1493.4491	1501.531	1709.5663	2952.3472	3037.6432	3069.3269	3101.0128	3112.599	3133.3416	3138.185	3154.8264	3182.2355	3803.2841
CC12OCC=CC1C2O	C[C@@]12OCC=C[C@@H]1[C@H]2O	
InChI=1S/C7H10O2/c1-7-5(6(7)8)3-2-4-9-7/h2-3,5-6,8H,4H2,1H3	InChI=1S/C7H10O2/c1-7-5(6(7)8)3-2-4-9-7/h2-3,5-6,8H,4H2,1H3/t5-,6-,7-/m1/s1
