19
gdb 3792	4.6110239	0.8694478	0.7896732	2.1316	75.57	-0.23711	0.07319	0.3103	1434.7959	0.155453	-422.492155	-422.483264	-422.48232	-422.52684	32.435	
O	-0.3839846451	-4.7645127536	-0.5190463508	-0.428209
C	 0.2271105418	-3.7828957909	 0.2670379829	 0.141524
C	-0.4641430426	-3.1302676255	 1.4303481948	-0.353286
C	-0.141062503	-2.3257014265	 0.1741825326	-0.058342
C	 0.9087631762	-1.24744152	 0.2006242936	-0.023726
C	 1.3360076051	-0.7023690995	-1.2162041585	-0.27832
C	 0.7895057043	 0.6707561876	-0.8036493571	 0.036807
O	 1.4921354776	 1.0702557682	 0.379371795	-0.249857
C	 0.388899937	 0.1707945255	 0.5215214217	 0.0195
H	-1.3384260776	-4.6662427247	-0.4480572783	 0.282662
H	 1.2805919934	-4.0201251411	 0.3798790053	 0.10927
H	-1.5053425641	-3.3835569711	 1.6097491391	 0.106683
H	 0.1040820232	-2.936927126	 2.3349555271	 0.119285
H	-0.9984426827	-2.1115505144	-0.4626350634	 0.077471
H	 1.742847764	-1.5431227592	 0.8453198154	 0.077318
H	 2.400492593	-0.7259973564	-1.4603411771	 0.109968
H	 0.7647674694	-1.1732464808	-2.0204370367	 0.10988
H	 0.3763918725	 1.4603362024	-1.4208242072	 0.101352
H	-0.4156740524	 0.465456106	 1.1865252915	 0.10002
57.6993	61.4618	110.596	136.6316	277.8977	296.5941	372.8457	422.5398	469.3072	511.6462	749.328	796.6803	811.5831	843.8118	857.7662	896.0469	913.2102	932.7406	948.3346	974.4562	996.8565	1027.9371	1045.4404	1055.6574	1093.2084	1100.9288	1115.8257	1143.5318	1203.348	1217.7291	1227.0714	1236.5973	1237.4038	1269.1471	1275.684	1330.4309	1385.2493	1404.2698	1443.4639	1473.1307	1493.2397	3054.5116	3065.4984	3113.651	3119.3354	3123.456	3161.2676	3172.9093	3189.6692	3203.794	3825.528
OC1CC1C1CC2OC12	O[C@@H]1C[C@H]1[C@H]1C[C@@H]2O[C@H]12	
InChI=1S/C7H10O2/c8-5-1-3(5)4-2-6-7(4)9-6/h3-8H,1-2H2	InChI=1S/C7H10O2/c8-5-1-3(5)4-2-6-7(4)9-6/h3-8H,1-2H2/t3-,4+,5+,6-,7+/m0/s1
