19
gdb 2438	2.6433465	1.9603	1.5072066	2.3325	73.27	-0.23153	0.04993	0.28146000000000004	932.8589	0.159488	-422.557343	-422.550169	-422.549225	-422.588387	29.326	
O	 0.0887441061	-0.0593693745	 0.6684964107	-0.487861
C	-0.1580175773	 1.203297262	 1.188070733	 0.367729
C	-1.3780312251	 1.8926743497	 0.5836692871	-0.120497
O	-1.3562440748	 3.1333098212	 1.310463753	-0.283319
C	-0.2130710767	 2.9600239164	 2.1468802507	 0.114815
C	 0.9065601423	 2.3614454816	 1.2497034345	-0.096117
C	 1.9843342829	 1.8600224703	 2.211135887	-0.256828
C	 1.0780954763	 1.2271346793	 3.3185642907	-0.256801
C	-0.299752571	 1.519079404	 2.7238808124	-0.096088
H	 0.8691686114	-0.4272076728	 1.0956681178	 0.287566
H	-1.2774365694	 2.0717183553	-0.4932005204	 0.104596
H	-2.3117122522	 1.3494582644	 0.7706972822	 0.104604
H	-0.0596330407	 3.8374497781	 2.7737797683	 0.082484
H	 1.2140179743	 2.8803674889	 0.3405982284	 0.067979
H	 2.6543256098	 1.131034097	 1.7412712154	 0.09386
H	 2.6132457124	 2.6689768194	 2.5934916135	 0.106015
H	 1.2548176595	 0.1536998376	 3.4511940656	 0.09388
H	 1.219611361	 1.6955145464	 4.2966835166	 0.106006
H	-1.1870585089	 1.2037087955	 3.2747974735	 0.067979
215.5339	229.1781	235.7261	286.4898	371.5634	404.5223	425.6978	606.1621	649.8054	680.6919	705.0249	767.5885	832.5418	908.6539	910.407	946.4862	951.7223	967.9467	1003.7797	1013.58	1021.424	1042.184	1063.4701	1096.1551	1119.5899	1145.4487	1186.2906	1208.1809	1221.8115	1237.469	1252.3879	1263.8606	1269.4022	1296.2835	1318.4111	1334.9563	1395.0262	1405.9446	1500.0557	1520.1238	1529.574	3025.3547	3032.365	3044.4174	3066.3593	3074.2264	3092.3989	3108.4143	3111.2262	3134.0764	3814.534
OC12COC3C1CCC23	O[C@]12CO[C@@H]3[C@H]1CC[C@H]23	
InChI=1S/C7H10O2/c8-7-3-9-6-4(7)1-2-5(6)7/h4-6,8H,1-3H2	InChI=1S/C7H10O2/c8-7-3-9-6-4(7)1-2-5(6)7/h4-6,8H,1-3H2/t4-,5+,6-,7-
