19
gdb 2030	2.177892	2.0523621	1.3715171	1.0098	73.84	-0.22597	0.06781	0.29378	994.1708	0.157158	-422.536454	-422.528431	-422.527487	-422.568194	32.718	
O	 1.9884706403	 0.5139549226	 0.6349721384	-0.469078
C	 0.9590622264	 0.554725462	 1.5823854817	 0.311573
C	 0.8203509418	-0.5267206777	 2.6177033599	-0.363064
C	 1.2626506428	 0.8758064654	 3.0144280231	-0.076408
C	 0.2429101488	 1.9067713085	 3.5186619378	-0.254692
C	-0.6799214838	 2.2303135525	 2.3401927441	-0.109809
C	-1.5937319224	 1.1443480337	 1.7877858908	-0.348741
C	-0.26440892	 1.3784030992	 1.1534462799	 0.363835
O	-0.251242563	 1.8109569905	-0.167939992	-0.474224
H	 1.7536330734	-0.1508317822	-0.0232347143	 0.28865
H	-0.1586968454	-0.8988356666	 2.8984608019	 0.113997
H	 1.6033704111	-1.2784399058	 2.6291304832	 0.112529
H	 2.2933386199	 0.974528681	 3.3363057659	 0.09632
H	-0.3064500982	 1.5493509027	 4.397949521	 0.103074
H	 0.7731984491	 2.8141860699	 3.8264022172	 0.10621
H	-1.0047218775	 3.2554806692	 2.2012980061	 0.089883
H	-1.7916877715	 0.2443260311	 2.3603402186	 0.108522
H	-2.4446598955	 1.4994949075	 1.2154449301	 0.119608
H	 0.6657503935	 2.0431662165	-0.3634955635	 0.281815
149.6115	214.7509	242.0828	296.0312	342.9901	377.2285	431.5517	447.8775	462.2227	504.6584	596.306	610.467	668.4864	794.9609	818.7143	834.9267	854.3806	912.7425	922.8923	949.6307	961.4718	1026.3582	1033.1473	1047.781	1062.1388	1083.5752	1089.5794	1119.2834	1162.2775	1223.6126	1238.6224	1250.9028	1286.8145	1313.977	1329.2551	1363.9269	1400.3279	1428.7674	1483.8262	1489.7668	1503.4192	3030.7629	3069.7489	3123.1358	3130.694	3170.1386	3172.5881	3208.5666	3214.987	3769.0032	3785.5791	149.611	214.7503	242.0817	296.0309	342.9898	377.2282	431.5515	447.8773	462.2227	504.6583	596.3059	610.4669	668.4869	794.9607	818.714	834.9266	854.3803	912.7424	922.8922	949.6307	961.4716	1026.3584	1033.1474	1047.781	1062.1389	1083.5754	1089.5795	1119.284	1162.2777	1223.6139	1238.6225	1250.9031	1286.8145	1313.9774	1329.2554	1363.9271	1400.328	1428.7674	1483.8269	1489.7673	1503.4197	3030.7629	3069.7488	3123.1357	3130.6939	3170.1386	3172.5882	3208.5666	3214.987	3769.0033	3785.579
OC12CC1CC1CC21O	O[C@@]12C[C@@H]1C[C@@H]1C[C@]21O	
InChI=1S/C7H10O2/c8-6-2-4(6)1-5-3-7(5,6)9/h4-5,8-9H,1-3H2	InChI=1S/C7H10O2/c8-6-2-4(6)1-5-3-7(5,6)9/h4-5,8-9H,1-3H2/t4-,5+,6-,7+
