19
gdb 4363	3.0186442	1.2625449	0.9497762	5.1173	79.07	-0.25868	-0.03794	0.22074000000000002	1245.9671	0.157908	-422.596567	-422.588064	-422.58712	-422.629794	31.859	
C	-3.1438027952	-1.541340838	 2.8549086268	-0.408765
C	-2.3900118745	-0.8155280653	 1.7328793527	-0.000649
C	-0.9530585837	-1.3343790818	 1.6072592713	-0.082607
O	-0.4528310066	-1.2900601739	 0.2697977143	-0.227704
C	-0.2223603193	-0.1280418115	-0.3865733344	 0.383458
O	 0.3043207932	-0.1800909154	-1.4704427395	-0.335406
C	-0.5949502263	 1.1878589178	 0.1985773105	-0.174916
C	-1.4982127909	 1.5353341723	 1.1217749499	-0.059869
C	-2.410848725	 0.6993413774	 1.9648633468	-0.260482
H	-3.2264617436	-2.6125959976	 2.6486352388	 0.123668
H	-2.6305480323	-1.422218178	 3.8165728838	 0.119624
H	-4.1560576379	-1.1413361913	 2.9701434413	 0.121312
H	-2.8829593803	-1.0389219502	 0.7786368741	 0.100237
H	-0.2774464803	-0.79278322	 2.2824369464	 0.112366
H	-0.9053149417	-2.395032155	 1.8654634211	 0.120606
H	-0.0623400941	 1.9805084858	-0.3175198915	 0.120949
H	-1.5987598454	 2.6047151094	 1.3054682447	 0.108476
H	-2.1604416824	 0.9057923628	 3.0181285362	 0.118099
H	-3.4351860336	 1.0801215624	 1.8474005168	 0.121602
78.9883	110.5028	215.3857	233.5651	310.7601	325.7552	335.4475	377.86	429.0354	507.4454	603.3197	640.3062	747.0452	818.9447	831.9959	860.0799	898.7226	918.4659	963.2694	1008.4876	1034.8185	1092.7482	1110.4232	1117.5357	1168.8789	1218.8287	1236.6325	1286.5536	1305.8497	1326.4463	1369.4035	1398.2534	1410.1412	1423.0901	1431.0998	1461.4097	1496.9868	1499.4266	1505.2265	1707.708	1802.8708	2984.8937	3019.9072	3022.8293	3029.7947	3042.1275	3096.3904	3098.2085	3110.7583	3130.8776	3185.0504
CC1COC(=O)C=CC1	C[C@@H]1COC(=O)C=CC1	
InChI=1S/C7H10O2/c1-6-3-2-4-7(8)9-5-6/h2,4,6H,3,5H2,1H3	InChI=1S/C7H10O2/c1-6-3-2-4-7(8)9-5-6/h2,4,6H,3,5H2,1H3/t6-/m0/s1
