19
gdb 5012	2.9159779	1.3490652	1.1629074	2.9906	76.03	-0.24013	0.07978	0.31991	1143.7925	0.15514	-422.465158	-422.456625	-422.45568	-422.498349	32.272	
C	 1.3347995765	 0.0567126173	 0.9504100873	-0.383416
C	 0.7590080178	-0.0189737886	-0.4681804808	-0.320092
C	 1.6329731133	-0.7759664453	-1.4199816879	 0.298789
C	 2.1965976572	-2.2274632027	-1.3770732932	-0.268904
C	 2.9135351328	-1.4729795624	-2.5221392682	-0.07029
O	 3.0410853645	-0.3015631077	-1.6238531081	-0.350296
C	 1.5485188913	-0.926046931	-2.9526507327	 0.523436
C	 0.5290092931	-1.1982371593	-3.9543502151	-0.30953
O	 1.2577944517	 0.0569981521	-3.893250455	-0.285037
H	 1.4287373897	-0.9393300316	 1.3947000618	 0.117412
H	 2.3279127609	 0.5132770164	 0.9373048288	 0.142801
H	 0.6889662982	 0.6548113782	 1.5993214616	 0.114613
H	-0.2285168941	-0.4976144974	-0.4575907865	 0.106276
H	 0.6157281579	 0.9888755258	-0.8755339631	 0.126122
H	 2.8374865264	-2.4321559481	-0.51976198	 0.113858
H	 1.5277713285	-3.055346638	-1.6282898819	 0.09685
H	 3.7845675361	-1.7571999061	-3.1102049563	 0.103117
H	 0.7589354928	-1.8203830843	-4.8176533897	 0.122941
H	-0.5267806246	-1.1288124073	-3.6976521108	 0.12135
73.0368	132.14	197.6074	207.2497	254.2618	268.979	355.6163	469.2836	491.0636	604.7604	626.2899	704.6528	726.4309	774.2669	800.9215	887.9538	898.3625	922.1032	958.587	989.4216	996.8717	1037.8776	1066.4674	1101.9721	1111.9192	1127.8239	1144.5081	1163.2124	1199.8485	1207.2959	1219.5929	1290.3505	1319.8788	1388.9351	1411.3519	1453.1001	1471.4747	1488.6433	1498.1819	1508.242	1561.108	3029.2846	3043.4903	3061.8399	3067.0138	3087.6167	3111.2505	3125.9687	3139.1852	3155.2214	3174.8912
CCC12CC(O1)C21CO1	CC[C@]12C[C@H](O1)[C@]12CO1	
InChI=1S/C7H10O2/c1-2-6-3-5(9-6)7(6)4-8-7/h5H,2-4H2,1H3	InChI=1S/C7H10O2/c1-2-6-3-5(9-6)7(6)4-8-7/h5H,2-4H2,1H3/t5-,6+,7-/m0/s1
