19
gdb 2443	2.2368574	1.94677	1.5801761	2.3641	74.61	-0.22021	0.07176	0.29197	963.3408	0.157203	-422.532922	-422.524935	-422.523991	-422.564722	31.677	
C	 0.0334620362	-0.1114046224	-0.1253701344	-0.47662
C	 1.526890079	-0.1192032287	 0.0188741913	 0.41681
O	 2.1661673755	-1.1626381781	-0.7019118881	-0.310621
C	 3.446546766	-0.6658728164	-1.1146140493	-0.089435
C	 3.7446571845	 0.458485482	-0.1251917247	-0.143345
C	 3.6390860222	-0.0793231314	 1.3405935045	-0.234855
C	 2.1623546609	 0.3097271048	 1.3533815115	-0.214852
C	 2.340114112	 1.1162143399	 0.0548921504	 0.298564
O	 1.8988136331	 2.3470959697	-0.3769411528	-0.463311
H	-0.4010488561	 0.7208830676	 0.4340071952	 0.124509
H	-0.2488621084	-0.0030032041	-1.1767250365	 0.128994
H	-0.3952049702	-1.0457339618	 0.2500785815	 0.125989
H	 4.1631136541	-1.4927061192	-1.0711257781	 0.104417
H	 3.399964854	-0.2893260664	-2.148588475	 0.093373
H	 4.5975242591	 1.0904695344	-0.3720811293	 0.072392
H	 3.8775429397	-1.1390120151	 1.4783857366	 0.101917
H	 4.2277694516	 0.5177032014	 2.0420351021	 0.096814
H	 1.54703736	 0.5101061487	 2.224166768	 0.082377
H	 2.3375276468	 3.0303622452	 0.142404547	 0.286884
178.8699	194.9617	219.9463	234.8167	316.2252	341.9044	371.2163	417.821	528.3342	567.5754	633.8633	676.5674	750.7382	793.6633	846.2875	887.0671	899.3372	933.4874	977.1084	991.5134	1008.1515	1031.8545	1068.8143	1085.2622	1123.2202	1131.3976	1155.6715	1192.6872	1224.3908	1233.2664	1265.6029	1293.8101	1299.5702	1328.3678	1377.1848	1418.9513	1470.9107	1483.5168	1490.684	1513.8964	1521.4274	2981.1571	3042.8871	3044.6897	3070.8994	3097.7412	3108.6003	3120.0426	3125.5281	3167.477	3787.634
CC12OCC3CC1C23O	C[C@]12OC[C@@H]3C[C@H]1[C@]23O	
InChI=1S/C7H10O2/c1-6-5-2-4(3-9-6)7(5,6)8/h4-5,8H,2-3H2,1H3	InChI=1S/C7H10O2/c1-6-5-2-4(3-9-6)7(5,6)8/h4-5,8H,2-3H2,1H3/t4-,5+,6-,7-/m0/s1
