19
gdb 839	3.2428749	1.3096881	1.2339723	3.7793	74.75	-0.23839	-0.01762	0.22077	1080.4983	0.159077	-422.582822	-422.575261	-422.574316	-422.61543	29.057	
O	 1.1861962923	-0.5491166188	 0.0108875921	-0.260353
C	 0.0588729283	-0.1294432774	 0.0872687089	 0.15349
C	-0.4504346548	 0.7485290691	 1.2051978056	-0.070565
C	-1.1271543536	 2.0707446225	 0.6930535019	-0.255299
C	-2.5444356344	 2.0063783477	 1.3125735343	-0.037108
C	-3.3033951997	 0.867901745	 0.6160065331	-0.074304
O	-2.6286504046	-0.3242304581	 1.0717361373	-0.281568
C	-1.6245810855	 0.1092407112	 2.0002101283	 0.08718
C	-2.2642105451	 1.3305924977	 2.6711511986	-0.233471
H	-0.697991516	-0.3692366995	-0.6909268426	 0.085563
H	 0.3923308248	 0.9523305542	 1.8711431896	 0.09141
H	-0.5719393424	 2.9446423711	 1.0423393704	 0.112084
H	-1.1639684789	 2.1232186878	-0.400457429	 0.106694
H	-3.0802335676	 2.9559477883	 1.3278746044	 0.074055
H	-4.359963465	 0.8226910764	 0.9100701649	 0.10129
H	-3.2494669431	 0.9245261677	-0.4779746962	 0.100146
H	-1.3478238166	-0.7390818421	 2.6261745627	 0.087831
H	-3.1658200718	 1.0730617918	 3.2327848457	 0.108414
H	-1.5769477264	 1.8922024055	 3.3085622	 0.104513
55.3392	108.1514	244.3339	301.8212	381.5154	406.4578	468.6805	473.9792	619.1285	783.1574	804.5778	831.2701	849.1023	894.8855	916.3933	931.8431	955.9607	965.4412	971.2144	1009.0272	1025.2338	1042.2208	1099.5203	1106.323	1144.3725	1177.635	1192.317	1240.8054	1246.0746	1268.1402	1287.1479	1305.0444	1319.0879	1326.6415	1342.8659	1386.6709	1427.3558	1485.8179	1497.1323	1530.9724	1825.2642	2896.5753	3012.2203	3045.9262	3052.6418	3066.7245	3075.2787	3099.7509	3114.7735	3123.3146	3125.2137
O=CC1CC2COC1C2	O=C[C@H]1C[C@H]2CO[C@@H]1C2	
InChI=1S/C7H10O2/c8-3-6-1-5-2-7(6)9-4-5/h3,5-7H,1-2,4H2	InChI=1S/C7H10O2/c8-3-6-1-5-2-7(6)9-4-5/h3,5-7H,1-2,4H2/t5-,6-,7-/m1/s1
