19
gdb 4725	2.5224923	0.911019	0.7010829	3.3274	80.98	-0.24536	0.04813	0.29349	1598.489	0.154647	-422.505032	-422.494655	-422.493711	-422.54285	35.59	
C	 1.6343694706	-0.1914607711	 0.0974313199	-0.499112
C	 0.180506826	-0.1131724962	 0.0911721738	 0.094963
C	-1.0215245309	-0.0385697783	 0.0998465237	 0.041068
C	-2.480098277	 0.0075745961	 0.0816708655	-0.244942
C	-3.1046785358	-1.3807472278	 0.3879290956	-0.048257
O	-4.4797886156	-1.2869127471	 0.677159399	-0.427358
C	-2.9672862661	 0.5200157557	-1.2704270134	 0.091329
C	-3.5949323047	 1.8339036696	-1.4369812914	-0.179616
O	-4.3913380394	 0.6414950022	-1.4276956468	-0.252387
H	 2.0478408553	 0.1851387197	 1.0394145312	 0.151189
H	 1.9778073769	-1.2244018151	-0.0258731821	 0.150716
H	 2.068206685	 0.4012818293	-0.7153926347	 0.14919
H	-2.844230192	 0.6853294124	 0.865018515	 0.109643
H	-2.8991269334	-2.0584851406	-0.4571702228	 0.090627
H	-2.6179346028	-1.8032227994	 1.2716335596	 0.114427
H	-4.8848535692	-0.7562155854	-0.020739694	 0.298561
H	-2.4709070444	 0.0703826139	-2.1302557459	 0.109837
H	-3.7152830474	 2.4806738516	-0.5696569677	 0.125164
H	-3.5477595949	 2.3429607405	-2.3975276944	 0.124959
11.6662	65.5245	88.0401	104.0372	176.586	223.7941	267.16	300.278	358.7127	380.2886	456.1145	481.8194	485.0198	529.2839	804.8692	826.1297	865.5774	927.2182	958.4502	1043.1853	1053.1953	1055.33	1088.4268	1103.5632	1128.5154	1156.121	1172.6332	1176.9516	1230.3812	1277.7935	1293.8695	1308.0616	1379.7561	1414.8337	1435.8566	1453.283	1477.8	1478.4314	1511.4265	1526.0938	2370.0961	2968.4583	3022.7834	3027.7537	3084.6434	3088.767	3089.5396	3092.2551	3117.449	3182.8177	3767.3092	11.6909	65.5237	88.0402	104.0371	176.5859	223.794	267.1593	300.2768	358.7112	380.2884	456.1129	481.8175	485.0188	529.2833	804.8691	826.1294	865.577	927.2179	958.4499	1043.1851	1053.1949	1055.3296	1088.4264	1103.5632	1128.5151	1156.1204	1172.6327	1176.9515	1230.3809	1277.7931	1293.8696	1308.0612	1379.7559	1414.8335	1435.8566	1453.2831	1477.7996	1478.4309	1511.4261	1526.0933	2370.0953	2968.4581	3022.7835	3027.7538	3084.6433	3088.7671	3089.5397	3092.255	3117.4489	3182.8176	3767.3084
CC#CC(CO)C1CO1	CC#C[C@H](CO)[C@@H]1CO1	
InChI=1S/C7H10O2/c1-2-3-6(4-8)7-5-9-7/h6-8H,4-5H2,1H3	InChI=1S/C7H10O2/c1-2-3-6(4-8)7-5-9-7/h6-8H,4-5H2,1H3/t6-,7+/m1/s1
