19
gdb 663	2.5361277	1.725222	1.5301381	1.8419	73.58	-0.23585	-0.01825	0.21760000000000002	961.8389	0.159953	-422.597872	-422.590733	-422.589788	-422.629178	28.945	
O	 1.1454521215	 0.067285384	-0.4558563281	-0.331336
C	-0.0323337574	 0.0184014893	-0.2149502144	 0.415674
C	-0.9936608016	 1.2151011642	-0.1088527722	-0.350983
C	-2.3775530907	 0.5636949713	 0.0741767841	 0.110981
C	-2.0372072507	-0.7118945597	 0.8733554381	-0.239676
C	-0.8645100654	-1.2502280836	 0.0339127067	-0.115536
C	-1.4472075834	-1.7229887801	-1.3219673811	-0.227915
C	-2.1700195215	-0.5639711364	-2.0294058958	-0.081337
O	-2.9954061239	 0.2041488262	-1.160452967	-0.269702
H	-0.727577064	 1.797276702	 0.78110782	 0.132076
H	-0.9139788026	 1.8815315777	-0.9711702845	 0.136251
H	-3.0958189841	 1.2173570642	 0.5720352763	 0.084383
H	-1.7279145385	-0.4625672463	 1.8943167153	 0.100483
H	-2.8868063988	-1.3970703782	 0.9218980558	 0.107635
H	-0.2639850437	-2.0330798902	 0.4997426901	 0.086586
H	-0.6543669425	-2.1030109959	-1.9746078068	 0.116078
H	-2.1453152432	-2.5449234401	-1.1280691954	 0.108642
H	-1.4263976223	 0.0859124576	-2.5167032896	 0.10417
H	-2.8320813072	-0.9373870963	-2.8152796116	 0.113527
110.0142	241.1711	274.668	368.3673	403.3483	438.2518	470.0002	523.2426	601.2449	649.93	746.3845	793.7891	816.477	841.3518	882.5171	891.8013	920.2882	957.5355	998.261	1031.4573	1042.8093	1077.9166	1091.7376	1136.1507	1156.4328	1184.1667	1220.9431	1231.6236	1260.3437	1281.7866	1306.9667	1322.8123	1332.4853	1366.1717	1381.4238	1418.1408	1436.8033	1475.1598	1490.3487	1513.6641	1850.0871	2983.1046	3037.0782	3045.9019	3051.7098	3084.7292	3091.5959	3098.5886	3102.3497	3106.5607	3111.9065
O=C1CC2CC1CCO2	O=C1C[C@@H]2C[C@H]1CCO2	
InChI=1S/C7H10O2/c8-7-4-6-3-5(7)1-2-9-6/h5-6H,1-4H2	InChI=1S/C7H10O2/c8-7-4-6-3-5(7)1-2-9-6/h5-6H,1-4H2/t5-,6+/m1/s1
