19
gdb 5494	2.5262647	1.435543	1.1588383	2.6753	75.78	-0.22859	0.01258	0.24117	1118.6892	0.157328	-422.520772	-422.512328	-422.511384	-422.553721	32.631	
O	 1.8564612309	 0.3323715709	 0.0583943061	-0.42216
C	 0.4307844859	 0.3785084958	 0.0566752888	-0.130985
C	-0.0905109341	 1.0265785652	-1.2224840868	 0.044347
C	-0.1086633806	 0.2219140952	-2.5835862135	-0.11752
C	-0.6389424843	 1.3078921476	-3.5197362062	-0.092695
C	-1.6390753101	 1.8613061956	-2.8193974609	-0.092543
C	-1.6395534162	 1.0700531514	-1.5145835861	-0.158636
C	-1.4901106893	-0.3813453613	-2.1474001471	 0.163016
O	-1.3827973782	-1.4910761109	-1.2914416179	-0.438329
H	 2.1212258104	-0.335550697	-0.5814942552	 0.2818
H	-0.0015285982	-0.6088612719	 0.2306030422	 0.114954
H	 0.1591453454	 1.020121096	 0.9040449191	 0.09966
H	 0.3963606666	 2.0012100069	-1.3175573786	 0.077359
H	 0.7128343705	-0.4125661277	-2.9182345975	 0.05736
H	-0.2839077715	 1.5248909946	-4.5170552117	 0.10112
H	-2.3257574191	 2.6491991041	-3.0951126502	 0.100481
H	-2.3803459327	 1.3022799665	-0.7483248529	 0.056892
H	-2.1858358437	-0.5880055018	-2.9699332368	 0.069705
H	-2.2713098517	-1.7742942792	-1.0539264948	 0.286175
68.4576	154.4805	241.3029	263.4672	285.3572	303.7845	336.5956	387.9708	484.3015	548.681	596.7988	681.6498	709.435	808.6091	874.724	889.5751	905.0529	916.1612	930.0773	960.4407	994.4172	1029.5221	1061.4455	1084.3723	1096.0418	1120.7908	1136.1631	1183.687	1188.9627	1210.9994	1226.1871	1240.6492	1250.7471	1288.4576	1328.7286	1353.5184	1402.0594	1417.9915	1431.0009	1513.9883	1611.8012	3026.0019	3035.7295	3067.5162	3107.7587	3109.9369	3112.6451	3218.0322	3244.2913	3819.9045	3822.0003
OCC1C2C=CC1C2O	OC[C@H]1[C@@H]2C=C[C@H]1[C@@H]2O	
InChI=1S/C7H10O2/c8-3-6-4-1-2-5(6)7(4)9/h1-2,4-9H,3H2	InChI=1S/C7H10O2/c8-3-6-4-1-2-5(6)7(4)9/h1-2,4-9H,3H2/t4-,5+,6-,7+
