19
gdb 5046	2.4062075	1.4864232	1.1236313	2.6857	74.7	-0.21846	0.05805	0.27651	1150.5152	0.15477	-422.476111	-422.467313	-422.466369	-422.509464	33.636	
C	 2.1913669161	 1.7301915398	-0.5106068513	-0.369619
C	 1.6400939558	 0.3228303417	-0.2400480757	-0.301027
C	 2.1913674107	-0.7206882296	-1.1705250851	 0.223469
C	 1.6864480286	-0.9675063545	-2.5856830408	-0.360609
C	 1.6584817126	-2.0887486725	-1.600219705	 0.290773
O	 0.4849136813	-2.7529541978	-1.3038446408	-0.448058
C	 3.0911955961	-2.6942383736	-1.3845373367	-0.067918
O	 4.034523697	-2.0016655986	-2.2155287006	-0.235115
C	 3.600980806	-1.3875054824	-0.9897780575	-0.029232
H	 1.7800878814	 2.457990998	 0.1959184853	 0.110993
H	 3.2823629333	 1.752960179	-0.4170706984	 0.117586
H	 1.9402655185	 2.0584240432	-1.523970325	 0.123592
H	 1.8581689136	 0.0414603802	 0.800022959	 0.091398
H	 0.5466420759	 0.3311952916	-0.3281066709	 0.106203
H	 0.7037524231	-0.5415659777	-2.7668874207	 0.116563
H	 2.3583703309	-0.9763728063	-3.4349578995	 0.133037
H	 0.4829671815	-2.9738399692	-0.3654602581	 0.287434
H	 3.3347263246	-3.7010576792	-1.0625479151	 0.106168
H	 4.3640349132	-1.1014513221	-0.274644693	 0.104363
73.8672	113.2286	202.295	234.8711	289.0847	322.2581	335.7449	366.6026	437.4885	525.8308	557.8817	598.5481	748.3052	775.7294	786.5001	805.0409	815.1145	878.5914	893.2581	969.5599	975.5324	979.9633	1009.4998	1041.6595	1088.1633	1099.1237	1126.0749	1181.4153	1194.0905	1233.5161	1303.1071	1315.1519	1327.2391	1367.7356	1373.8545	1408.9055	1410.6023	1480.273	1492.6953	1497.4027	1505.7402	3004.472	3034.1983	3049.0379	3102.2751	3109.4903	3134.1984	3169.6813	3185.1826	3227.7555	3784.9756
CCC12CC1(O)C1OC21	CC[C@]12C[C@@]1(O)[C@H]1O[C@@H]21	
InChI=1S/C7H10O2/c1-2-6-3-7(6,8)5-4(6)9-5/h4-5,8H,2-3H2,1H3	InChI=1S/C7H10O2/c1-2-6-3-7(6,8)5-4(6)9-5/h4-5,8H,2-3H2,1H3/t4-,5+,6-,7-/m1/s1
