19
gdb 1275	3.2758242	1.4369366	1.2676159	1.9195	73.85	-0.2389	0.0698	0.3087	1056.1857	0.156383	-422.498455	-422.490337	-422.489393	-422.53087	31.9	
C	 2.4352520951	-1.5483406117	 1.5231861559	-0.407062
C	 1.119357141	-0.767210794	 1.4364625571	-0.001557
O	 0.0134434477	-1.622395627	 1.18301087	-0.436984
C	 1.1747879102	 0.297228297	 0.3740423895	 0.437493
C	 2.1826505373	 1.4742493986	 0.2889636738	-0.281611
C	 1.1761893858	 2.0934627198	-0.6808420975	-0.125157
C	 0.5686886069	 0.8910060536	-1.423311805	 0.099757
O	 1.2439312778	-0.2868373521	-0.9783483914	-0.346877
C	 0.0270044961	 1.2747871419	-0.0953280203	-0.20671
H	 2.3292098253	-2.3617542304	 2.24494143	 0.124141
H	 2.6895788968	-1.9764544481	 0.5486796245	 0.131676
H	 3.2610996103	-0.9035358251	 1.8412853678	 0.11495
H	 0.9136673109	-0.284265185	 2.3997664544	 0.089856
H	 0.048700101	-1.8186917088	 0.2376031715	 0.286351
H	 2.2289451268	 2.0341028259	 1.2267850351	 0.106811
H	 3.1880877551	 1.2283946648	-0.0662131354	 0.103418
H	 1.1462424371	 3.0999682304	-1.0776320703	 0.094548
H	 0.1539634482	 0.9156189217	-2.4220657115	 0.110439
H	-0.9554104595	 1.5213373183	 0.2802987217	 0.106515
86.1195	156.99	197.0951	254.0506	315.6232	384.4393	438.6993	462.2964	491.338	563.9468	665.6046	766.9164	771.5981	789.1168	817.4775	854.6172	890.5771	931.65	960.9291	993.8946	1014.582	1022.7512	1029.4346	1044.6713	1055.6373	1085.456	1103.2514	1128.2713	1145.9942	1177.6283	1229.32	1266.5656	1295.9287	1323.2743	1357.2747	1380.0757	1399.9678	1440.8836	1487.8989	1493.0519	1500.4478	3039.2356	3039.7202	3050.2135	3111.9433	3112.7159	3127.928	3200.3646	3209.1429	3226.8023	3767.9233
CC(O)C12CC3C(O1)C23	C[C@H](O)[C@@]12C[C@H]3[C@@H](O1)[C@@H]23	
InChI=1S/C7H10O2/c1-3(8)7-2-4-5(7)6(4)9-7/h3-6,8H,2H2,1H3	InChI=1S/C7H10O2/c1-3(8)7-2-4-5(7)6(4)9-7/h3-6,8H,2H2,1H3/t3-,4+,5-,6+,7+/m0/s1
