19
gdb 3627	2.4663197	1.3536599	1.056117	2.7842	74.94	-0.25257	-0.02957	0.22300000000000003	1182.4923	0.156328	-422.563403	-422.554721	-422.553776	-422.59756	31.793	
C	 1.839518606	-0.8571578621	-0.8367030226	-0.41143
C	 1.2634671465	 0.0556343531	 0.2536223327	-0.011001
C	 1.5958294144	-0.3958917206	 1.7071536746	-0.271264
C	 2.8043656542	 0.4589029601	 2.2094773293	-0.100569
C	 4.1256979763	-0.2710851792	 2.0757781711	 0.146619
O	 4.9288715543	-0.3966086115	 2.9635200763	-0.245152
C	 2.7638797986	 1.6863457536	 1.3045287531	 0.024126
O	 1.4702229694	 2.2961217192	 1.2676386939	-0.267335
C	 1.8539786378	 1.4511908411	 0.1753657843	 0.057484
H	 1.4290749911	-1.8678284622	-0.7528037718	 0.123994
H	 1.5959825215	-0.4798440848	-1.835574101	 0.120917
H	 2.9304512729	-0.9348631934	-0.7706541933	 0.122213
H	 0.1763020682	 0.1049281695	 0.1238801784	 0.090328
H	 0.7462763236	-0.2027760757	 2.3633776305	 0.128409
H	 1.8044001694	-1.4690714171	 1.7587456992	 0.108547
H	 2.6986330902	 0.7407277964	 3.2608357731	 0.105124
H	 4.3203812971	-0.7064792838	 1.0676333279	 0.076054
H	 3.6059311172	 2.3731083147	 1.2658498416	 0.106885
H	 1.9670486312	 1.9519438227	-0.7839122874	 0.096051
36.7365	104.1019	161.8608	221.3133	275.7809	283.0601	333.9723	400.4626	446.6295	488.307	697.719	748.5817	787.6831	844.4618	851.5547	882.9158	922.4419	946.4834	981.0854	1018.441	1026.8147	1052.5108	1088.4834	1117.4239	1145.9887	1156.7205	1219.6758	1242.8755	1252.5499	1282.1791	1309.4981	1321.1104	1344.0145	1367.2063	1410.269	1433.1726	1435.7242	1483.6071	1497.8694	1499.8846	1830.9721	2857.6609	3032.3602	3040.6023	3062.7046	3078.8422	3098.2445	3107.8442	3120.5062	3136.0493	3149.7625
CC1CC(C=O)C2OC12	C[C@H]1C[C@@H](C=O)[C@@H]2O[C@H]12	
InChI=1S/C7H10O2/c1-4-2-5(3-8)7-6(4)9-7/h3-7H,2H2,1H3	InChI=1S/C7H10O2/c1-4-2-5(3-8)7-6(4)9-7/h3-7H,2H2,1H3/t4-,5-,6+,7-/m0/s1
