19
gdb 4295	3.2742933	1.3658998	1.0793627	1.8597	78.04	-0.2399	0.01094	0.25084	1145.7254	0.157794	-422.530229	-422.522211	-422.521267	-422.562642	30.691	
C	-0.095740073	 1.5324604932	 0.1771887827	-0.399599
C	 0.0287374652	 0.0323784937	 0.0103819858	 0.079339
O	-1.1799606771	-0.7009449563	 0.4105175578	-0.329876
C	-0.390397904	-1.6771923015	 1.1417552916	 0.08768
C	-0.6638056075	-1.9283885998	 2.6221731482	-0.124356
O	 0.5545655492	-2.4444048829	 3.1543130747	-0.256673
C	 1.6527401404	-1.5407002674	 3.1696792878	-0.09265
C	 1.7131187314	-0.6179861158	 1.9753047929	-0.248003
C	 0.7981463019	-0.772429161	 1.0322148775	 0.208772
H	 0.8440802676	 2.0227289157	-0.0986593319	 0.120241
H	-0.8850442902	 1.9210560984	-0.4736880917	 0.130767
H	-0.3363975868	 1.7868289965	 1.2125261422	 0.123282
H	 0.277492315	-0.2183602559	-1.0319120497	 0.083647
H	-0.3372002957	-2.6266590609	 0.5928027511	 0.086242
H	-0.9673745055	-0.98930846	 3.1076164703	 0.097069
H	-1.4206352212	-2.6928906252	 2.8146888988	 0.110568
H	 1.6145454079	-0.9152366919	 4.0796456943	 0.102874
H	 2.5475346631	-2.1691290072	 3.254276125	 0.122997
H	 2.4242297195	 0.2028438784	 2.0014900924	 0.097679
109.0809	151.4521	204.3884	264.4385	267.7032	354.9718	412.5068	440.9849	480.5233	557.9066	672.0476	765.0248	810.8859	831.5441	854.821	894.0826	965.2595	979.1918	1007.7361	1029.4721	1069.6336	1073.902	1092.9002	1124.7833	1138.0633	1162.9664	1231.3714	1244.2609	1281.4363	1290.7078	1314.3161	1356.5891	1366.1818	1394.7544	1399.7473	1407.3508	1482.7208	1486.4572	1491.2424	1501.1117	1784.5899	2947.4018	2985.8916	3001.2025	3017.3016	3038.7221	3045.8622	3099.7209	3109.0419	3126.1398	3169.4029
CC1OC2COCC=C12	C[C@@H]1O[C@@H]2COC[CH][C]12	
InChI=1S/C7H10O2/c1-5-6-2-3-8-4-7(6)9-5/h2,5,7H,3-4H2,1H3	InChI=1S/C7H10O2/c1-5-6-2-3-8-4-7(6)9-5/h2,5,7H,3-4H2,1H3/t5-,7+/m0/s1
