19
gdb 4977	2.4245826	1.53826	1.2140864	0.5307	75.99	-0.23386	0.07201	0.30587000000000003	1094.2575	0.156668	-422.505598	-422.497032	-422.496088	-422.538697	32.668	
O	 1.816806286	 0.6007869385	-0.0496799074	-0.422257
C	 0.4471807768	 0.2024427146	-0.0515868106	-0.249701
C	-0.0476150414	 0.1836712708	-1.4489896629	 0.344376
C	-0.2888178767	 1.3027634818	-2.4540290101	-0.178427
C	 0.5462248893	 0.5993123478	-3.5190186149	-0.231585
C	 0.253785718	-0.7060367631	-2.7276518959	-0.11503
C	-1.2812374987	-0.9229829475	-2.8896017839	-0.295055
C	-1.420171768	 0.3396495212	-2.0444953051	 0.325422
O	-2.5370584306	 0.7805713062	-1.3614593483	-0.469426
H	 2.1392838808	 0.5395468907	 0.8548499672	 0.284129
H	 0.3315670966	-0.7945344953	 0.4043501373	 0.088803
H	-0.1754223841	 0.8998437081	 0.5313957825	 0.099326
H	-0.3717001177	 2.3598883363	-2.231880576	 0.084138
H	 0.2158258456	 0.6369176215	-4.5641941968	 0.081223
H	 1.5988208736	 0.8861820227	-3.4515601005	 0.11085
H	 0.9357042183	-1.5524070331	-2.7627747908	 0.075161
H	-1.6865876014	-0.9370848082	-3.9088792187	 0.081371
H	-1.6290173026	-1.8009505917	-2.3377601111	 0.10099
H	-3.0453159039	 1.3530694785	-1.9465604141	 0.285693
82.5213	110.6439	212.3918	254.0971	278.3809	299.4682	355.972	392.9988	425.3358	577.2538	602.5397	651.4082	700.0249	778.2725	863.3609	893.9428	919.5848	933.2143	945.2296	990.6944	995.5756	1044.2913	1058.1633	1090.3841	1118.4872	1123.1791	1156.1157	1180.8627	1207.9155	1225.2382	1250.3638	1255.1674	1264.8154	1289.1824	1309.8865	1358.2564	1439.7983	1487.3709	1496.9728	1508.6194	1517.4146	2961.3365	2991.1788	3021.8108	3028.9723	3094.9951	3098.9284	3142.785	3189.809	3792.9772	3819.8618
OCC12C3CC1CC23O	OC[C@@]12[C@H]3C[C@@H]1C[C@@]23O	
InChI=1S/C7H10O2/c8-3-6-4-1-5(6)7(6,9)2-4/h4-5,8-9H,1-3H2	InChI=1S/C7H10O2/c8-3-6-4-1-5(6)7(6,9)2-4/h4-5,8-9H,1-3H2/t4-,5-,6+,7+/m1/s1
