19
gdb 457	4.1268667	1.1255381	1.0565883	2.5828	74.72	-0.24933	0.08373	0.33306	1184.6373	0.158497	-422.514447	-422.506992	-422.506048	-422.546785	28.956	
C	-0.6169970305	-2.6016251886	-1.9147843742	-0.186862
O	-1.8318882014	-2.0128188386	-1.4479514788	-0.245718
C	-0.6597325195	-1.1911728538	-1.5119573709	 0.077443
C	-0.1069540713	-0.7102230938	-0.1970702368	-0.002088
C	 1.3324124003	-0.0977155162	-0.3001240382	-0.256118
C	 0.9782813527	 1.3261503078	 0.1770939622	 0.086663
C	 0.1080845245	 1.0911485116	 1.4310226635	-0.236323
C	-0.815623806	 0.5734718488	 0.309865421	 0.066057
O	-0.250526295	 1.5973569263	-0.5713605037	-0.300597
H	-0.1684426298	-3.3370343278	-1.2470840947	 0.10822
H	-0.5992602626	-2.8659728161	-2.971320904	 0.114082
H	-0.6893999248	-0.4323155273	-2.2945492561	 0.105956
H	-0.1719167449	-1.5203666879	 0.5352917191	 0.075897
H	 2.0631331204	-0.6001097986	 0.3386005617	 0.101919
H	 1.710840654	-0.0919576467	-1.325397592	 0.109954
H	 1.7290722016	 2.1122365269	 0.1012224069	 0.081221
H	 0.4546743223	 0.399686725	 2.2038325345	 0.094595
H	-0.254428128	 2.026109105	 1.8586564655	 0.113789
H	-1.903660712	 0.5778653241	 0.3637391449	 0.091911
76.1254	132.4813	172.6917	321.0218	379.3927	420.5838	471.9573	587.903	720.4459	806.0172	833.3362	846.9719	858.5258	868.6068	877.2435	913.7606	943.5646	962.107	981.9563	994.4287	1038.0139	1051.7933	1089.4129	1110.0721	1126.2718	1156.4848	1177.8454	1194.3051	1208.6203	1226.0087	1239.4305	1262.7605	1281.4712	1288.2742	1291.2462	1322.2394	1341.0577	1451.9426	1480.0494	1494.6888	1531.0832	3062.0998	3063.4469	3069.7322	3078.1454	3111.5102	3115.8775	3126.3245	3133.8176	3146.1155	3163.7762
C1OC1C1CC2CC1O2	C1O[C@H]1[C@H]1C[C@@H]2C[C@H]1O2	
InChI=1S/C7H10O2/c1-4-2-6(9-4)5(1)7-3-8-7/h4-7H,1-3H2	InChI=1S/C7H10O2/c1-4-2-6(9-4)5(1)7-3-8-7/h4-7H,1-3H2/t4-,5+,6-,7-/m1/s1
