19
gdb 2163	2.1868115	1.945121	1.646664	1.5943	74.16	-0.23436	0.07735	0.31171000000000004	954.4295	0.157094	-422.525303	-422.517456	-422.516511	-422.557027	31.424	
C	-0.043623931	 0.1159174885	 0.0604708269	-0.525726
C	 1.4277774822	 0.3580643613	-0.0450243022	 0.348814
O	 2.2623110773	 0.1850183669	 1.1720264887	-0.379078
C	 3.2120277956	 0.5869268502	 0.1181566946	-0.027171
C	 2.515984957	-0.3131459069	-0.9292115498	-0.082397
C	 2.5506766196	 0.3794790545	-2.293949352	-0.253073
C	 2.3252347455	 1.8648836062	-1.8721108871	-0.291169
C	 2.2125711103	 1.6852049071	-0.3700418598	 0.429239
O	 1.9890078171	 2.8156103263	 0.3876332521	-0.497147
H	-0.505308019	 0.8484168677	 0.730579335	 0.132485
H	-0.5148404399	 0.2100534049	-0.9233553702	 0.128514
H	-0.2475851617	-0.8873114902	 0.4468445856	 0.135462
H	 4.2658401893	 0.662203408	 0.3889536018	 0.08661
H	 2.6500638456	-1.3910034045	-0.8516314175	 0.078806
H	 3.5069067051	 0.2310884984	-2.8039117996	 0.106658
H	 1.7656228366	 0.0101286603	-2.9605822908	 0.105293
H	 3.1595738379	 2.5188663017	-2.1411845999	 0.110168
H	 1.415442667	 2.2992588975	-2.2966628572	 0.108963
H	 1.9608599556	 2.5061293921	 1.3052765716	 0.284748
177.7369	188.3224	208.3228	220.9843	300.8372	406.2945	445.1251	494.0067	545.7212	655.8132	680.6419	698.9673	710.1353	725.8706	791.0117	838.6658	891.018	911.8026	934.9177	953.7217	1001.5754	1029.3692	1074.6929	1090.2313	1113.8632	1147.6456	1164.4793	1213.6692	1222.885	1244.7073	1245.928	1280.1952	1308.0822	1332.7834	1380.8925	1405.1314	1440.5887	1474.7895	1488.5228	1490.9586	1512.5094	3035.3636	3050.6505	3060.6533	3085.2309	3104.5918	3106.8475	3111.5326	3111.8875	3138.2763	3729.7412
CC12OC3C1CCC23O	C[C@@]12O[C@H]3[C@@H]1CC[C@@]23O	
InChI=1S/C7H10O2/c1-6-4-2-3-7(6,8)5(4)9-6/h4-5,8H,2-3H2,1H3	InChI=1S/C7H10O2/c1-6-4-2-3-7(6,8)5(4)9-6/h4-5,8H,2-3H2,1H3/t4-,5-,6+,7-/m0/s1
