19
gdb 5547	2.3960658	1.6875395	1.141661	1.9992	76.05	-0.23549	0.07213	0.30762	1109.9419	0.155749	-422.481666	-422.473173	-422.472228	-422.514663	31.935	
C	 1.3982727352	-0.1348731065	 0.0677667297	-0.242115
O	-0.0016474463	 0.0709376789	 0.1060779589	-0.238747
C	-0.4615398804	 0.6059848798	 1.3149058087	 0.033589
C	-1.9825432432	 0.7952518789	 1.2619849728	-0.070986
C	-2.4542543928	 1.5504469447	 2.46928274	-0.300915
C	-1.8359212326	 2.3198729922	 1.3293661533	-0.141801
C	-0.3329906136	 2.1604522103	 1.4100372887	 0.431812
C	 0.6889800947	 3.0318473817	 1.9939764679	-0.27653
O	 0.5556135039	 2.8643250493	 0.5685535031	-0.269063
H	 1.7279658084	-0.7860058916	 0.8929357034	 0.098037
H	 1.6199193646	-0.6307012515	-0.8803463745	 0.12626
H	 1.9473185764	 0.8121245595	 0.1140217918	 0.129619
H	-0.0696241665	 0.0295811862	 2.1699826836	 0.059701
H	-2.6337649724	 0.1951686193	 0.6406060992	 0.101911
H	-3.530558945	 1.6489855403	 2.5654780932	 0.11993
H	-1.9315367533	 1.4606403516	 3.4191891232	 0.109362
H	-2.3576292885	 3.0952266245	 0.7827925804	 0.100657
H	 0.4109825107	 4.0148729765	 2.3716212318	 0.116924
H	 1.5921377906	 2.604234916	 2.4272963149	 0.112355
106.044	130.4941	174.2945	215.3572	245.0532	288.1167	359.9459	378.2564	476.3234	571.4217	587.1982	775.0941	800.4813	839.4099	891.9237	931.9502	938.3995	952.5329	968.336	999.1301	1045.3532	1063.0249	1077.0792	1090.7481	1123.7362	1147.3402	1156.3293	1177.5419	1179.7445	1198.2244	1228.7275	1254.939	1284.0559	1322.24	1377.1866	1441.5345	1476.0414	1483.3855	1490.5339	1515.4014	1533.7023	2953.7635	2981.021	3067.511	3081.222	3106.6644	3119.7212	3168.8337	3193.2694	3198.7511	3211.4139
COC1C2CC2C11CO1	CO[C@@H]1[C@H]2C[C@H]2[C@]21CO2	
InChI=1S/C7H10O2/c1-8-6-4-2-5(4)7(6)3-9-7/h4-6H,2-3H2,1H3	InChI=1S/C7H10O2/c1-8-6-4-2-5(4)7(6)3-9-7/h4-6H,2-3H2,1H3/t4-,5+,6+,7-/m0/s1
