19
gdb 4532	2.5787235	1.4008368	0.9497841	3.7754	79.66	-0.24864	-0.05828	0.19036	1242.4295	0.156523	-422.598307	-422.589221	-422.588277	-422.63249	33.244	
C	 1.3335112757	-4.1028639109	 0.3801622874	-0.490266
C	 0.3166178572	-3.2638983568	 1.129929085	 0.311751
O	-0.5233580717	-3.7892833601	 1.8467742872	-0.334043
C	 0.3491071167	-1.795779838	 0.9921547111	 0.217229
C	 1.1986541379	-1.0497440244	 0.2736315214	-0.173247
C	 0.8845878837	 0.4202305813	 0.3687123003	-0.26508
C	-0.1261338247	 0.4920543083	 1.539657325	-0.23182
C	-0.7008300747	-0.9319123129	 1.6829924153	 0.046526
O	-0.8967641687	-1.2428107135	 3.0471435079	-0.443842
H	 2.3517212578	-3.8195026784	 0.6664484629	 0.143276
H	 1.16972688	-5.1557470646	 0.6115603835	 0.144457
H	 1.243770091	-3.9466590135	-0.6999117167	 0.141174
H	 2.0106656402	-1.4332529023	-0.3360436648	 0.104166
H	 1.7796006399	 1.0315333443	 0.5294326029	 0.116162
H	 0.4457953258	 0.7709657313	-0.5763617405	 0.12045
H	 0.3964113963	 0.7158166303	 2.4743112311	 0.123875
H	-0.8972481579	 1.2512222176	 1.3955556321	 0.10466
H	-1.6536851772	-1.0278894621	 1.1332566854	 0.071061
H	-1.1021765072	-2.1882979357	 3.0672564634	 0.29351
72.4699	98.8429	120.8239	178.2541	198.543	291.7258	347.6868	418.0265	461.3306	539.7824	545.6457	603.2043	636.7331	685.3501	805.6475	833.2796	887.8811	913.1155	933.76	980.1446	1011.8525	1046.4048	1054.6246	1087.8142	1118.2015	1164.9791	1220.4499	1260.2639	1289.7229	1303.0078	1311.7612	1347.9647	1370.6002	1391.9621	1431.0391	1466.5747	1475.1118	1476.3846	1494.137	1681.9939	1737.6863	2939.8957	3011.3345	3043.0528	3056.5793	3070.3243	3106.1588	3120.4914	3154.7127	3186.2447	3739.9992
CC(=O)C1=CCCC1O	CC(=O)C1=CCC[C@@H]1O	
InChI=1S/C7H10O2/c1-5(8)6-3-2-4-7(6)9/h3,7,9H,2,4H2,1H3	InChI=1S/C7H10O2/c1-5(8)6-3-2-4-7(6)9/h3,7,9H,2,4H2,1H3/t7-/m0/s1
