19
gdb 5279	2.7568779	1.4956851	1.2326652	2.2737	73.77	-0.24788	0.04991	0.29779	1068.3462	0.157359	-422.491983	-422.48398	-422.483035	-422.524435	31.076	
O	 1.6334625644	 0.1743758699	 0.016605571	-0.417965
C	 0.2423239924	 0.4346058656	-0.1270756205	-0.176661
C	-0.1411284306	 0.7189031752	-1.559104643	 0.297187
C	-0.1332945783	-0.4395319462	-2.5794980673	-0.145343
O	-1.483152981	-0.1129225289	-3.0127159713	-0.301388
C	-1.5967740723	 0.933602309	-2.0186662127	 0.047472
C	-1.2713151099	 2.3713330246	-2.4769448581	-0.058176
C	-0.1908258954	 2.3598060516	-3.5170044116	-0.302199
C	 0.1996691649	 2.1427286631	-2.0830162532	-0.130462
H	 2.1113626457	 0.9639151778	-0.2574871148	 0.285353
H	-0.2637465652	-0.4708111337	 0.2250653154	 0.112173
H	-0.0808588799	 1.2658944736	 0.5205748347	 0.089665
H	 0.590262483	-0.3908198296	-3.40040148	 0.103377
H	-0.0937515974	-1.4347904787	-2.1200224582	 0.105755
H	-2.4643125631	 0.8110882543	-1.3646833126	 0.076585
H	-1.9036878046	 3.2343641588	-2.3074807805	 0.087502
H	-0.1555147434	 1.5592224528	-4.2473524331	 0.133795
H	 0.0700541893	 3.3363373644	-3.9121435137	 0.113701
H	 0.8722122015	 2.8261367263	-1.5749133304	 0.079627
90.2944	147.7002	209.294	272.7567	311.9604	340.6494	362.7703	449.9418	564.5112	664.5451	680.5771	759.3052	826.4945	855.0631	898.1819	919.054	947.5405	956.2447	978.4187	985.1942	1021.1896	1036.0071	1049.7361	1056.93	1086.6206	1092.1088	1134.1897	1153.3492	1183.6622	1195.3782	1245.1675	1268.163	1298.1734	1308.3938	1340.5413	1375.8477	1381.2789	1419.5411	1489.3292	1500.7162	1524.2171	2972.7672	3020.0582	3067.4775	3072.1314	3074.3835	3135.0242	3156.6068	3183.4062	3217.9271	3815.0268
OCC12COC1C1CC21	OC[C@@]12CO[C@@H]1[C@@H]1C[C@H]21	
InChI=1S/C7H10O2/c8-2-7-3-9-6(7)4-1-5(4)7/h4-6,8H,1-3H2	InChI=1S/C7H10O2/c8-2-7-3-9-6(7)4-1-5(4)7/h4-6,8H,1-3H2/t4-,5+,6-,7+/m1/s1
