19
gdb 900	3.0933597	1.1143082	1.0493015	3.0602	75.15	-0.22994	-0.01844	0.2115	1227.3144	0.156461	-422.555738	-422.547174	-422.54623	-422.589787	31.508	
O	 1.5053734435	-0.2206223697	-0.0449503662	-0.245712
C	 0.3985830458	 0.2415652381	 0.0656001345	 0.163014
C	-0.4204652091	 0.7814618498	-1.0919769986	-0.369755
C	-1.1419556027	 2.0586735724	-0.740193153	 0.44268
C	-1.3982960229	 3.156947639	-1.7416276935	-0.367177
C	-0.5094896083	 3.4089513956	-0.5315504895	-0.110853
C	-1.1694284504	 3.9852571053	 0.70994388	-0.239432
C	-2.4161922077	 3.0884475497	 0.8860666805	-0.097995
O	-2.121916708	 1.8418679023	 0.2515537258	-0.299966
H	-0.1099402569	 0.2993852513	 1.0520453687	 0.090146
H	 0.2352960029	 0.915723083	-1.9555082722	 0.12361
H	-1.1697558563	 0.020599204	-1.3550463358	 0.135748
H	-0.905315723	 3.0767229012	-2.7045685229	 0.117247
H	-2.382602882	 3.6119358231	-1.7829696973	 0.118565
H	 0.5509941759	 3.5709789928	-0.6862209504	 0.099807
H	-0.4900778734	 3.8868118798	 1.5631041792	 0.113194
H	-1.4429806565	 5.0408370297	 0.6200737128	 0.109031
H	-2.6635212614	 2.882867441	 1.9308891869	 0.114221
H	-3.2962737195	 3.5472138514	 0.4159525711	 0.103629
54.1297	75.4807	130.2627	218.1461	258.0769	312.4223	395.0446	447.4983	494.7043	620.4837	674.719	713.9828	783.15	836.389	860.4247	873.9715	925.9427	952.0917	961.9495	1010.8917	1025.8839	1048.2415	1074.6729	1090.9378	1099.1798	1135.0074	1182.5864	1221.6595	1237.5402	1258.4532	1284.6546	1298.9757	1332.9417	1392.7458	1406.5727	1425.102	1442.5665	1483.1995	1498.2209	1529.6221	1832.2575	2906.4224	3011.3116	3015.8827	3047.6958	3084.3558	3096.8031	3110.3053	3129.7341	3176.7991	3215.6931
O=CCC12CC1CCO2	O=CC[C@]12C[C@H]1CCO2	
InChI=1S/C7H10O2/c8-3-2-7-5-6(7)1-4-9-7/h3,6H,1-2,4-5H2	InChI=1S/C7H10O2/c8-3-2-7-5-6(7)1-4-9-7/h3,6H,1-2,4-5H2/t6-,7+/m1/s1
