19
gdb 1662	2.8507363	0.9439206	0.8075009	3.9152	78.43	-0.24721	-0.03762	0.20959	1447.93	0.153547	-422.566692	-422.556763	-422.555819	-422.60217	34.842	
C	-2.3347630185	 4.0832667794	 1.3621368952	-0.485188
C	-1.0237147706	 3.3278608763	 1.4663275486	 0.217882
C	-0.1246692266	 3.2044106072	 0.2456358576	-0.312184
C	-0.8910703695	 2.0006689664	 0.691837895	-0.047393
C	-0.2017108927	 0.770495578	 1.2505077426	-0.320445
C	 0.3705370858	-0.0857379049	 0.1392919912	 0.166331
O	 0.1767429249	-1.2666480912	 0.0111623363	-0.239493
C	-0.3372206256	 3.432556282	 2.7824163333	 0.100632
O	 0.7909856034	 3.0636036971	 3.0186864409	-0.270564
H	-3.0546442823	 3.7411294624	 2.1140936458	 0.129218
H	-2.1863221304	 5.159378437	 1.5053497587	 0.129733
H	-2.7908504231	 3.9418455233	 0.378686621	 0.12675
H	-0.4350355264	 3.7271188224	-0.6525312774	 0.122716
H	 0.9403892236	 3.2246091859	 0.4523897752	 0.141065
H	-1.7864121519	 1.7767804523	 0.1163327045	 0.105772
H	 0.6320006003	 1.0817067493	 1.8920157143	 0.159193
H	-0.8837871111	 0.1552712305	 1.8447166114	 0.120065
H	 1.0120929764	 0.4729261063	-0.5811634294	 0.07574
H	-0.9568488657	 3.8942394705	 3.5837793052	 0.080171
59.2101	76.6577	149.4488	150.2586	176.2476	214.3805	245.089	291.7139	345.1034	390.9179	452.7626	514.3098	591.517	742.1982	781.5286	822.1763	894.602	917.4847	932.5733	973.053	1017.3415	1058.9891	1078.5002	1088.7994	1123.5731	1129.6267	1169.7946	1238.0355	1267.0806	1297.7322	1330.1706	1406.7988	1419.7267	1427.5025	1439.393	1464.8456	1482.148	1492.4523	1500.2544	1796.9685	1835.331	2864.687	2879.725	3030.3886	3039.5185	3091.0869	3099.9955	3112.8179	3132.4626	3135.8139	3225.229
CC1(CC1CC=O)C=O	C[C@@]1(C[C@H]1CC=O)C=O	
InChI=1S/C7H10O2/c1-7(5-9)4-6(7)2-3-8/h3,5-6H,2,4H2,1H3	InChI=1S/C7H10O2/c1-7(5-9)4-6(7)2-3-8/h3,5-6H,2,4H2,1H3/t6-,7-/m1/s1
