19
gdb 2149	2.2897083	2.0517043	1.668647	2.1978	73.89	-0.24092	0.06336	0.30428	917.2652	0.157987	-422.541633	-422.533989	-422.533045	-422.573045	31.324	
O	 1.7465463954	 2.6176737695	 1.7187720678	-0.500836
C	 0.6312654148	 1.795227235	 1.9094185916	 0.320111
C	 0.4321020233	 0.912637419	 3.1717527753	-0.320463
C	-0.3344544356	 0.0149742144	 2.1871927844	-0.085278
C	-1.3527377815	 0.8991504139	 1.3358675679	-0.047084
C	-0.5605141638	 0.5124770547	 0.0518468295	-0.304016
C	 0.6159122711	 0.4705250614	 1.0315185814	 0.420035
O	 1.8590658982	-0.0753717218	 0.7677548256	-0.500489
C	-0.7942277445	 2.3097053949	 1.635540558	-0.266641
H	 1.947245355	 3.0737952918	 2.5419662445	 0.287526
H	 1.3629144925	 0.4287011983	 3.4791568239	 0.106559
H	-0.0774179264	 1.3518023837	 4.0355709737	 0.084806
H	-0.5944177193	-1.0235153204	 2.3803388249	 0.075328
H	-2.4271369933	 0.7421060267	 1.4036644062	 0.068105
H	-0.8019599782	-0.4931542274	-0.3041477971	 0.100776
H	-0.5588419334	 1.2181706263	-0.7856430483	 0.088991
H	 2.4946025404	 0.651772639	 0.8183901864	 0.287885
H	-0.8530645825	 2.9786197531	 0.7727828538	 0.09971
H	-1.2444206222	 2.8036987381	 2.5023100306	 0.084976
144.9024	213.722	235.02	343.2031	375.8679	398.2561	458.5471	470.4011	513.3978	585.6535	642.8531	687.5483	715.5617	806.2047	855.8971	877.2357	902.006	927.4806	960.1426	967.9415	988.8767	1030.7124	1056.5377	1091.8996	1109.1636	1119.4406	1129.0184	1161.9183	1191.7694	1209.4976	1229.1511	1250.2384	1263.2331	1281.588	1305.4478	1324.2963	1361.5848	1396.5022	1483.9021	1497.1765	1518.1414	3041.1301	3042.1197	3049.6668	3099.1527	3104.3245	3110.1645	3132.9461	3143.6234	3747.6324	3823.1479
OC12CC3C(CC13O)C2	O[C@]12C[C@H]3[C@H](C[C@@]13O)C2	
InChI=1S/C7H10O2/c8-6-1-4-2-7(6,9)5(4)3-6/h4-5,8-9H,1-3H2	InChI=1S/C7H10O2/c8-6-1-4-2-7(6,9)5(4)3-6/h4-5,8-9H,1-3H2/t4-,5-,6+,7-/m0/s1
