19
gdb 4864	3.1167739	1.1369826	1.0528144	3.2342	78.41	-0.23912	-0.04845	0.19067	1225.9949	0.155259	-422.58155	-422.572374	-422.57143	-422.615526	33.891	
C	 1.417402973	-0.0116585937	-0.1780973331	-0.24757
O	 0.0258315392	 0.0072889112	 0.0608704929	-0.288738
C	-0.413196343	 0.6880916887	 1.2358747285	 0.351413
C	-0.0014165028	 2.1703449844	 1.2269875304	-0.444658
C	-0.0194381931	-0.0314715304	 2.5512408629	-0.390243
C	-1.3406844224	-0.2652731345	 3.301860514	 0.380492
O	-1.4520245388	-0.6514115476	 4.4406354621	-0.324978
C	-2.4334353192	 0.0718006887	 2.3568329651	-0.199612
C	-1.9271487952	 0.5662743269	 1.2252857021	-0.071613
H	 1.9842847908	-0.3874098346	 0.6858731584	 0.109273
H	 1.5777100133	-0.6911572431	-1.0187178133	 0.131526
H	 1.8138406064	 0.975946568	-0.4506929822	 0.111344
H	-0.4397634917	 2.6895021394	 2.0839169356	 0.129195
H	 1.0846208443	 2.2828827605	 1.2894204425	 0.124808
H	-0.3486027916	 2.6582201447	 0.3110405457	 0.124458
H	 0.4163273188	-1.0096041119	 2.3242385983	 0.140524
H	 0.6876951341	 0.5130366454	 3.1812091202	 0.121962
H	-3.4782895105	-0.074215034	 2.5998167726	 0.120152
H	-2.4862263217	 0.884674122	 0.3521364473	 0.122264
62.2115	110.8084	176.5082	188.3922	243.0683	295.437	333.9958	350.5708	420.6063	429.8701	510.4189	570.0332	619.1652	699.2007	804.4419	823.7758	839.6374	883.1799	917.159	965.2354	1001.7776	1067.5451	1082.5908	1103.0463	1153.1689	1178.6745	1185.2725	1205.557	1225.0703	1256.3661	1282.72	1360.6109	1399.9309	1445.3967	1474.7589	1485.247	1490.1937	1503.0135	1511.8149	1658.7363	1820.5268	2992.2004	3038.8012	3045.5646	3063.0605	3112.6735	3113.9931	3116.8115	3119.4023	3195.2012	3227.0821
COC1(C)CC(=O)C=C1	CO[C@]1(C)CC(=O)C=C1	
InChI=1S/C7H10O2/c1-7(9-2)4-3-6(8)5-7/h3-4H,5H2,1-2H3	InChI=1S/C7H10O2/c1-7(9-2)4-3-6(8)5-7/h3-4H,5H2,1-2H3/t7-/m0/s1
