19
gdb 4178	3.4384558	1.3538682	1.261141	2.686	73.88	-0.23246	-0.01799	0.21447	1069.0034	0.158572	-422.596076	-422.588414	-422.58747	-422.628125	30.119	
C	-4.1049134907	-0.8113094521	-1.3648543475	-0.416495
C	-2.6624182477	-0.3061102988	-1.3150927818	 0.03897
C	-1.6143164352	-1.4657575751	-1.273344158	-0.258236
C	-0.9160518037	-1.2045716707	 0.0855067587	-0.034003
O	-1.9710559516	-0.6690720453	 0.8929131035	-0.265795
C	-2.3386317412	 0.4180192108	 0.0185578525	 0.064259
C	-1.015663802	 1.1978533464	-0.0893211642	-0.353225
C	-0.0172911864	 0.025313278	-0.112361071	 0.422909
O	 1.1720960683	 0.0615893977	-0.2728075386	-0.318004
H	-4.3225932973	-1.4245156217	-0.4842996509	 0.131535
H	-4.8185685866	 0.0192552205	-1.3873741966	 0.11357
H	-4.277823018	-1.4248346807	-2.2549284527	 0.116847
H	-2.4778074403	 0.3587313927	-2.1648520277	 0.076494
H	-2.1089881822	-2.4402165205	-1.2533245357	 0.113599
H	-0.9169437539	-1.4558381939	-2.1147171456	 0.118775
H	-0.4396014401	-2.0558187716	 0.5673176521	 0.100049
H	-3.1706978418	 0.9664042168	 0.4602898113	 0.084147
H	-0.9047783958	 1.8338146025	-0.9708803286	 0.127298
H	-0.844491924	 1.8085738051	 0.8026035708	 0.137307
88.9522	162.2419	244.7419	280.0788	336.3287	411.9896	441.5587	504.9288	597.1137	624.125	693.6209	761.4438	802.7142	822.2262	880.1216	916.4098	925.8907	957.9639	961.284	988.9467	1009.3022	1045.517	1064.7704	1102.3938	1150.7649	1158.3772	1204.793	1221.6899	1252.6542	1258.9183	1290.6779	1297.8489	1312.1581	1350.3418	1377.9119	1409.9419	1447.0919	1490.1149	1498.2394	1503.7155	1867.8715	3030.9332	3052.2384	3063.0449	3065.0277	3098.4694	3107.6361	3113.379	3116.9394	3120.0363	3150.6969
CC1CC2OC1CC2=O	C[C@@H]1C[C@@H]2O[C@H]1CC2=O	
InChI=1S/C7H10O2/c1-4-2-7-5(8)3-6(4)9-7/h4,6-7H,2-3H2,1H3	InChI=1S/C7H10O2/c1-4-2-7-5(8)3-6(4)9-7/h4,6-7H,2-3H2,1H3/t4-,6+,7+/m1/s1
