19
gdb 3046	2.5737554	1.8669445	1.439453	1.0949	74.76	-0.24709	0.05237	0.29946	974.6621	0.157776	-422.473845	-422.466467	-422.465523	-422.505151	29.872	
C	 0.8518151764	-0.5982400929	-0.8842200157	-0.436266
C	 0.9929213577	 0.1597675226	 0.4277231049	 0.013155
C	 2.100198969	-0.3091502375	 1.3871652046	 0.043975
C	 1.8348366013	 0.6530706257	 2.6089036295	-0.319488
C	 1.9394024401	 1.9476466829	 1.7631352952	 0.133373
O	 0.9509307493	 2.907389579	 1.2329346618	-0.312295
C	 1.5458789017	 2.7214036957	-0.0998235449	-0.210976
C	 1.9921064374	 1.3370906182	 0.398044147	 0.373255
O	 3.0924191446	 0.3777264237	 0.5036593091	-0.376202
H	 0.3333844128	-1.5499687818	-0.7269781994	 0.115569
H	 0.2637010779	-0.0218595473	-1.606688165	 0.115741
H	 1.8306802771	-0.8055904635	-1.3222807843	 0.137283
H	 0.0195593267	 0.3711681184	 0.8788375367	 0.081203
H	 2.3587415189	-1.351565241	 1.5711926617	 0.086065
H	 0.8649732222	 0.4414985624	 3.0637835489	 0.123323
H	 2.6045609906	 0.6184592091	 3.381740767	 0.112192
H	 2.8438418655	 2.5099444713	 2.0198877682	 0.086577
H	 0.796459241	 2.7689616668	-0.8943053941	 0.117255
H	 2.3530524598	 3.4420298183	-0.2784817612	 0.116262
180.0517	218.9808	232.7066	293.4558	333.4688	406.7063	425.5876	559.4037	587.6731	665.9547	732.286	763.1101	793.8004	834.9546	853.2308	896.334	911.828	949.6824	996.7887	1010.0191	1050.9405	1072.2314	1083.6141	1105.6505	1128.1795	1151.7057	1169.98	1192.0088	1222.3284	1246.3476	1266.7503	1279.6397	1306.5696	1313.2144	1396.5883	1401.3608	1408.831	1480.52	1496.8193	1504.8347	1506.7532	3028.9017	3035.5913	3041.0924	3071.4771	3081.7229	3092.9225	3103.2589	3130.3375	3130.6298	3134.7941
CC1C2CC3OCC13O2	C[C@H]1[C@@H]2C[C@@H]3OC[C@]13O2	
InChI=1S/C7H10O2/c1-4-5-2-6-7(4,9-5)3-8-6/h4-6H,2-3H2,1H3	InChI=1S/C7H10O2/c1-4-5-2-6-7(4,9-5)3-8-6/h4-6H,2-3H2,1H3/t4-,5-,6-,7-/m0/s1
