19
gdb 563	3.0623761	1.7948451	1.5040007	2.9241	72.9	-0.22861	0.07759	0.3062	932.8769	0.160308	-422.532442	-422.525715	-422.524771	-422.563339	27.404	
C	 1.1603133536	 0.9354417789	-1.1639154553	-0.075518
O	 0.3807907651	-0.1726725306	-0.6639284093	-0.297176
C	 0.5843544326	 0.2439541456	 0.6974421766	 0.135415
C	 1.2773557788	 1.5649748976	 0.2444688544	-0.062969
C	 2.6833885696	 1.8249605506	 0.8285292479	-0.249494
C	 3.1572609109	 0.5872508291	 1.5914231233	 0.104766
C	 2.1317062817	 0.1289767337	 2.6525642308	-0.260587
C	 1.555916703	-0.6488197044	 1.4528299034	 0.061423
O	 2.8516636356	-0.592571704	 0.7910306108	-0.295082
H	 2.113015466	 0.5991912064	-1.588594786	 0.109399
H	 0.6066839857	 1.5165502211	-1.9111386881	 0.095052
H	-0.363886563	 0.3367000874	 1.2439403565	 0.072104
H	 0.6340075597	 2.4390698487	 0.3538803889	 0.081472
H	 3.3876185113	 2.0512822387	 0.0196372931	 0.107763
H	 2.6827901306	 2.6907090834	 1.5011693852	 0.099118
H	 4.2125871642	 0.6330340871	 1.8728827303	 0.077238
H	 2.5725427905	-0.525394135	 3.4054797667	 0.114197
H	 1.5039524502	 0.887213128	 3.1285945645	 0.098785
H	 1.198157454	-1.6746813222	 1.5730697563	 0.084095
140.2874	205.7968	317.0253	366.4843	395.3444	462.086	551.5867	652.6445	744.2872	815.1571	845.4324	858.7597	876.1614	904.6819	924.3789	944.0318	973.2173	974.8372	1001.8707	1039.8109	1065.371	1078.2221	1100.5299	1112.4531	1123.5144	1164.9313	1201.0575	1225.2785	1236.7456	1254.7944	1279.2077	1309.3623	1317.5348	1338.96	1344.2332	1361.3764	1376.7971	1387.5091	1479.6595	1489.7689	1515.6885	3012.1692	3020.0555	3030.8143	3063.091	3066.6495	3069.6587	3076.0586	3083.1961	3097.7306	3133.352
C1OC2C1CC1CC2O1	C1O[C@@H]2[C@H]1C[C@H]1C[C@@H]2O1	
InChI=1S/C7H10O2/c1-4-3-8-7(4)6-2-5(1)9-6/h4-7H,1-3H2	InChI=1S/C7H10O2/c1-4-3-8-7(4)6-2-5(1)9-6/h4-7H,1-3H2/t4-,5-,6-,7+/m0/s1
