19
gdb 3840	2.8504163	1.3888936	1.0916688	3.0423	75.53	-0.23766	-0.02643	0.21123	1163.7083	0.155707	-422.580714	-422.571873	-422.570929	-422.613993	33.099	
C	-0.5094324483	 2.2407165575	 1.2008089795	-0.401778
C	-0.848832946	 1.1835711494	 0.1540173384	-0.107747
C	-2.2996333404	 0.6426454606	 0.1804990892	-0.295598
C	-2.2041521212	-0.804448586	-0.2968846186	 0.407145
C	-3.3730916479	-1.73978821	-0.1638660084	-0.481873
O	-1.4314003867	-0.9080655032	-1.4959490087	-0.285285
C	-0.7886874955	-1.2369729807	-0.2460623259	-0.148705
C	 0.0174556624	-0.0820805057	 0.2845747545	 0.420784
O	 1.1066838321	-0.1534980794	 0.795369686	-0.326748
H	-0.7322881626	 1.880603468	 2.2106887457	 0.1188
H	 0.5560408616	 2.4809268975	 1.1647566796	 0.138357
H	-1.0806841897	 3.1585507633	 1.0331024314	 0.11378
H	-0.6445123308	 1.5831961277	-0.8473158436	 0.12046
H	-2.6933529226	 0.6609604838	 1.2041013778	 0.109094
H	-2.9846020716	 1.2243234743	-0.444702828	 0.11314
H	-3.6699058918	-1.8435738145	 0.8846886858	 0.128819
H	-4.2346154212	-1.3546154226	-0.7204572485	 0.132717
H	-3.1245828764	-2.7272104625	-0.5600216777	 0.136758
H	-0.4565854734	-2.2627357176	-0.1200391084	 0.107879
90.0249	140.2723	188.9041	197.4066	247.8681	275.1253	367.3453	382.9693	394.2377	475.4137	550.6258	613.3447	711.6097	717.8874	775.2161	828.4455	892.3436	908.661	934.5582	1009.5206	1017.747	1056.5979	1081.3928	1121.56	1139.0304	1171.5041	1207.2599	1232.3925	1265.6549	1295.3473	1309.095	1347.6801	1405.1276	1412.3214	1435.6762	1481.1109	1485.1706	1493.3527	1497.5137	1498.0149	1839.6861	3032.3214	3034.9281	3038.5754	3041.7279	3083.288	3101.2299	3106.9881	3125.2114	3127.3569	3173.3591
CC1CC2(C)OC2C1=O	C[C@@H]1C[C@@]2(C)O[C@H]2C1=O	
InChI=1S/C7H10O2/c1-4-3-7(2)6(9-7)5(4)8/h4,6H,3H2,1-2H3	InChI=1S/C7H10O2/c1-4-3-7(2)6(9-7)5(4)8/h4,6H,3H2,1-2H3/t4-,6+,7-/m1/s1
