19
gdb 1963	4.2537994	1.1119068	1.0409342	2.4984	75.32	-0.2435	0.07094	0.31444	1205.9757	0.155758	-422.497576	-422.489143	-422.488199	-422.530851	31.51	
C	-3.5950701011	 2.7071581961	 0.006512788	-0.500094
C	-2.1242083062	 2.4514670339	 0.0084074621	 0.429208
C	-1.2295993724	 1.953952069	-1.1447696271	-0.39134
C	-0.2630928004	 1.3466115451	-0.0783540114	 0.303943
C	 1.2499782415	 1.6068731641	 0.0001813053	-0.128507
O	 1.5267611578	 0.1926270794	 0.1181246403	-0.275369
C	 0.1420907314	-0.1395854332	-0.0962323035	-0.14082
C	-1.2067811182	 1.8725642801	 1.0069849108	-0.128282
O	-1.286340903	 3.2941969289	 0.8189217291	-0.289506
H	-3.9494646569	 2.9031466841	 1.0218860136	 0.136317
H	-3.8363355649	 3.5785674742	-0.6127914219	 0.133118
H	-4.1390839076	 1.8475003808	-0.3978376459	 0.124942
H	-1.7009245794	 1.1798434042	-1.7580268456	 0.106668
H	-0.8238664789	 2.7369489307	-1.7911570663	 0.109604
H	 1.6927037927	 2.0347526417	-0.9091567415	 0.100184
H	 1.5981290105	 2.1754284926	 0.8701693685	 0.1116
H	-0.0174754049	-0.6474390546	-1.0578214547	 0.096458
H	-0.2638345894	-0.7678470806	 0.7077083825	 0.101129
H	-1.3756458507	 1.4906645133	 2.0089813577	 0.100748
72.7019	93.8334	192.9908	217.2296	280.3052	319.51	374.0702	414.3181	443.6064	556.2154	671.134	766.4083	840.7529	855.5243	877.823	887.6905	925.0326	974.1836	982.9248	1003.0393	1021.9508	1034.2634	1051.4524	1136.8158	1147.2485	1154.9516	1163.8868	1188.3634	1202.4928	1225.2153	1265.2882	1304.3815	1312.3037	1382.6304	1403.6083	1454.0487	1475.3973	1485.6509	1496.6579	1507.7619	1532.6823	2992.7408	3011.1712	3034.3237	3037.3004	3052.2206	3061.7625	3096.4143	3109.5598	3122.0137	3169.199
CC12CC3(COC3)C1O2	C[C@]12CC3(COC3)[C@H]1O2	
InChI=1S/C7H10O2/c1-6-2-7(3-8-4-7)5(6)9-6/h5H,2-4H2,1H3	InChI=1S/C7H10O2/c1-6-2-7(3-8-4-7)5(6)9-6/h5H,2-4H2,1H3/t5-,6-/m0/s1
