19
gdb 5730	3.447132	1.1107404	0.9436435	3.6903	77.75	-0.24349	-0.02899	0.21450000000000002	1276.7722	0.156365	-422.549192	-422.54024	-422.539295	-422.583306	32.989	
O	 0.6935485194	-1.201172696	 0.1044427682	-0.422831
C	 0.5742284804	 0.2052292046	 0.1412985761	-0.070958
C	-0.5079416736	 0.6327925852	 1.1362438014	-0.123212
C	-0.6088897369	 2.1328277136	 1.5789082844	-0.373078
C	-0.3316750123	 1.7019390779	 3.0331744897	 0.24865
C	-1.0243060024	 2.122072312	 4.3148891559	-0.306812
C	 0.4341701407	 2.393076243	 4.1392170783	-0.308851
C	-0.1363820305	 0.2874634345	 2.5864882258	 0.344224
O	 0.266592183	-0.7217554644	 3.1095664151	-0.344313
H	 0.8034739948	-1.4994297481	 1.0174096253	 0.297494
H	 1.5285028739	 0.6903112558	 0.4096777396	 0.085056
H	 0.3193539536	 0.5318216108	-0.8727230433	 0.110802
H	-1.4663525799	 0.1941490609	 0.8410049864	 0.110374
H	 0.1728234821	 2.7656230708	 1.1489672072	 0.11262
H	-1.5799994085	 2.5987975872	 1.4010406117	 0.112386
H	-1.7180909138	 2.9529241354	 4.2416965342	 0.126721
H	-1.3262023191	 1.3284345829	 4.9899322961	 0.137204
H	 0.7512159264	 3.4129965732	 3.9494092708	 0.126105
H	 1.1432050827	 1.7835650807	 4.6894753971	 0.13842
46.7293	121.5222	173.5826	182.304	215.1656	262.3724	329.616	372.8091	487.4038	513.9607	578.2058	711.017	731.3747	782.5057	814.0474	837.8217	893.1614	925.5742	949.2587	997.0915	1029.4368	1053.7538	1073.0294	1078.5295	1086.4648	1120.8521	1146.9574	1181.4818	1199.6068	1215.6543	1241.4078	1263.4836	1314.1024	1361.9004	1383.4551	1446.3609	1458.6053	1487.9511	1489.9633	1515.2942	1847.3422	2956.5341	3060.3757	3060.9019	3072.0559	3116.3899	3131.6046	3133.5468	3215.2943	3230.0503	3755.2836
OCC1CC2(CC2)C1=O	OC[C@@H]1CC2(CC2)C1=O	
InChI=1S/C7H10O2/c8-4-5-3-7(1-2-7)6(5)9/h5,8H,1-4H2	InChI=1S/C7H10O2/c8-4-5-3-7(1-2-7)6(5)9/h5,8H,1-4H2/t5-/m0/s1
