19
gdb 2468	2.49547	1.9522436	1.5657933	1.9693	74.66	-0.22946	0.0638	0.29325999999999997	938.8755	0.157554	-422.49597	-422.488357	-422.487413	-422.527571	30.822	
O	 0.5597657909	 0.2382915544	 0.1818546839	-0.483449
C	-0.4458642989	 0.8269928722	 0.967018587	 0.432521
C	-1.1834992651	-0.1281477923	 1.9264737171	-0.325164
C	-2.6783135477	-0.1719195226	 1.429600727	-0.192249
C	-2.7964947775	 0.7032774896	 0.1321044711	-0.364214
C	-1.6160036883	 1.6063551702	 0.3114234252	 0.371596
C	-0.6246361098	 2.6384284637	-0.2720024249	-0.324214
C	-0.2417756661	 2.3434816727	 1.2180396776	-0.00533
O	-1.6677092325	 2.4266538946	 1.56485718	-0.352227
H	 0.2689428166	-0.639126207	-0.0866354508	 0.279866
H	-0.713070559	-1.1158719132	 1.8816935329	 0.09026
H	-1.1357204408	 0.1986941314	 2.9656454369	 0.123919
H	-3.0167070904	-1.1956894881	 1.2469362566	 0.095226
H	-3.3269417235	 0.2493855693	 2.1992528308	 0.123742
H	-2.6665680427	 0.1020042564	-0.7753410864	 0.104249
H	-3.7587264748	 1.2166605413	 0.0626160912	 0.115938
H	 0.0564513393	 2.2996597371	-1.0523576852	 0.114951
H	-1.0289184901	 3.6368745784	-0.4404335226	 0.105023
H	 0.4686050305	 2.8715116822	 1.8566936027	 0.089556
107.1211	210.8503	263.0275	299.1342	333.5765	397.2545	465.6855	519.9607	604.2085	611.4759	671.991	729.9488	764.2712	784.0645	840.0871	857.1047	880.018	928.2355	966.0725	985.3844	993.2576	1012.7804	1048.0805	1095.0394	1109.617	1147.604	1184.1252	1196.2886	1209.418	1227.4072	1235.3217	1247.5227	1273.7291	1304.3493	1323.917	1361.053	1387.754	1473.0127	1477.4039	1481.4996	1498.6386	3043.6874	3053.2831	3069.0302	3085.2085	3097.6681	3103.9445	3112.5878	3129.1847	3167.6358	3813.5808
OC12CCCC11CC2O1	O[C@]12CCC[C@@]31C[C@H]2O3	
InChI=1S/C7H10O2/c8-7-3-1-2-6(7)4-5(7)9-6/h5,8H,1-4H2	InChI=1S/C7H10O2/c8-7-3-1-2-6(7)4-5(7)9-6/h5,8H,1-4H2/t5-,6+,7+/m1/s1
