19
gdb 494	3.7753804	1.2485527	1.1400482	1.241	74.11	-0.24554	0.06228	0.30782	1111.9933	0.157652	-422.490665	-422.48291	-422.481966	-422.523703	29.122	
C	-2.4507345255	 1.1960121671	-1.4426895551	-0.0855
O	-3.1923940527	 1.7748501668	-0.3436731485	-0.291908
C	-2.0747875467	 2.6050515403	 0.0332324606	 0.125421
C	-1.2053792142	 1.9686706215	 1.139098634	-0.325761
C	-0.3089183756	 1.3104108593	 0.0496918809	 0.301423
C	 1.2182938425	 1.5313736978	 0.0576081591	-0.135559
O	 1.4774769524	 0.1175685409	-0.0241978888	-0.273495
C	 0.0688371736	-0.1840548539	 0.0338087603	-0.133227
C	-1.1739509532	 1.9649909962	-1.0614616938	-0.165531
H	-2.4129834814	 0.1004992752	-1.3921413323	 0.10372
H	-2.8792112207	 1.4897079405	-2.4093377608	 0.104362
H	-2.3439926488	 3.6615659126	 0.1076582159	 0.078289
H	-0.6637658698	 2.6931644125	 1.755931986	 0.103264
H	-1.7557053672	 1.2854151442	 1.7910248493	 0.11456
H	 1.6300775465	 2.0776574553	-0.8016205404	 0.099987
H	 1.6163198661	 1.9698896707	 0.9833339913	 0.09826
H	-0.2636980516	-0.757147895	-0.8413895959	 0.100655
H	-0.1966209309	-0.7394433979	 0.9433637917	 0.102608
H	-0.6517564526	 2.509949236	-1.8479712136	 0.078432
57.8606	76.8537	200.8815	260.786	335.9981	367.7493	443.5936	504.4862	714.4011	787.2291	822.5546	841.4386	861.386	907.5041	929.0996	953.7569	983.1331	984.9471	1008.0352	1018.1869	1042.88	1062.2936	1096.8051	1151.0648	1154.3026	1162.3488	1180.0985	1187.3165	1207.3169	1227.384	1243.3367	1267.2072	1305.6357	1310.499	1322.8918	1361.9922	1382.3576	1459.1247	1505.0026	1522.7795	1531.241	2991.1587	3005.3485	3010.4164	3037.4417	3043.988	3046.8735	3051.7667	3076.6836	3109.2721	3109.9541
C1OC2CC3(COC3)C12	C1O[C@H]2CC3(COC3)[C@@H]12	
InChI=1S/C7H10O2/c1-6-5(2-9-6)7(1)3-8-4-7/h5-6H,1-4H2	InChI=1S/C7H10O2/c1-6-5(2-9-6)7(1)3-8-4-7/h5-6H,1-4H2/t5-,6-/m0/s1
