19
gdb 4195	2.3763433	1.6687839	1.075652	4.4919	75.65	-0.25419	0.0092	0.26339	1138.9542	0.157965	-422.592696	-422.584464	-422.58352	-422.625639	31.32	
C	-2.2780179801	 2.6974297852	 1.2107689016	-0.399017
C	-1.7631743868	 1.2716948847	 1.106724092	 0.136681
C	-2.8560952892	 0.2358925192	 0.8564565961	-0.235962
C	-2.2491362804	-1.1410806465	 0.6080885861	-0.053865
C	-2.0098087105	-1.5908833723	-0.8018776989	-0.279584
C	-0.8354169751	-1.1620337422	 0.0644166365	-0.157773
C	-0.1436440642	 0.1175438647	-0.2810680077	 0.410398
O	 0.9155789694	 0.1660118342	-0.8454980807	-0.334071
O	-0.795587017	 1.2715215861	 0.0278587355	-0.248779
H	-2.9751003018	 2.7879497	 2.0492941914	 0.118386
H	-1.449891234	 3.3927090031	 1.3677385985	 0.135196
H	-2.7985658844	 2.9849124948	 0.2921960713	 0.128783
H	-1.2256347285	 1.0067401603	 2.0279997006	 0.089195
H	-3.5204937353	 0.2066033099	 1.7258312841	 0.110649
H	-3.4639423197	 0.5576528667	 0.0027382441	 0.110545
H	-2.4919964291	-1.9105797567	 1.3330090523	 0.09612
H	-2.0793574577	-2.6459513699	-1.03976552	 0.124602
H	-2.3152771945	-0.9273647044	-1.6043916778	 0.130261
H	-0.151892411	-1.9445124467	 0.3700034849	 0.118233
70.6231	133.9584	209.1046	223.8612	280.3872	381.0295	424.9956	440.6141	454.473	539.4437	656.2875	746.7939	757.1192	819.4322	846.7279	893.1268	903.8627	944.2935	976.6991	1000.7142	1027.227	1061.5167	1089.9087	1119.3027	1128.9811	1157.5464	1158.4594	1210.0346	1245.5905	1262.7339	1316.2497	1366.1775	1383.5207	1394.7063	1399.8752	1413.3557	1476.2271	1483.3251	1494.1589	1498.7585	1842.2076	3006.776	3037.5588	3045.4279	3084.6917	3117.9831	3128.8321	3134.9396	3162.0735	3189.7953	3224.5959
CC1CC2CC2C(=O)O1	C[C@H]1C[C@H]2C[C@H]2C(=O)O1	
InChI=1S/C7H10O2/c1-4-2-5-3-6(5)7(8)9-4/h4-6H,2-3H2,1H3	InChI=1S/C7H10O2/c1-4-2-5-3-6(5)7(8)9-4/h4-6H,2-3H2,1H3/t4-,5-,6+/m0/s1
