19
gdb 3916	3.3053467	1.1422193	0.9937559	1.8254	76.49	-0.23682	-0.02095	0.21587	1233.8844	0.155732	-422.555401	-422.546495	-422.54555	-422.589953	32.959	
O	-1.5303923303	 4.397916817	 0.1465514493	-0.431691
C	-0.8672524008	 3.158856886	 0.2060464947	 0.154247
C	-1.3507251309	 2.0938224173	 1.2289414376	-0.327636
C	-1.2092270773	 1.0302554185	 0.1035157592	 0.234724
C	-2.0426808665	-0.2761047928	-0.0115703045	-0.331254
C	-0.7390593055	-1.1328867998	-0.0516918774	-0.345959
C	 0.059912884	 0.1709914588	 0.1172705088	 0.357197
O	 1.2242169103	 0.4325718676	 0.2347121707	-0.30684
C	-1.2470023043	 2.1933541774	-0.9311755546	-0.302347
H	-1.1689603002	 4.9705704089	 0.8303056114	 0.283903
H	 0.2219459888	 3.2795419078	 0.2641115683	 0.091143
H	-0.7711216969	 1.9436890486	 2.1432213453	 0.104575
H	-2.4041374219	 2.259057271	 1.4752105037	 0.109266
H	-2.6758727899	-0.4703737564	 0.8571038727	 0.11022
H	-2.6579901268	-0.3382936405	-0.9117307412	 0.109736
H	-0.6001037635	-1.8528365987	 0.7598153239	 0.131617
H	-0.537611138	-1.6439753749	-0.9979598423	 0.13311
H	-0.5899065912	 2.1313493494	-1.8012167391	 0.110284
H	-2.2743815992	 2.3856109747	-1.2552193064	 0.115704
29.1745	81.8368	158.8101	234.787	251.7703	271.9159	393.2225	422.2538	464.3606	509.7025	521.6278	708.0508	710.7471	735.7922	836.0283	845.4164	855.2847	929.724	945.0546	981.2117	1032.4727	1050.4209	1072.2281	1088.4545	1140.3812	1153.3402	1185.7468	1201.9715	1212.4619	1230.2806	1235.8881	1264.4603	1271.8343	1292.5579	1324.7306	1430.81	1435.9198	1460.9985	1485.4101	1490.6537	1875.4412	3025.177	3050.6821	3058.8895	3059.0235	3070.3742	3105.3191	3114.2619	3120.3961	3124.4222	3819.4878
OC1CC2(CCC2=O)C1	O[C@H]1C[C@@]2(CCC2=O)C1	
InChI=1S/C7H10O2/c8-5-3-7(4-5)2-1-6(7)9/h5,8H,1-4H2	InChI=1S/C7H10O2/c8-5-3-7(4-5)2-1-6(7)9/h5,8H,1-4H2/t5-,7-
