19
gdb 1160	4.0130832	1.0402913	0.9430864	4.0824	76.99	-0.26285	0.01562	0.27847	1286.0844	0.156653	-422.536179	-422.527802	-422.526858	-422.569992	31.195	
C	-2.4704392395	 0.5981099066	-2.3231669859	-0.524569
C	-2.2743504522	 0.6799509773	-0.8219700162	 0.405486
O	-3.1665324983	 0.558481981	-0.0288526965	-0.310254
O	-1.0122988369	 0.8898924083	-0.3588963494	-0.248622
C	 0.0891493903	 1.0689854864	-1.2357091936	 0.190885
C	 1.4211469254	 1.409225282	-0.5298447009	-0.082768
C	 1.8920478887	 1.9505073075	-1.9119772541	-0.225321
C	 0.4498564481	 2.5029715332	-1.7280490871	-0.091069
C	 0.8438845838	 2.8319697058	-0.2550089879	-0.222418
H	-1.9703460473	-0.2858001398	-2.7322844413	 0.150378
H	-3.5389967937	 0.5228713354	-2.5190872363	 0.152457
H	-2.0601627558	 1.4734293342	-2.8335494344	 0.148078
H	 0.1283512113	 0.2690972307	-1.980541252	 0.080979
H	 1.9731165405	 0.7672834634	 0.1561924825	 0.083596
H	 2.6913932126	 2.6928451077	-1.883671642	 0.104667
H	 2.0514223961	 1.2183316405	-2.7090528316	 0.093871
H	-0.110911436	 3.1275245403	-2.4248266211	 0.076456
H	 1.578290045	 3.6302435552	-0.1249190694	 0.09461
H	 0.0339830581	 2.8999716943	 0.4699001073	 0.123559
52.9418	81.0552	153.1884	167.1694	309.449	357.5077	424.8597	503.2965	559.4936	577.5101	663.3646	771.1905	804.959	856.1871	886.8354	901.7989	911.411	924.9152	1007.7199	1020.5011	1027.6699	1032.1896	1058.2758	1090.9113	1104.2812	1112.8307	1147.6038	1155.6909	1198.1701	1216.5183	1242.5008	1247.6195	1259.9367	1278.7796	1391.0189	1403.5737	1468.123	1484.7107	1498.0813	1535.2417	1849.7239	3051.0787	3054.7629	3067.113	3073.4174	3103.6197	3117.5637	3121.312	3129.6264	3155.7245	3168.6498
CC(=O)OC1C2CC1C2	CC(=O)O[C@@H]1[C@H]2C[C@@H]1C2	
InChI=1S/C7H10O2/c1-4(8)9-7-5-2-6(7)3-5/h5-7H,2-3H2,1H3	InChI=1S/C7H10O2/c1-4(8)9-7-5-2-6(7)3-5/h5-7H,2-3H2,1H3/t5-,6+,7-
