19
gdb 3274	3.154843	1.8615117	1.5991106	0.0669	73.06	-0.23286	0.08867	0.32153	909.2649	0.160295	-422.554609	-422.548037	-422.547093	-422.585176	27.622	
C	-0.1228404459	 0.4110411781	-0.0055305106	-0.429373
C	 1.3740875912	 0.1440876418	-0.1130652409	 0.061303
C	 1.9102488768	-0.1178333392	-1.5384599298	 0.021439
O	 1.4842549875	 1.0951821571	-2.1794537115	-0.264606
C	 2.3559884871	 1.9732172117	-1.4447822745	 0.038211
C	 3.6957887977	 1.4878157439	-2.0246421006	-0.197226
C	 3.4960127908	 0.1218506017	-1.3451116278	 0.038042
O	 3.5940755905	 0.5549145973	 0.0233866294	-0.266693
C	 2.374348834	 1.3156543279	 0.0304960222	 0.020936
H	-0.3787036933	 0.7495059561	 1.004237205	 0.111065
H	-0.4510152379	 1.1673975478	-0.7198026477	 0.134378
H	-0.693049061	-0.5047782381	-0.1970001859	 0.114385
H	 1.6788968923	-0.6249584643	 0.6008600206	 0.081719
H	 1.5838514021	-0.9931229016	-2.0969387414	 0.078668
H	 2.0492425946	 3.0115564173	-1.5477627481	 0.083389
H	 3.6615415846	 1.5079124164	-3.1144414573	 0.105852
H	 4.5995467485	 1.965526375	-1.644942519	 0.106389
H	 4.17459574	-0.7036432632	-1.5478814227	 0.082751
H	 2.3242267905	 1.9773463142	 0.8931101404	 0.079369
183.1308	219.6649	275.1818	418.0344	512.9983	572.2814	596.6075	623.3153	683.9979	755.2909	814.4667	819.338	863.2494	906.0969	913.9805	925.3931	927.6681	963.6738	970.7232	984.1497	1024.1144	1034.7835	1060.089	1082.8012	1128.3552	1137.4971	1144.2635	1200.5495	1235.8549	1244.9703	1255.1575	1264.9812	1274.4183	1289.1685	1319.5219	1339.3833	1378.9124	1406.2595	1472.8551	1494.4173	1507.6195	3036.3008	3080.42	3086.1102	3091.623	3140.5336	3141.5643	3143.0567	3150.1704	3151.9084	3157.1038
CC1C2OC3CC2OC13	C[C@H]1[C@H]2O[C@@H]3C[C@H]2O[C@H]13	
InChI=1S/C7H10O2/c1-3-6-4-2-5(9-6)7(3)8-4/h3-7H,2H2,1H3	InChI=1S/C7H10O2/c1-3-6-4-2-5(9-6)7(3)8-4/h3-7H,2H2,1H3/t4-,5-,6-,7-/m1/s1
