19
gdb 3466	2.6299601	1.4718277	1.3209655	1.1193	75.85	-0.24388	-0.00132	0.24256000000000003	1063.1734	0.157041	-422.557801	-422.549455	-422.548511	-422.590394	32.192	
C	-2.727986517	 1.3329144402	-1.9817526018	-0.456269
C	-2.6988433684	 1.0399464579	-0.4958998146	 0.409996
O	-3.9773760574	 0.4919954065	-0.0453036649	-0.327422
C	-3.3177138667	-0.6118281105	 0.6065238117	-0.0902
C	-1.9304012243	-0.1840146793	 0.0850632157	-0.170456
C	-0.9165684917	 0.3451283195	 1.1171236632	 0.084622
O	 0.4457819206	 0.1994994434	 0.7202729171	-0.43397
C	-1.3191536259	 1.797140415	 1.2716890546	-0.129868
C	-2.2416728865	 2.1767697646	 0.3861047501	-0.113063
H	-3.005278978	 0.4367402329	-2.5435056367	 0.124581
H	-3.4659816094	 2.1123787931	-2.2000407454	 0.12833
H	-1.7505167625	 1.6815416593	-2.331658058	 0.113332
H	-3.4304027008	-0.5761042765	 1.6987091919	 0.097862
H	-3.691378472	-1.5753755117	 0.2427085369	 0.104705
H	-1.4667864615	-0.8703256211	-0.6239379237	 0.08277
H	-0.9831217712	-0.2076690912	 2.0615341667	 0.09205
H	 0.5977533941	 0.8084694265	-0.0109820183	 0.274331
H	-0.8531378805	 2.4368635527	 2.0137076495	 0.104723
H	-2.662262761	 3.1735204586	 0.2999157261	 0.103947
91.3215	185.7578	214.536	226.2794	307.7355	326.4774	355.6021	373.0175	428.6071	573.3575	615.6015	697.7507	740.0299	803.7619	840.4885	881.258	896.6943	942.0264	961.7252	988.8133	1009.4418	1040.1532	1056.0851	1088.681	1105.4534	1124.2199	1166.2037	1173.9842	1231.5521	1251.6207	1261.8338	1296.5191	1319.1742	1348.5612	1382.4783	1404.6652	1424.5952	1480.543	1490.2056	1522.0838	1669.3189	3007.0561	3033.1651	3044.0573	3059.0747	3102.2794	3112.3505	3116.6236	3178.1556	3203.1505	3800.3021
CC12OCC1C(O)C=C2	C[C@@]12OC[C@@H]1[C@@H](O)C=C2	
InChI=1S/C7H10O2/c1-7-3-2-6(8)5(7)4-9-7/h2-3,5-6,8H,4H2,1H3	InChI=1S/C7H10O2/c1-7-3-2-6(8)5(7)4-9-7/h2-3,5-6,8H,4H2,1H3/t5-,6+,7+/m1/s1
