19
gdb 3947	2.6980184	1.6988971	1.521183	1.347	73.65	-0.23984	0.03526	0.2751	976.6775	0.156603	-422.466256	-422.45837	-422.457426	-422.498269	30.794	
C	 2.0825126265	-0.573010599	-1.3658624585	-0.397855
C	 1.5454680052	 0.2295758792	-0.1914451275	-0.052451
C	 1.7729327091	-0.3885580727	 1.2556733313	-0.32073
C	 2.6361217117	 0.8510169552	 1.6051712219	 0.320686
C	 4.1366113137	 0.9416786922	 1.2576987988	-0.151721
O	 3.8063338606	 1.5117558015	-0.0603758437	-0.336309
C	 2.402466758	 1.454851124	 0.2655183215	 0.310027
C	 1.7955910792	 2.646170475	 1.0358708076	-0.154867
O	 2.0447868182	 1.9586513797	 2.3144341123	-0.336039
H	 1.5523963679	-1.5270596563	-1.4541086349	 0.113765
H	 1.9585128084	-0.0269460618	-2.3067029181	 0.12206
H	 3.1495794435	-0.7813301804	-1.245836646	 0.12816
H	 0.5008872233	 0.5040280366	-0.3669344851	 0.078858
H	 0.8713824647	-0.4708218495	 1.8647133636	 0.119731
H	 2.3021917054	-1.3456181472	 1.2679741906	 0.105522
H	 4.7096021514	 1.6425598181	 1.8729944448	 0.118805
H	 4.6795270686	-0.0052133744	 1.1585276793	 0.107802
H	 2.3597802263	 3.5809969109	 0.9571090173	 0.117414
H	 0.7266462481	 2.8377023488	 0.8865884346	 0.107143
101.6649	211.3285	225.7493	245.8565	308.0776	348.1019	370.3645	429.8637	548.2587	670.4547	712.1933	726.7371	802.2122	848.2259	874.516	889.9824	901.3505	922.6124	957.2169	963.6311	1025.0597	1057.5589	1131.4786	1137.7209	1138.3397	1184.5629	1188.2289	1209.4936	1239.781	1249.3142	1263.847	1277.6416	1323.3497	1342.9357	1348.4574	1411.0987	1460.1379	1488.5727	1494.0615	1499.2682	1501.6689	3026.0118	3028.2325	3035.0693	3054.8465	3060.9086	3087.5746	3090.2821	3101.7357	3113.4255	3130.1799
CC1CC23COC12CO3	C[C@H]1C[C@@]23CO[C@@]12CO3	
InChI=1S/C7H10O2/c1-5-2-6-3-9-7(5,6)4-8-6/h5H,2-4H2,1H3	InChI=1S/C7H10O2/c1-5-2-6-3-9-7(5,6)4-8-6/h5H,2-4H2,1H3/t5-,6+,7-/m0/s1
