19
gdb 5501	4.2421503	0.9418614	0.8570684	4.3504	75.8	-0.26728	0.01159	0.27887	1392.698	0.157214	-422.59031	-422.581837	-422.580892	-422.623812	31.535	
C	-0.1229168806	 2.0589586528	-2.139570236	-0.375897
C	 0.4465551733	 0.9453879016	-1.2536258843	-0.209339
C	 1.4297470377	 0.0560319486	-1.9867913224	-0.042581
C	 1.6984826217	-1.3503358856	-1.4770022865	-0.103638
C	 2.9858804682	-2.018538691	-1.903327649	-0.387677
C	 2.9142104994	-2.0598028868	-3.4359276264	 0.416985
O	 3.7450264593	-2.4408446357	-4.2044556333	-0.325525
O	 1.7083578015	-1.5625249038	-3.8527635083	-0.214962
C	 0.9278970133	-1.1329355525	-2.7546283235	 0.083038
H	-0.8311791859	 2.6811995263	-1.5843976608	 0.116223
H	 0.6734560262	 2.7113861578	-2.5130919	 0.121129
H	-0.6446991844	 1.6443197278	-3.0080818879	 0.123032
H	 0.9406345951	 1.3831434877	-0.3769432097	 0.105639
H	-0.3730433957	 0.3296590246	-0.8608762052	 0.096971
H	 2.2736538476	 0.574344638	-2.4401647751	 0.096609
H	 1.1977189944	-1.6783680615	-0.5739406419	 0.100414
H	 3.8990166889	-1.4949182643	-1.6060211707	 0.143235
H	 3.0663232415	-3.0455710028	-1.5332831769	 0.143193
H	-0.1269191116	-1.340870521	-2.886337942	 0.113151
83.118	94.6088	147.2904	204.2496	276.8595	322.5129	372.9894	440.7074	499.6362	562.0585	688.2221	714.7244	767.8532	829.8016	860.5369	862.9724	884.1327	954.4822	999.1421	1022.1977	1051.6479	1072.5153	1081.7752	1109.5649	1123.3859	1153.4077	1173.8955	1190.8899	1211.9223	1271.4922	1293.1167	1316.0506	1344.092	1370.6493	1412.5799	1447.0908	1463.5556	1487.5996	1498.1013	1507.3539	1888.333	3019.3604	3036.251	3049.6347	3061.0356	3100.388	3104.3961	3110.1545	3121.0775	3180.0356	3191.9466
CCC1C2CC(=O)OC12	CC[C@H]1[C@@H]2CC(=O)O[C@H]12	
InChI=1S/C7H10O2/c1-2-4-5-3-6(8)9-7(4)5/h4-5,7H,2-3H2,1H3	InChI=1S/C7H10O2/c1-2-4-5-3-6(8)9-7(4)5/h4-5,7H,2-3H2,1H3/t4-,5-,7+/m0/s1
