19
gdb 2507	2.6548875	1.8485475	1.3799795	1.9683	73.83	-0.24311	0.0731	0.31621	974.3121	0.159075	-422.528639	-422.521331	-422.520386	-422.559799	30.076	
O	 0.3132239978	 0.2777981354	 0.8083995582	-0.475056
C	-0.9611080794	 0.8339772848	 1.0241072824	 0.406027
C	-1.0653402615	 2.2818307856	 0.5752139746	-0.301296
C	-2.5076674624	 2.8216677675	 0.5363152037	-0.085836
O	-3.4643501968	 1.8559962146	 0.1289412266	-0.258808
C	-3.3736961381	 0.639084374	 0.8401095618	 0.086931
C	-3.1152769393	 0.7147035179	 2.3903666422	-0.2905
C	-1.7167147705	 0.1534689842	 2.1550222031	-0.130713
C	-2.045472016	-0.1239907729	 0.6749397791	-0.11562
H	 0.9182831907	 0.6765748675	 1.443719162	 0.280622
H	-0.4552304162	 2.938545185	 1.2100219669	 0.08793
H	-0.6297402029	 2.3134947732	-0.4300732647	 0.117404
H	-2.7819733951	 3.2322406465	 1.5177045706	 0.095945
H	-2.5836345056	 3.6388027628	-0.186131103	 0.109195
H	-4.2633188095	 0.0696039609	 0.5700813008	 0.090353
H	-3.2203504957	 1.681332512	 2.889798651	 0.098774
H	-3.7522748446	-0.0075031306	 2.9080561255	 0.10699
H	-1.1647266032	-0.4849083406	 2.8346062405	 0.084824
H	-1.8635200218	-1.0018539479	 0.0684695887	 0.092834
164.845	245.8833	300.4784	332.8141	371.9762	411.2448	421.9625	497.9294	525.6795	619.8843	699.2104	725.4502	819.2425	843.7035	881.0608	889.9842	929.0002	959.7454	984.9245	1008.7613	1020.0913	1030.7634	1073.0331	1094.083	1111.3808	1147.9111	1182.7361	1219.9627	1231.9078	1247.2622	1261.2589	1271.	1290.2508	1325.3648	1365.0288	1376.7671	1417.3313	1449.5027	1486.7876	1489.654	1521.0861	3001.9884	3017.5488	3057.4376	3063.2826	3088.1426	3098.5856	3110.5595	3181.8562	3200.2754	3793.798
OC12CCOC3CC1C23	O[C@]12CCO[C@@H]3C[C@H]1[C@H]23	
InChI=1S/C7H10O2/c8-7-1-2-9-5-3-4(7)6(5)7/h4-6,8H,1-3H2	InChI=1S/C7H10O2/c8-7-1-2-9-5-3-4(7)6(5)7/h4-6,8H,1-3H2/t4-,5+,6-,7+/m0/s1
