19
gdb 418	2.8598729	1.6188614	1.2424241	2.3396	75.19	-0.25484	0.08423	0.33907	1046.7354	0.158351	-422.524295	-422.516742	-422.515798	-422.556173	29.846	
C	 1.5191221617	 0.0835298009	-0.0285115612	-0.323719
C	 0.7163250272	 1.3571094354	-0.0419408449	-0.287378
C	 0.0123154591	 0.0236581108	 0.0293489614	 0.35034
C	-0.6400036324	-0.4196129684	 1.3273516695	-0.165715
O	-2.0426831446	-0.217765192	 1.3076945289	-0.235666
C	-2.6894002805	-1.0649537138	 0.3820419382	-0.117698
C	-2.100674078	-0.9809937304	-1.0113706808	 0.035353
O	-1.9118489196	 0.3276209233	-1.538077677	-0.24992
C	-0.7448239316	-0.4343238325	-1.1835852584	-0.055665
H	 2.006004623	-0.2296722739	-0.9467354714	 0.114261
H	 2.0697952772	-0.1709468773	 0.871730675	 0.112747
H	 0.7136567116	 1.97400067	 0.8506798425	 0.117559
H	 0.6471933185	 1.9148585924	-0.9692792981	 0.124981
H	-0.4198543053	-1.4865185304	 1.5094273217	 0.084973
H	-0.2549612061	 0.1532698035	 2.1763665439	 0.106393
H	-2.6428481911	-2.1185163435	 0.7126742739	 0.088562
H	-3.7410241163	-0.7608845338	 0.3685378541	 0.120865
H	-2.4797615307	-1.7201022746	-1.719458992	 0.090402
H	-0.1516693221	-0.7463466658	-2.0437776053	 0.089325
90.4473	209.513	268.0362	277.2984	328.5432	403.0869	433.9562	468.9849	534.9169	695.1023	771.4	776.6057	816.5736	874.6316	904.7	925.5599	946.1015	962.6185	973.6961	998.0594	1034.214	1058.0875	1074.2471	1084.8641	1094.752	1144.9809	1162.7766	1187.9012	1254.8318	1273.5215	1305.563	1331.748	1336.3708	1367.5797	1388.1985	1425.8432	1468.2831	1471.0095	1482.9161	1494.7922	1505.6693	2945.3362	2950.4895	3075.9902	3079.1776	3092.4196	3105.7275	3123.5369	3133.3619	3202.4075	3221.4341
C1CC11COCC2OC12	C1CC21COC[C@H]1O[C@@H]21	
InChI=1S/C7H10O2/c1-2-7(1)4-8-3-5-6(7)9-5/h5-6H,1-4H2	InChI=1S/C7H10O2/c1-2-7(1)4-8-3-5-6(7)9-5/h5-6H,1-4H2/t5-,6-/m1/s1
