19
gdb 5508	3.9746059	0.8596619	0.757721	2.2682	78.01	-0.24418	-0.02281	0.22137	1499.1204	0.155095	-422.514488	-422.505393	-422.504449	-422.549029	32.538	
C	 1.4761884305	-0.0028639128	 0.0233758808	-0.239172
O	 0.0704773511	-0.0418779115	 0.1857254077	-0.249377
C	-0.3653149535	 0.6175271333	 1.327716168	 0.1158
C	-1.774995565	 1.0973515333	 1.2440879149	-0.081697
C	-2.2151631862	 1.6697021824	 2.5904488003	-0.276624
C	-1.0155499021	 2.6954775785	 2.5495728551	-0.097728
C	-1.4957492102	 4.1183681727	 2.4583596396	 0.1621
O	-1.1000273773	 5.0285493475	 3.1400356248	-0.256309
C	-0.6112333489	 2.1022678653	 1.1880752344	-0.103325
H	 1.9921654355	-0.4751586703	 0.8724563185	 0.110671
H	 1.7085667403	-0.5602095948	-0.8865757675	 0.13129
H	 1.8464831178	 1.0268334627	-0.0784930852	 0.111692
H	 0.0352966859	 0.216525248	 2.2647025209	 0.080188
H	-2.4205589344	 0.7553620968	 0.4452542291	 0.10279
H	-3.1824423573	 2.1767053286	 2.5421025652	 0.116741
H	-2.2226873313	 0.9827676292	 3.4419626793	 0.111564
H	-0.2739402806	 2.6203009652	 3.3499190791	 0.088957
H	-2.279651961	 4.2804632347	 1.6799135101	 0.071882
H	-0.2157366032	 2.6518022214	 0.3423931349	 0.100558
65.0774	96.831	122.7779	175.6912	185.2779	255.6566	346.4757	376.0859	406.3249	455.5517	513.8297	751.4422	812.0136	846.0586	892.9451	905.9145	952.3181	967.2848	1007.0708	1024.3193	1031.4927	1073.525	1092.8718	1133.4629	1155.7197	1173.4503	1181.8185	1191.4734	1224.4931	1240.3357	1244.9361	1271.6278	1292.4229	1324.4081	1421.7019	1427.2097	1483.7051	1486.2242	1487.0324	1508.017	1830.2004	2845.111	2987.9308	3039.735	3041.7167	3051.4059	3073.0385	3103.9355	3124.1349	3184.774	3200.4845
COC1C2CC(C=O)C12	CO[C@@H]1[C@H]2C[C@H](C=O)[C@@H]12	
InChI=1S/C7H10O2/c1-9-7-5-2-4(3-8)6(5)7/h3-7H,2H2,1H3	InChI=1S/C7H10O2/c1-9-7-5-2-4(3-8)6(5)7/h3-7H,2H2,1H3/t4-,5+,6-,7-/m1/s1
