19
gdb 5420	2.0854569	1.6685756	1.077245	3.627	77.96	-0.22868	-0.05158	0.17709999999999998	1166.2669	0.155997	-422.57399	-422.564793	-422.563849	-422.608141	33.283	
C	 1.2464423196	-0.2562790028	-0.2667529654	-0.256844
O	-0.0955795964	 0.0140678237	 0.1008127787	-0.241076
C	-0.2792565567	 0.6893275381	 1.3154286376	 0.021919
C	 0.0590581868	 2.205358942	 1.3395181408	-0.067943
C	-1.1001293542	 3.122019254	 0.9370648925	-0.409866
C	 0.5512534072	 2.4083562102	 2.7533392112	-0.048837
C	 0.7726584954	 1.2658193734	 3.4171112848	-0.189483
C	 0.451804699	 0.1093376882	 2.55269163	 0.329343
O	 0.6998099779	-1.058279058	 2.7458991098	-0.334838
H	 1.7328872141	-0.9315493145	 0.4451243533	 0.14047
H	 1.2043213655	-0.7363951223	-1.2468748176	 0.130304
H	 1.8465462248	 0.6616369986	-0.3581125482	 0.101034
H	-1.3510811729	 0.5865313258	 1.5362257026	 0.114269
H	 0.8959230692	 2.3877792879	 0.6508337033	 0.10222
H	-1.9563357936	 2.9910586216	 1.6076861669	 0.122075
H	-0.804324025	 4.1758985955	 0.9707994617	 0.115926
H	-1.4292240218	 2.895017634	-0.08112558	 0.13549
H	 0.7045342428	 3.4041433619	 3.1596721115	 0.115358
H	 1.1587503183	 1.1583095326	 4.4229277265	 0.120478
65.0857	99.1938	174.1758	204.2174	226.9637	233.4539	294.8695	309.8816	405.2302	495.5847	511.5944	610.5247	685.3228	718.7717	781.0109	877.2543	899.4277	940.0165	981.2322	1002.3028	1056.881	1088.2792	1106.6349	1141.5704	1148.5035	1176.1906	1198.1775	1230.5259	1259.9255	1288.5095	1330.9031	1365.0935	1381.5382	1411.6224	1477.4878	1489.1229	1497.5366	1499.2282	1512.1159	1642.2501	1813.9847	2989.443	3009.4479	3019.58	3032.1236	3074.5922	3099.2898	3112.9227	3125.0524	3173.362	3221.4046
COC1C(C)C=CC1=O	CO[C@@H]1[C@@H](C)C=CC1=O	
InChI=1S/C7H10O2/c1-5-3-4-6(8)7(5)9-2/h3-5,7H,1-2H3	InChI=1S/C7H10O2/c1-5-3-4-6(8)7(5)9-2/h3-5,7H,1-2H3/t5-,7+/m0/s1
