19
gdb 2929	2.8976981	1.5717841	1.3769948	1.734	74.61	-0.25106	0.07423	0.32529	1009.3185	0.15819	-422.539441	-422.531606	-422.530662	-422.571179	31.253	
O	 0.4067687767	-0.0980278064	 0.3742577795	-0.451211
C	-0.7679615519	 0.4834875499	 0.8940844359	 0.054383
C	-0.7968292914	 0.9845398234	 2.3620632403	-0.128526
C	 0.2156570416	 2.116404954	 1.9965386388	-0.073898
C	-0.1162957693	 3.3715553742	 2.8031818339	-0.244726
C	-1.6697925578	 3.312665792	 2.7666018727	-0.241004
C	-1.8669261938	 2.0442034691	 1.934903856	-0.050029
C	-0.8074528252	 2.0169129806	 0.8020232443	 0.386589
O	-0.8776831805	 2.8117495085	-0.326405711	-0.486048
H	 0.4129409932	-1.0318089927	 0.6044767027	 0.284866
H	-1.6670338728	-0.0455786868	 0.549665071	 0.062056
H	-0.8074363227	 0.3877759675	 3.2726860446	 0.069579
H	 1.2568456561	 1.8509779171	 1.8228554939	 0.072053
H	 0.2861753312	 3.3328066412	 3.8203198591	 0.093113
H	 0.279227278	 4.2739424153	 2.3265323648	 0.101333
H	-2.1146550767	 3.2228026073	 3.7625181149	 0.093654
H	-2.1149607378	 4.1873574751	 2.2832922875	 0.106758
H	-2.8830108726	 1.7125202092	 1.7119979549	 0.061573
H	-0.1271253242	 2.5920993613	-0.8899580442	 0.289484
198.0757	198.6846	225.1513	242.9196	268.9047	304.7744	396.987	510.4471	529.1584	651.7484	712.2437	739.3278	764.9983	821.5203	842.7783	904.8204	927.8078	942.5757	963.7013	990.0889	1005.5124	1033.4121	1035.0153	1098.1856	1108.8863	1112.2998	1162.3554	1171.1967	1189.601	1245.6198	1249.577	1253.2718	1273.697	1282.2727	1311.0733	1314.2101	1343.2325	1398.5477	1462.3691	1487.0939	1509.141	3012.1168	3044.1088	3054.153	3078.1338	3097.7862	3098.8124	3128.0382	3140.3028	3803.0431	3826.4552
OC1C2C3CCC2C13O	O[C@H]1[C@H]2[C@@H]3CC[C@H]2[C@]13O	
InChI=1S/C7H10O2/c8-6-5-3-1-2-4(5)7(3,6)9/h3-6,8-9H,1-2H2	InChI=1S/C7H10O2/c8-6-5-3-1-2-4(5)7(3,6)9/h3-6,8-9H,1-2H2/t3-,4+,5-,6-,7-/m0/s1
