19
gdb 3629	2.4314688	1.4283916	1.1058517	4.1333	75.21	-0.23714	-0.01271	0.22443	1141.7054	0.157296	-422.57061	-422.562168	-422.561224	-422.603901	31.917	
O	 1.6247508815	 0.8871271611	-2.9095196671	-0.43231
C	 1.2884825456	 2.1451754116	-2.3233452386	 0.128222
C	 0.5018381702	 1.8445296724	-1.0346405599	-0.276753
C	 1.5591725434	 1.7193282704	 0.1015109261	-0.079669
C	 2.0464293182	 0.2881132358	 0.2517443931	 0.145069
O	 2.0406262614	-0.3231109045	 1.2905098659	-0.258408
C	 2.7100882618	 2.6087045139	-0.3730320126	-0.031448
C	 2.3506693978	 3.9936251816	-0.8534110932	-0.321498
C	 2.5339185688	 2.8785880789	-1.8518065544	-0.054656
H	 2.2237714547	 1.049091547	-3.6455912796	 0.28226
H	 0.6889637409	 2.7379437348	-3.0299057688	 0.069645
H	-0.1877685664	 2.66171271	-0.8093779768	 0.113502
H	-0.0983720806	 0.9405303403	-1.1624309608	 0.125873
H	 1.1578720859	 2.028330643	 1.0713499685	 0.087822
H	 2.4217570966	-0.1665044006	-0.6901061307	 0.094458
H	 3.6926903805	 2.4564470855	 0.0598565815	 0.095436
H	 1.3561192655	 4.3835415718	-0.6633219055	 0.115406
H	 3.131339781	 4.7448348421	-0.8092266884	 0.117978
H	 3.3815779132	 2.9246942547	-2.5287192587	 0.079072
63.7458	121.4416	171.5534	277.8078	303.9064	307.7545	366.9423	407.5671	451.736	474.629	693.5385	750.0992	797.8977	833.5493	840.6257	874.8848	926.6367	959.4336	987.6536	1007.516	1017.1078	1047.903	1064.9218	1084.7331	1106.7755	1121.3695	1137.3036	1196.0578	1207.2161	1218.8969	1272.0118	1279.3742	1324.1345	1339.7239	1360.1619	1373.4671	1419.4477	1426.6923	1477.609	1497.0619	1826.7835	2912.1879	2991.2593	3065.7729	3076.6723	3116.3229	3132.3992	3153.5175	3171.0928	3215.4413	3815.5878
OC1CC(C=O)C2CC12	O[C@H]1C[C@@H](C=O)[C@@H]2C[C@H]12	
InChI=1S/C7H10O2/c8-3-4-1-7(9)6-2-5(4)6/h3-7,9H,1-2H2	InChI=1S/C7H10O2/c8-3-4-1-7(9)6-2-5(4)6/h3-7,9H,1-2H2/t4-,5-,6-,7-/m0/s1
