19
gdb 4632	3.4075304	0.634708	0.5602087	3.357	81.5	-0.25235	-0.02746	0.22489000000000003	1980.0142	0.153358	-422.547263	-422.536374	-422.53543	-422.586869	36.748	
C	 0.2042671268	-0.0640518327	-0.4772114326	-0.365817
C	 1.6745846724	-0.0367268775	-0.0215170471	-0.315461
C	 2.1608037506	 1.3087734633	 0.2675611859	 0.101565
C	 2.5409933724	 2.4276452195	 0.5013133879	 0.033061
C	 3.0055173496	 3.7765094197	 0.7938128549	-0.46546
C	 4.0382305796	 4.3641600154	-0.1736256481	 0.363695
O	 4.5830998532	 5.4180245693	 0.070728075	-0.317142
C	 4.36591887	 3.6274021384	-1.4582938811	-0.132417
O	 5.2874250244	 4.337380906	-2.2285944647	-0.422886
H	-0.4496006135	 0.3524362965	 0.2936580694	 0.129874
H	 0.0686835632	 0.5238216492	-1.3889680381	 0.129397
H	-0.111467766	-1.0916536883	-0.6791434072	 0.118473
H	 1.7950757364	-0.6636035487	 0.8712039692	 0.13339
H	 2.3075732887	-0.4908921449	-0.7945298344	 0.133564
H	 2.1630214396	 4.4821334498	 0.8006665081	 0.166577
H	 3.443712289	 3.8394684551	 1.7973593173	 0.165339
H	 4.740400767	 2.6265805224	-1.1873527077	 0.126978
H	 3.4240334262	 3.4527652496	-2.0040112405	 0.123656
H	 5.4926606705	 5.1323519478	-1.7108435264	 0.293615
13.1748	14.616	72.5842	125.8795	135.7249	192.7278	259.0265	276.4876	334.5391	384.8796	395.7247	456.373	478.7778	527.7174	624.0761	755.2365	784.9755	799.8108	833.0577	969.8968	1025.7469	1079.9162	1103.8368	1112.712	1161.0219	1174.1769	1203.6436	1249.6475	1285.9332	1306.8411	1311.2768	1351.3027	1409.66	1431.0202	1449.4049	1473.8079	1478.0251	1494.8672	1505.4068	1796.2174	2368.3105	2980.8728	2995.1517	3021.3088	3022.3703	3046.1807	3050.0235	3059.1622	3120.4887	3124.9845	3685.3209
CCC#CCC(=O)CO	CCC#CCC(=O)CO	
InChI=1S/C7H10O2/c1-2-3-4-5-7(9)6-8/h8H,2,5-6H2,1H3	InChI=1S/C7H10O2/c1-2-3-4-5-7(9)6-8/h8H,2,5-6H2,1H3
