19
gdb 791	2.0152339	1.6773818	1.1259812	1.8335	75.18	-0.25101	-0.02575	0.22526000000000002	1136.5121	0.155786	-422.52972	-422.520884	-422.51994	-422.563698	32.129	
O	 0.9710983791	-0.6651003273	 0.2336467072	-0.264043
C	 0.0828760243	 0.0242489962	-0.2019752151	 0.129643
C	-0.3258742828	 1.3633189601	 0.3570652835	 0.19925
C	-1.8832026624	 1.4726394453	 0.5025318574	-0.276777
C	-1.9566711566	 2.1897028738	-0.8689834078	-0.218177
C	-0.4285650199	 2.431676305	-0.7956713639	-0.268725
C	 0.5281638096	 1.7370443316	 1.5425007497	 0.010899
C	 0.106108814	 1.5242671427	 2.9290253936	-0.180318
O	 0.0630326958	 2.8295991987	 2.3402951049	-0.250989
H	-0.5089530935	-0.3034883149	-1.0886644425	 0.077675
H	-2.4401206718	 0.5398505076	 0.6219039203	 0.105164
H	-2.1206484505	 2.1454859615	 1.328850304	 0.134612
H	-2.2313451454	 1.5106456044	-1.6805152928	 0.108881
H	-2.5952473841	 3.0728715669	-0.9311284228	 0.109612
H	 0.1617054349	 2.2501623325	-1.6975461462	 0.108215
H	-0.1809935995	 3.4204081067	-0.403373619	 0.132577
H	 1.5988080914	 1.7584647582	 1.3404210966	 0.105764
H	-0.8647567607	 1.0765609148	 3.1354300895	 0.11343
H	 0.856322558	 1.3852704262	 3.7049792633	 0.123308
71.4902	103.8457	128.4001	182.6729	210.4452	273.8552	311.2568	409.9427	456.1461	581.6442	648.892	707.8443	788.3606	859.2191	877.2363	902.205	910.9674	915.3968	952.095	979.8481	1003.4062	1072.8261	1090.4363	1101.3811	1154.8363	1164.4874	1178.2812	1217.2117	1226.9242	1262.6931	1270.702	1278.6115	1298.7346	1326.7132	1424.04	1446.9842	1470.9783	1484.3077	1505.2063	1528.7604	1818.0769	2857.2811	3061.7919	3062.8956	3068.2401	3090.4114	3107.4796	3115.3264	3123.7602	3132.8868	3177.9286
O=CC1(CCC1)C1CO1	O=CC1(CCC1)[C@@H]1CO1	
InChI=1S/C7H10O2/c8-5-7(2-1-3-7)6-4-9-6/h5-6H,1-4H2	InChI=1S/C7H10O2/c8-5-7(2-1-3-7)6-4-9-6/h5-6H,1-4H2/t6-/m0/s1
