19
gdb 4351	2.1036424	1.8608194	1.2577043	4.3461	74.98	-0.26267	0.0142	0.27687	1065.9341	0.157797	-422.596741	-422.588375	-422.587431	-422.629647	31.622	
C	-2.9946933588	-1.0896399237	-1.4849423979	-0.394858
C	-2.2928208192	-0.8187647107	-0.1482517464	-0.121801
C	-2.1381821398	 0.6951810998	 0.1207673437	-0.09286
O	-0.8430642904	 1.0699904068	-0.383236618	-0.232594
C	-0.033050711	-0.0206365348	-0.4708270515	 0.41793
O	 1.128039022	 0.0564397399	-0.7613234149	-0.364587
C	-0.8315349245	-1.244811819	-0.1414639545	 0.19269
C	-0.2912284482	-2.5843324549	-0.5690930088	-0.309891
C	-0.2116831097	-2.1927048816	 0.8739367029	-0.30751
H	-3.0269107901	-2.1599988487	-1.7074364433	 0.120928
H	-4.0247442853	-0.7191667607	-1.4640102115	 0.117133
H	-2.4731108165	-0.5922293419	-2.3095879289	 0.132893
H	-2.8569314531	-1.2885667551	 0.6629464333	 0.084215
H	-2.8828299017	 1.3023767858	-0.3990693166	 0.121299
H	-2.1740103659	 0.9290267051	 1.1909015482	 0.115492
H	-1.0096282812	-3.3438125149	-0.857126756	 0.118731
H	 0.6246572525	-2.5651494872	-1.1492879126	 0.143725
H	-0.8867723452	-2.6676822922	 1.577898317	 0.119192
H	 0.757543446	-1.9175407418	 1.2740554157	 0.139872
74.4513	173.1698	207.4822	238.2632	246.8673	253.1595	334.8558	459.2146	498.9535	571.745	705.5784	717.0905	754.7131	787.544	844.0713	891.8689	917.0039	959.4418	964.2592	994.3529	1018.2406	1061.2234	1064.8505	1093.5028	1105.6373	1133.459	1161.2095	1201.1014	1241.8952	1261.6519	1302.7512	1349.4074	1367.1751	1401.461	1420.6471	1455.8009	1487.5717	1498.5619	1498.8132	1519.6304	1868.6586	3035.3169	3037.8116	3060.8506	3104.6448	3106.0882	3113.0424	3133.8465	3137.3411	3220.4363	3234.5041
CC1COC(=O)C11CC1	C[C@@H]1COC(=O)C21CC2	
InChI=1S/C7H10O2/c1-5-4-9-6(8)7(5)2-3-7/h5H,2-4H2,1H3	InChI=1S/C7H10O2/c1-5-4-9-6(8)7(5)2-3-7/h5H,2-4H2,1H3/t5-/m1/s1
