19
gdb 3611	2.8738292	1.0418712	0.9057512	2.5177	77.05	-0.249	0.04775	0.29675	1338.0336	0.154921	-422.512984	-422.503482	-422.502538	-422.547378	35.611	
O	 2.6077951282	 3.6586528764	 0.7798570603	-0.443847
C	 2.7775545195	 2.5438088508	-0.0629911615	 0.152054
C	 4.1960094023	 2.4409811947	-0.6998030362	-0.260505
C	 4.590947161	 1.4736540767	 0.4375406648	 0.093005
O	 5.1842650501	 2.2484459058	 1.4755194895	-0.440947
C	 3.0764516526	 1.2111328397	 0.7005760062	-0.05131
C	 2.5396737083	-0.0602467655	 0.0239623237	-0.38773
C	 1.0869252138	-0.1667888197	 0.0914209795	 0.301674
C	-0.1112346793	-0.2301934153	 0.1611247892	-0.43513
H	 3.3893475071	 3.6965745268	 1.3466391738	 0.281255
H	 1.9193217073	 2.5277141518	-0.7386432143	 0.091543
H	 4.1911984219	 1.9529915905	-1.6774600543	 0.105698
H	 4.7714820985	 3.3670184967	-0.7581195214	 0.113064
H	 5.2164540853	 0.6066657743	 0.1846563842	 0.064036
H	 5.2054499429	 1.7109450454	 2.2750340187	 0.285011
H	 2.7806654409	 1.2288256271	 1.7543183856	 0.076683
H	 2.8555510866	-0.0861069359	-1.0276426987	 0.130087
H	 2.9958608129	-0.9419652502	 0.4938789627	 0.128179
H	-1.1696212898	-0.2917839401	 0.2185006682	 0.19718
62.6727	96.5262	128.0109	228.9577	248.4344	331.9956	346.4963	379.093	388.5536	406.4424	455.951	515.8638	560.5887	624.4241	639.9313	792.6864	815.1896	862.4459	892.1669	937.6017	976.7876	982.9592	1020.6021	1048.5499	1068.7	1126.7293	1139.6505	1153.0117	1195.4767	1233.9406	1250.7623	1261.7783	1300.0363	1321.9999	1340.2146	1358.8285	1408.1849	1452.6714	1464.1015	1475.0801	2239.3267	3003.1162	3011.8221	3037.1296	3062.8172	3069.6395	3089.2606	3130.2769	3507.0884	3764.0534	3801.4349	62.672	96.5256	128.0103	228.9576	248.4345	331.9956	346.4974	379.0921	388.5534	406.4419	455.9508	515.862	560.5892	624.4254	639.9325	792.6863	815.1896	862.4458	892.1667	937.6018	976.7873	982.959	1020.602	1048.5498	1068.7	1126.7289	1139.6504	1153.0115	1195.4766	1233.9404	1250.7626	1261.7782	1300.036	1322.	1340.2144	1358.8283	1408.1847	1452.6721	1464.1016	1475.0798	2239.327	3003.1162	3011.822	3037.1296	3062.8172	3069.6395	3089.2606	3130.2769	3507.0885	3764.0525	3801.434
OC1CC(O)C1CC#C	O[C@H]1C[C@@H](O)[C@@H]1CC#C	
InChI=1S/C7H10O2/c1-2-3-5-6(8)4-7(5)9/h1,5-9H,3-4H2	InChI=1S/C7H10O2/c1-2-3-5-6(8)4-7(5)9/h1,5-9H,3-4H2/t5-,6+,7-
