19
gdb 5360	3.6060626	1.205706	1.1694005	2.2276	75.66	-0.23562	0.00596	0.24158	1152.8328	0.158311	-422.554498	-422.546646	-422.545702	-422.58711	30.139	
C	 1.298029599	-0.6890665561	 1.0614430189	-0.373616
C	 1.1559213591	 0.1988668333	-0.1880495062	-0.311753
C	 1.9003051706	 1.4906070237	-0.0802214749	 0.360496
C	 2.8987827172	 1.9907821219	-0.8157162822	-0.224777
C	 3.0838376993	 3.4135617675	-0.3062997635	 0.139265
O	 1.9652847877	 4.1905983824	-0.8100379189	-0.27635
C	 0.8595024817	 3.7258245252	-0.0300130198	-0.08245
C	 1.5359362839	 2.637570983	 0.8667973925	-0.087605
O	 2.8006839902	 3.2908326292	 1.0705425931	-0.229791
H	 0.730462748	-1.6168278807	 0.9424777016	 0.116673
H	 2.3461507411	-0.948527631	 1.2366527598	 0.128188
H	 0.9263565456	-0.1828637557	 1.9580311013	 0.120314
H	 1.5062241662	-0.3471236338	-1.0707491831	 0.110341
H	 0.0893449621	 0.404798527	-0.3570742434	 0.108519
H	 3.3795513348	 1.5630844703	-1.6848781588	 0.107616
H	 4.009951095	 3.9516416024	-0.4951825992	 0.093394
H	 0.466684499	 4.5477464789	 0.5776467907	 0.109193
H	 0.0675174625	 3.3276789299	-0.6730855049	 0.102227
H	 1.0449461369	 2.4099495227	 1.810861047	 0.090117
74.62	127.7027	194.5231	259.9487	281.4196	374.5068	484.7456	562.8636	592.6478	671.7115	745.035	786.2224	821.3059	835.9507	851.3764	876.0472	891.7257	941.282	954.3776	981.4252	1028.1686	1051.8708	1056.7907	1077.602	1092.391	1186.3885	1206.737	1237.7515	1243.0554	1274.536	1290.4523	1329.5446	1343.312	1354.7664	1355.7465	1412.1171	1477.6475	1498.302	1505.6686	1514.9052	1686.6692	3008.2118	3034.9934	3039.7592	3064.2447	3082.897	3109.3433	3116.1553	3144.9824	3158.301	3227.4501
CCC1=CC2OCC1O2	CCC1=C[C@H]2OC[C@@H]1O2	
InChI=1S/C7H10O2/c1-2-5-3-7-8-4-6(5)9-7/h3,6-7H,2,4H2,1H3	InChI=1S/C7H10O2/c1-2-5-3-7-8-4-6(5)9-7/h3,6-7H,2,4H2,1H3/t6-,7-/m0/s1
