19
gdb 2648	2.6995957	1.1534542	0.9157846	4.1039	77.08	-0.23944	-0.01755	0.22188999999999998	1301.4789	0.15411	-422.546207	-422.536815	-422.535871	-422.580583	34.728	
C	-3.8386290074	-1.39441774	 1.496043143	-0.41285
C	-3.3724253905	-0.1034089015	 0.8611310574	-0.131038
C	-3.363254973	 0.0678058746	-0.6429843797	 0.021472
O	-3.6505076628	 1.3104157694	-1.2142360569	-0.420267
C	-2.0699352869	-0.0262341713	 0.0997296158	 0.319382
C	-0.9884890929	-1.110982966	-0.0593284557	-0.43381
C	 0.0531690492	 0.0289213258	-0.0242254888	 0.405878
O	 1.244898284	 0.0584708667	-0.1134269925	-0.287365
C	-1.030952309	 1.1059066023	 0.1699071484	-0.416383
H	-3.3711021751	-1.5516488667	 2.4744827268	 0.121954
H	-4.9243668026	-1.3958015115	 1.6427027773	 0.119053
H	-3.5876529651	-2.2573591502	 0.8705971353	 0.11964
H	-3.6201030444	 0.8036238866	 1.4095452761	 0.088646
H	-3.6592211348	-0.7957521763	-1.2429759514	 0.082302
H	-4.5957831085	 1.4719465519	-1.1270201489	 0.28905
H	-0.8863852024	-1.8114705537	 0.776932692	 0.129903
H	-0.9999969514	-1.6844271538	-0.992032497	 0.129869
H	-0.9558769621	 1.6373851607	 1.1246484525	 0.126963
H	-1.0873236045	 1.8446378632	-0.6352564235	 0.147602
43.9252	161.7306	171.6613	184.5977	225.8708	260.1471	298.496	331.5279	421.5341	457.418	473.1256	530.1125	562.7418	683.5099	717.9687	792.8331	860.8865	907.0566	949.8888	996.2509	1043.5615	1061.405	1066.3099	1080.8786	1116.9276	1124.4044	1169.2181	1186.5071	1196.3561	1209.7312	1221.2286	1295.0963	1312.1329	1351.5705	1418.3841	1428.7159	1445.4251	1481.5938	1492.5226	1506.0914	1898.2462	3027.1799	3042.1959	3050.9185	3073.8781	3088.2346	3092.562	3096.5809	3103.234	3130.3579	3806.0153
CC1C(O)C11CC(=O)C1	C[C@@H]1[C@@H](O)C21CC(=O)C2	
InChI=1S/C7H10O2/c1-4-6(9)7(4)2-5(8)3-7/h4,6,9H,2-3H2,1H3	InChI=1S/C7H10O2/c1-4-6(9)7(4)2-5(8)3-7/h4,6,9H,2-3H2,1H3/t4-,6-/m1/s1
