19
gdb 4156	2.7553995	1.5814714	1.3213973	4.432	73.87	-0.25742	0.0185	0.27592	1034.5779	0.159765	-422.621455	-422.61403	-422.613086	-422.653105	29.474	
C	-2.557226513	-2.6231544503	-1.4264791129	-0.423773
C	-1.7858940779	-1.3105419278	-1.2749238916	 0.033211
C	-2.7000388275	-0.0545037305	-1.0787945909	-0.238468
C	-2.1812403488	 0.524687919	 0.2487999378	 0.103623
C	-1.8801126882	-0.729877103	 1.0789430538	-0.248529
C	-0.8987375246	-1.2642825205	 0.01734349	-0.168843
C	-0.0197557523	-0.0300418707	-0.1577614831	 0.444549
O	 1.1432435524	 0.0711016257	-0.4151383505	-0.354318
O	-0.8493466771	 1.0522947752	-0.0057956825	-0.244243
H	-3.1957310506	-2.8230733422	-0.5591987446	 0.117372
H	-3.2036957455	-2.5897132577	-2.3096290155	 0.122459
H	-1.8743122933	-3.4706533133	-1.5435462842	 0.122809
H	-1.1480716904	-1.1853470115	-2.154910889	 0.09853
H	-2.60746971	 0.6725666047	-1.888010392	 0.119895
H	-3.7548884421	-0.3346772225	-0.9921558948	 0.104229
H	-2.7737342023	 1.317944943	 0.7013266912	 0.091007
H	-1.4087991534	-0.5015125033	 2.0378208459	 0.119689
H	-2.7551495303	-1.3626801272	 1.2412112738	 0.110011
H	-0.3305888553	-2.1685774073	 0.2239308792	 0.090791
148.6041	158.8111	231.6926	279.0696	374.0632	418.7004	451.9539	507.5044	604.1204	716.0045	734.9519	786.9397	835.0403	861.8798	879.3672	904.2502	938.2244	957.2256	963.8646	986.1733	1023.4802	1043.0251	1082.847	1105.0497	1141.3556	1174.6226	1199.8555	1208.5673	1237.7054	1273.6537	1293.1836	1323.426	1341.8785	1359.4002	1379.0712	1413.7341	1482.5805	1494.9297	1496.4407	1506.3229	1893.0585	3031.3214	3056.5238	3057.2831	3073.9325	3100.3065	3103.5906	3116.5924	3128.6039	3138.7651	3148.0899
CC1CC2CC1C(=O)O2	C[C@H]1C[C@H]2C[C@@H]1C(=O)O2	
InChI=1S/C7H10O2/c1-4-2-5-3-6(4)7(8)9-5/h4-6H,2-3H2,1H3	InChI=1S/C7H10O2/c1-4-2-5-3-6(4)7(8)9-5/h4-6H,2-3H2,1H3/t4-,5-,6-/m0/s1
