19
gdb 1909	2.5599314	1.5425995	1.1801747	3.0237	76.32	-0.23146	-0.01524	0.21622	1099.5973	0.157351	-422.571171	-422.562917	-422.561973	-422.603728	31.793	
C	-3.2317401697	-2.2742723709	-0.1273689977	-0.471574
C	-2.2416852193	-1.2434706566	-0.6209857279	 0.298614
C	-1.154510899	-1.622565585	-1.5702464176	-0.327883
C	-0.8018740592	-1.3000533819	-0.113801667	-0.164687
C	-0.131839357	-0.026437207	 0.248915868	 0.360732
O	 0.8250131757	 0.0287940853	 0.9900879544	-0.326071
C	-0.7684753805	 1.2631087522	-0.2785471562	-0.185993
O	-1.8053434329	 1.0769666281	-1.222055799	-0.243685
C	-2.7946556456	 0.1654549013	-0.7793686355	-0.147905
H	-3.6516801255	-1.9886613074	 0.8437729442	 0.124855
H	-4.0639255599	-2.3881958706	-0.8319462136	 0.124195
H	-2.7571096116	-3.2530151522	-0.0115350805	 0.124762
H	-1.0505242643	-2.6645352758	-1.8518199074	 0.121119
H	-0.8655194197	-0.9069206144	-2.3298595321	 0.139079
H	-0.5005179487	-2.1383450753	 0.5054739474	 0.10351
H	-1.1286814227	 1.8205016389	 0.603309347	 0.121906
H	 0.0008048535	 1.8729790496	-0.7595017307	 0.14145
H	-3.2390530118	 0.5057037994	 0.1723144827	 0.092464
H	-3.5816965618	 0.1822929124	-1.5411466086	 0.115112
95.7029	154.0773	217.1066	280.6918	296.342	357.2827	381.1923	412.6812	461.738	506.9169	574.855	615.0156	698.5031	770.1592	856.4695	912.27	935.149	954.1409	973.1777	1013.7878	1038.1148	1057.7688	1079.4329	1105.6158	1135.6387	1148.6389	1231.5859	1253.9296	1267.9051	1314.9721	1326.8181	1349.6265	1384.4632	1417.2403	1421.7177	1456.019	1482.7068	1490.3282	1495.6667	1506.0578	1798.3522	2956.064	2968.3254	3025.7887	3066.548	3086.5961	3100.836	3106.0105	3143.7133	3171.0477	3237.7575
CC12CC1C(=O)COC2	C[C@]12C[C@H]1C(=O)COC2	
InChI=1S/C7H10O2/c1-7-2-5(7)6(8)3-9-4-7/h5H,2-4H2,1H3	InChI=1S/C7H10O2/c1-7-2-5(7)6(8)3-9-4-7/h5H,2-4H2,1H3/t5-,7+/m0/s1
