19
gdb 2042	2.3209185	1.4707208	1.3866767	2.6896	75.42	-0.24495	-0.03327	0.21168	1073.1083	0.153763	-422.529944	-422.520647	-422.519703	-422.563819	34.359	
C	 2.8479888943	-0.8030032165	-0.7667392584	-0.496864
C	 2.4654767956	-0.1350308058	 0.5208507044	 0.22601
C	 3.4317234537	 0.0625697224	 1.6836862601	-0.361374
C	 2.718498912	 1.2389094092	 1.1010132926	 0.058761
O	 1.3985182909	 1.3458726925	 1.6447525823	-0.335543
C	 1.0131568058	 0.0858933774	 1.0234423339	 0.265382
C	-0.0205067193	 0.3086293865	-0.0661259634	-0.442811
C	 0.5461985368	-0.9369542764	 2.0470015435	 0.12419
O	-0.0766964567	-1.928447611	 1.7626202958	-0.256766
H	 2.7584452291	-1.8924055283	-0.6873381126	 0.136338
H	 2.2197470229	-0.4741963632	-1.6001568052	 0.127172
H	 3.8879348395	-0.5769031051	-1.0229029807	 0.123974
H	 3.2125574048	-0.2568783923	 2.6970392393	 0.119528
H	 4.4732164678	-0.0430990169	 1.3933978897	 0.117787
H	 3.1768271559	 2.1371873871	 0.7033360642	 0.107696
H	-0.3114591515	-0.6474046337	-0.5082857289	 0.141899
H	-0.9122181513	 0.7729666512	 0.3647762856	 0.132343
H	 0.3727959517	 0.9704226253	-0.8413289008	 0.121853
H	 0.8471054878	-0.7098980423	 3.0924423487	 0.090424
58.9158	135.4194	182.8999	213.3826	242.3734	263.6794	269.2597	340.9542	394.6295	459.3848	480.144	484.9801	630.8345	716.5091	802.9714	856.7099	891.2628	894.7981	963.4482	974.8784	992.5873	1005.6365	1035.4983	1072.0501	1100.9426	1109.6997	1131.8832	1187.3997	1227.9676	1252.8964	1288.8988	1384.1033	1393.7223	1407.7247	1423.7798	1477.5709	1484.9045	1489.1991	1492.3416	1501.0662	1821.4103	2902.2459	3030.8256	3049.8163	3092.9868	3105.0671	3123.495	3123.9115	3137.7932	3179.3161	3209.8276
CC12CC1OC2(C)C=O	C[C@@]12C[C@@H]1O[C@]2(C)C=O	
InChI=1S/C7H10O2/c1-6-3-5(6)9-7(6,2)4-8/h4-5H,3H2,1-2H3	InChI=1S/C7H10O2/c1-6-3-5(6)9-7(6,2)4-8/h4-5H,3H2,1-2H3/t5-,6+,7+/m0/s1
