19
gdb 917	2.9187029	1.04722	0.8949376	3.5916	76.78	-0.23645	-0.0166	0.21985	1341.0045	0.155195	-422.525025	-422.515907	-422.514963	-422.560273	32.367	
O	 0.3181704251	-1.1793218538	 0.0593575609	-0.24109
C	 0.4431661652	-0.0089744773	-0.1947106408	 0.160597
C	-0.279721572	 0.7212234817	-1.3079072885	-0.292478
C	-1.0593564231	 1.9086661772	-0.770352095	-0.107828
C	-1.3157922293	 3.1166112756	-1.6694482284	-0.376287
C	-0.3524506729	 3.2087950106	-0.5342859801	 0.4665
C	-0.3299149164	 4.1214285241	 0.6863739208	-0.361299
C	 1.187175834	 4.1921302037	 0.4057557296	-0.071074
O	 1.0564646673	 3.3307805633	-0.7532777006	-0.307512
H	 1.1240655033	 0.6422951522	 0.3991558704	 0.079194
H	 0.4875826051	 1.0869551166	-2.002582126	 0.131743
H	-0.9253216493	 0.0152903495	-1.838501403	 0.118633
H	-1.8506062342	 1.6568444712	-0.0676090045	 0.097108
H	-0.8969858414	 3.0854857748	-2.6703968909	 0.125768
H	-2.2684351393	 3.630676441	-1.5900052422	 0.117555
H	-0.8678637749	 5.0642634437	 0.5708789528	 0.118422
H	-0.6146516703	 3.6536416789	 1.6307658241	 0.118026
H	 1.5777485875	 5.1774578197	 0.1307471486	 0.112344
H	 1.8338957655	 3.7461787875	 1.1689638726	 0.111677
49.6355	64.9853	89.0437	139.3168	182.6555	302.5626	343.3268	403.9589	489.5471	510.1499	591.8294	769.4989	791.0988	831.8073	859.8378	874.1035	890.7761	957.5815	976.4133	1012.3164	1016.9486	1047.9911	1082.3577	1106.0166	1125.4097	1146.8519	1165.3599	1196.6294	1214.9914	1246.4975	1249.7492	1289.7892	1321.9895	1354.0537	1417.9529	1423.7484	1454.7589	1485.1817	1493.1855	1533.2512	1834.8281	2877.722	3032.2417	3033.9394	3074.587	3078.4951	3097.764	3124.3791	3128.6143	3132.206	3214.1029
O=CCC1CC11CCO1	O=CC[C@@H]1C[C@]21CCO2	
InChI=1S/C7H10O2/c8-3-1-6-5-7(6)2-4-9-7/h3,6H,1-2,4-5H2	InChI=1S/C7H10O2/c8-3-1-6-5-7(6)2-4-9-7/h3,6H,1-2,4-5H2/t6-,7+/m1/s1
