19
gdb 1738	2.1192349	2.0077822	1.6107692	2.5874	73.83	-0.22352	0.06183	0.28535	956.3644	0.157185	-422.530898	-422.522931	-422.521987	-422.56264	31.731	
C	-0.0132051303	 0.400702024	 0.0321730861	-0.500555
C	 1.424300423	-0.0381172097	 0.2072501474	 0.208833
C	 1.9425416993	-0.3433450136	 1.6574084891	-0.266062
C	 3.1961641102	 0.4788742665	 1.3654327535	-0.193881
C	 3.7016079286	 0.0867875012	-0.0292379824	 0.062756
O	 3.340063377	-1.1736359727	-0.5518870786	-0.270296
C	 1.9180700138	-1.1404959693	-0.7369557299	-0.116333
C	 2.5702491234	 1.0246147797	 0.0741090015	 0.300584
O	 2.5130224555	 2.2645352421	-0.5224606313	-0.457629
H	-0.26292801	 1.2271418452	 0.706939531	 0.109201
H	-0.2008376269	 0.7375263597	-0.9930899128	 0.127407
H	-0.7070163175	-0.4187972176	 0.2499658885	 0.123074
H	 1.3107878935	 0.1201800356	 2.4202684654	 0.095316
H	 2.0888794356	-1.4006803998	 1.9017852593	 0.101888
H	 3.8520179053	 0.9542162114	 2.0864077096	 0.085841
H	 4.6867650692	 0.4266701621	-0.3243882806	 0.107939
H	 1.6722774606	-0.9020421159	-1.7844257541	 0.0909
H	 1.5197113553	-2.1321923965	-0.4969730287	 0.10382
H	 1.9600676943	 2.8391448175	 0.019089397	 0.287196
190.2823	195.9368	210.0061	266.1779	312.384	350.8743	354.5349	444.3585	488.0742	587.17	610.9472	664.2915	731.0834	818.3935	833.4592	871.9523	914.9488	948.2056	958.9272	989.58	1006.5299	1030.333	1048.6164	1070.3162	1126.577	1134.4751	1168.8474	1215.4554	1230.7239	1250.4849	1257.5035	1287.0716	1296.0558	1322.6681	1389.3468	1411.7495	1475.0434	1493.6512	1495.0654	1503.8228	1511.8863	2974.033	3025.415	3041.8812	3066.876	3088.4588	3095.5362	3097.0904	3172.9914	3200.1852	3788.28
CC12CC3C(OC1)C23O	C[C@@]12C[C@H]3[C@@H](OC1)[C@@]23O	
InChI=1S/C7H10O2/c1-6-2-4-5(9-3-6)7(4,6)8/h4-5,8H,2-3H2,1H3	InChI=1S/C7H10O2/c1-6-2-4-5(9-3-6)7(4,6)8/h4-5,8H,2-3H2,1H3/t4-,5+,6+,7+/m0/s1
