19
gdb 5100	4.3639589	0.9932704	0.9380306	3.0131	76.48	-0.25041	0.05754	0.30795	1304.6504	0.155594	-422.495951	-422.487194	-422.48625	-422.529475	32.962	
O	 1.2683243134	 0.8183108156	-0.2386085015	-0.408415
C	 0.3709185316	-0.123192742	 0.3316612393	-0.180208
C	-0.7733349458	 0.518808818	 1.0505800014	 0.407654
C	-0.7378887873	 1.3287812782	 2.3710843437	-0.406814
C	-2.1718838964	 0.808546394	 2.64560967	 0.381508
C	-3.3305893787	 1.4946355436	 3.2984135237	-0.316705
C	-2.6949496636	 0.2846546257	 3.9500301912	-0.332932
C	-2.1478702958	 0.0583115123	 1.3289035428	-0.147849
O	-1.8824128699	 1.0188734881	 0.2935827553	-0.280333
H	 1.6570474249	 1.3297773221	 0.4783349252	 0.28628
H	-0.0196259136	-0.7141597889	-0.5017493416	 0.124091
H	 0.8926997819	-0.8082374601	 1.0192730984	 0.090955
H	-0.0056509528	 0.9547259133	 3.0933755964	 0.104482
H	-0.6206896558	 2.407919731	 2.2432626066	 0.112509
H	-3.1535841976	 2.4653112204	 3.7498649189	 0.117194
H	-4.3131938488	 1.3834321597	 2.8520888082	 0.119125
H	-2.0928313416	 0.4367344061	 4.8401736615	 0.113986
H	-3.2479975664	-0.649595466	 3.9434936618	 0.115053
H	-2.6681866875	-0.850523791	 1.0449630488	 0.10042
76.1224	96.8736	169.1022	255.2136	260.1792	282.4411	349.3635	383.4287	426.0181	502.0681	615.906	710.1212	771.2919	781.9603	848.8233	887.9465	904.1446	921.8808	939.7957	974.2317	980.2609	1008.4658	1055.467	1061.0673	1074.1702	1079.9116	1136.0743	1169.7429	1185.6285	1204.3557	1220.3939	1241.7208	1285.2645	1370.2935	1396.1406	1402.2176	1455.835	1464.7191	1477.5263	1483.1892	1507.7659	2976.4946	3051.0166	3092.8032	3110.08	3122.8226	3130.2495	3173.8372	3201.4204	3217.6879	3816.4171
OCC12CC3(CC3)C1O2	OC[C@]12CC3(CC3)[C@H]1O2	
InChI=1S/C7H10O2/c8-4-7-3-6(1-2-6)5(7)9-7/h5,8H,1-4H2	InChI=1S/C7H10O2/c8-4-7-3-6(1-2-6)5(7)9-7/h5,8H,1-4H2/t5-,7-/m1/s1
