19
gdb 5636	2.5903381	1.4928618	1.2536284	2.3673	75.66	-0.24784	0.00961	0.25745	1082.4339	0.157431	-422.535208	-422.526859	-422.525915	-422.568322	31.208	
C	 1.4245232666	-0.1817285408	-0.1706889562	-0.239599
O	 0.0276822365	-0.0174461617	-0.0137822778	-0.250283
C	-0.3849537961	 0.6301858149	 1.1907391088	 0.039685
C	 0.0249654141	-0.1303730552	 2.4260141186	-0.086714
C	 0.8240619672	 0.3446372675	 3.3786813202	-0.041582
C	 1.4434145987	 1.7158839707	 3.374356143	-0.298135
C	 0.9298816415	 2.6122889833	 2.2711652189	 0.057886
O	-0.4772294533	 2.8754036145	 2.2720694934	-0.262129
C	 0.058255713	 2.0841682762	 1.2105167847	 0.014801
H	 1.8678931313	-0.7683365626	 0.6447518649	 0.111717
H	 1.568522176	-0.716357501	-1.1125949157	 0.128099
H	 1.9538801094	 0.7803267986	-0.2304152824	 0.103778
H	-1.4805016689	 0.6225928145	 1.1165655697	 0.101851
H	-0.3729225202	-1.1390694293	 2.5013434172	 0.096976
H	 1.0618442471	-0.2807223213	 4.2362213339	 0.094865
H	 1.2772765595	 2.2053944343	 4.3440418828	 0.124485
H	 2.5352419849	 1.6261322235	 3.2768296381	 0.116107
H	 1.5409804273	 3.4887315121	 2.0530925185	 0.091243
H	 0.0499997951	 2.5631914818	 0.2307862594	 0.096951
74.4471	112.9968	181.1755	218.3306	284.9979	347.2663	353.3253	427.0279	516.1711	542.4523	612.5404	724.5925	795.4044	836.971	903.0313	910.5593	929.6424	961.3987	977.2558	1011.9581	1042.2501	1078.3528	1093.8965	1121.0228	1166.357	1184.2622	1205.2129	1221.9135	1237.8024	1280.6943	1349.5098	1357.6677	1371.2511	1379.272	1426.4868	1461.2384	1473.9667	1477.8997	1488.854	1515.2356	1731.207	2992.6009	3005.1885	3022.6065	3030.7766	3046.6996	3099.5618	3112.072	3116.5949	3145.949	3170.0002
COC1C=CCC2OC12	CO[C@H]1C=CC[C@@H]2O[C@H]12	
InChI=1S/C7H10O2/c1-8-5-3-2-4-6-7(5)9-6/h2-3,5-7H,4H2,1H3	InChI=1S/C7H10O2/c1-8-5-3-2-4-6-7(5)9-6/h2-3,5-7H,4H2,1H3/t5-,6-,7+/m0/s1
