19
gdb 6032	3.2448153	1.0779698	0.8623389	2.0508	78.65	-0.22576	-0.02624	0.19951999999999998	1375.5685	0.155485	-422.571711	-422.562504	-422.56156	-422.606722	32.96	
C	 2.7316660855	-0.7643704208	 1.0743251746	-0.385338
C	 1.8519199513	-0.1518707602	-0.0010186758	-0.044193
O	 2.357893097	 1.1485889836	-0.2930355931	-0.261104
C	 1.6033320892	 1.8728036858	-1.2391866999	-0.008335
C	 1.9432294784	 3.3362595729	-1.200282478	-0.092067
C	 2.2901125184	 3.8191902071	-2.3942581731	-0.074217
C	 2.27330481	 2.775948664	-3.4794570483	-0.367204
C	 1.9454658934	 1.4899247361	-2.7075607466	 0.379034
O	 1.9852829617	 0.3694902902	-3.1431550554	-0.301488
H	 2.7331842578	-0.1423185888	 1.9741268656	 0.122199
H	 2.3660672196	-1.7608855971	 1.3398387919	 0.115355
H	 3.7621576481	-0.8572897101	 0.7199906593	 0.128889
H	 1.8486988862	-0.7682905487	-0.9073065	 0.124004
H	 0.8091086085	-0.068086597	 0.3497626837	 0.081945
H	 0.5238507264	 1.7013621018	-1.0709551809	 0.087255
H	 1.8961887108	 3.9017992636	-0.2776961559	 0.109512
H	 2.5583489984	 4.8516582624	-2.5878241776	 0.106881
H	 1.4996300644	 2.9513650837	-4.2393623805	 0.138797
H	 3.219611115	 2.6762896815	-4.0246935999	 0.140073
46.1649	65.9464	112.4876	167.1149	234.9131	264.9003	312.7893	377.7471	448.3193	494.1664	599.9069	646.5971	719.0878	756.4224	788.1962	823.9565	893.8557	962.6966	974.3533	991.7444	1016.5722	1057.265	1103.1343	1128.0168	1144.5674	1158.7561	1165.347	1187.5738	1270.0803	1288.6284	1294.6674	1328.2955	1382.1273	1401.0263	1433.4287	1447.2645	1483.2153	1501.4586	1530.1942	1682.5187	1850.1381	2929.0317	2961.3049	3024.6504	3044.1424	3058.7991	3059.6371	3118.6625	3121.4607	3190.7602	3217.2925
CCOC1C=CCC1=O	CCO[C@H]1C=CCC1=O	
InChI=1S/C7H10O2/c1-2-9-7-5-3-4-6(7)8/h3,5,7H,2,4H2,1H3	InChI=1S/C7H10O2/c1-2-9-7-5-3-4-6(7)8/h3,5,7H,2,4H2,1H3/t7-/m0/s1
