19
gdb 3757	3.1017597	1.2608573	1.1122628	0.8339	78.76	-0.22723	0.01653	0.24375999999999998	1157.	0.157543	-422.542407	-422.53414	-422.533195	-422.575086	31.947	
O	-0.5076464473	 0.3194260986	 0.2737139065	-0.416304
C	-1.8772209172	 0.194534982	 0.5094414932	 0.066828
C	-2.782739498	 0.7358460768	-0.5477281637	-0.358728
C	-2.7039860419	-0.7680823146	-0.3313536962	 0.264039
C	-3.8926052024	-1.4685795565	 0.2971039251	-0.167654
O	-3.5678039727	-2.7998680049	 0.6620881366	-0.248481
C	-3.2356420346	-3.6015766394	-0.4566589821	-0.124332
C	-2.2866992236	-2.9256501639	-1.4096064134	-0.103788
C	-2.0196579021	-1.6215761815	-1.3306738962	-0.125174
H	-0.0796809746	-0.4813086699	 0.5966251281	 0.290495
H	-2.181792063	 0.3156084765	 1.550406175	 0.087732
H	-3.6881795106	 1.2526276707	-0.2457115761	 0.113887
H	-2.3059737516	 1.1323725018	-1.4377365006	 0.124923
H	-4.214119167	-0.9665933032	 1.2153096713	 0.10187
H	-4.7420054452	-1.4609823258	-0.4074034255	 0.089392
H	-2.7831081597	-4.513383168	-0.0488981564	 0.116221
H	-4.1504579146	-3.91619615	-0.9937846601	 0.097103
H	-1.8244634991	-3.5509014089	-2.1684371611	 0.093114
H	-1.3049811648	-1.1532079498	-2.0000990944	 0.098855
84.9324	159.8848	205.2323	258.3213	314.287	332.2356	398.7498	441.9666	462.3211	529.2176	547.5233	686.4383	748.6338	799.0195	855.226	892.2861	919.306	935.5875	981.5413	989.6421	1006.3849	1025.9705	1049.071	1067.5908	1118.6619	1122.3778	1178.7841	1201.0184	1240.0906	1284.2744	1298.2485	1323.3879	1326.5753	1365.7385	1409.1873	1423.2468	1436.6917	1481.0086	1486.509	1498.8762	1710.2077	2926.6066	2958.9336	3049.335	3071.3761	3084.5333	3128.5374	3161.1281	3183.9632	3218.9459	3798.1871
OC1CC11COCC=C1	O[C@H]1C[C@@]21COCC=C2	
InChI=1S/C7H10O2/c8-6-4-7(6)2-1-3-9-5-7/h1-2,6,8H,3-5H2	InChI=1S/C7H10O2/c8-6-4-7(6)2-1-3-9-5-7/h1-2,6,8H,3-5H2/t6-,7+/m0/s1
