19
gdb 3492	1.9721449	1.5973084	1.4228862	1.4247	76.73	-0.23399	-0.02165	0.21234	1074.4353	0.156548	-422.592443	-422.583461	-422.582516	-422.62613	33.499	
C	-1.4137543015	-1.7476364159	 2.4744833435	-0.404459
C	-2.0326006787	-1.320059038	 1.1299150272	-0.041715
C	-2.6374743833	 0.0606056865	 1.2196926282	-0.055288
C	-2.104582605	 1.1526891044	 0.67636034	-0.057127
C	-0.8253108479	 1.1479764837	-0.1223888597	-0.346017
C	-0.0933211707	-0.1804322921	-0.0164252369	 0.36526
O	 1.110455194	-0.2722423255	 0.0464800271	-0.321872
C	-1.0105246646	-1.4067067844	-0.0148892088	 0.015031
O	-1.7453468104	-1.4328892625	-1.2394840375	-0.43993
H	-1.0795412539	-2.7895923673	 2.44070245	 0.118956
H	-0.5528809106	-1.1209716276	 2.7295009687	 0.131122
H	-2.1443497374	-1.6519924632	 3.2831494189	 0.119883
H	-2.8266175479	-2.0344298196	 0.874614891	 0.094445
H	-3.558742753	 0.1421258279	 1.7917784581	 0.089912
H	-2.5978011433	 2.114416059	 0.7913760062	 0.093611
H	-1.0516685925	 1.3304080478	-1.18352513	 0.137547
H	-0.1405534574	 1.9427391256	 0.1902325419	 0.128633
H	-0.3868887305	-2.3032985618	 0.0949664969	 0.080391
H	-1.1221831952	-1.604745207	-1.9534742949	 0.291617
71.5329	88.1616	194.1158	231.7814	244.9205	283.0942	343.1284	390.3837	454.6691	485.2693	522.2102	555.8083	615.4371	707.5229	744.2148	826.1832	919.9895	931.5905	962.9218	976.5872	1004.8693	1028.8184	1048.8702	1107.7821	1131.6416	1146.4451	1182.5113	1239.2322	1249.6765	1302.0227	1321.4853	1334.5245	1375.4687	1394.6933	1403.2124	1426.2011	1439.313	1497.0146	1498.8626	1727.0493	1819.3937	3007.3677	3017.1174	3025.6433	3034.8275	3078.6314	3106.4027	3109.7385	3145.742	3169.2655	3811.5063
CC1C=CCC(=O)C1O	C[C@H]1C=CCC(=O)[C@@H]1O	
InChI=1S/C7H10O2/c1-5-3-2-4-6(8)7(5)9/h2-3,5,7,9H,4H2,1H3	InChI=1S/C7H10O2/c1-5-3-2-4-6(8)7(5)9/h2-3,5,7,9H,4H2,1H3/t5-,7+/m0/s1
