19
gdb 2065	2.6139111	1.8251369	1.3194392	2.3827	74.14	-0.23613	0.08659	0.32272	1009.1747	0.157379	-422.528057	-422.520214	-422.51927	-422.559907	30.944	
C	 0.0420004382	-0.0984513198	-0.3214021853	-0.468014
C	 1.528338181	-0.0100722169	-0.0737402387	 0.4062
O	 2.0103543796	-0.8223129503	 1.0247815251	-0.298627
C	 2.4074526215	-1.1665263233	-0.2991606239	-0.021921
C	 3.8637367964	-0.9771938336	-0.6698473975	-0.126989
O	 4.4311482293	 0.2327195286	-0.2177227314	-0.252157
C	 3.6485723253	 1.3840787947	-0.3328783757	 0.143605
C	 2.790042462	 1.7152685762	-1.5238962521	-0.349708
C	 2.1565851797	 1.3433911513	-0.1816749821	-0.146316
H	-0.5025778009	 0.5161263034	 0.4039811581	 0.126771
H	-0.2068338506	 0.2674399929	-1.3229870163	 0.124149
H	-0.3061281442	-1.1299488633	-0.2243544805	 0.126138
H	 1.9713825584	-2.0900288571	-0.687918125	 0.085687
H	 4.4716981078	-1.7714276708	-0.2236209726	 0.123174
H	 3.9497277459	-1.0745917577	-1.7658260125	 0.096213
H	 4.1802110508	 2.2045778934	 0.135719604	 0.107531
H	 2.7524257599	 2.7475658124	-1.853989866	 0.116111
H	 2.6971817077	 0.9889750078	-2.3239587825	 0.11853
H	 1.6773609422	 2.130881362	 0.3932965749	 0.089622
149.5597	183.156	213.974	261.1765	321.0977	347.1177	410.8662	433.0395	540.7961	629.2273	673.956	735.1368	766.4064	809.4323	820.9969	878.8555	911.0087	965.7048	984.2888	1003.7568	1041.189	1059.1357	1070.4693	1096.2763	1125.4333	1135.3614	1146.4261	1185.4678	1229.6204	1259.4144	1288.8494	1324.9545	1378.752	1398.0164	1410.9994	1429.2685	1467.4935	1483.2896	1489.2352	1496.1422	1509.5257	2961.2986	3034.5235	3067.751	3081.3136	3098.4872	3121.8934	3135.0634	3142.5633	3176.117	3221.0598
CC12OC1COC1CC21	C[C@@]12O[C@@H]1CO[C@H]1C[C@@H]21	
InChI=1S/C7H10O2/c1-7-4-2-5(4)8-3-6(7)9-7/h4-6H,2-3H2,1H3	InChI=1S/C7H10O2/c1-7-4-2-5(4)8-3-6(7)9-7/h4-6H,2-3H2,1H3/t4-,5+,6-,7+/m1/s1
