19
gdb 3154	2.3759258	1.6501713	1.3420002	2.3358	73.78	-0.25215	0.06424	0.31639	1042.7759	0.156936	-422.536509	-422.528357	-422.527412	-422.568688	32.111	
C	-0.0315326572	-0.190873434	 4.372814658	-0.494569
C	-0.6461217022	 0.6925022971	 3.3141249805	 0.323493
C	-2.1353622742	 0.7297141552	 3.0704007263	-0.334509
C	-1.2255706707	 0.1767018391	 2.0010605375	-0.131711
C	-0.7395669462	 1.0551344655	 0.8437116097	 0.082187
O	 0.1333711563	 0.3413778278	-0.0230201969	-0.424659
C	 0.0130900303	 2.2142003388	 1.5031648163	-0.012064
O	-0.755964287	 3.0130878627	 2.4066269454	-0.253116
C	 0.0772897214	 1.9820563605	 2.9570099186	-0.025757
H	-0.0682686604	 0.2836815702	 5.3604188768	 0.12442
H	-0.5645033942	-1.1437183525	 4.4441629715	 0.121531
H	 1.0191076346	-0.4162902257	 4.1529054712	 0.113469
H	-2.7398228106	 0.0054968627	 3.6072731287	 0.106379
H	-2.5999127142	 1.695185933	 2.9161960027	 0.135799
H	-1.2795405514	-0.8862455029	 1.7867063408	 0.089336
H	-1.5539007015	 1.4119260685	 0.2054522529	 0.103983
H	 0.825619225	-0.0515622089	 0.5209439768	 0.280232
H	 0.7655772725	 2.7411494654	 0.9201713092	 0.101301
H	 0.8916304298	 2.3325928873	 3.586382014	 0.094256
124.5396	194.2341	208.3034	287.5508	308.6661	334.427	370.671	381.3055	505.7801	524.255	583.273	722.0723	759.2346	811.1576	832.3978	873.1866	876.8426	936.7146	965.3048	987.8463	1029.15	1038.0206	1064.952	1079.0075	1093.9264	1111.9769	1124.1512	1133.6011	1237.7765	1245.9022	1260.3899	1278.276	1297.5168	1322.8762	1389.5627	1415.9346	1422.4099	1424.829	1481.8445	1489.2688	1501.21	3020.783	3070.6315	3077.1849	3102.1044	3134.7746	3136.761	3149.598	3158.6095	3232.2894	3794.5612
CC12CC1C(O)C1OC21	C[C@]12C[C@H]1[C@H](O)[C@H]1O[C@@H]21	
InChI=1S/C7H10O2/c1-7-2-3(7)4(8)5-6(7)9-5/h3-6,8H,2H2,1H3	InChI=1S/C7H10O2/c1-7-2-3(7)4(8)5-6(7)9-5/h3-6,8H,2H2,1H3/t3-,4-,5+,6+,7-/m0/s1
