19
gdb 1917	3.0375463	1.3443847	1.2777043	1.7103	76.28	-0.24435	-0.00351	0.24084	1101.4687	0.154517	-422.55833	-422.549234	-422.54829	-422.591329	34.786	
C	 4.4823653694	 2.3694813739	 0.63688919	-0.494831
C	 3.2740319385	 1.5029406201	 0.8440731211	 0.384197
O	 2.0294484795	 2.1966437858	 1.158228335	-0.301446
C	 2.1002171466	 1.4225269989	-0.0369075572	-0.051718
C	 1.4772915035	 0.02662868	 0.0764752646	 0.31363
C	 0.0015299747	 0.058235678	 0.4800839747	-0.441319
O	 1.647265833	-0.565919218	-1.2145971439	-0.471894
C	 2.3657170612	-0.6284582141	 1.1287001439	-0.132013
C	 3.3529744764	 0.1718069169	 1.5320450819	-0.140421
H	 4.904327074	 2.6845442525	 1.5977042161	 0.1274
H	 5.2591142674	 1.8243760223	 0.0905351729	 0.129604
H	 4.2181209984	 3.2659375836	 0.0712835114	 0.133705
H	 2.005101178	 1.9574437786	-0.9788126139	 0.097523
H	-0.1285363873	 0.630714101	 1.4013960508	 0.143756
H	-0.5939121191	 0.5177425102	-0.3143343831	 0.124128
H	-0.3769496307	-0.9571147768	 0.6491611121	 0.102474
H	 1.2791743865	-1.4552767402	-1.1842730937	 0.278333
H	 2.1559846909	-1.6217266272	 1.5138231822	 0.09572
H	 4.1077406989	-0.0660535955	 2.272949655	 0.103173
123.415	181.05	193.4194	198.9698	247.0685	267.7931	324.4007	351.7863	400.9417	419.5758	497.7986	575.0004	617.7986	648.4189	755.1051	783.4194	840.4546	851.0331	921.3898	941.896	953.6943	966.2226	1036.9264	1048.4967	1092.1475	1099.6216	1136.0356	1150.0275	1186.9775	1252.8685	1278.6515	1359.2924	1378.2339	1394.7742	1410.0468	1451.1104	1484.4457	1490.811	1494.4346	1497.3652	1666.6175	3029.3899	3036.0423	3097.5838	3099.1385	3127.3756	3133.0719	3147.3998	3173.2364	3204.3324	3812.7303
CC12OC1C(C)(O)C=C2	C[C@@]12O[C@@H]1[C@@](C)(O)C=C2	
InChI=1S/C7H10O2/c1-6(8)3-4-7(2)5(6)9-7/h3-5,8H,1-2H3	InChI=1S/C7H10O2/c1-6(8)3-4-7(2)5(6)9-7/h3-5,8H,1-2H3/t5-,6+,7+/m1/s1
