19
gdb 1339	2.749763	1.2676441	1.0236127	2.7845	76.13	-0.25182	-0.02648	0.22533999999999998	1204.3193	0.156015	-422.51206	-422.503363	-422.502419	-422.546362	31.926	
O	 0.5046442438	 10.0740318502	-3.0248398997	-0.438595
C	 0.2169433429	 8.8101854442	-2.4408933478	-0.030744
C	 1.561967109	 8.1188109183	-2.2576398267	 0.154756
O	 1.68935471	 7.0177182109	-1.7894199282	-0.248486
C	-0.6997710654	 7.972521537	-3.3295726612	 0.047346
C	-2.2464728539	 8.2278724627	-3.3778334126	-0.08041
C	-2.3587083187	 6.8135748	-4.0182025304	-0.221111
C	-1.3678170788	 6.6552660253	-2.825440092	-0.048106
C	-2.3668703154	 7.5186850567	-1.9980497006	-0.22567
H	-0.3312287801	 10.5070200879	-3.2222858001	 0.290107
H	-0.2085811176	 8.9311338662	-1.4333555295	 0.095234
H	 2.4275994109	 8.7281550921	-2.5994896385	 0.094355
H	-0.2361784515	 7.8905696262	-4.319700558	 0.073347
H	-2.7577247977	 9.1365686922	-3.7040562411	 0.065753
H	-3.3247486601	 6.312647371	-3.9170115414	 0.093469
H	-1.9445947173	 6.6925195058	-5.0228175485	 0.093324
H	-0.8517703576	 5.751567417	-2.5062734472	 0.094672
H	-3.3341012697	 7.0571377442	-1.7828693419	 0.094575
H	-1.9883045427	 8.036614652	-1.1155623546	 0.096186
50.0874	65.632	138.4718	230.3391	233.2193	262.5321	391.5804	439.2798	536.6698	572.9093	593.0032	772.3163	806.8678	849.8682	892.2844	901.0388	905.9337	966.0271	1006.3468	1008.247	1022.0423	1032.9185	1086.8602	1101.0669	1108.452	1114.4505	1142.8933	1157.2434	1189.2519	1214.8507	1226.3225	1243.2195	1248.545	1265.236	1297.075	1368.2852	1405.5027	1425.8157	1505.7839	1544.3603	1835.626	2897.7642	2990.2663	3040.6354	3051.6467	3063.725	3083.9182	3118.5375	3124.6404	3134.7083	3832.8855
OC(C=O)C1C2CC1C2	O[C@H](C=O)[C@@H]1[C@H]2C[C@@H]1C2	
InChI=1S/C7H10O2/c8-3-6(9)7-4-1-5(7)2-4/h3-7,9H,1-2H2	InChI=1S/C7H10O2/c8-3-6(9)7-4-1-5(7)2-4/h3-7,9H,1-2H2/t4-,5+,6-,7-/m1/s1
