19
gdb 975	6.7543129	0.6711259	0.6518943	3.5685	77.36	-0.24287	-0.01852	0.22435	1694.3193	0.155318	-422.520237	-422.51135	-422.510406	-422.555087	31.849	
O	 0.3954701753	-1.0334023632	-0.1581022499	-0.238295
C	 0.4474016283	 0.1413478927	 0.0999923776	 0.157146
C	-0.3042689408	 0.8219652777	 1.2181397486	-0.274581
C	-1.1672496228	 1.9872367351	 0.7046634564	-0.218732
C	-1.7604008251	 2.7954821078	 1.8469221896	 0.131195
O	-0.7049359375	 3.4112580034	 2.6503693552	-0.302669
C	-1.1419418578	 4.7115714784	 2.2442158898	 0.110589
C	-2.530433069	 4.9833235019	 2.7268488413	-0.304382
C	-2.3163458761	 4.1671770124	 1.4675375987	-0.138702
H	 1.0834158431	 0.8314177733	-0.5050395178	 0.068769
H	-0.9026719525	 0.0741790956	 1.7465752608	 0.119207
H	 0.4346353277	 1.2358305	 1.9182457324	 0.142491
H	-0.5613592566	 2.6549330232	 0.079456466	 0.107837
H	-1.9845659311	 1.6083995643	 0.0775868322	 0.110994
H	-2.4079164073	 2.1664779705	 2.4727009045	 0.08431
H	-0.3866471023	 5.457139242	 2.0250200888	 0.106161
H	-2.8811994592	 4.5112865368	 3.6405591558	 0.118763
H	-2.8989342862	 5.9901798034	 2.5553588006	 0.118109
H	-2.7184443398	 4.4381303148	 0.5004414994	 0.10179
52.4523	65.7053	109.2609	135.7511	220.1611	293.2196	333.6964	467.4455	511.7327	528.2306	743.0303	760.1762	794.3646	840.1374	861.7335	921.5774	930.7402	965.6289	984.8245	1008.5639	1038.2769	1046.0821	1055.3864	1080.8415	1087.9794	1094.9336	1147.3429	1202.4411	1207.3932	1230.6407	1260.7898	1295.6081	1318.4859	1335.7499	1374.2136	1404.2444	1432.6584	1463.9865	1473.175	1484.0252	1836.5068	2845.3801	3016.2177	3021.0323	3029.1906	3066.0034	3102.7561	3115.49	3181.1241	3199.8058	3210.8235
O=CCCC1OC2CC12	O=CCC[C@H]1O[C@@H]2C[C@H]12	
InChI=1S/C7H10O2/c8-3-1-2-6-5-4-7(5)9-6/h3,5-7H,1-2,4H2	InChI=1S/C7H10O2/c8-3-1-2-6-5-4-7(5)9-6/h3,5-7H,1-2,4H2/t5-,6-,7-/m1/s1
