19
gdb 2216	2.1351439	2.0138443	1.7481931	0.5145	73.98	-0.23433	0.07576	0.31009	933.5761	0.157403	-422.535321	-422.527615	-422.526671	-422.566813	31.213	
C	-0.080722182	 0.012758502	 0.1408679488	-0.513141
C	 1.4103049642	-0.0140004904	 0.015401901	 0.384444
O	 2.1453042159	 0.856742285	 0.8961931104	-0.338785
C	 3.2823715681	 0.5795291288	 0.0247456466	-0.020858
C	 3.5908285353	-0.8825703358	 0.3865454661	-0.207768
C	 2.2347627141	-1.3898030254	-0.1452706377	-0.128799
C	 2.357713078	-1.0783323359	-1.6651525938	-0.294053
C	 2.2947786738	 0.3751357285	-1.2071553486	 0.376674
O	 2.0598535083	 1.3975731892	-2.107955993	-0.485247
H	-0.3890717477	-0.3134054077	 1.1399496394	 0.132325
H	-0.4685090674	 1.0229015706	-0.0238761382	 0.123972
H	-0.5409141915	-0.6568867285	-0.5918386432	 0.127949
H	 4.0603333	 1.342565523	 0.0544111791	 0.076102
H	 4.4420259252	-1.3174703553	-0.1444696817	 0.097336
H	 3.731402871	-0.9901551456	 1.4642497109	 0.106312
H	 1.843079253	-2.3402954851	 0.2101598523	 0.070633
H	 3.2464585008	-1.4410914757	-2.1886164259	 0.097295
H	 1.4589680908	-1.3397478835	-2.2301401589	 0.10709
H	 1.94887507	 2.2154459917	-1.6085990035	 0.288518
172.3302	186.3205	258.092	276.9883	329.2716	354.8709	461.2535	495.3737	527.6227	610.6224	657.6512	702.6975	726.4416	793.3012	871.7458	888.4838	893.3391	919.1891	931.1481	962.6371	1002.1917	1040.0799	1046.2761	1084.7652	1115.1276	1131.7441	1145.853	1169.0617	1196.1854	1230.823	1243.4307	1283.8086	1300.7622	1312.1859	1364.3339	1398.2479	1416.2428	1476.0511	1481.2099	1492.6972	1507.1603	3035.6611	3056.9118	3062.6462	3102.2155	3111.7599	3114.7969	3118.899	3122.7445	3141.8417	3790.3032
CC12OC3CC1CC23O	C[C@@]12O[C@H]3C[C@@H]1C[C@@]23O	
InChI=1S/C7H10O2/c1-6-4-2-5(9-6)7(6,8)3-4/h4-5,8H,2-3H2,1H3	InChI=1S/C7H10O2/c1-6-4-2-5(9-6)7(6,8)3-4/h4-5,8H,2-3H2,1H3/t4-,5+,6-,7+/m1/s1
