19
gdb 5451	4.794997	1.0983967	1.0221436	0.6527	75.68	-0.22244	0.08222	0.30466	1230.7003	0.15538	-422.478305	-422.469766	-422.468822	-422.51134	31.996	
C	 1.4516500818	 0.064199376	-0.081425845	-0.238471
O	 0.0761599112	-0.1528830567	 0.1500059714	-0.251098
C	-0.4446739906	 0.6428943786	 1.1853000268	 0.152916
C	-1.9125410192	 0.3177030122	 1.4125555338	-0.208828
C	-1.5623804671	-0.7640872832	 2.4414501412	-0.183298
C	-0.2330322321	 0.05198162	 2.6168420667	 0.011002
O	-0.8983755935	 1.0217422907	 3.4685733792	-0.328091
C	-2.1341392905	 0.5249022059	 2.921932274	 0.470347
C	-3.4177725778	 0.903164349	 3.5763887002	-0.505305
H	 2.0705801494	-0.2004975171	 0.7887693826	 0.105677
H	 1.7405260818	-0.5712941455	-0.9217963846	 0.128453
H	 1.6575470336	 1.1138853045	-0.3414013241	 0.108649
H	-0.1497410147	 1.6963132081	 1.0619583088	 0.065261
H	-2.7170621983	 0.3281453485	 0.6884085815	 0.09303
H	-1.8441955188	-1.802315528	 2.5435093697	 0.099683
H	 0.7306703953	-0.2880829416	 2.9901616985	 0.084916
H	-3.4105691764	 0.6218081989	 4.6339454255	 0.133053
H	-3.585990692	 1.9831085163	 3.5076209654	 0.133997
H	-4.2550286621	 0.3956313537	 3.0882514883	 0.128103
96.0607	143.7832	164.9003	196.7422	231.9797	300.8	310.298	419.907	508.9435	552.6678	643.3416	775.9117	803.3038	810.6661	859.0417	892.3757	916.5798	928.7723	969.666	982.89	1000.0487	1056.2471	1078.0655	1104.6756	1136.8667	1146.6824	1148.9242	1182.9016	1186.4665	1220.7641	1255.7219	1278.7134	1286.6438	1377.4818	1400.3248	1461.2674	1473.5147	1481.1778	1489.0094	1501.1321	1509.2225	2978.0785	2990.1357	3026.7646	3036.7477	3103.4425	3116.0973	3116.9466	3144.6215	3200.2245	3216.744
COC1C2C3C1OC23C	CO[C@H]1[C@H]2[C@H]3[C@@H]1O[C@@]23C	
InChI=1S/C7H10O2/c1-7-3-4(7)6(9-7)5(3)8-2/h3-6H,1-2H3	InChI=1S/C7H10O2/c1-7-3-4(7)6(9-7)5(3)8-2/h3-6H,1-2H3/t3-,4+,5+,6+,7+/m1/s1
