19
gdb 2378	3.2808607	1.1293722	0.9565874	2.5655	76.62	-0.24013	0.07068	0.31081000000000003	1267.1324	0.15634	-422.498847	-422.490388	-422.489444	-422.532122	32.101	
O	-0.800679224	 0.472032362	 0.5581167921	-0.453931
C	-2.0843284211	-0.0026689257	 0.3585552613	 0.381172
C	-3.3682352165	 0.7618979628	 0.6897868764	-0.296838
C	-4.0644160077	-0.6046126415	 1.0133428312	-0.23705
C	-2.7550742849	-1.3392108117	 0.7117888207	-0.150301
C	-2.325877506	-1.0201725968	-0.7137029017	-0.071651
C	-1.1353924358	-1.7550157126	-1.2334077368	 0.082369
C	-0.7831490625	-1.7519919614	-2.6575570733	-0.18807
O	-1.4047718852	-2.8933268816	-2.0630243618	-0.2477
H	-0.7081753355	 0.7122368149	 1.4868636192	 0.285579
H	-3.2591730548	 1.3813305428	 1.5854359593	 0.096682
H	-3.7931826387	 1.3769355705	-0.1102263999	 0.10122
H	-4.3783156352	-0.6789113354	 2.0566431703	 0.104368
H	-4.9114659043	-0.8708846594	 0.3731980288	 0.10374
H	-2.3711199031	-2.2143027957	 1.2224321839	 0.093645
H	-3.0952089483	-0.8424009407	-1.4660314692	 0.078531
H	-0.3310574403	-1.9053889537	-0.5145565544	 0.096452
H	-1.4025624233	-1.196118527	-3.3609562938	 0.10871
H	 0.2546942569	-1.8845525198	-2.9607800423	 0.113073
66.9183	147.5266	155.815	226.0624	302.3943	325.6904	385.2227	422.8851	447.8072	489.7276	679.9279	710.8802	786.6083	848.0166	854.8253	885.4753	932.8346	941.9913	966.6034	985.0289	997.3756	1066.0558	1082.8381	1093.9668	1103.2484	1153.0117	1166.412	1181.8945	1194.198	1212.9618	1223.073	1247.3597	1277.7132	1293.0672	1303.8295	1326.0011	1427.5831	1476.2438	1483.1269	1506.9719	1534.3544	3040.5264	3052.0121	3078.3982	3087.056	3093.901	3110.8822	3122.325	3164.4188	3186.0552	3793.0605
OC12CCC1C2C1CO1	O[C@]12CC[C@H]1[C@@H]2[C@@H]1CO1	
InChI=1S/C7H10O2/c8-7-2-1-4(7)6(7)5-3-9-5/h4-6,8H,1-3H2	InChI=1S/C7H10O2/c8-7-2-1-4(7)6(7)5-3-9-5/h4-6,8H,1-3H2/t4-,5-,6+,7+/m0/s1
