19
gdb 3181	2.7447496	1.8400279	1.4242706	1.9017	73.54	-0.25557	0.07778	0.33335000000000004	961.8481	0.158846	-422.521122	-422.513858	-422.512914	-422.552381	30.146	
O	 2.2112559113	 0.9338562001	 2.6495867743	-0.427573
C	 1.6277255938	 1.5827319873	 1.5333153524	 0.066081
C	 2.6619903565	 2.0570032778	 0.4901163686	-0.060899
C	 4.10026527	 1.6003219761	 0.5733031944	-0.321904
C	 3.1595442816	 0.9375085534	-0.3840589935	 0.09762
O	 2.6427047627	-0.3226145251	-0.0116144445	-0.272552
C	 1.233826717	-0.3144893446	-0.1051296386	 0.09762
C	 0.4664396509	-0.7621971577	 1.0996498376	-0.321906
C	 0.5926696816	 0.7116412733	 0.7898475161	-0.060896
H	 2.6701370114	 0.1536715115	 2.3160340055	 0.285273
H	 1.1220766274	 2.4544078656	 1.9549311012	 0.091416
H	 2.4573118321	 3.022712802	 0.0399417488	 0.088867
H	 4.8637219014	 2.2470332202	 0.1545022329	 0.115549
H	 4.4107199627	 1.0533551868	 1.4558485352	 0.122373
H	 3.2924832506	 1.0676444353	-1.4562253656	 0.08707
H	 0.8502429641	-0.5201690765	-1.1024801132	 0.087071
H	-0.4942897189	-1.2364509579	 0.9305984707	 0.115549
H	 1.0165490774	-1.153363572	 1.9474772718	 0.122372
H	-0.2885931737	 1.2374707942	 0.4376758859	 0.088867
114.8299	252.0638	268.9174	366.7259	400.8389	477.5741	492.8774	518.6653	568.6677	601.8433	712.5367	803.4526	806.841	807.3281	818.0834	865.1944	912.6042	965.4209	979.9556	1004.0995	1027.6663	1047.3389	1051.8111	1076.4029	1080.1173	1113.5218	1116.8036	1137.3319	1160.2294	1162.043	1209.9369	1210.973	1279.393	1284.7054	1326.8218	1368.4855	1375.4452	1409.889	1443.3478	1481.8667	1492.0389	3081.2531	3117.431	3122.1591	3139.3281	3139.666	3160.2791	3163.8069	3225.9637	3226.3229	3787.3372
OC1C2CC2OC2CC12	O[C@H]1[C@H]2C[C@H]2O[C@H]2C[C@@H]12	
InChI=1S/C7H10O2/c8-7-3-1-5(3)9-6-2-4(6)7/h3-8H,1-2H2	InChI=1S/C7H10O2/c8-7-3-1-5(3)9-6-2-4(6)7/h3-8H,1-2H2/t3-,4+,5+,6-,7-
