19
gdb 1602	3.1299192	1.2722689	1.1796987	2.8401	76.81	-0.23885	-0.02112	0.21773	1125.7837	0.156448	-422.557489	-422.548784	-422.54784	-422.59095	31.919	
C	-0.3374985106	-0.3105307333	 0.1874312066	-0.502292
C	 1.1510970594	-0.0614346175	 0.2665577493	 0.180877
C	 1.8986762709	-0.7456072768	 1.3484560644	 0.086599
O	 3.0621555667	-0.539627683	 1.6157142053	-0.281307
C	 1.7994336214	 1.2522192395	-0.1957303103	-0.109505
C	 0.9448561632	 2.2149094994	-1.0154062003	-0.279843
C	 0.8977263163	 1.5428515778	-2.408227573	-0.071068
O	 1.2749470199	 0.1659097602	-2.2236661323	-0.25577
C	 1.9924290866	 0.0515589447	-1.0391297129	 0.076434
H	-0.9114655703	 0.4038468064	 0.7877165138	 0.123302
H	-0.6907186014	-0.2577218678	-0.8450768281	 0.140762
H	-0.570643419	-1.3142985527	 0.5589262106	 0.123694
H	 1.3139047966	-1.5130621366	 1.9040270055	 0.071439
H	 2.601100066	 1.620128383	 0.4330439131	 0.11875
H	-0.0558499062	 2.348575487	-0.5941433774	 0.114977
H	 1.4129642322	 3.2009275794	-1.0639060928	 0.116942
H	-0.0948677274	 1.5570565445	-2.8658838554	 0.115173
H	 1.6056918705	 2.0164058026	-3.1016465293	 0.109139
H	 2.9180010051	-0.5099558766	-1.1014553568	 0.121699
88.0714	120.5823	160.7687	196.6336	216.6809	249.8834	283.4522	425.4829	464.6185	637.527	656.2052	716.3441	734.3082	780.123	851.9416	906.0795	936.401	957.4658	967.1029	1014.8665	1035.4338	1053.7046	1072.6065	1101.8323	1139.2405	1157.9549	1206.6248	1235.2314	1245.3152	1284.1399	1294.7472	1307.998	1375.7929	1399.8118	1416.1143	1435.3936	1490.3724	1498.5613	1505.7601	1524.531	1788.713	2875.7841	3013.6916	3033.0977	3058.5502	3089.9346	3090.3535	3107.8667	3119.6603	3176.3494	3190.6705
CC1(C=O)C2CCOC12	C[C@]1(C=O)[C@@H]2CCO[C@H]12	
InChI=1S/C7H10O2/c1-7(4-8)5-2-3-9-6(5)7/h4-6H,2-3H2,1H3	InChI=1S/C7H10O2/c1-7(4-8)5-2-3-9-6(5)7/h4-6H,2-3H2,1H3/t5-,6+,7+/m1/s1
