19
gdb 2869	2.3894881	2.1603453	1.5876964	1.5073	72.38	-0.23504	0.08329	0.31833	928.649	0.157464	-422.564027	-422.556395	-422.555451	-422.595571	30.595	
C	-0.3106393635	-0.6163358201	-0.0527165397	-0.415042
C	 1.0643829672	-1.2743550058	-0.1030468247	-0.014256
C	 1.9747966212	-0.9684062597	 1.0804400004	-0.182871
C	 2.7282724248	 0.2886201573	 0.6522966461	 0.036805
O	 2.2942005422	 0.6404251209	-0.6454983022	-0.279281
C	 2.0499064413	-0.6767809457	-1.1532960417	 0.438966
C	 1.7243096065	-0.6741198813	-2.6175710761	-0.496088
O	 3.2649751674	-1.3805108282	-0.8709268674	-0.280859
C	 3.3791461999	-1.0623520239	 0.5015534908	 0.025321
H	-0.8881086648	-0.9855367925	 0.8006850094	 0.113922
H	-0.2161804376	 0.4685588296	 0.0425672084	 0.132744
H	-0.8881063825	-0.8331322982	-0.9576862833	 0.113598
H	 0.9822890953	-2.3529847613	-0.2704313742	 0.082308
H	 1.7323308135	-1.198997249	 2.1085722217	 0.09328
H	 3.0459979012	 1.109465832	 1.2777996085	 0.11027
H	 1.5833579239	-1.6986530943	-2.9697923712	 0.132986
H	 0.8087046115	-0.1074447918	-2.8002419339	 0.135173
H	 2.5419056254	-0.2158204852	-3.1780186199	 0.142259
H	 4.2692579072	-1.4262679529	 0.9929193191	 0.110764
162.0002	197.5724	213.8713	232.5344	319.2742	343.1832	520.7203	589.4543	618.85	645.7523	724.1009	741.7261	781.463	789.6997	803.1947	836.5597	879.9465	934.205	993.8073	1004.4842	1015.9852	1038.0916	1045.0276	1076.1073	1079.22	1098.7324	1120.0382	1145.917	1165.3618	1220.8199	1274.3161	1298.3739	1341.7519	1363.1137	1376.5615	1406.7153	1434.3584	1480.0825	1487.5917	1498.3968	1501.594	3037.2004	3060.3213	3063.9204	3097.7474	3123.0708	3138.6185	3141.5946	3212.673	3228.6133	3238.5498
CC1C2C3OC1(C)OC23	C[C@@H]1[C@@H]2[C@@H]3O[C@@]1(C)O[C@H]23	
InChI=1S/C7H10O2/c1-3-4-5-6(4)9-7(3,2)8-5/h3-6H,1-2H3	InChI=1S/C7H10O2/c1-3-4-5-6(4)9-7(3,2)8-5/h3-6H,1-2H3/t3-,4-,5+,6-,7+/m1/s1
