19
gdb 3146	2.7213636	1.3706976	1.1093486	2.9505	76.08	-0.2445	-0.02714	0.21736	1160.9591	0.155891	-422.545999	-422.537212	-422.536268	-422.580013	32.854	
C	 4.1986539123	 0.910592041	-1.3889435019	-0.488033
C	 3.2453876547	 1.7752212317	-0.5944284528	 0.410202
O	 3.4738510897	 2.9553438624	-0.39591281	-0.344684
C	 1.9955551426	 1.1158505964	-0.0578568859	-0.181957
C	 0.6985944532	 1.8464111819	-0.4716781222	-0.023097
C	-0.4799683938	 1.2391057392	 0.2325339798	-0.309083
C	 0.3889500447	 2.2170857212	 0.9725911774	-0.076692
C	 1.6685578608	 1.5198255755	 1.4590168161	 0.137597
O	 2.6028282752	 2.3281017468	 2.1008298516	-0.430133
H	 4.5606824912	 0.0884325543	-0.7600615918	 0.148482
H	 3.6790469716	 0.4507184635	-2.2374328811	 0.142646
H	 5.0420434773	 1.503913547	-1.7437217951	 0.14292
H	 2.005115139	 0.0419373519	-0.2698038238	 0.069529
H	 0.5976539112	 2.4432043133	-1.3698624277	 0.094947
H	-1.4497045342	 1.6166629213	-0.0754355313	 0.118423
H	-0.4789483219	 0.1846271978	 0.502141955	 0.106864
H	 0.0119746838	 3.144837665	 1.3852334452	 0.09539
H	 1.5048079387	 0.6546509611	 2.1108880155	 0.089126
H	 2.8877928538	 3.0000196886	 1.460540223	 0.297552
37.8315	117.3861	158.4972	208.1804	248.361	308.195	366.5599	410.4392	479.7613	579.1407	595.7234	627.1116	735.6306	772.4403	798.0568	871.287	904.4563	933.2273	945.1985	977.623	1007.5994	1022.7448	1052.9606	1068.8068	1078.3842	1087.881	1146.9268	1184.0418	1193.6836	1202.3404	1241.5709	1280.1386	1317.9503	1343.104	1365.3054	1387.4002	1459.4163	1464.4513	1472.7273	1491.0216	1771.032	3032.1992	3043.0283	3056.0078	3092.2869	3102.1906	3152.9838	3181.1141	3189.8123	3202.3314	3675.6079
CC(=O)C1C2CC2C1O	CC(=O)[C@@H]1[C@H]2C[C@H]2[C@@H]1O	
InChI=1S/C7H10O2/c1-3(8)6-4-2-5(4)7(6)9/h4-7,9H,2H2,1H3	InChI=1S/C7H10O2/c1-3(8)6-4-2-5(4)7(6)9/h4-7,9H,2H2,1H3/t4-,5+,6+,7-/m0/s1
