19
gdb 1108	3.7902684	1.0079316	0.9779313	2.8877	77.32	-0.23338	-0.00882	0.22456	1298.0503	0.156736	-422.567122	-422.558456	-422.557512	-422.600956	31.707	
C	 4.8755668144	 0.9013207358	-6.0112407665	-0.486398
C	 3.5431771451	 0.7212240878	-5.3081013178	 0.374999
O	 2.484656747	 0.8032909398	-5.9019429143	-0.333088
C	 3.594111982	 0.4090186654	-3.8567546218	-0.205128
C	 2.3435715937	 0.728439154	-3.0325265239	-0.077612
C	 2.5109283757	 0.8040189846	-1.5236395819	-0.262023
C	 3.2329355664	-0.5221170702	-1.1884987245	-0.091043
O	 2.9529167956	-1.4311025257	-2.261010101	-0.255437
C	 2.6119305925	-0.6838498049	-3.3850645715	 0.132548
H	 5.5011096278	 0.0117131852	-5.8752358748	 0.140536
H	 4.713395857	 1.0807375585	-7.0745866153	 0.1407
H	 5.4231128814	 1.7445391026	-5.5742533641	 0.137838
H	 4.5647904712	 0.4454936457	-3.3738253711	 0.088452
H	 1.5714487341	 1.2944582314	-3.538645755	 0.117921
H	 3.0793009743	 1.6724470906	-1.1788144969	 0.111143
H	 1.5209058684	 0.8443267833	-1.0580248223	 0.117997
H	 4.3175101018	-0.3686592438	-1.1106212235	 0.105013
H	 2.8911098928	-0.9852427524	-0.2593936032	 0.116571
H	 2.0687978488	-1.2431745177	-4.1360457707	 0.127012
64.8604	125.0313	141.0851	157.6843	209.9636	297.8164	337.7512	400.7004	585.438	590.0476	665.8982	711.3252	820.7288	855.8752	876.2206	890.0446	925.9558	946.4539	964.6495	985.0126	1009.4824	1039.4791	1054.0811	1079.2279	1128.4144	1147.2044	1190.2274	1200.1298	1217.5053	1239.2985	1289.591	1296.5774	1341.3878	1379.1292	1391.8734	1421.1987	1464.044	1475.4681	1496.1318	1525.945	1776.5584	3012.4699	3033.4154	3051.8073	3088.3435	3093.3435	3101.1675	3152.2737	3167.6762	3195.8659	3206.7747
CC(=O)C1C2CCOC12	CC(=O)[C@H]1[C@@H]2CCO[C@H]12	
InChI=1S/C7H10O2/c1-4(8)6-5-2-3-9-7(5)6/h5-7H,2-3H2,1H3	InChI=1S/C7H10O2/c1-4(8)6-5-2-3-9-7(5)6/h5-7H,2-3H2,1H3/t5-,6-,7-/m0/s1
