19
gdb 2420	3.1707301	1.5454146	1.3490948	1.7793	74.32	-0.23578	0.06442	0.3002	1015.3354	0.156699	-422.534952	-422.526968	-422.526024	-422.566656	32.017	
C	-0.0578484509	-0.0026620653	-0.0960584016	-0.477022
C	 1.4478540504	 0.0028582078	-0.0315811096	 0.40799
C	 2.152555277	-0.1622530482	 1.3645101353	-0.285331
C	 3.1451037763	 0.9132751267	 0.9293349049	-0.146695
C	 2.2612202362	 1.3058488391	-0.2552929375	-0.176375
C	 3.5896310157	 0.6743458406	-0.5077758722	 0.377244
O	 4.6135491962	 1.4675299737	-1.0160207237	-0.474192
C	 3.356023584	-0.7079653354	-1.1179431046	-0.158988
O	 1.9603336339	-0.9583081373	-0.9614312448	-0.297804
H	-0.4773997636	 0.7345593328	 0.5937756816	 0.117875
H	-0.3964627065	 0.2320643248	-1.1097250079	 0.126999
H	-0.4445622709	-0.9905434344	 0.1732161445	 0.127496
H	 1.5140757471	 0.1880687749	 2.1807929792	 0.101673
H	 2.5234328428	-1.1656749985	 1.5991760304	 0.093791
H	 3.7233317706	 1.5709870483	 1.5685288343	 0.084451
H	 1.9435220506	 2.2682928926	-0.6326564056	 0.094462
H	 5.4357989623	 1.2100007553	-0.5857507853	 0.287338
H	 3.6090002521	-0.6938932154	-2.1845960078	 0.10939
H	 3.9458539866	-1.4993813521	-0.6321198495	 0.087698
198.41	207.7257	219.3154	270.0353	300.0557	344.0892	393.5674	417.8624	464.3451	567.7571	607.7054	658.5859	730.443	814.8325	852.5709	859.5546	899.6519	910.8311	955.9093	985.4779	988.6994	1007.8196	1054.6296	1075.0634	1100.7015	1138.0564	1158.4716	1181.4439	1204.1193	1229.2322	1240.3684	1284.6116	1301.3945	1340.7598	1361.7865	1415.6454	1439.8342	1481.6195	1485.1787	1493.4374	1523.8345	2989.3945	3037.6195	3041.9055	3052.3303	3093.8323	3111.8819	3121.1804	3175.5466	3210.7461	3801.9843
CC12CC3C1C3(O)CO2	C[C@]12C[C@@H]3[C@H]1[C@]3(O)CO2	
InChI=1S/C7H10O2/c1-6-2-4-5(6)7(4,8)3-9-6/h4-5,8H,2-3H2,1H3	InChI=1S/C7H10O2/c1-6-2-4-5(6)7(4,8)3-9-6/h4-5,8H,2-3H2,1H3/t4-,5-,6+,7+/m1/s1
