19
gdb 535	3.1965345	1.6432056	1.3367744	2.1598	74.2	-0.24349	0.06487	0.30836	996.4676	0.159065	-422.526895	-422.519721	-422.518777	-422.558364	28.452	
C	-1.3055096042	 3.2744568116	 0.503116555	-0.236459
C	-1.6342911101	 1.7894701855	 0.1316804641	-0.339233
C	-0.1267843797	 1.4736252707	 0.1341264557	 0.295845
C	 0.5528690971	 0.221210446	 0.6415895594	-0.196097
O	 1.9101583474	 0.3535775722	 0.2298960345	-0.252317
C	 1.8986032105	 0.9425323037	-1.0692601447	-0.103643
C	 0.7159874329	 1.910391417	-1.0952708256	 0.063429
O	 0.9934073322	 3.2087511516	-0.5207783691	-0.308046
C	 0.1987246547	 2.903739995	 0.6405085485	 0.080391
H	-1.4831739356	 4.0048632302	-0.2887752471	 0.115359
H	-1.7778586536	 3.6259932874	 1.4232442797	 0.104929
H	-2.1715540619	 1.2689736961	 0.9298530402	 0.107811
H	-2.167614323	 1.6155193091	-0.806798832	 0.102582
H	 0.5454989402	 0.1183344708	 1.7307497972	 0.111489
H	 0.0870030688	-0.6802246917	 0.2049145024	 0.088447
H	 2.8583471465	 1.4398308986	-1.2290472852	 0.122494
H	 1.7574465477	 0.1702553557	-1.8438869635	 0.086864
H	 0.2405148096	 1.9905253067	-2.0787931312	 0.076048
H	 0.7131811506	 3.1424866138	 1.5747025618	 0.080108
114.851	202.7103	220.9503	321.2066	346.5565	438.2667	463.8982	627.8862	708.5578	736.0359	777.5461	849.1679	857.9101	876.1188	908.1947	933.5356	943.9509	972.8121	1009.3911	1037.0237	1069.2394	1094.7514	1112.1706	1142.4635	1152.1497	1185.8308	1212.7462	1221.4126	1241.1351	1248.851	1272.3244	1278.9459	1305.6996	1317.6819	1354.0916	1365.184	1399.5001	1465.82	1486.9847	1491.1743	1507.0451	2948.0131	2968.2607	3051.1071	3052.6237	3067.8876	3080.7948	3082.9733	3097.6835	3104.5311	3130.1518
C1CC23COCC2OC13	C1C[C@@]23COC[C@@H]2O[C@@H]13	
InChI=1S/C7H10O2/c1-2-7-4-8-3-6(7)9-5(1)7/h5-6H,1-4H2	InChI=1S/C7H10O2/c1-2-7-4-8-3-6(7)9-5(1)7/h5-6H,1-4H2/t5-,6-,7-/m0/s1
