19
gdb 1651	3.5840446	1.1905139	1.1296887	1.574	77.28	-0.23776	0.01434	0.2521	1163.6461	0.156562	-422.543302	-422.534858	-422.533913	-422.576489	32.218	
O	-1.4566775203	 2.5091869188	 1.6604120105	-0.476925
C	-0.8729165593	 3.0497030118	 0.5112869806	 0.438588
C	-1.6506571037	 4.1351821787	-0.1612272044	-0.316233
C	-0.3655170289	 4.4703979768	 0.572159304	-0.327632
C	-0.1230891842	 2.0249954094	-0.3176646706	 0.011539
O	 0.8513168504	 1.3957075965	 0.5339574352	-0.29318
C	 0.7979469498	-0.0229180881	 0.3790522936	-0.123359
C	-0.4323731671	-0.2772677138	-0.4462070496	-0.104008
C	-0.952611692	 0.8785218247	-0.8372040135	-0.071329
H	-0.7404620823	 2.0471576273	 2.1148297856	 0.283227
H	-1.658463239	 4.1806204662	-1.2454492733	 0.110165
H	-2.5846639843	 4.4161696729	 0.3113347123	 0.12609
H	 0.5089245677	 4.741141738	-0.010055135	 0.111659
H	-0.4582408623	 4.9743709299	 1.5269392264	 0.117918
H	 0.387737588	 2.5491358691	-1.1438652037	 0.07811
H	 1.7121615739	-0.3873295051	-0.1181188167	 0.106
H	 0.7596426368	-0.4944480607	 1.3714236817	 0.108727
H	-0.7960768349	-1.2703587716	-0.6769895061	 0.108378
H	-1.8312882484	 1.0283838392	-1.4504185671	 0.112265
70.7868	105.0429	171.9784	237.473	300.8963	333.3227	386.3659	429.909	497.5327	530.2896	692.5843	760.329	773.3119	811.6789	840.1503	888.0294	903.2028	938.5488	947.2	957.5238	962.9436	994.754	1044.8922	1048.1179	1050.5467	1077.3363	1096.3877	1122.6852	1189.4219	1201.4022	1234.7968	1292.9817	1316.3502	1334.37	1355.0179	1380.6142	1423.3969	1452.0046	1506.0124	1521.3383	1693.1669	2949.511	2968.1528	3010.6706	3132.2519	3135.6981	3211.0789	3218.21	3232.4055	3236.3746	3772.1253
OC1(CC1)C1OCC=C1	OC1(CC1)[C@H]1OCC=C1	
InChI=1S/C7H10O2/c8-7(3-4-7)6-2-1-5-9-6/h1-2,6,8H,3-5H2	InChI=1S/C7H10O2/c8-7(3-4-7)6-2-1-5-9-6/h1-2,6,8H,3-5H2/t6-/m0/s1
