19
gdb 3122	1.8803056	1.5654323	1.0813006	3.3279	76.57	-0.23813	-0.02386	0.21427000000000002	1203.5501	0.154087	-422.536845	-422.527478	-422.526533	-422.571183	33.954	
C	 0.5628999537	-0.3260964067	-1.0904974955	-0.413879
C	 0.7271828919	 0.276807674	 0.2977822934	-0.027502
C	 1.5807627807	 1.5530830104	 0.3725467813	-0.047882
O	 1.73204657	 1.8804139403	 1.7607259314	-0.286502
C	 2.6124246602	 0.8977095547	 1.1938653651	 0.392269
C	 4.0860886518	 1.0889718738	 1.3408730691	-0.502058
C	 1.8240347556	-0.4423955135	 1.1877300578	-0.165906
C	 1.3920576099	-0.9622332691	 2.5312976764	 0.149389
O	 1.4906651084	-2.1129584159	 2.88155604	-0.262937
H	 0.1282827418	-1.3286885093	-1.0324596152	 0.133126
H	-0.0975318697	 0.2923796619	-1.7078249624	 0.122892
H	 1.5256718169	-0.4067644539	-1.6071961746	 0.119538
H	-0.2432301555	 0.3913702663	 0.791169255	 0.091007
H	 1.6479125013	 2.3703608861	-0.3378948135	 0.105994
H	 4.4123334615	 0.8375829411	 2.3562087217	 0.138861
H	 4.6322163035	 0.4461328235	 0.6435000751	 0.130561
H	 4.3533619883	 2.1307194208	 1.1447832615	 0.138682
H	 2.3325683596	-1.2353364648	 0.6339918979	 0.091425
H	 0.9575088203	-0.1887044496	 3.2000299855	 0.092923
62.7028	105.2549	180.9553	192.3447	216.8266	234.1974	271.1053	342.7677	367.7342	459.847	501.4088	542.0322	618.3319	747.4165	805.5768	863.2616	893.1902	923.4862	985.7067	1012.182	1022.6406	1063.8577	1082.7827	1101.8956	1125.3649	1149.9359	1184.7343	1218.634	1238.4832	1260.7038	1289.4723	1356.0873	1404.6291	1411.9837	1419.5964	1465.5742	1481.826	1493.5645	1495.9282	1498.4936	1816.8733	2908.1758	3030.5053	3036.7116	3057.0487	3090.2692	3098.5404	3101.0481	3107.4864	3123.4377	3176.1037
CC1C2OC2(C)C1C=O	C[C@@H]1[C@H]2O[C@@]2(C)[C@H]1C=O	
InChI=1S/C7H10O2/c1-4-5(3-8)7(2)6(4)9-7/h3-6H,1-2H3	InChI=1S/C7H10O2/c1-4-5(3-8)7(2)6(4)9-7/h3-6H,1-2H3/t4-,5-,6+,7-/m0/s1
