19
gdb 5640	2.3875397	1.3817376	0.9486955	2.3998	77.41	-0.23937	-0.01701	0.22236	1244.3959	0.157177	-422.588252	-422.579282	-422.578338	-422.622559	32.762	
O	-2.1118183903	-0.7742140485	 0.0954598669	-0.420628
C	-0.9082448655	-0.0623542118	-0.1433017232	-0.083316
C	-0.589282456	 0.74497475	 1.1291060408	-0.137998
C	-0.4063230993	-0.1315362232	 2.3407092572	-0.045166
C	 0.5998386727	-0.0074639134	 3.2042580117	-0.081664
C	 1.7067105247	 0.9992609277	 3.0344300327	-0.266877
C	 1.8978727976	 1.3718279379	 1.5542193091	-0.303791
C	 0.5902525532	 1.6833236733	 0.8483341522	 0.370274
O	 0.4774112621	 2.5993353077	 0.0660766911	-0.322309
H	-2.2960548366	-1.3213056065	-0.6735060858	 0.290503
H	-0.0761163367	-0.7495288804	-0.3655070929	 0.087415
H	-1.0095051272	 0.6391706832	-0.9822411536	 0.113048
H	-1.4628828093	 1.3947883813	 1.2825214184	 0.122099
H	-1.1823454114	-0.8744387812	 2.496658428	 0.109036
H	 0.6396214819	-0.6495768033	 4.0803580156	 0.091222
H	 1.4898604807	 1.9021187582	 3.6233568953	 0.12196
H	 2.6464455234	 0.6046088988	 3.4363295133	 0.110535
H	 2.5782152431	 2.2147358935	 1.4132216999	 0.120017
H	 2.3295258629	 0.5039070868	 1.0343054033	 0.12564
43.3728	116.5162	151.629	185.4302	227.2732	270.1871	335.6169	398.3343	482.9187	509.1613	526.0028	646.9033	720.8623	738.8936	775.1175	865.0933	897.0625	963.1385	1006.4974	1011.9683	1036.5965	1070.1034	1073.1472	1105.2581	1136.7345	1177.6638	1222.8895	1234.6099	1245.3725	1259.2976	1301.3451	1322.5793	1347.1446	1371.6922	1409.0662	1446.1522	1458.4538	1487.9183	1524.7084	1725.1158	1807.7048	2972.0114	3005.3009	3010.1925	3014.8755	3034.7667	3059.2894	3108.2226	3155.7479	3185.6701	3833.1216
OCC1C=CCCC1=O	OC[C@H]1C=CCCC1=O	
InChI=1S/C7H10O2/c8-5-6-3-1-2-4-7(6)9/h1,3,6,8H,2,4-5H2	InChI=1S/C7H10O2/c8-5-6-3-1-2-4-7(6)9/h1,3,6,8H,2,4-5H2/t6-/m1/s1
