19
gdb 3701	3.7437794	1.1234504	1.0156074	2.706	76.77	-0.22585	0.06173	0.28758	1230.5757	0.15527	-422.495146	-422.486629	-422.485685	-422.528271	33.061	
O	 0.684814819	 0.6875141525	 0.6620863181	-0.434372
C	-0.6958436744	 0.5160583916	 0.7034656334	 0.067456
C	-1.3319412561	-0.1903309668	 1.8987178935	-0.394563
C	-1.441742286	 1.2923121261	 1.7381704865	 0.39491
C	-2.60494944	 2.2719661506	 1.6521751795	-0.453899
C	-1.6686196677	 3.1883069806	 2.4360727934	 0.458859
C	-1.9351313487	 4.1525134915	 3.5373247051	-0.333086
C	-1.3151920678	 4.6209546403	 2.2238535684	-0.328772
O	-0.6549676037	 2.1731785182	 2.5603741882	-0.338039
H	 0.8772460286	 1.4462572188	 1.2321789595	 0.293013
H	-1.1409615163	 0.3641845946	-0.27738945	 0.09663
H	-2.2176218456	-0.7967530805	 1.7348605257	 0.114415
H	-0.6554562496	-0.5479921455	 2.668355525	 0.128973
H	-2.875872994	 2.6049335361	 0.6479038167	 0.117948
H	-3.5019627334	 1.9663857199	 2.1964858532	 0.118036
H	-2.9639848514	 4.4203640643	 3.7552832065	 0.118489
H	-1.2842782605	 4.1025746926	 4.403576924	 0.129234
H	-1.9202608982	 5.2090236707	 1.5412843579	 0.118374
H	-0.261608484	 4.8787056947	 2.2364676956	 0.126395
56.9303	166.9785	173.1048	273.9438	296.7005	343.2301	397.3584	425.5536	451.6009	469.659	580.8484	689.3396	754.0707	804.9717	826.2762	853.6236	873.0074	910.3597	913.8677	922.7877	984.1394	1007.3503	1025.9073	1048.5624	1070.4395	1090.2647	1099.9192	1155.5016	1159.2233	1172.39	1185.2875	1230.6824	1263.6062	1307.0343	1361.9258	1397.766	1416.9358	1448.3047	1480.8217	1488.6186	1516.9139	3063.1557	3115.8259	3122.3109	3128.1639	3130.8076	3131.0004	3211.6926	3218.5155	3225.6613	3722.4016
OC1CC11CC2(CC2)O1	O[C@H]1C[C@@]21CC1(CC1)O2	
InChI=1S/C7H10O2/c8-5-3-7(5)4-6(9-7)1-2-6/h5,8H,1-4H2	InChI=1S/C7H10O2/c8-5-3-7(5)4-6(9-7)1-2-6/h5,8H,1-4H2/t5-,7-/m0/s1
