19
gdb 2348	3.0370725	1.4307379	1.1766994	2.4186	75.53	-0.23812	0.0564	0.29452	1095.0238	0.156329	-422.505116	-422.496893	-422.495949	-422.537879	31.943	
O	-3.0263142056	-1.0431554098	 0.5376945733	-0.472613
C	-1.6566242017	-0.9454518868	 0.3190858789	 0.374944
C	-0.9743902654	-2.3144290737	 0.1598752222	-0.108058
O	-0.3289636222	-1.9197341172	-1.0728896504	-0.284097
C	-0.9110436588	-0.6027288087	-1.0224515525	-0.068966
C	-0.0617495732	 0.4065783527	-0.2455302789	 0.380668
C	 0.4239334347	 1.7346995283	-0.7532753671	-0.332644
C	 1.4064777388	 0.6336788531	-0.4331468473	-0.307656
C	-0.8248186487	 0.1323349607	 1.0650611765	-0.410414
H	-3.3861441109	-0.1567327649	 0.6461748612	 0.28203
H	-0.2584317264	-2.6034713	 0.9387396988	 0.099657
H	-1.6933958637	-3.1254737089	-0.002816772	 0.112334
H	-1.363506893	-0.3029560013	-1.9718083156	 0.0734
H	 0.2443737414	 1.9763680838	-1.7963804833	 0.114758
H	 0.3713369532	 2.58719148	-0.0827521441	 0.109932
H	 1.8929057973	 0.1152133985	-1.2524866684	 0.12609
H	 2.0204690738	 0.7423210466	 0.4552488441	 0.112135
H	-0.2444836338	-0.2141473166	 1.9258740629	 0.105813
H	-1.4446729459	 0.979160724	 1.3848009917	 0.092685
56.3081	199.7641	227.0941	250.3057	305.8216	335.0728	381.0236	385.007	496.2293	531.9615	661.524	748.6614	776.7696	844.9729	876.0147	900.0599	924.8652	929.0142	953.2727	989.7901	1006.9255	1027.8294	1051.6566	1068.222	1077.1674	1105.4578	1139.7844	1145.1308	1162.1078	1186.3679	1214.8896	1251.7623	1277.4487	1310.0974	1340.7687	1382.6342	1404.808	1466.0848	1479.1775	1502.9188	1512.6446	3019.4579	3023.9874	3072.1864	3074.8128	3081.6143	3119.0523	3129.4422	3199.0078	3217.2507	3812.9809
OC12COC1C1(CC1)C2	O[C@@]12CO[C@@H]1C1(CC1)C2	
InChI=1S/C7H10O2/c8-7-3-6(1-2-6)5(7)9-4-7/h5,8H,1-4H2	InChI=1S/C7H10O2/c8-7-3-6(1-2-6)5(7)9-4-7/h5,8H,1-4H2/t5-,7+/m1/s1
