19
gdb 2178	2.9431571	1.6720004	1.3120048	1.0521	74.8	-0.23953	0.06893	0.30846	1013.2489	0.156013	-422.52364	-422.515598	-422.514654	-422.555491	32.053	
C	 0.1673998569	-0.5732516197	-0.2045604832	-0.483057
C	 1.0965782368	 0.1927163196	 0.6950532944	 0.449555
C	 0.7854784617	 0.3489860905	 2.2099445084	-0.338284
C	 2.3119247878	 0.3894158796	 2.4961236131	 0.397269
O	 2.8065965701	-0.2984371046	 3.6050433037	-0.482619
C	 2.952793559	 1.7495253153	 2.1036752514	-0.309431
C	 2.8334708234	 1.335304815	 0.6167452049	 0.107628
O	 1.4820223924	 1.4760294477	 0.1293887444	-0.34283
C	 2.5831117348	-0.1372360762	 1.0390429464	-0.201667
H	-0.0554902606	-1.5591549893	 0.2148745465	 0.118155
H	-0.776969047	-0.0296369338	-0.3223927285	 0.128294
H	 0.6103224106	-0.7037603974	-1.1962606253	 0.125181
H	 0.1662085458	 1.2011576344	 2.5047105431	 0.09338
H	 0.3693044638	-0.5800215916	 2.6136422308	 0.102273
H	 2.5220932256	 0.1652384038	 4.4009148877	 0.277523
H	 2.4650169217	 2.6798709044	 2.4088373499	 0.095356
H	 4.0034006551	 1.751433798	 2.4125590098	 0.105524
H	 3.5702333643	 1.6960106541	-0.1024831016	 0.079285
H	 3.1493228779	-1.0219769401	 0.762229044	 0.078464
181.6655	197.3457	212.5117	237.0511	292.6392	366.868	390.1341	427.218	455.1686	567.247	619.5328	708.7209	775.1407	831.6746	851.319	863.3017	892.1611	907.036	936.4845	966.9813	984.0741	997.3836	1040.5382	1071.7691	1120.8092	1136.1681	1156.201	1175.0705	1198.2355	1217.325	1223.8544	1257.5346	1294.6928	1326.7526	1338.7713	1366.8416	1409.8229	1459.4579	1474.9488	1479.2152	1489.3396	3032.2762	3041.8758	3044.4485	3096.1871	3101.0479	3105.4788	3108.3126	3115.5804	3159.7173	3792.2935
CC12CC3(O)CC(O1)C23	C[C@]12C[C@]3(O)C[C@H](O1)[C@H]23	
InChI=1S/C7H10O2/c1-6-3-7(8)2-4(9-6)5(6)7/h4-5,8H,2-3H2,1H3	InChI=1S/C7H10O2/c1-6-3-7(8)2-4(9-6)5(6)7/h4-5,8H,2-3H2,1H3/t4-,5+,6+,7+/m0/s1
