19
gdb 2577	2.5972989	1.766325	1.2373881	1.5857	76.16	-0.24527	0.01728	0.26255	1046.1994	0.158706	-422.57821	-422.570304	-422.56936	-422.610829	29.866	
C	 1.2132101798	 1.1232535755	-0.0893161744	-0.497662
C	-0.0379722507	 0.3407685096	 0.1506353027	 0.309393
C	-0.1616153193	-0.9530855874	 0.4544683287	-0.170184
C	-1.5922416176	-1.3991375059	 0.6238675647	-0.281243
C	-2.4196113036	-0.1578074551	 0.2132685115	 0.080162
O	-3.0249306582	-0.2779868607	-1.0737879852	-0.260318
C	-2.2243700133	 0.4461713443	-1.9826006081	 0.013582
O	-1.6698144814	 1.5234515714	-1.2684377543	-0.249831
C	-1.3957653202	 1.0036934079	 0.0365604446	-0.022772
H	 1.3269236004	 1.9257619239	 0.6510854662	 0.125342
H	 2.1033908836	 0.490339538	-0.0444445962	 0.121865
H	 1.1777498802	 1.6086839747	-1.0712343446	 0.140395
H	 0.6751364793	-1.632301902	 0.5890305646	 0.09126
H	-1.8549455937	-2.2575641029	-0.0042719196	 0.119482
H	-1.8043278501	-1.6934671295	 1.6601954705	 0.107214
H	-3.2181615082	 0.063790739	 0.9253309301	 0.086095
H	-1.4324166907	-0.1988894776	-2.401339732	 0.08422
H	-2.8553210245	 0.8389790595	-2.7851914494	 0.117192
H	-1.5232329019	 1.8374764373	 0.7347780703	 0.085807
69.8064	168.8052	187.0453	223.0038	264.5955	347.5353	418.4708	523.9648	576.9128	683.6759	739.3774	779.7102	838.2231	864.3625	884.1434	934.7471	968.355	979.774	1007.9083	1032.6885	1038.1212	1059.168	1077.282	1106.1964	1174.0002	1187.6918	1196.7862	1231.034	1269.2326	1280.39	1325.1102	1336.6878	1353.7145	1372.5917	1410.7118	1428.7763	1476.4213	1478.3767	1492.1615	1542.047	1724.7573	2949.3761	3021.0322	3021.3229	3053.9837	3065.024	3074.0159	3079.723	3086.9071	3114.8851	3175.3351
CC1=CCC2OCOC12	CC1=CC[C@@H]2OCO[C@H]12	
InChI=1S/C7H10O2/c1-5-2-3-6-7(5)9-4-8-6/h2,6-7H,3-4H2,1H3	InChI=1S/C7H10O2/c1-5-2-3-6-7(5)9-4-8-6/h2,6-7H,3-4H2,1H3/t6-,7+/m0/s1
