19
gdb 912	3.446401	1.2221312	1.1571467	2.0105	75.44	-0.27849	0.00859	0.28708	1133.0979	0.159153	-422.582515	-422.574832	-422.573887	-422.61567	29.258	
O	 0.4203816333	 0.0275258423	-0.9808881434	-0.303177
C	 0.0951035548	-0.3191299039	 0.1211279275	 0.168513
O	-0.6413643063	 0.3872262182	 0.9910127179	-0.229284
C	-1.0617805771	 1.6905662823	 0.5635854146	 0.187217
C	-1.762288877	 2.5475117147	 1.6371782074	-0.076986
C	-2.4127455123	 3.274165598	 0.4195551208	-0.235092
C	-2.4033285856	 1.8429829288	-0.1980925808	-0.061616
C	-3.3920625109	 1.0943100542	 0.7169987935	-0.209913
C	-2.9075544181	 1.6274309473	 2.1070954751	-0.207502
H	 0.3618013353	-1.281551907	 0.5856866538	 0.107502
H	-0.2326092176	 2.1897200902	 0.0626663679	 0.105983
H	-1.1946047106	 3.0831570073	 2.3976115296	 0.066623
H	-3.3861320264	 3.7434407337	 0.5800918234	 0.099073
H	-1.735684419	 3.9674072245	-0.083729107	 0.104745
H	-2.464980612	 1.6728323989	-1.2717264469	 0.076591
H	-4.4286273628	 1.3627748128	 0.4968069617	 0.097971
H	-3.2976541093	 0.009263886	 0.631763384	 0.103502
H	-3.6808436669	 2.1866049565	 2.640439068	 0.09663
H	-2.5524883614	 0.8267665751	 2.7590858828	 0.10922
29.529	153.3408	198.8111	263.8117	312.2691	407.31	454.0299	550.7007	686.4738	758.002	815.833	831.8767	842.6161	864.3945	891.6735	911.6575	968.3127	969.5683	985.3866	997.1062	1044.601	1048.2012	1082.7083	1091.9701	1143.3468	1150.8636	1198.1601	1205.3742	1220.8888	1228.5157	1261.3838	1279.8739	1290.4751	1325.9555	1349.7126	1402.1629	1410.5229	1488.6191	1494.9088	1517.0963	1820.1536	3024.7386	3060.62	3066.1772	3069.6889	3101.9534	3116.5836	3120.2435	3123.4575	3127.5738	3135.964
O=COC1C2CC1CC2	O=CO[C@@H]1[C@H]2C[C@@H]1CC2	
InChI=1S/C7H10O2/c8-4-9-7-5-1-2-6(7)3-5/h4-7H,1-3H2	InChI=1S/C7H10O2/c8-4-9-7-5-1-2-6(7)3-5/h4-7H,1-3H2/t5-,6+,7-
