19
gdb 3186	2.4495443	1.671247	1.0856533	3.1181	74.57	-0.24572	-0.02392	0.2218	1110.6366	0.158057	-422.579107	-422.571152	-422.570207	-422.611451	31.374	
O	-0.1386365073	-2.4237155887	 0.4031719051	-0.44402
C	-0.8543194097	-1.2934326875	-0.0022288942	 0.025744
C	-2.2120050995	-1.1783459047	 0.6907320576	-0.034015
C	-3.4914336711	-1.15328269	-0.1022887638	-0.308192
C	-2.9451376248	 0.129398161	 0.4714417852	-0.015464
C	-2.2114751333	 1.1372986851	-0.4069453935	-0.250477
C	-0.7597606159	 1.3069344581	 0.0761043091	-0.299688
C	-0.0483332262	-0.0214494132	 0.2848399444	 0.373138
O	 1.0925402764	-0.1115806286	 0.6851800177	-0.338296
H	 0.7332341682	-2.0847062701	 0.6673479004	 0.291339
H	-1.0151356724	-1.3130166823	-1.0966949428	 0.088601
H	-2.2217243485	-1.6288846886	 1.677208774	 0.101646
H	-3.4239930968	-1.2998089905	-1.176919255	 0.112706
H	-4.3789440327	-1.5811721284	 0.3503962061	 0.117154
H	-3.4694651811	 0.5492603866	 1.3244976874	 0.090085
H	-2.2118659219	 0.7974647817	-1.4489856688	 0.108793
H	-2.7226759957	 2.1045674349	-0.404131086	 0.108676
H	-0.1612506689	 1.9135622427	-0.6131887529	 0.133033
H	-0.7301935788	 1.8309057427	 1.0397532701	 0.139237
81.1274	166.7495	251.9467	321.5669	335.6355	387.8151	424.4711	450.9491	488.047	547.7709	601.062	617.1588	753.1603	804.8893	827.5409	892.9769	907.3525	938.9529	961.4232	986.4408	1051.4061	1071.6195	1084.8143	1122.1649	1131.4328	1147.5859	1183.1415	1212.8572	1216.016	1242.3907	1268.1843	1307.8586	1338.1782	1354.8131	1378.7136	1411.3549	1436.7926	1444.4971	1484.7468	1497.0938	1799.0045	2921.9728	3036.6991	3039.2715	3075.3302	3084.7111	3120.7624	3150.4089	3172.5544	3211.306	3662.4375
OC1C2CC2CCC1=O	O[C@H]1[C@@H]2C[C@@H]2CCC1=O	
InChI=1S/C7H10O2/c8-6-2-1-4-3-5(4)7(6)9/h4-5,7,9H,1-3H2	InChI=1S/C7H10O2/c8-6-2-1-4-3-5(4)7(6)9/h4-5,7,9H,1-3H2/t4-,5+,7-/m0/s1
