19
gdb 5338	3.8502863	0.8234808	0.7468167	1.6584	79.84	-0.24378	-0.02869	0.21509	1521.4464	0.156352	-422.578885	-422.569576	-422.568632	-422.614153	33.039	
O	-1.6269620473	-0.3103914918	 0.6908701349	-0.410527
C	-0.3271063675	 0.0091915462	 0.2002990972	-0.168955
C	-0.3704160679	 0.6019553995	-1.1761322918	 0.296173
C	 0.1460532667	 1.7734890548	-1.5546935695	-0.207326
C	-0.0410639791	 2.0472488542	-3.0355837748	-0.091029
C	-1.0645830936	 0.9491406523	-3.4503027965	-0.250323
C	-1.006342055	-0.1268351711	-2.339452891	-0.296975
C	-0.574838183	 3.4439873291	-3.2908724678	 0.15783
O	-0.0054728288	 4.3072963977	-3.9051062346	-0.248404
H	-2.1259348751	 0.5122171986	 0.7344434773	 0.28321
H	 0.2109664856	 0.6795145974	 0.886487461	 0.096034
H	 0.2124581561	-0.9457243565	 0.1857654846	 0.118303
H	 0.6876365134	 2.4539405901	-0.9053766322	 0.102772
H	 0.9095351968	 1.9642057636	-3.5767533997	 0.097918
H	-2.068985551	 1.3884069041	-3.4801495643	 0.107527
H	-0.8589143648	 0.5549671067	-4.4474757279	 0.114836
H	-1.9899692295	-0.533031337	-2.0858021435	 0.120396
H	-0.3842747454	-0.9848994455	-2.6308868144	 0.111034
H	-1.5808881306	 3.6229902577	-2.8393177471	 0.067507
48.8877	68.732	102.3457	134.8356	225.608	295.8418	334.7929	387.7142	394.4362	434.5184	531.5628	616.6391	706.5886	836.8358	869.3189	888.6506	907.7159	933.0097	980.8448	988.9783	1016.4595	1053.2475	1084.6832	1094.4298	1166.0619	1185.8541	1195.7749	1239.5964	1264.9361	1281.0974	1293.8546	1333.8403	1354.6516	1382.5106	1413.9958	1421.1543	1482.7146	1496.1931	1498.9042	1707.7133	1834.4646	2838.7284	2996.3739	3012.4343	3033.3558	3037.4558	3054.0035	3081.52	3109.9521	3184.6732	3808.9683
OCC1=CC(CC1)C=O	OCC1=C[C@@H](CC1)C=O	
InChI=1S/C7H10O2/c8-4-6-1-2-7(3-6)5-9/h3-4,6,9H,1-2,5H2	InChI=1S/C7H10O2/c8-4-6-1-2-7(3-6)5-9/h3-4,6,9H,1-2,5H2/t6-/m1/s1
