19
gdb 6054	2.5092686	1.0210025	0.7900273	2.3906	78.86	-0.25302	0.0253	0.27832	1477.2263	0.154495	-422.480718	-422.470864	-422.46992	-422.516699	34.305	
C	 1.416517999	-0.1055267692	-0.1077998565	-0.227523
O	 0.0157769276	-0.0379619594	 0.0218485133	-0.232558
C	-0.4016126783	 0.7003267824	 1.1464847773	-0.073252
C	-1.9157263322	 0.6811290644	 1.1919559011	-0.071245
C	-2.550591679	 1.1769961772	 2.5061062124	-0.096084
O	-3.0167311084	-0.1466562512	 2.8407046443	-0.277179
C	-2.5446654423	-0.6899289031	 1.5776937793	-0.06221
C	-3.6163345041	-1.1863556444	 0.7308651296	 0.344397
C	-4.5016831114	-1.5893194154	 0.0247399945	-0.450558
H	 1.8845509853	-0.5934798271	 0.7617027736	 0.106319
H	 1.6334150677	-0.6938579228	-1.0023333368	 0.131554
H	 1.8643396007	 0.8942707545	-0.2217503146	 0.105611
H	 0.0108151714	 0.2640738711	 2.0739504708	 0.091495
H	-0.037424103	 1.7414370989	 1.0904135362	 0.088979
H	-2.3267527495	 1.1137761073	 0.2793060422	 0.102033
H	-1.8525109314	 1.5667265876	 3.2579728224	 0.10078
H	-3.379071805	 1.8853095616	 2.3881241885	 0.109749
H	-1.8039581552	-1.4817008003	 1.745504685	 0.10938
H	-5.2829018619	-1.9524939221	-0.5963302825	 0.200313
39.9691	77.0394	97.3726	154.0543	177.7731	208.571	236.9252	322.2131	378.5507	445.9525	522.4264	537.181	622.2418	668.6767	799.0051	857.0306	901.2722	940.1002	982.5137	1020.1767	1039.431	1065.8298	1100.0874	1136.6514	1160.8468	1177.3553	1187.4864	1225.0013	1228.7453	1246.7228	1280.0686	1326.7176	1358.2257	1378.8294	1426.821	1482.2966	1487.301	1503.0795	1526.065	1527.3622	2235.1316	2940.1004	2968.0282	2973.1462	3014.1333	3017.1803	3028.8733	3057.1271	3111.7143	3118.0314	3503.0241
COCC1COC1C#C	COC[C@@H]1CO[C@H]1C#C	
InChI=1S/C7H10O2/c1-3-7-6(4-8-2)5-9-7/h1,6-7H,4-5H2,2H3	InChI=1S/C7H10O2/c1-3-7-6(4-8-2)5-9-7/h1,6-7H,4-5H2,2H3/t6-,7+/m1/s1
