19
gdb 3590	3.6695427	0.9766771	0.9644809	2.6246	77.09	-0.25153	0.0513	0.30283	1298.813	0.15433	-422.518659	-422.509221	-422.508277	-422.552701	36.033	
O	 4.4257054967	-3.4430070469	-1.8469216885	-0.435569
C	 4.4047154336	-2.8231699463	-0.5602517947	 0.090412
C	 2.9617304681	-2.4925162943	-0.0933866472	-0.295266
C	 3.0964915953	-1.1239091265	-0.8338976972	 0.434756
O	 2.6112982155	-1.1709431958	-2.158860209	-0.487015
C	 2.4960594403	 0.119444246	-0.1756865755	-0.403474
C	 1.054106313	 0.025627413	 0.0200844349	 0.32545
C	-0.1302106702	-0.0653135301	 0.2023140084	-0.461858
C	 4.6470703377	-1.3112583355	-0.7649504099	-0.277281
H	 4.0383929073	-4.3208755304	-1.7589875955	 0.28775
H	 5.0599780342	-3.3568139756	 0.1379204335	 0.070397
H	 2.1575720016	-3.1505531524	-0.4327318567	 0.102605
H	 2.900491337	-2.3731614131	 0.9922297776	 0.104246
H	 3.0196659004	-1.9433692908	-2.5729018551	 0.280866
H	 2.9867623192	 0.2828243156	 0.7913405722	 0.120157
H	 2.7333701863	 0.9855867435	-0.805845968	 0.138128
H	-1.1789972531	-0.1381801172	 0.3493075437	 0.192395
H	 5.2137300173	-1.0279531752	-1.6543838949	 0.113617
H	 5.0890851097	-0.849072878	 0.1217629119	 0.099685
61.7164	101.7417	147.7942	239.0993	305.1737	340.2122	365.4348	371.6621	407.9578	431.4262	440.2127	493.9473	542.4421	611.6303	636.7653	713.4643	812.5309	852.3364	867.4852	904.4643	931.8302	947.0951	969.7196	992.7889	1037.2274	1076.8444	1121.3974	1158.3272	1184.1669	1201.5663	1236.1312	1268.245	1305.5735	1319.0303	1337.1678	1404.1369	1437.8629	1447.0898	1455.8476	1475.2721	2240.16	3026.6337	3029.8377	3055.6728	3063.9315	3067.6487	3116.7939	3128.3389	3508.1359	3750.1632	3804.507
OC1CC(O)(CC#C)C1	O[C@@H]1C[C@@](O)(CC#C)C1	
InChI=1S/C7H10O2/c1-2-3-7(9)4-6(8)5-7/h1,6,8-9H,3-5H2	InChI=1S/C7H10O2/c1-2-3-7(9)4-6(8)5-7/h1,6,8-9H,3-5H2/t6-,7+
