19
gdb 1906	2.1409828	1.6942681	1.3691518	2.4243	76.2	-0.22581	-0.01091	0.2149	1055.3728	0.154384	-422.560198	-422.550747	-422.549803	-422.593716	35.375	
C	-3.3106353324	 0.2425657609	 0.9072226148	-0.506259
C	-2.1034548631	 0.0833224135	 0.0280334921	 0.352627
C	-1.8999425299	 0.8405259489	-1.2336795408	-0.327383
C	-0.8754955389	 1.0454935951	-0.1181295958	-0.248222
C	 0.0286263406	-0.1366325285	-0.0944091177	 0.397074
O	 1.2162789678	-0.2979656185	-0.0083611481	-0.34436
C	-1.1651168648	-1.1430351748	 0.0123695946	 0.186231
C	-1.0961779552	-1.9350423226	 1.3143139423	-0.454179
O	-1.3992326153	-1.99045643	-1.0996583724	-0.474932
H	-3.0930095989	 0.0017996461	 1.9524032167	 0.12543
H	-3.6856732263	 1.2700731294	 0.8691705277	 0.123543
H	-4.1210343867	-0.415950015	 0.5742015985	 0.136137
H	-1.6171954711	 0.3261340344	-2.1448821699	 0.138057
H	-2.5535844795	 1.6951269285	-1.3798235149	 0.120264
H	-0.6934521674	 2.0228393533	 0.3123521051	 0.108885
H	-0.2365496112	-2.6126908158	 1.2876559371	 0.127247
H	-0.9707364201	-1.2814269974	 2.182795314	 0.125261
H	-2.0068797967	-2.5270863395	 1.4442389704	 0.126729
H	-0.6443290309	-2.5851735179	-1.1757521237	 0.287851
96.2504	163.2419	188.1203	219.2901	227.8461	257.5611	269.6841	306.4991	355.0113	386.3935	490.8146	527.3481	589.3142	688.1489	696.5512	744.0699	813.7754	861.6731	921.9444	956.7802	980.286	998.0746	1035.6695	1066.1164	1089.8643	1107.0801	1118.8784	1160.5096	1207.5544	1242.7378	1268.4707	1357.1224	1386.649	1401.454	1423.6494	1481.7375	1483.1148	1491.8814	1500.4168	1502.1957	1871.6788	3031.3825	3036.0422	3093.3091	3104.9328	3108.4944	3116.9409	3132.3054	3191.1622	3219.7764	3800.9115
CC12CC1C(=O)C2(C)O	C[C@@]12C[C@@H]1C(=O)[C@]2(C)O	
InChI=1S/C7H10O2/c1-6-3-4(6)5(8)7(6,2)9/h4,9H,3H2,1-2H3	InChI=1S/C7H10O2/c1-6-3-4(6)5(8)7(6,2)9/h4,9H,3H2,1-2H3/t4-,6-,7+/m1/s1
