19
gdb 3031	2.5617475	1.5330058	1.1436704	3.0228	76.16	-0.24707	-0.02693	0.22014	1115.7862	0.155978	-422.53333	-422.524527	-422.523583	-422.567391	32.801	
C	 1.1365063838	 2.5095136651	-2.0474993722	-0.490062
C	 0.1954767505	 1.678149707	-2.8893750328	 0.25051
O	-0.4140198229	 2.1391996714	-3.836458735	-0.317014
C	-0.0070672052	 0.238533878	-2.5299482014	 0.210394
C	 0.9485051019	-0.8630103831	-1.9867168335	-0.2925
C	-0.4284369515	-1.5688002154	-2.1866522343	-0.088688
C	-1.0846289668	-0.3212278992	-1.5286617137	-0.256882
C	-0.5161932515	-0.8238456863	-3.5467038799	 0.150828
O	-1.7807198321	-0.6430628602	-4.1158689465	-0.454492
H	 2.1545813504	 2.1109251297	-2.1274055706	 0.146695
H	 1.1206085338	 3.5491184092	-2.3770675249	 0.143647
H	 0.8564739147	 2.4456716956	-0.9899872645	 0.142616
H	 1.7660763465	-1.1702586426	-2.6455394535	 0.098938
H	 1.2828686966	-0.7559518398	-0.9528522192	 0.100242
H	-0.6600138394	-2.6157328582	-1.99163586	 0.08206
H	-2.1218207967	-0.1216406409	-1.791637006	 0.12318
H	-0.8803112243	-0.1618074345	-0.4669908071	 0.091143
H	 0.2268838003	-1.1320231185	-4.2958898788	 0.063984
H	-1.7714914879	 0.2410065727	-4.5052273959	 0.295399
38.0337	122.018	129.3238	185.4954	271.154	331.8823	400.1384	432.1816	475.653	522.1109	585.304	616.6486	649.6557	795.3501	810.4253	891.868	913.3777	920.8688	958.7017	990.0637	1019.6639	1031.9573	1058.7994	1082.8355	1129.5254	1138.9027	1156.4363	1164.5016	1174.8113	1214.8087	1231.4836	1247.5497	1331.7414	1356.8037	1385.6109	1415.9717	1458.7662	1470.3046	1487.1897	1526.6894	1772.5359	3002.1798	3035.3393	3054.4067	3068.8953	3095.5427	3117.0824	3123.7598	3151.6368	3162.5899	3772.2748
CC(=O)C12CC(C1)C2O	CC(=O)[C@@]12C[C@@H](C1)[C@H]2O	
InChI=1S/C7H10O2/c1-4(8)7-2-5(3-7)6(7)9/h5-6,9H,2-3H2,1H3	InChI=1S/C7H10O2/c1-4(8)7-2-5(3-7)6(7)9/h5-6,9H,2-3H2,1H3/t5-,6-,7+/m1/s1
