19
gdb 3650	2.2623977	1.458556	1.1346807	2.5491	76.93	-0.23523	0.01728	0.25251	1155.7079	0.153319	-422.489812	-422.479953	-422.479009	-422.52416	36.697	
C	-1.1873480854	 1.4212540234	-2.7382842233	-0.470371
C	-1.374067408	 1.9706450069	-1.3422965849	 0.402377
C	-1.519541145	 3.4549357706	-1.1403810854	-0.361198
C	-0.2563166397	 2.7660078433	-0.6855619975	 0.054335
O	-0.059323852	 2.701143076	 0.6882294848	-0.42597
O	-2.2131222067	 1.2245646722	-0.4906108713	-0.275414
C	-1.8742315607	-0.137716558	-0.298678913	-0.22542
C	-0.5464997778	-0.3793431613	 0.2784148012	 0.309092
C	 0.5427918847	-0.5963365822	 0.7422675531	-0.472057
H	-0.644283293	 0.4698201429	-2.7416617509	 0.121759
H	-2.1558140258	 1.2708721231	-3.2283299784	 0.124893
H	-0.6100353071	 2.1253499705	-3.3432230315	 0.124454
H	-1.500397982	 4.1080761167	-2.0058110538	 0.108295
H	-2.1833991356	 3.7543733179	-0.3377596303	 0.133068
H	 0.6468677151	 2.9165927038	-1.2800642433	 0.07687
H	 0.1542512271	 1.7858119749	 0.9100665104	 0.28705
H	-2.6398511186	-0.5276629376	 0.3800068499	 0.14693
H	-1.9562697403	-0.7063006944	-1.2366300543	 0.12919
H	 1.5011745808	-0.8039495786	 1.1520426985	 0.212117
61.0676	121.2474	171.5953	206.0812	220.6685	272.2138	287.6954	339.7982	351.0028	389.792	437.5819	472.5758	544.9651	622.3578	640.9504	691.1633	709.1656	812.6111	866.1684	912.1163	927.959	947.659	1033.1077	1043.5055	1050.0776	1094.9249	1123.4713	1132.8801	1195.121	1245.7548	1293.6499	1312.608	1345.8171	1396.8673	1409.0125	1424.0706	1475.6111	1477.0992	1492.4489	1507.2664	2221.9634	3001.7044	3030.6829	3074.0887	3076.5392	3092.4361	3115.3636	3138.0829	3234.9902	3496.9488	3753.7016
CC1(CC1O)OCC#C	C[C@@]1(C[C@H]1O)OCC#C	
InChI=1S/C7H10O2/c1-3-4-9-7(2)5-6(7)8/h1,6,8H,4-5H2,2H3	InChI=1S/C7H10O2/c1-3-4-9-7(2)5-6(7)8/h1,6,8H,4-5H2,2H3/t6-,7+/m1/s1
