19
gdb 556	3.9153322	1.303849	1.1846974	1.4652	74.88	-0.24423	0.08741	0.33164	1093.3292	0.158526	-422.518169	-422.510473	-422.509528	-422.55096	29.139	
C	 0.9277986696	 3.9544967532	 1.7375296394	-0.229703
C	 1.4548466267	 2.8523662601	 2.7125830349	-0.229735
C	 0.3813055902	 1.887733686	 2.1977117715	-0.144502
C	-0.142369554	 2.9838023674	 1.2210886033	-0.159889
C	 0.479382434	 1.7417646013	 0.7082477145	 0.427778
C	-0.3368581231	 0.6592787396	-0.0053813338	-0.16218
O	 0.6218452492	-0.0251380274	-0.8080301937	-0.253314
C	 1.8924610225	 0.4427306278	-0.4082520089	 0.011574
O	 1.7154553389	 1.7679895459	 0.0259998316	-0.277424
H	 0.4958690572	 4.8032229219	 2.2712757906	 0.10397
H	 1.6297951976	 4.3251121393	 0.9867216118	 0.113922
H	 2.4878669833	 2.5260430889	 2.5667968815	 0.106936
H	 1.3124629069	 3.1245929122	 3.760116286	 0.1034
H	-0.1788684247	 1.1793978298	 2.7994159732	 0.083807
H	-1.1615888797	 3.252100583	 0.9621564728	 0.086129
H	-0.8175694796	-0.0281328884	 0.7031364617	 0.105371
H	-1.1045177372	 1.0770703305	-0.6666191502	 0.112465
H	 2.2962306891	-0.1838094607	 0.407825431	 0.083136
H	 2.5693189331	 0.4321118795	-1.2669076773	 0.118258
45.1746	172.729	173.9079	234.3053	261.1571	405.9103	511.9094	555.5711	733.753	756.6764	774.5931	787.7548	848.8181	858.5596	936.5608	959.5933	977.3713	979.7119	997.5264	1020.9415	1039.307	1080.0504	1086.6321	1116.0032	1129.4173	1173.8802	1201.9674	1213.9139	1227.3224	1231.3027	1245.8505	1258.7711	1267.2186	1287.9409	1363.9618	1421.4158	1452.33	1475.9324	1498.9946	1525.0853	1542.6278	2936.2363	3011.129	3054.5651	3062.5283	3069.6227	3092.0628	3108.8213	3126.7607	3155.6529	3166.2338
C1CC2C1C21COCO1	C1C[C@H]2[C@@H]1[C@@]12COCO1	
InChI=1S/C7H10O2/c1-2-6-5(1)7(6)3-8-4-9-7/h5-6H,1-4H2	InChI=1S/C7H10O2/c1-2-6-5(1)7(6)3-8-4-9-7/h5-6H,1-4H2/t5-,6+,7-
