19
gdb 1220	2.5473083	1.0118318	0.8674171	3.3775	78.09	-0.24264	-0.01822	0.22442	1387.2057	0.151666	-422.542233	-422.531466	-422.530522	-422.578506	38.301	
C	 4.6682556102	 0.7528131832	 1.0619965604	-0.424742
C	 3.1487051724	 0.7016352813	 1.2725055771	 0.311484
O	 2.8331852279	-0.0313407726	 2.4538517547	-0.4509
C	 2.5651090098	 2.1094159362	 1.5012628845	-0.279449
C	 3.1114619437	 2.7912082617	 2.7372082129	 0.149871
O	 3.598383357	 3.8944185358	 2.7417734592	-0.251567
C	 2.483968647	 0.0358397799	 0.0332966965	-0.39796
C	 1.0384276282	-0.107337013	 0.1327692607	 0.318823
C	-0.1557238496	-0.2195860224	 0.2088362061	-0.438586
H	 5.1616169587	 1.1856388588	 1.9361099081	 0.137761
H	 5.070447424	-0.2554800332	 0.9081615008	 0.108344
H	 4.9315942012	 1.3553912618	 0.1873571503	 0.127305
H	 3.2261718016	-0.9079069279	 2.3833226443	 0.282082
H	 2.7494136613	 2.7518188623	 0.6361892218	 0.114767
H	 1.4808290714	 1.9996828889	 1.6322514588	 0.141039
H	 3.0208307201	 2.1960453488	 3.6692872034	 0.098168
H	 2.7400760791	 0.6152697758	-0.8626698326	 0.134727
H	 2.9417886258	-0.9536766753	-0.1050790254	 0.119852
H	-1.2103239697	-0.32315974	 0.2773349284	 0.19898
46.0053	77.8514	88.3223	138.646	212.9083	247.8736	268.5568	308.4099	317.8297	353.5395	390.5375	393.0175	455.4173	511.9182	605.3467	621.2917	649.0523	737.5553	850.3618	890.0538	920.0821	947.6991	984.9648	1010.9729	1055.3771	1118.3938	1147.7428	1182.3198	1211.6111	1268.5102	1314.1937	1338.8876	1389.7802	1412.3962	1422.6202	1453.1907	1463.3688	1493.2163	1495.4553	1825.347	2239.3846	2924.3912	3009.345	3031.2069	3036.695	3050.7804	3100.0785	3110.7884	3123.576	3505.301	3807.7159
CC(O)(CC=O)CC#C	C[C@@](O)(CC=O)CC#C	
InChI=1S/C7H10O2/c1-3-4-7(2,9)5-6-8/h1,6,9H,4-5H2,2H3	InChI=1S/C7H10O2/c1-3-4-7(2,9)5-6-8/h1,6,9H,4-5H2,2H3/t7-/m0/s1
