19
gdb 1228	3.4568447	0.6898962	0.6780586	0.6691	82.35	-0.25419	0.02389	0.27808000000000005	1768.8781	0.15339	-422.506168	-422.49565	-422.494706	-422.543185	36.976	
C	 3.1607254962	-2.6779400363	-3.6056290567	-0.384849
C	 2.9862596402	-1.1522809117	-3.6026961135	-0.028046
O	 4.2117835001	-0.4814303245	-3.8872684382	-0.412114
C	 2.3864481136	-0.6839484173	-2.3480854082	 0.152498
C	 1.9406545664	-0.3162387086	-1.290035408	-0.025177
C	 1.3489196197	 0.1426399084	-0.0544409638	 0.222738
C	-0.0910418592	 0.6043053508	-0.1445305428	-0.467132
C	 2.2300440823	 0.6613818119	 1.0131060238	-0.20885
O	 1.6671174231	-0.6416077993	 1.1148033101	-0.258633
H	 3.811365995	-2.990299605	-2.7824908883	 0.120667
H	 2.1970302543	-3.1808743172	-3.4850809195	 0.127749
H	 3.6127881617	-2.9885573241	-4.5511006433	 0.126205
H	 2.325791588	-0.8725947122	-4.4325066467	 0.119985
H	 4.7887537235	-0.6013268553	-3.1245686305	 0.282549
H	-0.4460567147	 0.9191756797	 0.8397587676	 0.128699
H	-0.1826629179	 1.4410445529	-0.8433949545	 0.133445
H	-0.7287683904	-0.2091003737	-0.5024245966	 0.137202
H	 3.3054444076	 0.6991275801	 0.8490488775	 0.117474
H	 1.8340892103	 1.4040371714	 1.7054663315	 0.11559
18.5212	80.1505	85.0311	189.9834	195.4246	224.3797	252.9652	291.6493	315.109	361.3669	396.038	484.403	513.5848	576.0072	579.7535	643.385	779.3592	837.5682	894.8484	924.834	982.1486	1032.2727	1045.6002	1090.9236	1097.6259	1132.868	1137.5587	1166.9476	1278.033	1288.3993	1336.2125	1368.774	1399.6813	1409.6153	1417.3325	1478.3204	1487.7606	1491.2352	1494.3542	1522.2307	2353.4513	3037.9772	3041.777	3044.9777	3080.4714	3116.3089	3117.0632	3128.7035	3129.802	3172.2102	3803.0002
CC(O)C#CC1(C)CO1	C[C@H](O)C#C[C@]1(C)CO1	
InChI=1S/C7H10O2/c1-6(8)3-4-7(2)5-9-7/h6,8H,5H2,1-2H3	InChI=1S/C7H10O2/c1-6(8)3-4-7(2)5-9-7/h6,8H,5H2,1-2H3/t6-,7+/m0/s1
