19
gdb 885	2.5434362	1.362317	1.140055	3.3578	77.81	-0.23613	-0.0283	0.20783000000000001	1143.3069	0.157651	-422.559652	-422.551136	-422.550191	-422.593303	31.375	
O	 1.31071077	-0.3074203361	 0.0140549678	-0.252806
C	 0.1216945444	-0.1522475377	 0.1243517067	 0.149825
C	-0.5307531749	 0.655861673	 1.2497493138	-0.103863
C	-1.1790543906	 1.9658617413	 0.7348368899	-0.265967
C	-2.1268483261	 1.7958927681	-0.4650796594	-0.081236
O	-2.8229451057	 0.5644144524	-0.4965541874	-0.231648
C	-3.5965078496	 0.2651691387	 0.648759666	-0.140702
C	-2.8113539464	-0.3501434102	 1.7806385525	-0.040566
C	-1.5072043418	-0.2086957915	 2.0199234114	-0.09876
H	-0.5981788801	-0.6027509717	-0.5891511906	 0.101872
H	 0.2893820578	 0.9291436462	 1.9211482199	 0.096667
H	-1.7148841474	 2.4109244621	 1.5800468644	 0.114236
H	-0.394708311	 2.6772071737	 0.4517336046	 0.115897
H	-2.8359686206	 2.6389962102	-0.4911353946	 0.096785
H	-1.562889505	 1.8155858196	-1.4027204443	 0.119315
H	-4.1447075435	 1.1595260426	 0.9943751409	 0.103315
H	-4.3571911922	-0.4519127842	 0.3182098932	 0.121131
H	-3.3967563454	-0.9820550829	 2.4460794433	 0.094658
H	-1.0757318319	-0.7600300134	 2.8516425017	 0.101848
54.3928	101.8674	163.6508	238.3631	268.4513	313.7682	384.3275	396.2756	473.1738	496.0807	663.8396	709.9809	759.5745	804.9701	878.8485	896.983	920.849	992.7604	1001.9997	1005.0953	1028.5751	1047.2495	1109.9283	1137.7079	1170.7566	1231.673	1244.8517	1264.3001	1285.1445	1325.778	1344.1115	1375.2175	1396.5044	1411.3274	1414.6611	1424.3203	1481.5718	1488.2989	1506.29	1718.1348	1822.5823	2931.2837	2951.6409	2977.8182	3038.1211	3051.0155	3061.7885	3067.1953	3088.774	3139.418	3164.9162
O=CC1CCOCC=C1	O=C[C@H]1CCOCC=C1	
InChI=1S/C7H10O2/c8-6-7-2-1-4-9-5-3-7/h1-2,6-7H,3-5H2	InChI=1S/C7H10O2/c8-6-7-2-1-4-9-5-3-7/h1-2,6-7H,3-5H2/t7-/m1/s1
