19
gdb 5447	4.9010182	0.9927459	0.950752	2.0154	76.17	-0.25045	0.0701	0.32055	1285.6002	0.156336	-422.47175	-422.463474	-422.46253	-422.504715	31.313	
C	 1.4153361875	 0.045803315	-0.1086170298	-0.240022
O	 0.0095849463	 0.1139164908	-0.0178102675	-0.255229
C	-0.4442797534	 0.6389527728	 1.1988982188	 0.147899
C	-1.9485454544	 0.9036772417	 1.2562166336	-0.094813
C	-1.761654351	 2.0221401391	 2.3406318685	-0.109029
C	-2.6243435543	 3.0053949289	 1.5217586826	 0.149454
O	-2.4658855457	 4.3905480445	 1.6811231273	-0.44752
C	-1.8226269635	 2.2438010441	 0.4472964395	-0.092099
C	-0.538456316	 2.1726706235	 1.3609509758	-0.122392
H	 1.8442817053	-0.5756220521	 0.6931701781	 0.104982
H	 1.6580636475	-0.4071472559	-1.0727433835	 0.128321
H	 1.8819979438	 1.0410465775	-0.0583026423	 0.105288
H	-0.0049000899	 0.0921932734	 2.0491345155	 0.059318
H	-2.773296658	 0.1932484645	 1.2001332096	 0.077332
H	-1.7073780506	 1.8681451528	 3.4192855848	 0.073275
H	-3.7033023403	 2.821748512	 1.5378709438	 0.084053
H	-1.5245615553	 4.5939143287	 1.6519416903	 0.280843
H	-1.838516046	 2.3436477301	-0.6368919923	 0.082587
H	 0.2654073778	 2.9079481684	 1.4279222772	 0.067751
78.2893	152.7074	167.4602	211.3198	264.547	303.6685	382.0184	432.8227	535.9573	597.5857	732.3165	801.3074	840.6022	845.2163	874.9725	906.8324	927.4114	951.6909	985.2538	1007.5772	1021.4974	1081.8212	1114.4151	1120.9054	1135.765	1145.6369	1160.1767	1164.7093	1170.6907	1184.2256	1229.654	1230.5895	1251.9203	1284.094	1301.254	1312.7286	1399.1067	1446.8036	1484.082	1488.9888	1509.1745	2969.3496	2978.7165	3022.6613	3067.4312	3090.1555	3105.3437	3115.6525	3117.018	3133.0943	3803.1964
COC1C2C3C(O)C2C13	CO[C@@H]1[C@H]2[C@@H]3[C@@H](O)[C@H]2[C@H]13	
InChI=1S/C7H10O2/c1-9-7-4-2-5(7)3(4)6(2)8/h2-8H,1H3	InChI=1S/C7H10O2/c1-9-7-4-2-5(7)3(4)6(2)8/h2-8H,1H3/t2-,3+,4-,5+,6-,7-/m0/s1
