19
gdb 2444	2.2162632	1.9670661	1.5537507	2.3238	74.52	-0.21075	0.07393	0.28468	976.2073	0.15633	-422.519047	-422.51088	-422.509936	-422.551172	31.556	
C	 0.8028860458	 2.025158654	-1.8495714906	-0.484548
C	 0.8976018935	 1.9155508731	-0.3571978991	 0.390893
O	 0.042491871	 2.8106915729	 0.3302700806	-0.305866
C	-0.2126578346	 2.2596928379	 1.6269032774	-0.085527
C	 0.8778134881	 1.21654394	 1.7980492959	 0.012514
O	 2.1548056107	 1.9223710036	 1.7105046741	-0.306326
C	 2.2214933974	 1.5816559404	 0.326436262	-0.023564
C	 1.0595503502	 0.6103512479	 0.3801736501	 0.171638
C	 0.8189216944	-0.7976793744	-0.0711666922	-0.521685
H	 1.5347290351	 1.3726699148	-2.3351358824	 0.120047
H	-0.1957060071	 1.7478288715	-2.2024658741	 0.126941
H	 1.0032559171	 3.0532861429	-2.1661473899	 0.137063
H	-0.1390926372	 3.0581715919	 2.3711971866	 0.118416
H	-1.2185303985	 1.8115168735	 1.671915434	 0.088654
H	 0.8153515219	 0.5660522261	 2.6723496746	 0.084903
H	 3.1975721988	 1.5448544286	-0.1473736029	 0.098579
H	 1.4067577802	-1.5141822219	 0.5133101392	 0.12681
H	-0.238344609	-1.071935697	 0.0265316806	 0.12423
H	 1.0920902022	-0.9241104856	-1.1235469639	 0.126829
177.4372	185.8309	199.9488	209.1807	232.8471	325.2663	337.9354	407.8883	550.3963	589.4188	646.6042	705.7387	753.9444	786.6882	861.469	882.5741	922.0299	952.2524	966.0514	986.0244	1034.1356	1045.5459	1062.9377	1108.068	1143.7998	1154.8543	1187.3406	1201.0833	1228.6382	1242.8727	1298.6071	1329.3556	1371.8273	1414.1004	1419.487	1460.1115	1478.8818	1487.0543	1495.7399	1499.2575	1510.448	2975.5324	3022.8388	3037.5546	3081.9306	3084.4504	3098.8796	3102.8505	3104.7632	3113.8057	3161.5031
CC12OCC3OC1C23C	C[C@]12OC[C@@H]3O[C@H]1[C@]23C	
InChI=1S/C7H10O2/c1-6-4-3-8-7(6,2)5(6)9-4/h4-5H,3H2,1-2H3	InChI=1S/C7H10O2/c1-6-4-3-8-7(6,2)5(6)9-4/h4-5H,3H2,1-2H3/t4-,5-,6+,7-/m0/s1
