19
gdb 1006	1.6765469	1.1917811	0.7768771	1.8703	80.65	-0.24857	0.01333	0.2619	1524.9904	0.153961	-422.558762	-422.547826	-422.546882	-422.597785	36.168	
C	 1.3299012873	 0.3349440164	-0.4030403507	-0.497887
C	-0.111793063	 0.2048214735	-0.2457844879	 0.026993
C	-1.3043970251	 0.1006492534	-0.1158373166	 0.109527
C	-2.7533672101	-0.0434968627	 0.0158528473	-0.156027
C	-3.1632430331	-1.5154652126	 0.2220961087	-0.393964
C	-3.482599017	 0.5329792174	-1.2076654571	-0.07751
O	-3.2387680723	 1.9491600599	-1.2912259596	-0.208457
C	-2.6578221418	 2.418588228	-2.4066928231	 0.192706
O	-2.3582431477	 1.7924918765	-3.3846789476	-0.301864
H	 1.7297167664	 1.1353853732	 0.2292458076	 0.147278
H	 1.8455523799	-0.5922525943	-0.129638071	 0.147477
H	 1.5943751238	 0.5676181098	-1.4403255794	 0.153887
H	-3.0856559951	 0.533564825	 0.8895070964	 0.11142
H	-2.6712912598	-1.9278118259	 1.1057963186	 0.131553
H	-4.2463071801	-1.6002333049	 0.358191826	 0.11507
H	-2.8730277856	-2.1231627706	-0.640145184	 0.131161
H	-3.1519425244	 0.0547235876	-2.1310346059	 0.147614
H	-4.5634781221	 0.4055379426	-1.0929996931	 0.113995
H	-2.50523111	 3.5016245476	-2.2812351185	 0.107028
17.5303	27.0465	67.0236	100.4838	141.1993	189.2064	233.9703	283.1782	295.654	324.6424	347.2673	428.8668	509.2094	562.2555	684.8626	772.5805	903.3108	945.7836	962.1095	1030.1409	1047.4237	1052.951	1053.1501	1096.6957	1140.1392	1194.5207	1200.9257	1284.1117	1305.7737	1373.6667	1392.8009	1410.8863	1414.1736	1415.1222	1478.3659	1478.8562	1491.0679	1496.8321	1503.1314	1826.0686	2371.9602	3015.6462	3027.6947	3031.147	3040.4054	3059.3367	3087.8264	3090.2627	3111.4773	3128.1801	3135.563
CC#CC(C)COC=O	CC#C[C@H](C)COC=O	
InChI=1S/C7H10O2/c1-3-4-7(2)5-9-6-8/h6-7H,5H2,1-2H3	InChI=1S/C7H10O2/c1-3-4-7(2)5-9-6-8/h6-7H,5H2,1-2H3/t7-/m0/s1
