19
gdb 4210	2.744208	1.4625952	1.0411924	3.0885	76.92	-0.23915	0.00185	0.241	1157.8546	0.156963	-422.552558	-422.544039	-422.543094	-422.585488	32.64	
C	 1.5023258535	 0.6567935597	-0.2519520093	-0.501476
C	 0.1272772765	 0.0580079053	-0.1622594665	 0.309887
C	-0.0822217573	-1.2123995184	 0.1963802853	-0.180717
C	-1.445429731	-1.7891165913	 0.2951291687	 0.01659
O	-2.060246303	-2.250494588	-0.9281101669	-0.25636
C	-2.5592216529	-1.0551663086	-0.3187338747	 0.012657
C	-2.2560073965	 0.2480625732	-1.0423077041	-0.226328
C	-1.049423582	 0.9890309016	-0.4536108278	 0.000345
O	-0.7243864239	 2.0106919441	-1.3929400491	-0.425167
H	 1.6093659329	 1.5164420625	 0.4250488616	 0.115297
H	 2.2712241613	-0.0725916656	 0.0132209254	 0.126732
H	 1.7028193442	 1.0237527462	-1.2641971724	 0.143323
H	 0.7579759946	-1.8615828134	 0.4313353626	 0.086366
H	-1.6390641692	-2.4412203471	 1.1465590001	 0.089605
H	-3.5568424896	-1.1620523433	 0.1057571578	 0.090516
H	-2.0286710714	 0.022780695	-2.0887515257	 0.131749
H	-3.1239863983	 0.9134757091	-1.0314022429	 0.103536
H	-1.3469411446	 1.4548739134	 0.50259797	 0.078226
H	-0.1420008433	 2.6453986455	-0.965579922	 0.285219
82.065	138.3441	218.2643	270.9321	298.206	326.44	361.5288	405.2066	440.4029	462.1578	526.4315	620.7942	740.3216	754.66	783.1901	837.644	875.0563	954.933	962.9836	1026.5975	1035.4258	1048.1051	1069.8772	1083.8401	1100.3169	1153.5279	1193.9677	1201.655	1271.5559	1287.0567	1327.919	1334.3257	1378.0747	1380.3998	1402.8044	1415.4385	1465.2015	1478.8253	1479.1429	1495.6096	1722.1881	2936.7213	3009.4114	3056.2192	3073.5798	3099.5256	3107.0551	3118.6233	3121.562	3153.304	3831.9818
CC1=CC2OC2CC1O	CC1=C[C@@H]2O[C@@H]2C[C@@H]1O	
InChI=1S/C7H10O2/c1-4-2-6-7(9-6)3-5(4)8/h2,5-8H,3H2,1H3	InChI=1S/C7H10O2/c1-4-2-6-7(9-6)3-5(4)8/h2,5-8H,3H2,1H3/t5-,6-,7+/m0/s1
