19
gdb 5648	2.5381369	1.2517102	0.9485633	3.401	77.19	-0.23572	-0.01705	0.21867	1261.0576	0.155387	-422.549121	-422.539874	-422.53893	-422.583638	33.707	
O	-0.5770362898	-1.4849980535	-2.2194499288	-0.41981
C	-0.6131318835	-0.6223013816	-1.0932980579	-0.085004
C	-0.3280820137	 0.7857978892	-1.5824410736	-0.096998
C	-1.4546437894	 1.413014345	-2.4712216282	-0.360118
C	-1.6499079431	 2.4936884268	-1.3909906724	 0.351435
O	-2.381621645	 3.4357547152	-1.2593338517	-0.317941
C	-0.547860581	 1.912686998	-0.5515726956	 0.221524
C	 0.460098929	 2.7391232542	 0.2174715362	-0.307321
C	-0.5196189863	 1.8928463854	 0.9634007148	-0.316118
H	-0.7873852258	-2.3762225555	-1.9256465523	 0.288545
H	-1.5981261855	-0.6469179983	-0.5985059763	 0.086992
H	 0.137284147	-0.916173281	-0.34098717	 0.084661
H	 0.6551918797	 0.8096381717	-2.0599802786	 0.08498
H	-1.1308405835	 1.8083251148	-3.4375763807	 0.132337
H	-2.3247895735	 0.7713169102	-2.6364759427	 0.134654
H	 1.494793217	 2.4152331955	 0.1751391887	 0.123173
H	 0.3113079991	 3.8137675232	 0.2060329909	 0.136198
H	-0.1589541025	 0.9898791324	 1.4441168645	 0.122245
H	-1.3482429295	 2.3814694984	 1.4650216237	 0.136565
51.9181	104.7118	138.255	185.9681	205.9289	261.0692	290.8814	368.143	421.3191	505.9376	534.2258	605.0879	724.6746	785.8439	808.9557	830.0926	894.7427	917.1875	941.5399	995.8266	1046.7436	1055.3356	1061.0564	1073.1403	1083.3703	1088.2805	1161.5546	1179.0995	1198.9108	1220.5224	1253.0981	1258.9704	1272.1537	1353.3338	1363.445	1439.7911	1455.9822	1461.4428	1489.1107	1520.4859	1876.5362	2957.5177	2985.3175	3065.2513	3073.4025	3118.4705	3129.4434	3132.7016	3213.2154	3228.1513	3829.3393
OCC1CC(=O)C11CC1	OC[C@H]1CC(=O)C21CC2	
InChI=1S/C7H10O2/c8-4-5-3-6(9)7(5)1-2-7/h5,8H,1-4H2	InChI=1S/C7H10O2/c8-4-5-3-6(9)7(5)1-2-7/h5,8H,1-4H2/t5-/m1/s1
