19
gdb 4445	2.9386531	1.2603634	1.1971949	3.2369	76.09	-0.24161	-0.02557	0.21603999999999998	1138.6546	0.156369	-422.560395	-422.551861	-422.550916	-422.593471	32.061	
C	 2.2912795774	 1.29822275	-0.077993998	-0.399975
C	 1.5095793264	 0.0007468021	 0.1598375827	-0.012932
C	 1.7531168365	-1.0514599606	-0.9526181754	-0.115588
O	 2.8495303529	-1.866091737	-0.5257644192	-0.306229
C	 2.8800907057	-1.8547553272	 0.8736452875	 0.344499
C	 1.6064855637	-2.1467895922	 1.6404000235	-0.369311
C	 2.0115296728	-0.719007298	 1.4051859125	-0.085665
C	 4.2040775816	-2.1589188431	 1.4574648658	 0.085138
O	 4.4085289336	-2.2796012801	 2.642279585	-0.275282
H	 2.1805058024	 1.9882145407	 0.7643774321	 0.120398
H	 3.3588180026	 1.089532239	-0.2049899812	 0.128606
H	 1.9375398181	 1.809109019	-0.9789362009	 0.116785
H	 0.4390066758	 0.2247300782	 0.2262570281	 0.085634
H	 0.8629464869	-1.6757190252	-1.1055359423	 0.102498
H	 2.0228300038	-0.6063456458	-1.9144781616	 0.114715
H	 0.7725742419	-2.5707061032	 1.0917189843	 0.123344
H	 1.7550427765	-2.5340511102	 2.6420740905	 0.144436
H	 2.3583859255	-0.1336070063	 2.2491738871	 0.111458
H	 5.0132078159	-2.2536434202	 0.7017512595	 0.08747
94.8747	129.3525	179.5628	216.8798	242.6912	315.9664	364.9868	381.1771	453.911	514.2769	697.559	703.0634	735.1822	797.3719	806.8383	887.4585	932.2303	953.3444	970.2242	1002.6569	1031.5944	1047.1563	1067.9023	1076.562	1103.6118	1143.4931	1160.8787	1229.6754	1243.3189	1275.4109	1293.5578	1346.3529	1381.2274	1388.7019	1409.9593	1424.2016	1461.6954	1497.7114	1499.5951	1529.4015	1810.9887	2907.8024	3012.6567	3034.343	3045.5788	3087.7721	3106.625	3107.6106	3137.5166	3179.7646	3232.665
CC1COC2(CC12)C=O	C[C@H]1CO[C@@]2(C[C@H]12)C=O	
InChI=1S/C7H10O2/c1-5-3-9-7(4-8)2-6(5)7/h4-6H,2-3H2,1H3	InChI=1S/C7H10O2/c1-5-3-9-7(4-8)2-6(5)7/h4-6H,2-3H2,1H3/t5-,6+,7-/m0/s1
