19
gdb 3009	2.6304746	1.7542508	1.462315	1.744	73.61	-0.25161	0.08475	0.33636	978.5961	0.157691	-422.518157	-422.510567	-422.509623	-422.549508	31.236	
C	 2.2158247694	-1.8991581044	-1.4701310223	-0.507688
C	 0.7799684421	-1.4846582123	-1.3360502449	 0.375325
O	 0.1027782741	-1.9772143828	-0.0939290502	-0.371809
C	-0.8750795246	-0.91417854	-0.4203697876	 0.011442
C	-1.5162328672	-1.4504471146	-1.7053230767	-0.043529
C	-1.1340495247	-0.8460847547	-3.0349796795	-0.317797
C	-0.2436747686	-1.8922937609	-2.4092998964	-0.078769
C	 0.3433366562	-0.062857535	-0.8535813011	 0.127697
O	 1.1080581582	 0.4264272899	 0.2124983744	-0.460245
H	 2.817482858	-1.4736344902	-0.6629825143	 0.128979
H	 2.3057318476	-2.9897977325	-1.4396826029	 0.131073
H	 2.6216125733	-1.5486479683	-2.424364002	 0.128168
H	-1.5110097512	-0.6363322409	 0.4200435294	 0.081075
H	-2.3889045334	-2.0874341912	-1.6281271531	 0.099366
H	-1.7221310899	-1.1872966309	-3.8819090188	 0.115334
H	-0.8254993918	 0.1877118073	-3.1261913611	 0.122853
H	-0.1417896592	-2.8668134107	-2.8730075413	 0.094879
H	 0.234868664	 0.7574640379	-1.5616208228	 0.079358
H	 1.1642999178	-0.3061145558	 0.8422160813	 0.284287
193.9599	216.0266	246.5551	276.9181	374.2735	376.5451	415.5179	555.6461	573.3392	615.6107	636.7829	655.2651	780.5968	808.6592	813.8834	854.301	870.6871	903.8002	934.3607	952.3971	989.3452	1026.005	1036.9989	1083.8033	1101.3316	1109.4468	1139.5708	1184.9964	1193.5281	1216.5435	1236.0809	1240.5516	1275.1878	1311.2464	1329.1081	1380.5982	1415.5327	1459.6645	1481.7218	1490.1633	1506.8016	3040.7211	3110.0007	3117.8453	3122.1136	3127.1259	3137.3238	3173.3838	3186.1036	3216.4363	3749.4533
CC12OC(C3CC13)C2O	C[C@]12O[C@H]([C@H]3C[C@@H]13)[C@H]2O	
InChI=1S/C7H10O2/c1-7-4-2-3(4)5(9-7)6(7)8/h3-6,8H,2H2,1H3	InChI=1S/C7H10O2/c1-7-4-2-3(4)5(9-7)6(7)8/h3-6,8H,2H2,1H3/t3-,4+,5+,6+,7-/m0/s1
