19
gdb 3419	2.1754473	1.6726743	1.4350179	3.7259	74.46	-0.23048	-0.00749	0.22299	1028.4452	0.15864	-422.575027	-422.567063	-422.566119	-422.607149	31.055	
O	-1.556963781	 0.0376434211	-2.1035694502	-0.446114
C	-1.8504738664	-0.0314430435	-0.7233538319	 0.125033
C	-1.0176509812	 1.0652972495	-0.0007502061	-0.140061
C	-1.5220122853	 1.2874972464	 1.447651768	-0.232301
C	-2.14911721	-0.0070701383	 2.0190705233	-0.204365
C	-1.4815339944	-1.2966920394	 1.4824696595	-0.229012
C	-0.9843426696	-1.0961098724	 0.0273412938	-0.182408
C	 0.0921306876	 0.0028488209	 0.0721840631	 0.441496
O	 1.2864349325	 0.020036402	 0.1248401723	-0.326537
H	-1.8262333361	-0.7915720038	-2.5121251506	 0.28431
H	-2.930595273	-0.0459591859	-0.5377509223	 0.067914
H	-0.8268025014	 1.9939301176	-0.5403225006	 0.09575
H	-0.6774243402	 1.6206702361	 2.0609232855	 0.120854
H	-2.2608375039	 2.0955919528	 1.4664176237	 0.106945
H	-2.1227082893	 0.0074653038	 3.1125918417	 0.104298
H	-3.2089395057	-0.0269813534	 1.7458405165	 0.111045
H	-0.6274811146	-1.5870824231	 2.1045096001	 0.121252
H	-2.1947921419	-2.1269334024	 1.5243318732	 0.103722
H	-0.7588432762	-2.0380973779	-0.4787657291	 0.078177
126.1268	202.4296	212.7238	230.8002	301.1767	321.4179	439.8445	454.7733	482.879	533.9939	672.3243	752.5912	800.6594	827.5766	875.7379	896.9165	906.9255	923.6275	1002.4146	1019.8888	1050.3223	1075.1738	1077.7177	1113.0245	1133.1794	1141.1958	1168.1899	1215.6034	1245.0809	1250.7314	1283.7618	1299.4712	1316.8021	1353.9427	1367.0932	1371.9578	1413.6531	1494.1025	1494.994	1512.6058	1898.8889	3032.701	3035.6155	3038.144	3050.1252	3069.9465	3074.6495	3085.2026	3094.7514	3111.1146	3811.9047
OC1C2CCCC1C2=O	O[C@@H]1[C@H]2CCC[C@@H]1C2=O	
InChI=1S/C7H10O2/c8-6-4-2-1-3-5(6)7(4)9/h4-6,8H,1-3H2	InChI=1S/C7H10O2/c8-6-4-2-1-3-5(6)7(4)9/h4-6,8H,1-3H2/t4-,5+,6-
