19
gdb 4870	2.3132168	1.3324629	0.995069	2.7688	78.54	-0.23036	0.03432	0.26468	1249.6946	0.152537	-422.510562	-422.500244	-422.4993	-422.545218	38.433	
C	 2.2177898005	-1.0924299517	 1.3090641375	-0.389963
C	 1.7577437772	-0.2757944869	 0.0963596485	-0.226368
C	 2.0794071156	-0.9521008972	-1.2173166238	 0.303127
O	 1.3702794206	-2.1553689816	-1.4239401922	-0.476014
C	 3.4431630737	-0.8317777103	-1.8485970186	-0.409309
C	 2.2366222161	-0.1689373646	-2.52017395	 0.191324
O	 1.7319785684	-0.7829070417	-3.6674828701	-0.464652
C	 2.1318600626	 1.265033175	-2.5279987452	 0.330162
C	 2.057590813	 2.4652750135	-2.5379082841	-0.461953
H	 1.7399791744	-2.0772670959	 1.3197390206	 0.11654
H	 3.303165665	-1.241393094	 1.3004991475	 0.115349
H	 1.9566652073	-0.5865118139	 2.2428015346	 0.118609
H	 0.6737503928	-0.1171750471	 0.1431357166	 0.112292
H	 2.2200732662	 0.7156791951	 0.1049534349	 0.114383
H	 1.9484715379	-2.8963336307	-1.2169722614	 0.295747
H	 4.1788827925	-0.201569957	-1.3612185228	 0.126912
H	 3.8391984068	-1.68866309	-2.3844106864	 0.117923
H	 1.2210545923	-1.5413656697	-3.3464759898	 0.291443
H	 1.9839284071	 3.5243577486	-2.5544598155	 0.194449
88.3819	120.2372	126.326	195.5946	207.5312	233.8822	293.6894	301.2429	354.3629	393.1806	441.8133	468.3191	477.7659	553.642	584.8682	631.6272	676.8996	713.3554	752.1873	791.8548	876.2545	903.1636	922.1793	989.3322	1026.2478	1049.3523	1090.5427	1133.6509	1190.9545	1247.2791	1279.2267	1327.5566	1349.991	1381.7844	1405.6089	1416.3945	1458.6624	1477.9381	1499.7696	1510.2917	2236.1753	3034.3508	3041.4369	3085.8829	3106.8833	3112.6184	3126.9685	3224.5976	3503.516	3712.9482	3819.7931
CCC1(O)CC1(O)C#C	CC[C@]1(O)C[C@]1(O)C#C	
InChI=1S/C7H10O2/c1-3-6(8)5-7(6,9)4-2/h1,8-9H,4-5H2,2H3	InChI=1S/C7H10O2/c1-3-6(8)5-7(6,9)4-2/h1,8-9H,4-5H2,2H3/t6-,7+/m1/s1
