19
gdb 4887	2.0283265	1.7116911	1.118301	2.1477	76.47	-0.24218	-0.02681	0.21537	1139.234	0.155148	-422.521919	-422.512915	-422.511971	-422.555981	32.766	
C	 1.1740114057	 1.056776695	 0.3870304145	-0.379301
C	 0.773589699	-0.3965398943	 0.1010009081	-0.29088
C	 1.39861781	-0.9407048855	-1.1716610919	 0.191925
C	 0.8326611239	-0.4356340375	-2.4513108394	 0.092722
O	 1.1911193793	-0.7870988804	-3.5532414683	-0.280571
C	 1.966417949	-2.3630829527	-1.3337040115	-0.170319
C	 2.6695982235	-2.7963227363	-0.0546963175	-0.123875
O	 3.4603269097	-1.5720057226	-0.039110193	-0.287887
C	 2.9018305173	-1.2016557755	-1.2928838166	 0.093687
H	 0.6808176811	 1.42742097	 1.2906567317	 0.11584
H	 2.2553473588	 1.1321364155	 0.5346047461	 0.136303
H	 0.8993899412	 1.7237933176	-0.4371928422	 0.116199
H	 1.059005015	-1.0163176724	 0.9539264629	 0.115656
H	-0.3181068299	-0.4776283212	 0.0192309722	 0.101051
H	 0.0278699479	 0.323539709	-2.3305375823	 0.076866
H	 1.6698458353	-2.9840893103	-2.1668440799	 0.124864
H	 2.0821192512	-2.9311234681	 0.8595233173	 0.115657
H	 3.3215000322	-3.6625838244	-0.2085061599	 0.124217
H	 3.5307441296	-0.7312388259	-2.0385323303	 0.127848
58.3413	110.5422	163.5314	209.2158	211.334	235.315	294.5682	343.4392	450.1066	486.8447	653.8447	683.1112	752.1784	771.5671	850.7599	886.7427	939.345	952.8379	973.3062	994.6823	1015.1444	1046.5156	1057.8792	1083.377	1095.9858	1112.1404	1156.0233	1211.2017	1232.954	1265.5231	1295.6965	1326.1032	1365.7951	1383.6852	1410.272	1438.1208	1479.8273	1498.2572	1504.4161	1512.16	1791.6923	2879.6011	3028.2508	3037.2198	3037.3964	3087.1358	3091.5093	3110.1881	3117.3538	3196.2465	3221.6914
CCC1(C=O)C2COC12	CC[C@]1(C=O)[C@@H]2CO[C@H]12	
InChI=1S/C7H10O2/c1-2-7(4-8)5-3-9-6(5)7/h4-6H,2-3H2,1H3	InChI=1S/C7H10O2/c1-2-7(4-8)5-3-9-6(5)7/h4-6H,2-3H2,1H3/t5-,6+,7+/m1/s1
