19
gdb 2997	5.1840672	0.9292926	0.8511404	2.5789	75.88	-0.23245	-0.02764	0.20481	1373.0428	0.155933	-422.553237	-422.54441	-422.543466	-422.587494	32.004	
C	-0.0796689058	-0.1137132198	 0.024090962	-0.422364
C	 1.4255651197	-0.0655134613	-0.1137384588	-0.046277
C	 2.1651312263	 1.2156803957	 0.246012761	-0.089996
C	 3.5455156398	 1.427739959	-0.3501746294	-0.267349
C	 4.2985297878	 0.1228807955	 0.0159608297	 0.029531
O	 3.5867894978	-0.5161198376	 1.0781997492	-0.278311
C	 2.2811616889	 0.0022869414	 1.1252902684	 0.100995
C	 5.7301848312	 0.3217407341	 0.4831759911	 0.131075
O	 6.4634361594	 1.1784913996	 0.0638182734	-0.241695
H	-0.4135338676	 0.4467469215	 0.9042802111	 0.116104
H	-0.5745579058	 0.3239041929	-0.8498877631	 0.121688
H	-0.4357336921	-1.1437171037	 0.1330171889	 0.123086
H	 1.8278750929	-0.6411163265	-0.9445344319	 0.087645
H	 1.5888993644	 2.0832127105	 0.5474985276	 0.091978
H	 3.5416014914	 1.5896691243	-1.4310292785	 0.116419
H	 4.0383049432	 2.2895464039	 0.1091603607	 0.124732
H	 4.3382836463	-0.551087589	-0.8558976487	 0.104017
H	 1.8434689059	-0.0840343666	 2.1135278652	 0.10195
H	 6.0483492061	-0.4072624036	 1.2599663424	 0.096772
39.9393	96.7024	161.8118	201.0039	239.3357	258.8894	322.6091	349.6664	465.7593	559.5715	696.2183	698.7093	808.668	820.6988	838.638	870.4102	924.6726	995.264	1005.5328	1013.733	1038.1819	1074.8763	1103.5562	1112.7652	1120.8644	1137.7423	1166.0359	1194.3213	1222.1653	1283.2191	1296.0123	1319.4318	1339.8405	1356.4677	1404.5101	1418.1867	1443.7357	1493.875	1499.9705	1503.375	1835.9719	2903.9809	2962.1643	3027.0996	3062.6033	3090.4039	3094.1645	3104.3977	3132.3237	3170.235	3180.3064
CC1C2CC(OC12)C=O	C[C@H]1[C@@H]2C[C@H](O[C@H]12)C=O	
InChI=1S/C7H10O2/c1-4-6-2-5(3-8)9-7(4)6/h3-7H,2H2,1H3	InChI=1S/C7H10O2/c1-4-6-2-5(3-8)9-7(4)6/h3-7H,2H2,1H3/t4-,5-,6-,7+/m0/s1
