19
gdb 485	3.5359702	1.276614	1.2348551	2.4393	74.71	-0.24183	0.07332	0.31515	1085.7031	0.158668	-422.516797	-422.509182	-422.508238	-422.549099	28.958	
C	 0.0903676091	-1.1846269413	 1.4057590547	-0.13587
O	-1.3573082327	-1.2131339286	 1.3989574459	-0.278652
C	-1.4334481774	-0.1375126506	 0.4409760177	-0.156384
C	 0.0879891474	-0.0441214965	 0.3917948242	 0.310359
C	 0.932670632	 1.1915934072	 0.3280105154	-0.14978
C	 2.3018345662	 1.0920038389	 0.9776959886	-0.097597
O	 2.8297329198	-0.1646930375	 0.5600157753	-0.253864
C	 2.3402876723	-0.4435233194	-0.7496086483	-0.097597
C	 0.957928313	 0.1829380508	-0.8066171457	-0.149787
H	 0.4909070105	-0.9484140883	 2.3992514268	 0.104994
H	 0.5205273576	-2.1344574154	 1.0651093441	 0.104991
H	-1.9263971817	-0.4483876206	-0.4903301587	 0.099698
H	-1.9561395202	 0.7397781977	 0.8461009646	 0.099699
H	 0.4626639839	 2.1637049132	 0.224903024	 0.091568
H	 2.9394048729	 1.9269407624	 0.6446931128	 0.09578
H	 2.287158658	 1.0855947874	 2.0725137028	 0.112547
H	 2.9876779046	-0.000795067	-1.5238076125	 0.095779
H	 2.3527001641	-1.5315780784	-0.8715294529	 0.112547
H	 0.5071043403	 0.3890365359	-1.7714070488	 0.091569
92.3479	145.5845	185.7312	260.6264	262.0692	399.0509	436.2624	563.6747	679.4223	738.8627	830.1567	846.3211	865.7345	925.5126	953.691	968.0328	978.8915	985.6663	1021.0286	1027.0228	1028.6403	1103.5306	1104.2968	1116.0592	1131.7208	1150.1738	1164.3026	1168.8434	1219.0592	1254.436	1266.7397	1302.6429	1309.3848	1352.1966	1361.2093	1396.1571	1474.5796	1508.1284	1510.6094	1523.1109	1533.9701	2973.0809	2978.397	2993.6258	3016.0661	3033.9279	3054.7825	3068.7239	3071.2721	3167.4988	3176.2663
C1OCC11C2COCC12	C1OCC21[C@H]1COC[C@@H]21	
InChI=1S/C7H10O2/c1-5-6(2-8-1)7(5)3-9-4-7/h5-6H,1-4H2	InChI=1S/C7H10O2/c1-5-6(2-8-1)7(5)3-9-4-7/h5-6H,1-4H2/t5-,6+
