19
gdb 1810	3.1423148	1.178229	1.0195859	2.4972	76.1	-0.23714	0.08033	0.31747	1222.2407	0.155567	-422.468865	-422.460467	-422.459523	-422.50227	31.681	
C	-0.9616235387	-1.2410186599	-0.2389745297	-0.512958
C	-0.3318847673	 0.116389472	-0.2113927049	 0.3884
C	 1.060654341	 0.5622053281	 0.3182752321	-0.27698
C	 0.4272054463	 1.7273078178	-0.472000401	 0.030488
O	 0.0188748935	 0.7554869319	-1.5101821576	-0.342017
C	-0.9422475769	 1.4916416554	 0.223119198	-0.023889
C	-1.2024227333	 1.8483519017	 1.6567702923	 0.038965
C	-2.575504786	 1.9506026544	 2.1740066693	-0.183237
O	-1.8235528533	 3.1235708521	 1.8737854799	-0.233188
H	-1.1731629648	-1.583184677	 0.7790137647	 0.127087
H	-1.9012180707	-1.2165713389	-0.7991832312	 0.134998
H	-0.2920858265	-1.9636046797	-0.7151961595	 0.136453
H	 1.2128560385	 0.665024031	 1.3949053671	 0.096984
H	 1.905543987	 0.0840959807	-0.1790893194	 0.107502
H	 0.8734674856	 2.662601233	-0.8077997666	 0.099458
H	-1.7805578226	 1.7912880101	-0.4108681762	 0.087248
H	-0.4180569809	 1.6239002784	 2.3788086291	 0.094751
H	-3.414039415	 1.7490283977	 1.5081204171	 0.114622
H	-2.7697223956	 1.7729505711	 3.2310457163	 0.115313
53.7089	137.4888	177.3427	219.1453	268.1398	310.9641	350.2133	474.0089	528.1699	600.4661	643.0072	710.5958	819.085	854.7277	867.9594	874.6863	913.3757	921.1756	956.9847	1006.2071	1015.4185	1056.8069	1078.5709	1097.6345	1140.3533	1152.46	1161.2634	1180.4441	1184.3558	1205.5966	1226.6476	1255.7257	1291.2944	1297.2006	1343.6123	1408.7136	1462.185	1476.2978	1488.4509	1500.1809	1528.572	3039.0123	3067.5674	3079.8014	3088.035	3113.4029	3114.3358	3115.4548	3129.0563	3145.2904	3166.674
CC12CC(O1)C2C1CO1	C[C@@]12C[C@@H](O1)[C@@H]2[C@@H]1CO1	
InChI=1S/C7H10O2/c1-7-2-4(9-7)6(7)5-3-8-5/h4-6H,2-3H2,1H3	InChI=1S/C7H10O2/c1-7-2-4(9-7)6(7)5-3-8-5/h4-6H,2-3H2,1H3/t4-,5+,6-,7+/m1/s1
