19
gdb 4441	3.6569717	0.8477376	0.7444007	1.9263	78.39	-0.24855	0.02595	0.27449999999999997	1531.9197	0.153813	-422.48449	-422.474589	-422.473645	-422.520543	34.644	
C	-3.0023971851	 3.4632949403	 0.037281491	-0.389818
C	-2.0256869406	 3.4108275584	-1.1195122601	 0.115271
O	-0.8295949921	 4.1985785895	-0.8839086823	-0.291052
C	 0.0303153725	 3.053988806	-1.0341889477	-0.099112
C	-1.1789020949	 2.1283699515	-1.3029945157	 0.081196
O	-1.4549897808	 1.1438292238	-0.3407281759	-0.249154
C	-0.6401882901	-0.0080188639	-0.4799233823	-0.215508
C	-1.0048543337	-0.9967905452	 0.525043	 0.278048
C	-1.2842995991	-1.8292792013	 1.3437075556	-0.410813
H	-3.8878633762	 2.8578524386	-0.1806098818	 0.12037
H	-2.5445229201	 3.0874772482	 0.9540102341	 0.134019
H	-3.3205804746	 4.4982321317	 0.1955406367	 0.122617
H	-2.5140568195	 3.734735904	-2.0485622237	 0.076285
H	 0.7414101438	 3.1759815593	-1.8606945114	 0.099107
H	 0.5782496089	 2.8215911198	-0.1118048459	 0.105207
H	-1.2094248353	 1.6961482371	-2.3130762946	 0.073282
H	-0.7592642208	-0.4385716991	-1.4888990932	 0.121942
H	 0.4253700834	 0.2527366409	-0.370811595	 0.124858
H	-1.5372339957	-2.5613895895	 2.070301462	 0.203255
42.1208	73.4669	93.6089	103.0853	199.5695	218.3159	287.5444	332.0348	389.8128	424.248	464.9173	585.6548	612.5159	679.0021	756.7334	849.8726	875.5927	909.2059	979.354	1002.9527	1026.7018	1033.1493	1053.0261	1086.738	1098.717	1157.0325	1165.4904	1199.4924	1252.7266	1269.7864	1292.9912	1347.118	1376.2692	1381.4611	1404.5076	1435.5469	1483.0833	1488.6017	1500.5623	1512.6344	2249.6032	2958.3433	2981.1585	2995.9063	3006.3139	3017.1179	3045.7596	3056.4897	3113.8008	3140.681	3505.9064
CC1OCC1OCC#C	C[C@H]1OC[C@H]1OCC#C	
InChI=1S/C7H10O2/c1-3-4-8-7-5-9-6(7)2/h1,6-7H,4-5H2,2H3	InChI=1S/C7H10O2/c1-3-4-8-7-5-9-6(7)2/h1,6-7H,4-5H2,2H3/t6-,7-/m1/s1
