19
gdb 2276	2.5061946	1.9196487	1.6423438	0.4374	72.3	-0.24932	0.06595	0.31527	916.6078	0.159193	-422.554902	-422.547872	-422.546928	-422.585633	29.697	
O	 0.322332049	 0.2204113406	-0.2685379332	-0.502981
C	-0.9147990816	 0.5125008791	 0.3317052264	 0.387517
C	-1.3490641521	-0.4001974836	 1.5059252305	-0.261297
C	-2.8920790921	-0.1799747789	 1.5699300943	-0.20478
C	-3.1520501156	 0.8315820308	 0.4227135843	-0.071545
C	-2.1169811354	 0.3661584457	-0.632717104	-0.243214
C	-2.5461863772	 2.2020168707	 0.8062357226	 0.040644
O	-1.7568820652	 2.2204665927	 2.0074433069	-0.249068
C	-1.0954440007	 1.9977125223	 0.7535164711	-0.036275
H	 0.9957856419	 0.2120875208	 0.4198577221	 0.278875
H	-1.0887470603	-1.4331109344	 1.2572894268	 0.096696
H	-0.8549767099	-0.1299970129	 2.4418639289	 0.103746
H	-3.434692361	-1.1086573328	 1.3731276424	 0.093851
H	-3.2149140038	 0.2056653722	 2.5376439295	 0.11282
H	-4.1902444624	 0.8875940159	 0.0944082361	 0.064696
H	-2.2630968496	-0.6596970848	-0.9859719093	 0.097015
H	-2.04092332	 1.0379458901	-1.4927928289	 0.099773
H	-3.0503531084	 3.1336224734	 0.5664322551	 0.097075
H	-0.3579912957	 2.7376919231	 0.4537345185	 0.096455
257.3453	274.2414	291.469	326.7852	355.8826	440.8429	462.1258	563.3107	590.4419	604.3137	752.5476	791.9589	798.2216	827.6185	874.659	880.6782	925.1261	932.1667	951.8329	987.9958	993.13	1023.5672	1060.6379	1085.5006	1098.2562	1135.6167	1162.1993	1212.4083	1230.1916	1240.29	1257.4401	1269.8794	1277.1705	1303.9271	1324.9164	1349.3898	1371.6524	1413.0521	1477.8821	1488.1151	1512.7324	3049.3318	3055.2543	3067.1752	3103.9069	3106.7754	3109.9547	3128.1528	3146.8315	3160.108	3808.1852
OC12CCC(C1)C1OC21	O[C@]12CC[C@H](C1)[C@H]1O[C@@H]21	
InChI=1S/C7H10O2/c8-7-2-1-4(3-7)5-6(7)9-5/h4-6,8H,1-3H2	InChI=1S/C7H10O2/c8-7-2-1-4(3-7)5-6(7)9-5/h4-6,8H,1-3H2/t4-,5-,6-,7-/m1/s1
