19
gdb 5181	2.7831443	1.4598857	1.2996488	1.5935	75.11	-0.22579	0.07328	0.29907	1070.4143	0.15611	-422.490786	-422.482302	-422.481357	-422.523692	32.477	
C	 1.3222311121	-0.1395067526	-0.0338642036	-0.265925
O	-0.0665822133	-0.0315526546	 0.218086837	-0.297613
C	-0.3757472609	 0.6837367543	 1.3559014963	 0.338866
C	-0.036813271	 0.1709220999	 2.7906633465	-0.293529
C	-1.2984056824	 0.9183463445	 3.2226364635	-0.11444
C	-1.3804272547	 2.2277050978	 2.3745876968	-0.154597
C	-0.1671772527	 2.2282227073	 1.447143382	-0.291216
C	-1.881281024	 0.9056908568	 1.8481127851	 0.315467
O	-3.0915695903	 0.4294348197	 1.4268315452	-0.446914
H	 1.8446574234	-0.6526226229	 0.7858501308	 0.115315
H	 1.4368687879	-0.7255488893	-0.948269818	 0.129128
H	 1.7871648806	 0.8457709341	-0.1815089557	 0.112951
H	-0.1732119981	-0.9115792541	 2.8625664737	 0.107786
H	 0.9255757594	 0.4627342329	 3.2260442737	 0.085899
H	-1.8312209972	 0.8499044138	 4.1616130141	 0.092419
H	-1.9538884792	 3.0710131355	 2.7362069382	 0.089271
H	-0.3874995654	 2.7131138192	 0.4915125017	 0.096476
H	 0.7905670566	 2.5880445114	 1.8393651906	 0.087845
H	-3.3047631007	 0.8404465965	 0.5810370122	 0.292811
77.5629	146.9199	188.9759	232.1019	273.2462	332.7623	391.7613	399.4999	489.2459	509.0386	583.6319	688.8822	710.6597	742.6251	857.7185	889.209	913.7706	924.3894	966.5713	989.4395	1009.9846	1052.9588	1088.3809	1093.5089	1102.6367	1130.9051	1155.1893	1180.7771	1201.4814	1217.7904	1230.472	1258.2557	1270.6669	1315.1197	1339.3772	1481.0289	1484.5697	1489.0095	1491.0582	1505.8374	1515.8491	2990.4653	3029.2534	3037.8956	3043.344	3095.2681	3103.1071	3121.3515	3200.3571	3209.8507	3786.0187
COC12CC3C(C1)C23O	CO[C@@]12C[C@H]3[C@@H](C1)[C@@]23O	
InChI=1S/C7H10O2/c1-9-6-2-4-5(3-6)7(4,6)8/h4-5,8H,2-3H2,1H3	InChI=1S/C7H10O2/c1-9-6-2-4-5(3-6)7(4,6)8/h4-5,8H,2-3H2,1H3/t4-,5+,6-,7+
