19
gdb 4514	3.2762791	1.3731781	1.07833	1.6518	76.19	-0.24827	-0.00996	0.23831	1138.5766	0.157487	-422.530449	-422.522372	-422.521427	-422.56274	31.332	
C	-0.2607383481	-0.8470812707	 1.9805874555	-0.404946
C	 1.1460082272	-0.2645348926	 1.9758555246	 0.108094
O	 1.7031716181	-0.5896745506	 0.6925200688	-0.276004
C	 3.1108842086	-0.4935127164	 0.5552343593	-0.086833
C	 3.7274294726	 0.7491610784	 1.1801506117	 0.006053
O	 4.9500361915	 0.5211853831	 1.8921807579	-0.253387
C	 3.7755961549	 0.8515394504	 2.6485993327	 0.016985
C	 3.1602506248	-0.2303011578	 3.4706857193	-0.111702
C	 1.9755396346	-0.7524608644	 3.1540756662	-0.06313
H	-0.7937183733	-0.5548293193	 2.8906479732	 0.115732
H	-0.8210245014	-0.4858820287	 1.1148933592	 0.126284
H	-0.2206774016	-1.9398556847	 1.9332203941	 0.124145
H	 1.0723381252	 0.8312814388	 2.0459110977	 0.080307
H	 3.6166917281	-1.3586046072	 1.0017411946	 0.109441
H	 3.2959151753	-0.5145177013	-0.5233450672	 0.109992
H	 3.7108488826	 1.6672547332	 0.5938451179	 0.096503
H	 3.8270769365	 1.8423299371	 3.1037627594	 0.100855
H	 3.7204390559	-0.585250996	 4.3323577328	 0.104854
H	 1.5591089786	-1.5598115213	 3.7521192522	 0.096757
103.2257	208.8645	230.3637	250.7872	303.9978	331.4403	357.4937	423.4217	447.7088	581.8979	619.266	737.5186	748.2573	828.2653	840.2129	849.0262	900.1157	977.9611	999.5593	1017.8719	1037.5538	1046.0515	1103.5251	1124.6377	1137.6267	1154.4522	1161.6169	1223.5697	1278.3364	1281.2767	1341.7107	1363.5557	1365.319	1405.282	1409.116	1418.8419	1459.8138	1484.2509	1497.3112	1504.6205	1705.3608	2977.1272	3028.1276	3041.8477	3081.1029	3087.9383	3114.2904	3119.4806	3127.2785	3145.8829	3168.806
CC1OCC2OC2C=C1	C[C@@H]1OC[C@@H]2O[C@@H]2C=C1	
InChI=1S/C7H10O2/c1-5-2-3-6-7(9-6)4-8-5/h2-3,5-7H,4H2,1H3	InChI=1S/C7H10O2/c1-5-2-3-6-7(9-6)4-8-5/h2-3,5-7H,4H2,1H3/t5-,6+,7-/m0/s1
