19
gdb 2300	2.2251283	1.6036502	1.4257317	3.677	75.65	-0.23001	-0.0291	0.20090999999999998	1051.6059	0.154379	-422.549268	-422.540114	-422.53917	-422.582887	33.816	
C	-3.2906068025	 0.1735442846	 1.1215987099	-0.497892
C	-2.2107250135	-0.058948261	 0.0906713789	 0.232151
C	-2.5619087883	-0.7562199992	-1.233907856	-0.118305
O	-1.4175828847	-1.6367909683	-1.1432369148	-0.32468
C	-1.0805920491	-1.1623881796	 0.189936688	 0.28395
C	-0.9114449114	-2.2594401851	 1.2005067066	-0.489205
C	-0.0290601029	-0.037933157	 0.0357336619	 0.396321
O	 1.1662422205	-0.0131826358	 0.0569668398	-0.298676
C	-1.1233615176	 1.0410236005	-0.1022304944	-0.424828
H	-3.8770389235	-0.7340098353	 1.2992976179	 0.123885
H	-2.8662807907	 0.492531236	 2.0797844519	 0.121905
H	-3.9836809449	 0.9573232077	 0.7936892838	 0.127223
H	-3.4989694769	-1.3281268423	-1.2122730368	 0.101829
H	-2.5413886215	-0.1375655366	-2.1391328998	 0.104961
H	-0.0575082214	-2.8857309313	 0.9228215591	 0.149371
H	-0.717952434	-1.8475826465	 2.1962028455	 0.124776
H	-1.8032680153	-2.8916740282	 1.245558178	 0.125481
H	-1.0741139425	 1.7600251399	 0.7230972584	 0.131918
H	-1.1366866397	 1.5986827875	-1.043206708	 0.129814
72.7255	167.1178	174.1059	179.0733	203.2197	269.8617	316.7895	330.0244	387.07	494.5673	530.8469	586.3901	623.931	682.6332	802.2649	826.3048	868.1829	905.641	955.1716	993.9138	1008.1554	1040.7583	1061.1644	1125.8045	1135.9117	1155.5723	1170.1881	1201.8483	1251.9219	1286.8901	1301.5658	1364.5443	1404.2643	1415.5924	1433.8573	1475.3696	1482.289	1492.4223	1494.8497	1522.3017	1890.3176	3006.9746	3025.1356	3036.7009	3047.5158	3056.1846	3087.4681	3097.4514	3102.0856	3110.1068	3113.4536
CC12COC1(C)C(=O)C2	C[C@]12CO[C@@]1(C)C(=O)C2	
InChI=1S/C7H10O2/c1-6-3-5(8)7(6,2)9-4-6/h3-4H2,1-2H3	InChI=1S/C7H10O2/c1-6-3-5(8)7(6,2)9-4-6/h3-4H2,1-2H3/t6-,7-/m0/s1
