19
gdb 3300	3.959199	1.2049082	1.0423548	0.9076	74.13	-0.23715	0.07475	0.3119	1157.9537	0.158018	-422.531351	-422.523345	-422.522401	-422.564142	30.318	
O	 0.4549069689	-0.2023858885	 0.2335395843	-0.438459
C	-0.5514173128	 0.615832516	 0.7570175741	 0.139033
C	-1.4794988128	 0.143082651	 1.8428409822	-0.106581
C	-2.872353034	 0.7710793889	 1.8793977085	-0.259387
C	-2.6612682115	 2.2271760489	 2.3250968115	 0.140464
O	-2.7780482147	 2.3892861708	 3.7594837236	-0.291732
C	-1.4179809196	 2.8541214175	 3.869996138	-0.081249
C	-1.1363994701	 2.5406671044	 2.3869301363	-0.100365
C	-0.4310777221	 1.2253840289	 2.1263546486	-0.111368
H	 0.8047589785	-0.7518408787	 0.9420896514	 0.282599
H	-0.9701518727	 1.2208782302	-0.0440406758	 0.101327
H	-1.343294617	-0.8668516494	 2.2171907788	 0.081252
H	-3.3666324255	 0.7225348785	 0.9018035679	 0.099201
H	-3.523712376	 0.2727711294	 2.6031497933	 0.119407
H	-3.3025690167	 2.942991886	 1.7979581089	 0.071746
H	-1.3729513687	 3.9200035332	 4.1292419693	 0.095461
H	-0.8431942222	 2.2810814525	 4.6079465585	 0.097884
H	-0.7619075136	 3.3718726422	 1.7850312249	 0.078957
H	 0.4623963324	 0.9917234081	 2.6998416159	 0.081808
87.1712	111.658	176.0611	232.0232	288.5174	353.2987	390.9904	451.0351	638.8427	709.1181	796.7251	831.5715	834.0127	859.8638	897.6186	908.8206	944.4136	990.0772	1004.4489	1019.8551	1029.0308	1066.8964	1084.0574	1086.7159	1115.1035	1135.6075	1162.8504	1174.1994	1197.9113	1215.2845	1265.0032	1277.489	1289.6351	1313.6791	1335.7389	1355.551	1363.4806	1377.2263	1456.903	1477.3793	1524.596	3006.4055	3027.8017	3043.7827	3051.0838	3082.1195	3092.0704	3135.2018	3139.596	3159.1042	3821.7695
OC1C2CC3OCC3C12	O[C@H]1[C@@H]2C[C@H]3OC[C@H]3[C@H]12	
InChI=1S/C7H10O2/c8-7-3-1-5-4(2-9-5)6(3)7/h3-8H,1-2H2	InChI=1S/C7H10O2/c8-7-3-1-5-4(2-9-5)6(3)7/h3-8H,1-2H2/t3-,4-,5-,6-,7+/m1/s1
