19
gdb 3161	2.3071385	1.9704805	1.3350876	2.8624	73.84	-0.25071	0.0681	0.31881	1002.1111	0.157005	-422.539416	-422.531344	-422.530399	-422.571436	32.02	
C	 0.8620351603	 0.947363206	 0.033352224	-0.385637
C	 0.888193956	-0.5760280889	 0.1947381282	-0.117062
C	 1.2704918158	-1.2937645748	-1.1020469487	 0.047414
O	 2.5243805889	-0.8685628242	-1.6491674905	-0.258064
C	 2.483708897	-2.1044436808	-0.9218982051	 0.033294
C	 2.936268626	-1.9821963646	 0.4991996479	-0.121735
C	 1.9695314616	-2.5417261877	 1.5293497141	-0.359976
C	 1.958916602	-1.0691325843	 1.1928512223	 0.411013
O	 2.4620316796	-0.1692139403	 2.1332718738	-0.466733
H	 0.6580464659	 1.4424842849	 0.9859708398	 0.104614
H	 1.8243633412	 1.3062810197	-0.3378267848	 0.142999
H	 0.084324594	 1.2424798352	-0.6784830543	 0.106836
H	-0.1081922722	-0.9217549914	 0.5038811867	 0.067633
H	 0.5062909604	-1.5351638469	-1.837704084	 0.091204
H	 2.689623726	-2.9972598106	-1.5078885822	 0.095093
H	 3.992715151	-1.9400778678	 0.7377972206	 0.103448
H	 1.1535705203	-3.1766020942	 1.1958009443	 0.107528
H	 2.3953696911	-2.8080764451	 2.4904000361	 0.115193
H	 1.8222820051	-0.0944351042	 2.8498091218	 0.282938
118.7176	210.6456	237.5949	264.4204	302.0789	335.5082	392.3666	437.6973	487.8462	520.8452	634.3962	674.3288	753.4396	814.3369	825.8464	886.8697	891.1916	926.1631	929.6443	995.6089	1012.8947	1040.401	1046.834	1064.4579	1086.8457	1110.0229	1125.3955	1139.9694	1231.0126	1257.2772	1266.5278	1293.9224	1324.7968	1347.4008	1355.326	1396.3698	1407.1088	1432.3053	1481.3866	1489.6676	1501.0156	3004.2142	3045.0998	3112.2204	3120.9032	3131.5172	3136.0514	3144.4016	3182.6432	3215.7199	3795.126
CC1C2OC2C2CC12O	C[C@H]1[C@H]2O[C@H]2[C@@H]2C[C@]12O	
InChI=1S/C7H10O2/c1-3-5-6(9-5)4-2-7(3,4)8/h3-6,8H,2H2,1H3	InChI=1S/C7H10O2/c1-3-5-6(9-5)4-2-7(3,4)8/h3-6,8H,2H2,1H3/t3-,4-,5+,6-,7-/m0/s1
