19
gdb 6051	3.1170976	1.0263468	0.8154345	2.8763	78.9	-0.23881	-0.04521	0.1936	1414.6879	0.156484	-422.577702	-422.568565	-422.567621	-422.61265	32.286	
C	 1.4475617397	 0.0240835299	-0.1063725285	-0.229963
O	 0.042752125	 0.0296797235	-0.0087619749	-0.238143
C	-0.4211079891	 0.6487438889	 1.1719489441	-0.063656
C	-1.9428307483	 0.5918620207	 1.1798088378	-0.127292
C	-2.5438084089	-0.8253095744	 1.2733515995	-0.277661
C	-3.4712236824	-0.7584434455	 2.4600561023	-0.049598
C	-3.4606349045	 0.4308431026	 3.074246508	-0.177432
C	-2.5181210223	 1.3474786571	 2.396173194	 0.372978
O	-2.2248922441	 2.4760408035	 2.7207529566	-0.344713
H	 1.9130476691	-0.5275450472	 0.7259968072	 0.103628
H	 1.7085591576	-0.468725061	-1.0460733693	 0.126967
H	 1.8606423668	 1.0448353022	-0.1126702514	 0.108317
H	-0.0151185876	 0.1330999276	 2.0607465578	 0.084821
H	-0.0963230508	 1.6988993442	 1.2263111283	 0.112256
H	-2.2959709676	 1.1019545029	 0.2762837232	 0.114396
H	-3.080473328	-1.1195237641	 0.3643701568	 0.12452
H	-1.7699685451	-1.5890198682	 1.4205002815	 0.127584
H	-4.070016519	-1.6107110019	 2.7651018482	 0.115865
H	-4.0268509307	 0.7228405793	 3.9492016088	 0.117126
51.6773	88.6096	103.1505	138.4559	225.4508	270.804	306.2644	341.377	432.5769	529.6477	614.223	672.6667	752.6511	793.7414	854.1677	902.128	929.5839	962.4406	998.032	1008.0451	1084.1867	1113.2946	1119.5244	1156.3579	1176.3652	1178.8194	1199.6239	1215.7715	1242.3778	1262.3348	1320.0508	1332.5246	1369.766	1412.2579	1471.6237	1479.9457	1484.4072	1504.3703	1528.5603	1648.9617	1806.4092	2944.8078	2971.8394	3008.0725	3016.1164	3036.2275	3049.8203	3067.5465	3114.2705	3186.1108	3228.2175
COCC1CC=CC1=O	COC[C@H]1CC=CC1=O	
InChI=1S/C7H10O2/c1-9-5-6-3-2-4-7(6)8/h2,4,6H,3,5H2,1H3	InChI=1S/C7H10O2/c1-9-5-6-3-2-4-7(6)8/h2,4,6H,3,5H2,1H3/t6-/m1/s1
