19
gdb 5681	3.1253153	0.8703624	0.8270506	1.6506	77.14	-0.26192	0.04238	0.3043	1467.1312	0.153326	-422.508301	-422.49802	-422.497076	-422.544094	36.899	
C	 2.9112927309	-1.5176471265	 1.9344152108	-0.466217
C	 2.798623384	-0.0597077744	 1.5515264052	 0.38392
C	 2.4383943991	 0.18943683	 0.0833298839	-0.418352
C	 1.1078997491	-0.2913024046	-0.2697108067	 0.3123
C	 0.0074013518	-0.6913589935	-0.5406482097	-0.458728
O	 3.8421132355	 0.8060616296	 2.0193536031	-0.310298
C	 2.5013226142	 1.0183463167	 2.5107818817	-0.008845
C	 2.3228066949	 0.86089188	 4.0001503256	-0.093477
O	 2.9101640478	 1.9511050859	 4.6921482799	-0.416773
H	 3.2092846711	-1.6441570882	 2.9752792665	 0.129823
H	 1.9574855465	-2.0274343058	 1.771250874	 0.142037
H	 3.6647019738	-2.0061913529	 1.306525836	 0.127299
H	 2.5191000966	 1.2635269609	-0.1163250575	 0.141938
H	 3.1905674783	-0.3015734869	-0.5485625968	 0.135704
H	-0.9642341032	-1.0399223556	-0.7896542537	 0.200121
H	 2.0352723515	 1.9230212871	 2.114936077	 0.095651
H	 1.2557879966	 0.8789192466	 4.2475016115	 0.117057
H	 2.7331526685	-0.0972660241	 4.3446482745	 0.093534
H	 3.839294953	 1.9731308657	 4.4360806048	 0.293306
44.3081	78.2082	114.3982	156.6348	186.5688	227.1687	309.7025	349.1997	358.3668	396.283	409.4408	463.5823	531.6675	539.811	627.0286	650.7421	738.7135	811.8755	894.0269	927.2417	950.7509	978.3361	1025.566	1059.1473	1105.4219	1113.2744	1120.9324	1197.2047	1222.1556	1259.5503	1324.4229	1345.6777	1380.4453	1415.726	1421.7005	1464.2076	1469.969	1492.1033	1494.1463	1513.9367	2239.0961	3016.6576	3021.9975	3044.9253	3069.8721	3074.4056	3095.7068	3109.175	3150.9112	3505.7273	3801.3742
CC1(CC#C)OC1CO	C[C@]1(CC#C)O[C@@H]1CO	
InChI=1S/C7H10O2/c1-3-4-7(2)6(5-8)9-7/h1,6,8H,4-5H2,2H3	InChI=1S/C7H10O2/c1-3-4-7(2)6(5-8)9-7/h1,6,8H,4-5H2,2H3/t6-,7-/m1/s1
