19
gdb 2294	2.3810964	1.8895594	1.4430133	2.2169	73.98	-0.2394	-0.01615	0.22325	978.7353	0.157966	-422.597569	-422.589721	-422.588777	-422.629553	30.746	
C	-0.2480666601	 2.5282030147	 0.4792964759	-0.488059
C	-0.932416644	 1.2403101332	 0.0735868114	 0.159295
C	-1.622888696	 1.2529777095	-1.3187507389	-0.104981
O	-2.4932306964	 0.1117513745	-1.31918208	-0.27776
C	-2.3328725407	-0.5137945293	-0.036224875	 0.09059
C	-0.9637062244	-1.2144633518	-0.0171832685	-0.336393
C	-0.0196086963	 0.0019668649	 0.0231076913	 0.404354
O	 1.1830760631	-0.0042033012	 0.017151733	-0.332972
C	-2.1108987432	 0.6773645332	 0.9094524381	-0.276315
H	 0.157277256	 2.452972486	 1.4924966777	 0.127346
H	 0.5908848393	 2.7439051705	-0.1891383202	 0.136378
H	-0.9430143446	 3.3734422097	 0.4491120721	 0.114006
H	-2.2129897936	 2.1710689681	-1.4442125138	 0.103917
H	-0.9104843608	 1.1835392606	-2.1494552268	 0.114235
H	-3.1970191541	-1.1519897407	 0.1457836743	 0.084122
H	-0.8168797168	-1.8319059897	 0.8764044658	 0.127505
H	-0.7818985714	-1.8356134128	-0.8974664848	 0.136505
H	-2.9693503579	 1.3527530437	 0.9483386415	 0.111284
H	-1.8240470881	 0.3879887768	 1.9244576967	 0.106944
115.1174	173.1384	223.0469	265.3604	296.6364	383.8919	425.8058	488.0895	550.2966	607.0392	614.8569	696.4646	768.9879	850.1642	868.0501	897.218	932.2906	943.3767	969.5476	988.4835	1011.8636	1050.7948	1063.0582	1095.6519	1154.4777	1175.23	1188.5646	1218.0566	1260.0406	1264.7436	1294.1897	1304.7525	1345.5758	1388.5202	1415.8219	1435.1232	1488.382	1492.3034	1493.2888	1526.2821	1854.1232	3004.7807	3039.3771	3051.492	3053.1078	3060.797	3109.147	3112.7649	3114.5288	3116.4281	3125.2404
CC12COC(CC1=O)C2	C[C@@]12CO[C@@H](CC1=O)C2	
InChI=1S/C7H10O2/c1-7-3-5(9-4-7)2-6(7)8/h5H,2-4H2,1H3	InChI=1S/C7H10O2/c1-7-3-5(9-4-7)2-6(7)8/h5H,2-4H2,1H3/t5-,7+/m0/s1
