19
gdb 4260	2.5692413	1.5487779	1.0943777	2.1436	74.96	-0.23828	-0.02713	0.21115	1133.3093	0.156863	-422.566748	-422.558408	-422.557463	-422.600454	31.093	
C	-1.2598921019	-3.4413578729	-1.237013984	-0.405261
C	-1.2102001092	-1.9199557629	-1.3129465282	 0.019759
C	-2.5967406569	-1.2038431011	-1.2791130259	-0.273137
C	-2.2901834892	-0.6815660437	 0.1554846964	 0.127409
O	-2.2472438449	 0.7320317314	 0.3356070836	-0.266111
C	-0.9944786337	 1.2315931342	-0.0882070996	-0.195264
C	-0.0191964279	 0.0469032879	-0.1283215001	 0.368053
O	 1.1701100575	 0.1237802374	-0.2921194495	-0.306205
C	-0.8472903337	-1.218426421	 0.0432163186	-0.184263
H	-1.8902709806	-3.7791106186	-0.4063870062	 0.115931
H	-1.6729348112	-3.8614198977	-2.1605133447	 0.120168
H	-0.2598706853	-3.8631487503	-1.0921502028	 0.12533
H	-0.5646050871	-1.6174690146	-2.1427608615	 0.088086
H	-2.7068370618	-0.3926476814	-2.0029416756	 0.110426
H	-3.4638688787	-1.8638266765	-1.3638792165	 0.105263
H	-2.9296727465	-1.0865591615	 0.9413172994	 0.08954
H	-1.0429492398	 1.6864169417	-1.0910759172	 0.123153
H	-0.6475821285	 2.0009350393	 0.6093845519	 0.138562
H	-0.4318982208	-1.8548780096	 0.8269660219	 0.098561
38.0482	108.0118	164.6315	249.1259	256.4463	333.4795	414.0319	451.223	548.6213	597.9237	665.449	740.1931	776.0364	820.1998	878.5395	899.1222	910.3679	941.7952	971.1257	993.0597	1057.5415	1086.6591	1090.1885	1103.171	1166.2378	1187.6418	1207.7031	1212.4068	1231.9213	1261.3516	1265.4829	1282.8138	1324.2384	1362.0989	1373.6868	1408.6638	1470.2636	1486.2855	1494.5133	1495.3492	1848.5915	2978.8864	3025.4662	3054.458	3063.1096	3073.4153	3090.7029	3094.5047	3099.8841	3101.1503	3119.1719
CC1CC2OCC(=O)C12	C[C@H]1C[C@@H]2OCC(=O)[C@H]12	
InChI=1S/C7H10O2/c1-4-2-6-7(4)5(8)3-9-6/h4,6-7H,2-3H2,1H3	InChI=1S/C7H10O2/c1-4-2-6-7(4)5(8)3-9-6/h4,6-7H,2-3H2,1H3/t4-,6-,7-/m0/s1
