19
gdb 2427	2.5123235	2.042116	1.6237154	2.521	73.11	-0.24505	0.07881	0.32386	922.2601	0.158744	-422.567902	-422.560541	-422.559597	-422.599458	29.339	
C	 0.0382989211	 0.1809662518	-0.0623193167	-0.449489
C	 1.5043968243	-0.1177165833	 0.1664737237	 0.458484
O	 2.1459754598	 1.0758643313	 0.6005320186	-0.282406
C	 3.5394611951	 1.0092248538	 0.3048486701	-0.106409
C	 3.7045794165	-0.0831003403	-0.7430463111	-0.086231
C	 3.3548627421	-1.515100251	-0.3747161684	-0.086182
C	 2.8503721613	-1.8128131131	 1.0307089187	-0.1064
O	 1.6091940771	-1.1239574714	 1.167128692	-0.282503
C	 2.3349026631	-0.6276209454	-1.0266187227	-0.133906
H	-0.4112763566	 0.5280149432	 0.8707248033	 0.138664
H	-0.0741050399	 0.9619530111	-0.8174905115	 0.12326
H	-0.4839098994	-0.7210339977	-0.3887875979	 0.123198
H	 3.8563731518	 1.9829419167	-0.0854542953	 0.105365
H	 4.1140928453	 0.8091347606	 1.2204101423	 0.100733
H	 4.4257367627	 0.068016275	-1.5379069352	 0.092971
H	 3.845353039	-2.3085336885	-0.9266191964	 0.092966
H	 2.6669671997	-2.884687095	 1.1662726308	 0.105345
H	 3.5535000524	-1.4891584672	 1.8113169053	 0.100731
H	 1.9000502447	-0.7734055605	-2.0063388095	 0.091808
100.5103	195.1409	241.2569	284.2236	334.2203	440.094	517.5193	608.8901	624.8372	727.2131	744.4112	774.7708	804.4596	817.9728	869.1175	889.5621	950.1239	961.8462	985.5592	1019.928	1049.3855	1051.2661	1070.8697	1093.7427	1120.6038	1133.7476	1156.3568	1187.02	1217.2905	1226.838	1234.1775	1336.1584	1340.6993	1366.2956	1377.5345	1410.9568	1418.5584	1481.6105	1487.4957	1516.5474	1534.4404	3000.6506	3004.1295	3053.6681	3055.7901	3058.44	3138.7045	3139.0573	3174.4741	3182.0201	3202.7074
CC12OCC3C(CO1)C23	C[C@@]12OC[C@H]3[C@@H](CO1)[C@@H]23	
InChI=1S/C7H10O2/c1-7-6-4(2-8-7)5(6)3-9-7/h4-6H,2-3H2,1H3	InChI=1S/C7H10O2/c1-7-6-4(2-8-7)5(6)3-9-7/h4-6H,2-3H2,1H3/t4-,5+,6-,7+
