19
gdb 786	2.793809	1.2427864	1.0649156	3.2102	75.5	-0.25055	-0.02746	0.22309	1190.1237	0.156353	-422.527123	-422.518425	-422.517481	-422.560936	31.71	
O	 0.7859172119	 0.0610230275	 0.9117069073	-0.281524
C	 0.2879040245	-0.047368716	-0.1853399572	 0.076473
C	-0.5915065728	 0.9862564458	-0.8095468311	 0.255276
C	-1.4494217663	 1.7774470397	 0.1762811955	-0.29464
C	-0.2552897288	 2.4273356187	-0.4299535143	-0.294645
C	-1.1368844321	 0.700141793	-2.1904963671	-0.132949
C	-1.7738272948	-0.6961804815	-2.4042238944	-0.094016
O	-0.6453198735	-1.1352059896	-3.1895848088	-0.268706
C	-0.1156563033	 0.2061854232	-3.2460496495	-0.094017
H	 0.4668495576	-0.9527744553	-0.8032494377	 0.10227
H	-2.4361486718	 2.0729555328	-0.1634756956	 0.119588
H	-1.3811434916	 1.4698052147	 1.2132126255	 0.142672
H	-0.4010372778	 3.1805422608	-1.1966525713	 0.119588
H	 0.6181444095	 2.557886902	 0.1982196733	 0.142673
H	-1.7582007567	 1.5369578339	-2.5173338938	 0.078058
H	-1.9227093341	-1.313589158	-1.5106258723	 0.109141
H	-2.7011038744	-0.6896413923	-2.9920493052	 0.102809
H	 0.943445774	 0.2461553883	-2.9657260873	 0.109141
H	-0.2381279793	 0.6506928322	-4.2424618861	 0.102809
73.1591	103.5556	136.7398	213.9636	215.6323	275.9461	321.7768	355.9274	479.7715	589.145	726.9023	797.1222	826.7552	835.8209	872.3728	886.0614	951.4744	952.675	1001.5115	1033.2481	1056.2801	1058.3374	1068.5688	1072.7847	1096.3397	1106.1897	1159.8062	1169.5924	1205.9411	1238.9803	1264.373	1307.1794	1316.7363	1373.3986	1397.1273	1445.8167	1453.3474	1484.6043	1512.5747	1537.5625	1802.2877	2909.4686	3005.5737	3015.2804	3058.0163	3059.3214	3081.4475	3137.1752	3138.5862	3226.101	3239.6848
O=CC1(CC1)C1COC1	O=CC1(CC1)C1COC1	
InChI=1S/C7H10O2/c8-5-7(1-2-7)6-3-9-4-6/h5-6H,1-4H2	InChI=1S/C7H10O2/c8-5-7(1-2-7)6-3-9-4-6/h5-6H,1-4H2
