19
gdb 5620	2.2995701	1.5455504	1.0305015	1.0331	77.17	-0.22427	0.00992	0.23419	1179.4844	0.156488	-422.535222	-422.52654	-422.525595	-422.568556	32.646	
C	 1.494772705	-0.1248941456	 0.0105235921	-0.233905
O	 0.0943948805	 0.0320374978	-0.0354549462	-0.246482
C	-0.4332120741	 0.7133696746	 1.0936130507	 0.078896
C	-1.9470015938	 0.7181598916	 0.9948263768	-0.115954
C	-2.4571232702	 1.9483553566	 1.0710914309	-0.083984
C	-1.390212264	 2.9832458441	 1.1795713293	-0.153232
C	-0.4418663769	 3.0529246821	-0.0108424368	 0.109161
O	 0.3540526653	 4.1867577202	-0.1764364027	-0.435318
C	-0.0815215341	 2.2054530052	 1.1704716521	-0.102373
H	 1.8125261586	-0.6668224854	 0.9161780755	 0.099223
H	 1.7842055565	-0.7077529914	-0.8674081548	 0.12416
H	 2.0206475414	 0.8404245532	-0.0164205476	 0.115596
H	-0.0895989769	 0.1927286819	 2.0056372992	 0.065909
H	-2.5014414403	-0.1996598095	 0.842184743	 0.102868
H	-3.5122456885	 2.1930211074	 1.0159545855	 0.098769
H	-1.5133840873	 3.8741067585	 1.7846385577	 0.09162
H	-0.7511682395	 2.5460547802	-0.9243628168	 0.101356
H	-0.1721083124	 4.8548661098	-0.6283077173	 0.287088
H	 0.7537658908	 2.5436303986	 1.7705281894	 0.096604
80.8218	141.6931	161.2359	221.7497	267.8937	303.4729	321.4452	395.3118	440.5833	494.096	560.0084	708.8947	749.6397	814.9967	865.5149	873.4562	910.195	951.3279	971.555	990.6375	1025.4172	1046.6054	1059.5943	1078.5446	1129.3829	1140.0556	1153.9388	1175.2603	1182.2999	1217.8968	1271.8156	1283.2326	1302.7199	1334.4628	1359.2213	1382.8062	1453.3941	1477.5146	1486.8656	1509.8527	1673.0931	2933.4872	2971.7343	3026.656	3111.0827	3112.3376	3176.8131	3189.0906	3194.7453	3218.8158	3804.9291
COC1C=CC2C(O)C12	CO[C@@H]1C=C[C@@H]2[C@@H](O)[C@H]12	
InChI=1S/C7H10O2/c1-9-5-3-2-4-6(5)7(4)8/h2-8H,1H3	InChI=1S/C7H10O2/c1-9-5-3-2-4-6(5)7(4)8/h2-8H,1H3/t4-,5+,6-,7+/m0/s1
