19
gdb 1732	2.1910922	1.9448677	1.5260184	0.8616	73.52	-0.2175	0.06554	0.28304	975.1414	0.154897	-422.495393	-422.486827	-422.485883	-422.527669	33.59	
C	 0.1087737251	-0.1387690188	-0.1152085275	-0.444663
C	 1.630099821	-0.1970171153	 0.0162128808	 0.244407
C	 2.0765009631	-1.1275817748	 1.1395282382	-0.469342
C	 2.322950918	-0.3752610181	-1.3774308548	 0.028342
O	 3.7528258935	-0.3754239172	-1.0876516483	-0.290118
C	 3.5979638571	 1.0152122155	-0.8033627913	-0.012561
C	 2.3259601632	 1.1869747598	-1.5695981842	-0.198348
C	 2.2593374739	 1.2076317072	-0.0546119444	 0.313587
O	 1.9693829702	 2.3081964508	 0.7227612237	-0.461402
H	-0.3409264757	 0.281602652	 0.7903087497	 0.121975
H	-0.2013073489	 0.48684885	-0.9581697126	 0.117747
H	-0.3077128696	-1.1416748304	-0.2613328907	 0.10992
H	 1.7434563604	-0.7454470663	 2.1118613059	 0.106674
H	 1.6438712492	-2.1274804147	 1.0198569539	 0.111569
H	 3.1639318295	-1.2244613967	 1.1544383125	 0.131656
H	 2.0157798871	-1.1419256029	-2.0867195611	 0.082265
H	 4.4710554877	 1.6445593835	-0.6869013094	 0.110486
H	 1.9991606256	 1.8640339155	-2.3454875305	 0.106303
H	 2.5012078096	 2.265158401	 1.52530455	 0.291504
180.2177	189.3947	204.2399	229.3525	257.8743	288.5868	339.8678	353.9532	421.9362	540.7676	588.748	621.675	652.1254	780.0626	797.7868	837.3706	842.9003	915.0064	926.8826	950.6773	954.2797	977.4117	1010.1952	1023.1177	1050.1012	1119.9954	1137.2559	1177.5398	1198.2234	1221.0557	1240.4947	1281.1747	1303.734	1330.8063	1395.2403	1416.7865	1437.1717	1484.8658	1485.2793	1504.2062	1509.5222	3025.5928	3030.9575	3082.5825	3094.9471	3103.5681	3129.9615	3136.0035	3201.4893	3221.6423	3794.5685
CC1(C)C2OC3C2C13O	CC1(C)[C@@H]2O[C@H]3[C@@H]2[C@@]13O	
InChI=1S/C7H10O2/c1-6(2)4-3-5(9-4)7(3,6)8/h3-5,8H,1-2H3	InChI=1S/C7H10O2/c1-6(2)4-3-5(9-4)7(3,6)8/h3-5,8H,1-2H3/t3-,4-,5+,7+/m1/s1
