19
gdb 5496	3.3354646	1.2458849	1.0797169	2.5053	76.51	-0.22286	0.01658	0.23944000000000001	1160.5107	0.157467	-422.55331	-422.544979	-422.544035	-422.585819	32.659	
O	 1.3585304195	 0.2760357538	-0.4802276481	-0.417002
C	 0.4118165831	 0.069260985	 0.58317217	-0.125775
C	-0.5270621741	 1.2434121763	 0.7462907725	-0.12402
C	-2.0414149514	 0.9986239841	 0.7602762812	-0.163984
C	-2.8640341831	 2.0972622277	 1.3378364244	-0.077286
C	-2.7468255981	 3.2244103487	 0.6286923929	-0.083422
C	-1.8599843863	 3.0431100171	-0.5827225176	-0.336747
C	-1.3583907366	 1.6024379218	-0.4585473886	 0.422977
O	-1.169820215	 0.8875135342	-1.6375846576	-0.484353
H	 1.870319758	 1.063846205	-0.2677838268	 0.287908
H	-0.1376078017	-0.828945336	 0.2915109139	 0.126476
H	 0.9350279706	-0.1500204931	 1.5234628802	 0.103132
H	-0.1639143887	 2.0556069851	 1.3740231459	 0.08003
H	-2.3839192815	-0.0304856624	 0.7730643708	 0.092237
H	-3.4597359065	 1.9780893303	 2.2358279958	 0.094027
H	-3.222382315	 4.1685043036	 0.8681323924	 0.09413
H	-2.4194146958	 3.1552349257	-1.521144326	 0.120038
H	-1.039324231	 3.7711994963	-0.6191846105	 0.100558
H	-0.2207651464	 0.7057201767	-1.706640875	 0.291077
112.4703	159.6463	212.823	228.3695	323.4142	368.8079	378.002	415.1925	440.43	550.407	596.0455	676.5482	727.7832	728.6082	775.8391	846.2644	931.4821	938.9506	955.7138	963.9905	986.6214	1011.7512	1019.5362	1050.3775	1073.7915	1089.4952	1135.5377	1150.2425	1185.6724	1226.7692	1257.4783	1287.2827	1330.7436	1360.1818	1372.6031	1410.7326	1419.3697	1426.8566	1473.5446	1498.6792	1662.4072	3016.3621	3017.9362	3047.2567	3099.5952	3118.4656	3169.7926	3185.968	3210.2712	3706.9932	3811.0527
OCC1C2C=CCC12O	OC[C@@H]1[C@H]2C=CC[C@@]12O	
InChI=1S/C7H10O2/c8-4-6-5-2-1-3-7(5,6)9/h1-2,5-6,8-9H,3-4H2	InChI=1S/C7H10O2/c8-4-6-5-2-1-3-7(5,6)9/h1-2,5-6,8-9H,3-4H2/t5-,6-,7+/m1/s1
