19
gdb 4560	2.9331849	1.1318315	0.8626127	0.4554	78.01	-0.25468	0.03443	0.28911000000000003	1323.3538	0.156563	-422.532306	-422.523445	-422.522501	-422.56557	33.876	
O	-4.0026211213	-0.4603849468	-2.450052399	-0.434564
C	-2.8706878746	-0.241011674	-1.6231129785	 0.117214
C	-3.1140705348	-0.6368691974	-0.1634076669	-0.223107
C	-1.8753041714	-0.3263112282	 0.6818762908	-0.079507
O	-1.5015508977	 1.0391627455	 0.584925544	-0.253667
C	-1.1683611376	 1.4095477275	-0.7492257666	-0.077831
C	-2.3719442545	 1.207407544	-1.6944322305	-0.226442
C	-0.7054377368	 2.7936382098	-0.7439097315	 0.298247
C	-0.3357343177	 3.935642089	-0.7801857221	-0.404305
H	-4.7180090304	 0.0964310977	-2.1228674501	 0.2769
H	-2.0967522732	-0.899076249	-2.0406368205	 0.089799
H	-3.9653272829	-0.0648080024	 0.2298525893	 0.09558
H	-3.3678822118	-1.7000004199	-0.096749468	 0.105435
H	-2.0602313001	-0.5124687193	 1.7429660499	 0.114177
H	-1.0356206602	-0.9708331907	 0.3684763688	 0.090733
H	-0.3411744842	 0.7656637407	-1.1010403991	 0.095546
H	-3.1708364315	 1.8913542814	-1.3812862582	 0.103058
H	-2.0926519543	 1.46556948	-2.7200455633	 0.116117
H	-0.0021555449	 4.943615752	-0.8003526387	 0.196616
104.955	136.7184	166.5326	248.0942	283.0049	334.546	351.2787	401.0189	419.3326	472.7669	518.1143	558.9672	597.5178	622.2081	672.9277	815.7761	858.2535	889.7936	955.6095	964.9016	1026.6435	1049.4686	1081.6084	1096.9489	1122.369	1152.4595	1186.4101	1220.6464	1270.1183	1276.4303	1319.1883	1348.825	1361.0026	1380.1536	1385.8384	1405.3309	1433.305	1470.2625	1486.6288	1499.2009	2246.0339	2931.2629	2958.7191	3016.933	3024.9388	3038.0893	3084.055	3093.8204	3098.5506	3505.3213	3798.6368
OC1CCOC(C1)C#C	O[C@@H]1CCO[C@@H](C1)C#C	
InChI=1S/C7H10O2/c1-2-7-5-6(8)3-4-9-7/h1,6-8H,3-5H2	InChI=1S/C7H10O2/c1-2-7-5-6(8)3-4-9-7/h1,6-8H,3-5H2/t6-,7-/m1/s1
