19
gdb 3826	2.1592441	1.748595	1.1520801	3.462	75.23	-0.23519	-0.02034	0.21485	1102.0611	0.155074	-422.55514	-422.546285	-422.545341	-422.588755	33.67	
C	-0.5659571931	-1.4821628894	-2.6423956686	-0.403548
C	-1.4495561979	-1.6162953126	-1.408750494	 0.031704
C	-2.6517518628	-0.6319874084	-1.2475700011	-0.323805
C	-2.1058803193	-0.1600706315	 0.1226866307	 0.429597
O	-2.9695245088	-0.07468302	 1.2126858158	-0.477337
C	-1.1323168453	 1.040843143	 0.0620191336	-0.395605
C	 0.0358622661	 0.0527592947	-0.1019088671	 0.434052
O	 1.2195218327	 0.1946956051	-0.2249526099	-0.312935
C	-0.8761399343	-1.1700664137	-0.015945351	-0.270345
H	 0.317037698	-2.1248595537	-2.567897426	 0.129182
H	-1.1186025116	-1.769408247	-3.5434046671	 0.114803
H	-0.21163826	-0.4556504368	-2.7811661909	 0.125271
H	-1.7954862246	-2.6507552007	-1.3276480923	 0.084638
H	-2.7465076399	 0.1472108278	-2.0102286967	 0.104195
H	-3.6173265515	-1.1413099872	-1.1655349232	 0.095649
H	-3.5281590513	-0.8589043804	 1.2260485043	 0.280626
H	-1.2734283415	 1.7921340441	-0.7198559824	 0.122326
H	-1.0802796267	 1.5427878212	 1.0343567923	 0.14493
H	-0.6022761883	-1.9561998942	 0.6893375136	 0.086602
46.4428	120.1956	221.9382	231.8219	311.0505	330.9978	356.4444	378.5996	405.0614	449.2036	562.9308	577.443	605.9241	706.1342	805.9578	860.0827	870.0955	913.4056	924.3821	947.6954	993.8858	1023.0115	1080.9692	1097.4374	1106.2691	1115.7787	1139.0841	1161.6464	1211.7782	1226.169	1243.766	1293.9303	1310.7992	1361.8634	1384.0819	1415.7819	1428.8298	1483.5438	1492.4709	1494.3801	1879.8521	3032.5894	3041.9044	3051.9317	3053.3861	3093.0313	3100.4599	3105.0171	3108.0803	3110.7851	3809.818
CC1CC2(O)CC(=O)C12	C[C@@H]1C[C@]2(O)CC(=O)[C@H]12	
InChI=1S/C7H10O2/c1-4-2-7(9)3-5(8)6(4)7/h4,6,9H,2-3H2,1H3	InChI=1S/C7H10O2/c1-4-2-7(9)3-5(8)6(4)7/h4,6,9H,2-3H2,1H3/t4-,6+,7+/m1/s1
