19
gdb 3591	2.3309845	1.5021426	0.9515587	3.5544	80.61	-0.24031	-0.04356	0.19674999999999998	1240.4902	0.155404	-422.608579	-422.598904	-422.59796	-422.643376	34.633	
C	 0.5094632037	-2.6664066556	-0.0676821573	-0.490468
C	-0.3281133336	-1.4388494007	 0.0760590342	 0.206145
C	 0.062366959	-0.1521113585	-0.0609407504	 0.117112
C	 1.4130689359	 0.4246384373	-0.3456641612	-0.505827
C	-1.0943878261	 0.7195680554	 0.2103675588	 0.299121
O	-1.1042071729	 1.914478371	 0.4287326782	-0.358619
C	-2.3535057532	-0.1523260678	 0.255732822	 0.052296
O	-3.2387265242	 0.2653619078	 1.2647456151	-0.441281
C	-1.7945118297	-1.568014461	 0.4467942673	-0.331575
H	 0.4765803287	-3.2665438892	 0.8501442751	 0.140994
H	 0.1120706212	-3.3056004712	-0.8666238778	 0.140405
H	 1.5526885202	-2.4420749952	-0.2980443888	 0.132958
H	 1.587610238	 1.286741046	 0.3057337551	 0.150612
H	 2.2195963711	-0.2970458695	-0.1977315915	 0.12321
H	 1.4751385721	 0.7945287249	-1.3761017128	 0.138073
H	-2.8293593022	-0.0828519758	-0.7387296007	 0.090182
H	-3.085417128	 1.2168099888	 1.3610587057	 0.290969
H	-1.904518006	-1.8635077748	 1.497563854	 0.13507
H	-2.303337554	-2.3292999721	-0.1546163452	 0.110623
72.9102	80.5637	128.5998	141.0882	228.5548	267.1823	288.4081	302.1253	408.6727	429.42	493.8012	546.3192	550.7564	582.4896	699.8938	796.0446	860.5383	925.703	958.5487	1004.6811	1043.6883	1062.3025	1067.4557	1118.7182	1140.0375	1191.8718	1196.4172	1235.416	1297.055	1349.1844	1369.1562	1411.5988	1412.9184	1417.7952	1473.4069	1477.0244	1478.5492	1482.5429	1490.3591	1694.2701	1796.1778	2943.3349	3023.0392	3034.8394	3036.0244	3069.0644	3073.3811	3090.6881	3124.3344	3130.9685	3727.204
CC1=C(C)C(=O)C(O)C1	CC1=C(C)C(=O)[C@H](O)C1	
InChI=1S/C7H10O2/c1-4-3-6(8)7(9)5(4)2/h6,8H,3H2,1-2H3	InChI=1S/C7H10O2/c1-4-3-6(8)7(9)5(4)2/h6,8H,3H2,1-2H3/t6-/m1/s1
