19
gdb 493	3.6797299	1.3057879	1.168571	2.9739	74.33	-0.24181	0.05924	0.30105	1095.9793	0.157883	-422.491148	-422.483459	-422.482514	-422.523855	29.03	
C	-3.239161846	 1.7261026689	 0.2151821848	-0.078562
O	-2.3814643768	 1.1343122037	 1.2233133183	-0.288149
C	-1.2876033141	 2.0019508592	 0.865731955	 0.04068
C	-2.1071356142	 2.6344905728	-0.293758666	-0.074379
C	-1.1487727664	 1.9629708944	-1.3140110492	-0.339251
C	-0.3192751455	 1.3501397152	-0.1512690478	 0.296572
C	 1.200044486	 1.5663979615	-0.0184694657	-0.135872
O	 1.4194788668	 0.1738836107	 0.273200065	-0.274863
C	 0.0352202388	-0.1373282273	-0.0049258475	-0.129819
H	-3.6281997515	 0.982700371	-0.4922774794	 0.10193
H	-4.0816664361	 2.2544188575	 0.6783963364	 0.105222
H	-0.8649527215	 2.5233267124	 1.7302089856	 0.074661
H	-2.3149593561	 3.697584958	-0.4018222421	 0.080878
H	-1.6164353874	 1.2466704615	-1.9969882961	 0.103916
H	-0.5754314232	 2.6785642151	-1.9105254657	 0.107329
H	 1.6962932193	 1.8762913792	-0.9497142352	 0.093175
H	 1.5338164167	 2.2210214623	 0.7976302976	 0.101062
H	-0.0728865827	-0.7273342402	-0.9257487491	 0.09425
H	-0.455475266	-0.661178856	 0.8219205212	 0.121218
78.6021	84.5682	198.6128	254.9138	333.2926	365.0623	456.2897	510.9897	737.6906	785.2663	839.7858	843.6942	872.2709	891.6292	914.0815	950.8882	972.9159	985.4714	1010.1976	1022.3596	1034.7724	1051.8228	1135.7382	1148.8036	1155.06	1158.2078	1181.6483	1186.1043	1222.3867	1226.4649	1239.1923	1272.8614	1302.6012	1304.1732	1326.987	1358.8777	1377.7569	1477.0584	1508.1082	1524.7606	1533.5493	2987.4048	3005.0305	3010.4777	3035.0035	3044.6602	3054.61	3061.1396	3074.6732	3095.1703	3125.6178
C1OC2C1CC21COC1	C1O[C@@H]2[C@H]1CC12COC1	
InChI=1S/C7H10O2/c1-5-2-9-6(5)7(1)3-8-4-7/h5-6H,1-4H2	InChI=1S/C7H10O2/c1-5-2-9-6(5)7(1)3-8-4-7/h5-6H,1-4H2/t5-,6+/m0/s1
