19
gdb 4444	3.7599732	1.1336964	0.9962989	2.7657	76.76	-0.25581	-0.03446	0.22135	1230.8277	0.15641	-422.571864	-422.563288	-422.562344	-422.605027	32.028	
C	 1.6953817015	 1.5846931454	 0.0928002503	-0.40545
C	 1.679092056	 0.0567358175	 0.0099594309	 0.004679
C	 2.4826279967	-0.5234283245	-1.1825370135	-0.23668
C	 2.936138473	-1.9353437855	-0.7476304083	-0.298962
C	 3.0438067791	-1.8305180799	 0.7594088786	 0.31046
O	 3.7193957276	-0.6444309521	 1.2310377963	-0.29025
C	 2.2967097995	-0.6327357032	 1.2172549893	-0.012985
C	 3.1895622763	-3.0178353211	 1.6397683454	 0.088024
O	 3.0541941418	-4.1559065074	 1.2644357476	-0.259347
H	 1.0990491149	 1.9481013426	 0.9362108644	 0.115541
H	 2.7195716236	 1.9499605691	 0.218858875	 0.132033
H	 1.2864812654	 2.02898315	-0.8201882757	 0.119971
H	 0.6376659039	-0.2899900005	-0.0477802216	 0.082188
H	 1.897731885	-0.5360669769	-2.1052598001	 0.104213
H	 3.3598551404	 0.1044218869	-1.360001874	 0.118155
H	 2.1897107937	-2.7016647471	-0.9818925983	 0.125685
H	 3.8755957772	-2.244613415	-1.2139466023	 0.118322
H	 1.823287337	-0.5753122317	 2.1960858706	 0.099575
H	 3.4367437473	-2.7613584666	 2.6934922754	 0.084827
86.7842	148.7668	167.0461	213.99	246.6394	278.3945	360.6401	390.1165	477.1141	529.885	615.7984	649.3289	738.9727	823.2045	843.2447	862.7637	929.0214	944.3011	966.3516	997.2262	1023.0131	1054.4463	1066.375	1133.6858	1142.3875	1196.2757	1225.4472	1258.8369	1281.1327	1313.6759	1335.0485	1345.8842	1364.6055	1393.3601	1410.9086	1439.959	1483.4719	1494.4479	1499.0047	1501.533	1817.232	2896.8848	3011.3087	3033.8815	3058.135	3066.5851	3098.0355	3101.6243	3108.988	3115.5154	3132.0702
CC1CCC2(OC12)C=O	C[C@H]1CC[C@]2(O[C@@H]12)C=O	
InChI=1S/C7H10O2/c1-5-2-3-7(4-8)6(5)9-7/h4-6H,2-3H2,1H3	InChI=1S/C7H10O2/c1-5-2-3-7(4-8)6(5)9-7/h4-6H,2-3H2,1H3/t5-,6-,7-/m0/s1
