19
gdb 763	2.4713359	1.6851604	1.1454078	1.6049	75.86	-0.24315	-0.01848	0.22467	1091.1647	0.158138	-422.568407	-422.560356	-422.559412	-422.601108	30.888	
O	 1.0753058657	-0.0218690848	 0.5715430537	-0.326556
C	-0.0674003249	 0.0075598631	 0.1690503996	 0.309467
C	-0.7867525754	 1.3193997991	-0.123841062	-0.306782
C	-1.8726157204	 1.1798103936	-1.1983898012	-0.095182
O	-2.7376128584	 0.0971813245	-0.9085285129	-0.234567
C	-2.0475716318	-1.1349654301	-0.9858537401	-0.175971
C	-0.9049844539	-1.2302620594	 0.0153906328	 0.230757
C	-1.1020894811	-2.0166382581	 1.3105695462	-0.284157
C	-0.2257628822	-2.5595996802	 0.225674366	-0.301847
H	-1.2646143338	 1.6250577895	 0.8166076936	 0.137411
H	-0.0462901392	 2.0823182145	-0.3794232856	 0.123424
H	-2.4943346859	 2.0779745839	-1.2420365711	 0.114857
H	-1.4114744483	 1.04111532	-2.1908729067	 0.095565
H	-2.7851835253	-1.9227575204	-0.8049629153	 0.108645
H	-1.652497688	-1.2737837582	-2.007408295	 0.093847
H	-0.6222464932	-1.6284711575	 2.2019387593	 0.133429
H	-2.0800590948	-2.4591131195	 1.4695489913	 0.12069
H	 0.8465755626	-2.525601234	 0.377617667	 0.141964
H	-0.5908705417	-3.3974890859	-0.3594476094	 0.115007
69.1364	135.1044	235.4809	271.6275	290.3491	379.6755	399.3426	443.7102	509.176	576.0097	658.7733	707.7619	792.1693	829.4024	847.558	897.387	943.0833	960.6604	978.6682	1007.6945	1049.0404	1062.1341	1086.8565	1102.8644	1110.4656	1168.1508	1199.7167	1226.2991	1250.2146	1299.2626	1318.7827	1339.7845	1345.8773	1399.9694	1422.908	1444.1823	1455.4871	1484.7834	1497.2907	1509.0177	1794.7357	2952.2686	2966.9283	3030.6646	3076.4402	3091.0761	3102.8776	3131.9452	3135.8195	3219.6218	3234.6604
O=C1CCOCC11CC1	O=C1CCOCC21CC2	
InChI=1S/C7H10O2/c8-6-1-4-9-5-7(6)2-3-7/h1-5H2	InChI=1S/C7H10O2/c8-6-1-4-9-5-7(6)2-3-7/h1-5H2
