19
gdb 906	3.3391197	1.1071474	0.963653	1.0189	75.51	-0.24791	-0.02939	0.21852	1246.555	0.155906	-422.528565	-422.51987	-422.518926	-422.56323	31.285	
O	 0.0176887569	-0.9814920049	 0.3472814991	-0.236666
C	 0.3221268147	 0.1358253363	 0.0180638266	 0.163867
C	-0.2420786986	 0.8658223752	-1.1827609581	-0.393044
C	-1.0666123525	 2.0705585245	-0.7491296825	 0.296995
C	-2.4334511849	 1.8123955159	-0.0411475037	-0.290756
C	-3.1475026236	 2.7473366922	-1.0671361194	-0.229288
C	-1.7847299327	 3.0607126433	-1.7193456584	 0.063352
O	-1.1201075873	 4.189699712	-1.1165276889	-0.289904
C	-0.3477602588	 3.3389411475	-0.2421323609	-0.125221
H	 1.0510105778	 0.7284405097	 0.6195106705	 0.07715
H	 0.5949952354	 1.2022706359	-1.8102240007	 0.11778
H	-0.8501686218	 0.1609026743	-1.7580423634	 0.121704
H	-2.7551451367	 0.7699127756	-0.0956988095	 0.118864
H	-2.4762368028	 2.1267733783	 1.0049299367	 0.106656
H	-3.8343317226	 2.2149271147	-1.7305028696	 0.106053
H	-3.6528877344	 3.6263075257	-0.6624745673	 0.115637
H	-1.6963505302	 3.0593725317	-2.8097980467	 0.075544
H	 0.722848667	 3.3862228345	-0.4866824552	 0.096848
H	-0.481381335	 3.5932390477	 0.8169170114	 0.10443
42.266	70.3962	96.1963	170.8201	271.8984	324.0729	366.2426	410.7555	490.2566	647.3508	670.9894	738.9729	841.3184	869.0237	882.0269	907.7595	935.9892	953.078	981.6228	1010.8043	1034.8322	1046.0732	1099.2964	1118.7554	1146.9199	1166.4876	1197.1543	1221.8077	1249.1431	1266.9605	1280.2181	1293.7196	1303.6963	1323.7991	1375.1465	1430.537	1462.3994	1464.9908	1489.7094	1525.8724	1832.1686	2856.9909	2994.5534	3017.3768	3045.252	3058.9115	3061.6728	3071.931	3091.7826	3109.3243	3129.2566
O=CCC12CCC1OC2	O=CC[C@]12CC[C@H]1OC2	
InChI=1S/C7H10O2/c8-4-3-7-2-1-6(7)9-5-7/h4,6H,1-3,5H2	InChI=1S/C7H10O2/c8-4-3-7-2-1-6(7)9-5-7/h4,6H,1-3,5H2/t6-,7+/m1/s1
