19
gdb 1679	2.900123	1.3550825	1.1842984	2.5382	75.45	-0.2585	-0.03922	0.21928	1109.2144	0.156305	-422.54041	-422.532077	-422.531133	-422.573511	31.947	
O	 1.6897846927	 0.2599859297	-2.0210402187	-0.479972
C	 1.5223183257	 1.0759375211	-0.8986916588	 0.32526
C	 0.2118786859	 1.9463350383	-0.9325582269	-0.301652
C	 1.0462470108	 3.2445566192	-0.8943974741	-0.006126
C	 1.4631708885	 3.7392305252	 0.5238973129	-0.233232
C	 2.8522602982	 3.0512507268	 0.3564656774	-0.242902
C	 2.3691193487	 2.4060300742	-0.9669607389	-0.067304
C	 1.6692504684	 0.2437302553	 0.3509963358	 0.101848
O	 1.9224464117	-0.938081332	 0.3064116671	-0.28193
H	 1.8867088953	-0.6258569231	-1.674591695	 0.289901
H	-0.2817324636	 1.7752972807	-1.8913171644	 0.128059
H	-0.5139997873	 1.7976018275	-0.1262559793	 0.097526
H	 0.7924295456	 4.018319709	-1.6187124967	 0.072523
H	 1.506327663	 4.824202006	 0.6397577021	 0.107315
H	 0.8416074038	 3.34224026	 1.3329097903	 0.097275
H	 3.6436018379	 3.7805830981	 0.1654251284	 0.110331
H	 3.1995778693	 2.3929684457	 1.157373663	 0.099038
H	 3.0431257339	 2.3974169994	-1.8232467223	 0.083965
H	 1.5057516816	 0.7579502489	 1.3177516079	 0.100076
68.8833	89.8921	234.5784	263.3352	320.7495	346.9042	384.4351	425.4407	469.4893	509.4158	656.2021	745.2638	791.1545	819.3819	839.3535	860.0846	880.4687	921.4583	936.2879	957.4474	991.228	1038.866	1067.1114	1085.9731	1096.9328	1153.8618	1168.5561	1203.1257	1229.3146	1240.1787	1250.2134	1278.0719	1283.6402	1300.5977	1326.7087	1386.565	1437.9432	1461.1214	1482.347	1499.8114	1799.5502	2945.7481	3046.0088	3050.7749	3058.1572	3093.0014	3104.0778	3112.0344	3118.3832	3124.194	3672.1678
OC1(CC2CCC12)C=O	O[C@@]1(C[C@H]2CC[C@@H]12)C=O	
InChI=1S/C7H10O2/c8-4-7(9)3-5-1-2-6(5)7/h4-6,9H,1-3H2	InChI=1S/C7H10O2/c8-4-7(9)3-5-1-2-6(5)7/h4-6,9H,1-3H2/t5-,6-,7+/m1/s1
