19
gdb 665	2.4793769	1.7704249	1.5346495	3.3384	73.72	-0.22706	-0.02769	0.19937000000000002	961.7767	0.159851	-422.592446	-422.585259	-422.584315	-422.623827	28.993	
O	 1.1723697672	-0.1180654087	 0.2910997751	-0.317621
C	-0.0210220072	-0.0660224595	 0.1628110557	 0.397707
C	-0.8901882125	 1.2016373277	 0.1352508162	-0.332035
C	-2.3353605371	 0.6617584427	 0.0635980748	-0.022889
C	-2.1528778108	-0.6340543006	-0.7653311011	-0.242839
C	-0.9821443817	-1.2736849589	-0.0156128806	 0.030423
O	-1.4197181953	-1.7541033941	 1.2563803855	-0.270276
C	-1.8898124945	-0.7318710223	 2.1336093181	-0.078782
C	-2.8597473691	 0.2482949613	 1.4541049336	-0.220382
H	-0.674104318	 1.8402584097	 0.9970735654	 0.12664
H	-0.633337811	 1.7754269766	-0.7633577325	 0.13095
H	-3.0209104548	 1.3728196663	-0.4030989022	 0.072081
H	-3.0364593646	-1.2770966609	-0.7697588716	 0.107933
H	-1.8758448845	-0.4096972291	-1.8022226611	 0.100205
H	-0.4928197942	-2.1138933868	-0.5091691972	 0.094972
H	-2.3741674415	-1.2542643009	 2.9627652326	 0.114412
H	-1.0340335232	-0.1812062963	 2.5549621812	 0.104815
H	-3.8427740646	-0.2217560203	 1.336913757	 0.104817
H	-2.9916200927	 1.122457924	 2.1026308211	 0.099868
104.347	235.8593	275.2507	347.8423	409.382	418.5296	466.9533	531.2248	597.0899	642.1774	750.5532	791.6107	813.1932	849.9946	883.1043	894.2709	927.6681	956.6925	997.6114	1037.3782	1038.8708	1083.0838	1101.8424	1137.3517	1148.5388	1186.1949	1207.1711	1246.5316	1264.8586	1281.9297	1318.6407	1329.3694	1346.8013	1360.0364	1378.4683	1413.9005	1447.0434	1474.4086	1489.7766	1512.9426	1857.5156	2980.7628	3031.0609	3038.7952	3042.7202	3073.3553	3078.2148	3091.3326	3093.5236	3103.675	3116.8389
O=C1CC2CC1OCC2	O=C1C[C@H]2C[C@@H]1OCC2	
InChI=1S/C7H10O2/c8-6-3-5-1-2-9-7(6)4-5/h5,7H,1-4H2	InChI=1S/C7H10O2/c8-6-3-5-1-2-9-7(6)4-5/h5,7H,1-4H2/t5-,7-/m0/s1
