19
gdb 5812	2.6460769	1.6212448	1.1972536	2.0183	76.23	-0.24557	0.00257	0.24814	1081.0316	0.157433	-422.529228	-422.520939	-422.519995	-422.56238	31.101	
C	 1.4492832693	-0.0913146833	-0.0016872615	-0.239451
O	 0.0420584146	 0.0091457109	 0.0449145298	-0.232451
C	-0.4541909044	 0.7547463335	 1.1366018887	 0.105959
C	-1.9838430376	 0.6153834456	 1.0966402275	-0.295364
C	-2.6741640328	 1.6136441229	 0.2022605397	-0.0449
C	-2.1699433828	 2.8153577281	-0.0753619562	-0.077294
C	-0.8655382374	 3.24223177	 0.4869015262	 0.022521
O	 0.329754068	 2.7717154614	-0.1687196873	-0.23802
C	 0.0008061447	 2.2286407963	 1.1090501201	-0.019037
H	 1.8551682678	-0.5043699742	 0.9362691586	 0.094925
H	 1.6911135256	-0.7760741721	-0.8181681944	 0.125692
H	 1.9251813681	 0.8769996041	-0.1994773469	 0.130944
H	-0.0811923171	 0.3131582756	 2.0768409826	 0.056508
H	-2.2071165573	-0.4053406369	 0.771451679	 0.123413
H	-2.3868509249	 0.7067391627	 2.1153525165	 0.113585
H	-3.6402531246	 1.3242442659	-0.2031142831	 0.096345
H	-2.7017933704	 3.5145564774	-0.7136495989	 0.093398
H	-0.7901092943	 4.2761509645	 0.8234742873	 0.091561
H	 0.6755143456	 2.5360067675	 1.9081352023	 0.091665
53.3341	137.1228	192.7781	234.769	280.812	306.9073	365.4487	484.2032	501.5625	565.4497	666.2547	718.913	767.147	844.5674	857.1353	890.9828	931.6006	957.0065	990.7997	1000.5134	1044.8583	1056.3493	1107.2523	1145.5013	1157.055	1182.4068	1195.0153	1212.3586	1260.3993	1289.1977	1332.3009	1354.9172	1371.0336	1395.3604	1423.4343	1458.5849	1463.8232	1479.7275	1490.4807	1512.3012	1716.5774	2945.9077	2973.9936	3013.0061	3054.8019	3081.3013	3099.3674	3112.666	3115.8069	3155.7778	3180.2016
COC1CC=CC2OC12	CO[C@@H]1CC=C[C@@H]2O[C@H]12	
InChI=1S/C7H10O2/c1-8-5-3-2-4-6-7(5)9-6/h2,4-7H,3H2,1H3	InChI=1S/C7H10O2/c1-8-5-3-2-4-6-7(5)9-6/h2,4-7H,3H2,1H3/t5-,6+,7-/m1/s1
