19
gdb 4578	2.3943473	1.5824286	1.0624758	3.1383	79.83	-0.23476	-0.05309	0.18167	1158.9217	0.157252	-422.576953	-422.568366	-422.567422	-422.610477	32.119	
C	 0.3997330459	-2.3406160111	-0.1587337977	-0.397269
C	-0.8035496944	-1.4097047888	-0.0188099966	 0.023426
O	-1.4616618309	-1.3861070625	-1.2675175456	-0.250925
C	-2.6583622733	-0.6343546524	-1.3048388642	-0.095491
C	-2.409509892	 0.750969598	-1.8886505974	-0.255743
C	-1.3971987298	 1.5794172011	-1.1605056818	-0.035843
C	-0.5559596559	 1.2410022985	-0.1736988093	-0.132567
C	-0.3398340899	-0.0456171626	 0.5313973521	 0.321113
O	 0.2613058936	-0.0402023157	 1.5906387811	-0.334898
H	 0.9398959754	-2.3849111995	 0.7877751626	 0.143547
H	 0.0630198968	-3.3414010831	-0.4390649997	 0.121791
H	 1.0736800557	-1.9717249049	-0.9377336745	 0.125512
H	-1.4809486785	-1.8155872839	 0.751905083	 0.09598
H	-3.3694614509	-1.1789870468	-1.9363675748	 0.109015
H	-3.1005737981	-0.5541981347	-0.3005540493	 0.0997
H	-2.0810623358	 0.6457835043	-2.9330318767	 0.132281
H	-3.3570210456	 1.3063006384	-1.9360963274	 0.113198
H	-1.36066868	 2.6183392916	-1.4867091126	 0.107615
H	 0.0674424879	 2.0207327343	 0.2572341088	 0.109558
44.9164	133.763	225.3835	253.664	272.0072	288.2549	368.6026	382.9677	460.6932	491.8077	564.5587	620.693	710.5329	761.777	827.4884	844.7833	880.5545	944.2142	1010.563	1022.33	1034.7875	1079.7145	1104.5849	1134.1863	1157.2866	1209.7653	1253.149	1284.5623	1305.2772	1326.99	1351.1201	1392.8362	1397.6374	1409.1286	1428.203	1450.0831	1487.9852	1497.096	1503.5554	1696.4692	1745.2277	2959.5256	2994.8993	3006.6995	3036.0711	3052.3888	3062.3125	3124.6379	3131.6189	3154.7347	3166.1041
CC1OCCC=CC1=O	C[C@@H]1OCCC=CC1=O	
InChI=1S/C7H10O2/c1-6-7(8)4-2-3-5-9-6/h2,4,6H,3,5H2,1H3	InChI=1S/C7H10O2/c1-6-7(8)4-2-3-5-9-6/h2,4,6H,3,5H2,1H3/t6-/m0/s1
