19
gdb 5172	3.4235979	1.3494956	1.1579739	1.1872	75.93	-0.2456	0.07503	0.32063	1108.7896	0.155837	-422.476353	-422.467919	-422.466975	-422.509107	32.372	
C	 1.3181670307	 0.0301332362	-0.1919944798	-0.262835
O	-0.0764433933	 0.2210310001	-0.0332411604	-0.296381
C	-0.4054142319	 1.2847333715	 0.7690282873	 0.470797
C	-0.0999240072	 1.505664827	 2.2719600021	-0.406106
C	-0.9547171231	 2.7128997267	 1.8243721363	 0.416779
O	-1.3304298074	 3.8251432757	 2.547954127	-0.477111
C	-1.8543174479	 1.8439817904	 0.8595739832	-0.181156
C	-1.6369701688	 2.8225040629	-0.3140758718	-0.27593
C	-0.2812851961	 2.8244961349	 0.4243770017	-0.156046
H	 1.809984762	-0.1772436411	 0.7684578256	 0.115121
H	 1.4486424926	-0.8302435303	-0.8515889869	 0.12969
H	 1.7949877364	 0.9090297605	-0.6476655837	 0.113744
H	-0.5611143856	 0.8004997169	 2.9723689665	 0.088959
H	 0.936353676	 1.7209443676	 2.5512977528	 0.095166
H	-1.8876025695	 3.5392877122	 3.2799041824	 0.28533
H	-2.7369620649	 1.2667326576	 1.1409084801	 0.068399
H	-1.6474784892	 2.3889732603	-1.3172758658	 0.099971
H	-2.2067667461	 3.7546713752	-0.2836137216	 0.100476
H	 0.6353565734	 3.3751894558	 0.2086263951	 0.071133
84.5647	170.6391	179.3861	255.5419	294.1075	297.2039	343.4572	429.7416	467.6014	521.088	601.6307	665.1535	700.4381	792.7931	861.6218	891.884	914.6556	959.4062	986.3068	1028.8512	1047.2778	1053.5773	1078.6548	1109.0805	1121.5472	1131.1858	1142.8304	1162.384	1181.8163	1182.5823	1221.5523	1241.7129	1275.403	1288.4476	1338.6386	1406.3426	1483.193	1488.3722	1500.2196	1506.1055	1523.1017	2994.8642	3033.5439	3049.7826	3057.5091	3096.6937	3098.9651	3107.6801	3118.1364	3124.9274	3805.8174
COC12CC3(O)C1CC23	CO[C@]12C[C@]3(O)[C@H]1C[C@H]23	
InChI=1S/C7H10O2/c1-9-7-3-6(8)4(7)2-5(6)7/h4-5,8H,2-3H2,1H3	InChI=1S/C7H10O2/c1-9-7-3-6(8)4(7)2-5(6)7/h4-5,8H,2-3H2,1H3/t4-,5+,6+,7-
