19
gdb 5896	4.4380906	0.6529777	0.6490274	1.4652	78.63	-0.27138	0.01243	0.28381	1822.66	0.153395	-422.55478	-422.544121	-422.543177	-422.593181	36.294	
C	 0.5541890645	-0.6915266063	-0.9958685114	-0.386579
C	 1.1046392813	 0.5868290634	-0.3597964719	-0.158008
C	 1.0842400132	 0.5329444844	 1.1682190635	-0.310903
C	 1.6477464356	 1.7793036634	 1.8154161782	 0.453757
O	 2.1556808206	 2.7062693853	 1.2397672526	-0.34954
O	 1.5002428383	 1.716566995	 3.1643256077	-0.243367
C	 2.0430061403	 2.8229025706	 3.9118259705	-0.221766
C	 3.4228397792	 2.5830900775	 4.3125322848	 0.326087
C	 4.5569391597	 2.390667387	 4.6574629448	-0.461338
H	 1.1406673138	-1.5688032619	-0.700356648	 0.115055
H	-0.4838611619	-0.8728851829	-0.6951475794	 0.114228
H	 0.577529214	-0.628974294	-2.0878464272	 0.116996
H	 2.1310713206	 0.7662810376	-0.6958619289	 0.117034
H	 0.5258610008	 1.4542238389	-0.6954904536	 0.111452
H	 0.068225412	 0.3803710367	 1.5521645657	 0.129719
H	 1.6651408198	-0.3206726839	 1.5413318105	 0.134832
H	 1.9737875165	 3.7316229087	 3.3078444203	 0.162355
H	 1.3981880673	 2.9203877525	 4.7893486617	 0.142984
H	 5.5631325044	 2.225865278	 4.9548060801	 0.207002
17.0543	38.6612	53.0786	108.2051	148.4375	237.5459	248.0853	298.4605	326.275	339.5609	402.0784	563.3508	606.0675	615.1415	683.1307	697.4923	748.2279	878.2814	883.6352	908.3733	951.7251	1014.3496	1044.8507	1055.2468	1123.17	1126.0653	1176.6655	1250.2137	1294.6993	1319.9105	1325.512	1388.9571	1408.7502	1415.1528	1456.2588	1466.4366	1488.8836	1501.0385	1509.3125	1826.0024	2244.4674	3029.3605	3032.4261	3050.2816	3060.6457	3063.2528	3079.7767	3102.8391	3106.451	3110.832	3505.4212
CCCC(=O)OCC#C	CCCC(=O)OCC#C	
InChI=1S/C7H10O2/c1-3-5-7(8)9-6-4-2/h2H,3,5-6H2,1H3	InChI=1S/C7H10O2/c1-3-5-7(8)9-6-4-2/h2H,3,5-6H2,1H3
