19
gdb 584	2.6566399	1.9572375	1.4599861	0.9336	75.46	-0.2405	0.0142	0.2547	952.0389	0.160241	-422.57125	-422.564142	-422.563197	-422.602524	28.61	
C	-0.5516459493	 1.2761598941	-0.7361097998	-0.224001
C	-0.0069702043	 0.2917892791	 0.328128377	-0.251976
C	 1.4819086077	 0.0748598863	-0.0979919868	 0.054367
O	 1.6221622677	 0.7629563092	-1.3538879542	-0.245248
C	 0.7397644924	 1.8488746478	-1.3163013166	 0.189997
O	 1.1798466934	 2.8712977419	-0.4323448573	-0.280195
C	 2.5741788988	 2.8972599934	-0.1484040198	-0.12859
C	 2.9992894755	 1.8333137627	 0.841973804	-0.059831
C	 2.4963406466	 0.6007894539	 0.8883596458	-0.059218
H	-1.0999046495	 0.7485088743	-1.5215334264	 0.103759
H	-1.1927060338	 2.0539832651	-0.3191767572	 0.115345
H	-0.0581534351	 0.7224472974	 1.3292800939	 0.117917
H	-0.5622916305	-0.6483318841	 0.3357276559	 0.105123
H	 1.6883825686	-0.9803950832	-0.3025976907	 0.085309
H	 0.6722497803	 2.2379708221	-2.3397716559	 0.07464
H	 3.1677969621	 2.8259914022	-1.0714965248	 0.113319
H	 2.75827941	 3.8871477017	 0.2810488285	 0.108356
H	 3.7528551426	 2.1308578846	 1.5673073166	 0.091147
H	 2.8235954068	-0.0925297984	 1.6596573678	 0.089781
120.8501	207.5539	263.4313	314.622	398.8076	444.2164	473.125	619.7053	674.6072	713.9705	755.375	811.9648	832.7717	851.4009	885.311	920.6234	951.1978	960.6998	984.955	1011.8925	1029.1109	1041.9912	1072.887	1093.716	1134.5557	1184.4628	1214.1607	1234.2144	1278.5952	1295.8057	1300.3825	1327.4996	1352.5783	1364.9134	1390.8803	1400.13	1408.3938	1478.6952	1479.7504	1500.8471	1718.4107	2999.0202	3036.3904	3054.1972	3068.3281	3073.1042	3079.913	3120.1362	3136.3231	3144.8847	3168.4773
C1CC2OC1OCC=C2	C1C[C@H]2O[C@@H]1OCC=C2	
InChI=1S/C7H10O2/c1-2-6-3-4-7(9-6)8-5-1/h1-2,6-7H,3-5H2	InChI=1S/C7H10O2/c1-2-6-3-4-7(9-6)8-5-1/h1-2,6-7H,3-5H2/t6-,7-/m0/s1
