19
gdb 959	4.9657746	0.7468747	0.7075577	3.3071	77.55	-0.23955	-0.02006	0.21949000000000002	1590.8485	0.155237	-422.520898	-422.511893	-422.510949	-422.555978	32.176	
O	 1.1788375305	-0.5511135214	 0.0895803262	-0.236888
C	 0.0691187837	-0.0987545172	-0.0250501267	 0.154531
C	-0.3867475297	 0.816310162	-1.1359072296	-0.269126
C	-0.979649268	 2.1321432574	-0.588123698	-0.328715
C	-1.5947834015	 2.9480305675	-1.6804563496	 0.506095
C	-0.9126843136	 3.9334361942	-2.5802002106	-0.328751
C	-2.1424212758	 4.3546786138	-1.7934845581	-0.20561
C	-3.365659653	 3.6894687239	-2.4089184089	-0.084266
O	-2.7316514028	 2.3809486154	-2.353759128	-0.328333
H	-0.7249931676	-0.3371798395	 0.7227272094	 0.070047
H	 0.4523032129	 1.0045174823	-1.8107241514	 0.12431
H	-1.1744947169	 0.2965120137	-1.6986738192	 0.143133
H	-1.7431477479	 1.9038441936	 0.1662666361	 0.112493
H	-0.1984642132	 2.7207072568	-0.0944621004	 0.117474
H	 0.0207230053	 4.3440760189	-2.2073433194	 0.116914
H	-0.9645072454	 3.8069249934	-3.6584504649	 0.115888
H	-2.1441425265	 5.1738211371	-1.0871877839	 0.103282
H	-4.253275941	 3.712179905	-1.7668333346	 0.110458
H	-3.6408626093	 3.973595883	-3.4315574685	 0.107065
49.2526	66.8195	95.9619	128.8846	253.2922	289.3221	349.6035	403.8423	448.5006	521.5898	708.5423	742.9017	768.9357	838.545	854.9382	901.378	953.2958	967.6693	979.4058	986.2498	1007.1839	1018.2192	1058.8125	1072.3664	1096.6703	1134.3019	1157.7305	1175.0024	1229.9564	1257.398	1281.2443	1305.5146	1342.2178	1366.181	1411.86	1430.7179	1462.2611	1480.2269	1489.7898	1521.205	1836.8512	2845.9589	3024.003	3024.9005	3030.0508	3073.1727	3075.5281	3110.2972	3112.9633	3200.563	3208.8766
O=CCCC12CC1CO2	O=CCC[C@]12C[C@H]1CO2	
InChI=1S/C7H10O2/c8-3-1-2-7-4-6(7)5-9-7/h3,6H,1-2,4-5H2	InChI=1S/C7H10O2/c8-3-1-2-7-4-6(7)5-9-7/h3,6H,1-2,4-5H2/t6-,7-/m0/s1
