19
gdb 4298	2.9437698	1.2409792	0.9088178	3.1204	79.41	-0.24135	-0.04863	0.19272	1274.8357	0.156725	-422.603781	-422.594798	-422.593854	-422.637289	33.589	
C	 1.2649454964	 0.8138661083	-0.0678614262	-0.47645
C	-0.0981351217	 0.1877847021	 0.0281755107	 0.222445
C	-0.3035000443	-1.1250721874	 0.2241793733	-0.153013
C	-1.6561104843	-1.7780500289	 0.2949050242	-0.27783
C	-2.7333636116	-0.9343531033	-0.3964566755	 0.115043
O	-4.0305043772	-1.4853579296	-0.2544548788	-0.431209
C	-2.6471728835	 0.5134004026	 0.0931215978	-0.337313
C	-1.2578352477	 1.1131509057	-0.1036407411	 0.313878
O	-1.1012562719	 2.2961434345	-0.3320214018	-0.31969
H	 1.3959375135	 1.5812537594	 0.7020976614	 0.13904
H	 2.0546199461	 0.066152814	 0.0395236122	 0.113382
H	 1.3882361866	 1.3245495479	-1.0282219396	 0.142767
H	 0.5587653596	-1.7798547819	 0.3371801088	 0.101002
H	-1.6220896765	-2.7793148336	-0.1479896342	 0.120432
H	-1.9385190117	-1.9268899691	 1.3505494447	 0.106235
H	-2.5434410009	-0.9524196736	-1.4765115782	 0.104347
H	-4.2717831526	-1.4429978955	 0.6777633805	 0.277061
H	-3.3810348319	 1.153200724	-0.4019944394	 0.130625
H	-2.8645241564	 0.5377036543	 1.1730786312	 0.109247
88.6041	132.7296	147.0466	272.4442	281.5775	297.7374	335.6575	350.7693	387.2045	442.257	457.8345	562.2957	653.2085	696.4914	723.2786	822.8036	876.1498	922.9856	967.3346	1024.7063	1061.4626	1073.4789	1081.6439	1117.8214	1128.5913	1147.0236	1193.4735	1256.9295	1276.0299	1315.2051	1360.4113	1371.4216	1382.7508	1414.3901	1430.1933	1459.8237	1470.8271	1477.4362	1485.6086	1700.1654	1771.1475	2975.2118	2992.3668	3040.7138	3044.6461	3067.7494	3097.6325	3111.2977	3123.4497	3144.3415	3797.4009
CC1=CCC(O)CC1=O	CC1=CC[C@@H](O)CC1=O	
InChI=1S/C7H10O2/c1-5-2-3-6(8)4-7(5)9/h2,6,8H,3-4H2,1H3	InChI=1S/C7H10O2/c1-5-2-3-6(8)4-7(5)9/h2,6,8H,3-4H2,1H3/t6-/m1/s1
