19
gdb 5990	4.5177014	0.7406673	0.6767681	4.2415	81.13	-0.23375	-0.04146	0.19229000000000002	1637.6967	0.156669	-422.59506	-422.585711	-422.584767	-422.630609	33.12	
O	 1.1098169559	-1.0474255511	-0.6436538894	-0.408148
C	 1.1672306135	 0.2705423109	-0.134636042	-0.056207
C	-0.1297791777	 0.6677607315	 0.602898406	-0.321584
C	-0.1085427822	 2.0783036637	 1.1044647596	 0.32812
C	-0.771418291	 3.1243366131	 0.5850401583	-0.293859
C	-0.4917731539	 4.3654281062	 1.3344482656	 0.396184
O	-0.930556619	 5.4711966419	 1.1157120969	-0.336683
C	 0.4778652504	 3.9910819824	 2.4698113003	-0.334165
C	 0.72682805	 2.4811733144	 2.3064634778	-0.315849
H	 1.0857726362	-1.6561532454	 0.1016309645	 0.284492
H	 2.0383059438	 0.4115863404	 0.5230781309	 0.094244
H	 1.3058046732	 0.9228654054	-1.0023462847	 0.126216
H	-0.9691889021	 0.5143034105	-0.0816992303	 0.123686
H	-0.2664747977	-0.019680975	 1.4504784159	 0.099175
H	-1.4394950739	 3.1014315998	-0.2672957483	 0.108688
H	 1.3888009875	 4.5897169535	 2.3800807352	 0.133304
H	 0.0246077862	 4.2490567294	 3.4311950262	 0.133631
H	 1.785847891	 2.2454396165	 2.1459827769	 0.120575
H	 0.4229128498	 1.9036068317	 3.1887246706	 0.118179
38.8911	85.9653	90.985	106.9714	225.7701	291.8564	309.4539	347.0561	481.8292	506.9252	553.3231	629.2991	669.9447	786.6466	830.1441	836.2466	882.1149	896.0236	997.284	1003.665	1023.3025	1044.9747	1077.9595	1135.9421	1155.8117	1166.8044	1187.7762	1233.6617	1257.3064	1287.1929	1300.6021	1316.3647	1352.5234	1396.8887	1412.5161	1451.4496	1481.3267	1483.6772	1512.121	1674.1257	1812.1269	2990.9853	3004.3784	3027.6167	3052.992	3067.5651	3078.741	3095.4082	3108.045	3212.4791	3815.665
OCCC1=CC(=O)CC1	OCCC1=CC(=O)CC1	
InChI=1S/C7H10O2/c8-4-3-6-1-2-7(9)5-6/h5,8H,1-4H2	InChI=1S/C7H10O2/c8-4-3-6-1-2-7(9)5-6/h5,8H,1-4H2
