19
gdb 2154	2.6392185	1.8698125	1.4216022	1.5032	73.71	-0.23118	0.07602	0.30720000000000003	959.9327	0.158868	-422.530694	-422.523401	-422.522456	-422.56183	30.134	
O	 0.287136696	 0.3388509671	 0.2298929687	-0.493647
C	-0.6083603177	 0.9211853108	 1.1456554228	 0.414172
C	-1.4968757905	-0.0748209467	 1.9684094396	-0.305197
C	-2.7486005525	 0.7021279215	 1.5454104209	-0.119792
C	-2.6169260156	 2.2003517017	 1.672361433	 0.139931
O	-1.9811785526	 2.9456159323	 2.668685499	-0.265477
C	-0.70418383	 2.4940703201	 3.1028168829	-0.082164
C	 0.1702353535	 1.9350403979	 1.9759527277	-0.247269
C	-1.8991428823	 1.5355794062	 0.5484898913	-0.205204
H	-0.2163526044	-0.2325003386	-0.3604703599	 0.274675
H	-1.4672825706	-1.0535048922	 1.4792876447	 0.094064
H	-1.3000958774	-0.2187304906	 3.0349949299	 0.097808
H	-3.7233551464	 0.2511685466	 1.3931869556	 0.084812
H	-3.523768314	 2.7280723253	 1.3920141382	 0.105864
H	-0.226118171	 3.3622024016	 3.5659189034	 0.10694
H	-0.829191953	 1.7345782762	 3.8874786016	 0.098296
H	 0.5139188351	 2.7382982084	 1.3148624814	 0.110652
H	 1.056057797	 1.4596903361	 2.4114496392	 0.107134
H	-2.0433407037	 1.7714350363	-0.5004316702	 0.084401
155.4119	264.4853	303.9245	323.4908	371.5439	412.3502	424.4326	531.2248	541.7319	627.4026	686.2441	736.8661	772.958	845.4511	854.3505	910.9274	930.8922	948.0895	976.8887	995.8736	1006.8488	1044.6407	1075.633	1083.2724	1103.1381	1129.6291	1159.2701	1184.8508	1222.2277	1229.8171	1249.1691	1275.7625	1304.0799	1341.1065	1362.3938	1381.1908	1417.274	1445.8736	1479.8083	1494.2111	1523.4205	3003.4483	3040.049	3045.2388	3078.1986	3088.3272	3093.0051	3156.9822	3161.0582	3174.7542	3798.9416
OC12CC3C(OCC1)C23	O[C@@]12C[C@H]3[C@@H](OCC1)[C@@H]23	
InChI=1S/C7H10O2/c8-7-1-2-9-6-4(3-7)5(6)7/h4-6,8H,1-3H2	InChI=1S/C7H10O2/c8-7-1-2-9-6-4(3-7)5(6)7/h4-6,8H,1-3H2/t4-,5+,6-,7-/m1/s1
