19
gdb 5792	4.6276872	1.0066665	0.8973252	2.2927	79.49	-0.24333	0.00304	0.24636999999999998	1323.1302	0.156941	-422.505194	-422.496851	-422.495907	-422.538395	31.042	
C	-0.0670479056	 1.4119168928	 0.04425964	-0.239503
O	 0.1075429585	 0.0169006744	-0.0513212596	-0.237678
C	 0.6882566655	-0.5696372819	 1.0972084434	 0.112264
C	 1.2268181137	-1.9856127517	 0.7229647865	-0.288102
C	 1.0550972182	-2.7686821894	 2.0318901257	 0.103538
O	 0.2694000124	-4.0099011719	 2.1171797163	-0.307451
C	-0.6210121431	-3.4053460588	 3.1080012655	-0.153856
C	-0.0647918241	-2.0603893776	 2.7171948213	 0.192582
C	-0.3459006683	-0.8753562162	 2.1938104218	-0.241867
H	 0.8903338987	 1.9300792351	 0.2112172991	 0.106611
H	-0.4921238069	 1.7504660688	-0.9037092826	 0.129384
H	-0.753734023	 1.6939493936	 0.8566947862	 0.105649
H	 1.5021005208	 0.0831306729	 1.4569648985	 0.069901
H	 0.5546295276	-2.3932169065	-0.0377699655	 0.134114
H	 2.2445510936	-1.9669536418	 0.3256346975	 0.098508
H	 1.9958484368	-2.9028868738	 2.5814904518	 0.080464
H	-1.6797183921	-3.5886560136	 2.8973216868	 0.122329
H	-0.3788778629	-3.7575329864	 4.1193611821	 0.108195
H	-1.2159573096	-0.252757418	 2.3627516752	 0.104917
80.2197	109.3298	176.4442	215.4487	267.4254	315.797	354.2085	459.674	472.3824	593.7376	658.4397	763.836	810.8254	869.4153	875.3667	906.3849	959.4948	978.0186	997.5669	1020.5356	1053.1319	1062.795	1108.2286	1137.9503	1157.3277	1169.6772	1182.6214	1218.5228	1241.2163	1248.6806	1285.9777	1309.4257	1340.1152	1352.5178	1388.7322	1475.5311	1480.6704	1487.8406	1508.5833	1509.1041	1747.6829	2946.6757	2975.1339	3010.7915	3018.4761	3020.8558	3065.4197	3076.1437	3114.7771	3122.5013	3208.3748
COC1CC2OCC2=C1	CO[C@@H]1C[C@@H]2OC[C]2[CH]1	
InChI=1S/C7H10O2/c1-8-6-2-5-4-9-7(5)3-6/h2,6-7H,3-4H2,1H3	InChI=1S/C7H10O2/c1-8-6-2-5-4-9-7(5)3-6/h2,6-7H,3-4H2,1H3/t6-,7-/m0/s1
