19
gdb 1521	2.5943093	1.4357838	1.1313363	4.2958	76.29	-0.26639	0.00895	0.27534000000000003	1141.663	0.155786	-422.575408	-422.566386	-422.565442	-422.6088	33.493	
C	 0.2228617453	 2.8361462263	-1.1824738429	-0.462604
C	-1.0558976175	 2.3784083101	-0.5055975632	 0.271144
C	-2.3362517036	 2.7587290635	-1.2246140898	-0.451908
C	-1.0864704401	 2.3127859077	 0.9971067087	-0.379751
C	-1.0359454656	 1.0343116138	 0.1974729727	 0.078779
C	-1.9833878661	-0.1562035648	 0.1353269431	-0.156426
O	-0.8210688917	-1.0515891726	 0.1312735797	-0.254554
C	 0.0580838779	 0.0095967117	 0.201471367	 0.441821
O	 1.2476144419	-0.0292440813	 0.2444168272	-0.348525
H	 1.1074560728	 2.4650575163	-0.6599847455	 0.150914
H	 0.2691670918	 2.4723565223	-2.2148982549	 0.121315
H	 0.2670647417	 3.9307073626	-1.211832612	 0.117033
H	-3.2248377836	 2.4048757444	-0.6925480595	 0.115472
H	-2.4139372222	 3.8480190813	-1.3142134431	 0.126884
H	-2.3596093915	 2.3407944066	-2.2372143773	 0.124513
H	-0.1894763155	 2.5755803917	 1.5487447066	 0.135285
H	-2.018153222	 2.5374377781	 1.507091275	 0.120063
H	-2.6053601386	-0.3370879104	 1.0153315333	 0.125422
H	-2.5652738834	-0.2768396473	-0.7815112752	 0.125124
119.3029	131.638	151.2735	216.4277	236.5228	261.1047	311.195	350.6167	391.9234	424.0949	528.5456	629.1511	668.7759	766.1618	792.8426	868.2268	898.4903	924.8525	956.4045	976.1766	1004.637	1036.6727	1061.971	1087.0391	1091.1495	1145.9321	1150.9047	1187.9174	1224.6089	1300.7562	1330.7449	1412.9484	1417.6323	1432.1929	1481.1347	1482.2344	1492.5644	1501.7151	1515.5926	1520.0097	1923.3112	3026.3211	3032.0724	3062.4396	3089.1577	3092.2541	3101.4254	3120.5742	3123.7771	3128.6174	3213.2043
CC1(C)CC11COC1=O	CC1(C)C[C@]21COC2=O	
InChI=1S/C7H10O2/c1-6(2)3-7(6)4-9-5(7)8/h3-4H2,1-2H3	InChI=1S/C7H10O2/c1-6(2)3-7(6)4-9-5(7)8/h3-4H2,1-2H3/t7-/m0/s1
