19
gdb 2511	2.5765929	1.3355227	0.9667329	3.1248	80.06	-0.2261	-0.02998	0.19612	1245.5539	0.15425	-422.57791	-422.568134	-422.56719	-422.612917	34.162	
C	-0.9759371294	 2.2514518826	-0.5897556589	-0.497924
C	-0.9229491908	 0.8047125646	-0.2188949638	 0.183868
C	 0.1199783103	-0.0307786373	-0.2039483169	 0.179833
C	 1.5526743467	 0.2012418282	-0.5575779777	-0.501095
C	-0.362576296	-1.400014612	 0.2418302107	-0.037258
O	-1.7620599982	-1.2814496147	 0.4282294958	-0.275427
C	-2.1718550609	 0.0617456587	 0.1783334437	-0.155467
C	 0.3007353938	-1.7953294089	 1.5614248347	 0.129374
O	 1.4250737911	-2.2146870815	 1.6524488564	-0.244783
H	-1.3750006082	 2.8551897427	 0.2351298988	 0.132976
H	 0.0087513249	 2.6460152465	-0.8494579856	 0.132232
H	-1.641705839	 2.4145731994	-1.4467662201	 0.133091
H	 2.2170312482	-0.1430001125	 0.2419149635	 0.154256
H	 1.8286918665	-0.3679351196	-1.4544618915	 0.134126
H	 1.7589569099	 1.2562891641	-0.7517845851	 0.124449
H	-0.133033109	-2.1814667975	-0.4999770696	 0.106344
H	-2.9322912513	 0.0756128859	-0.6189723369	 0.105874
H	-2.6451137943	 0.4828828881	 1.0795101612	 0.105781
H	-0.3533109943	-1.6270878469	 2.4467438612	 0.089749
67.9148	96.4842	134.5819	159.2947	162.5355	203.9058	274.987	286.1921	362.127	376.4064	471.3186	559.8471	614.2485	639.1088	823.2028	889.2696	964.0485	975.0919	984.312	1014.3609	1053.3963	1079.8883	1094.5779	1101.0006	1153.4242	1194.3609	1198.6858	1253.8592	1285.9995	1315.0803	1382.5305	1389.4435	1414.6052	1424.6178	1476.4085	1480.8136	1487.2292	1492.2753	1525.3179	1750.9965	1827.0817	2884.974	2971.1057	2981.8191	2989.0765	3020.9962	3027.7005	3065.1101	3083.0449	3121.1968	3125.1078
CC1=C(C)C(OC1)C=O	CC1=C(C)[C@H](OC1)C=O	
InChI=1S/C7H10O2/c1-5-4-9-7(3-8)6(5)2/h3,7H,4H2,1-2H3	InChI=1S/C7H10O2/c1-5-4-9-7(3-8)6(5)2/h3,7H,4H2,1-2H3/t7-/m1/s1
