19
gdb 1233	4.1652299	0.6351191	0.6022144	1.5617	81.7	-0.2528	0.02881	0.28161	1878.8596	0.155182	-422.499969	-422.489857	-422.488913	-422.538158	34.764	
C	-3.3362433983	 1.7760593576	-3.8220548916	-0.383989
C	-2.1579740732	 2.6823895312	-3.4367899853	-0.019864
O	-1.2198847311	 2.8041545476	-4.5041705933	-0.412601
C	-1.5155264596	 2.2336094129	-2.1962297352	 0.081774
C	-0.9739276276	 1.8329169092	-1.1960388618	 0.047393
C	-0.3069183005	 1.3614152909	-0.0020522038	-0.217786
C	 1.2298197719	 1.5662661862	 0.1307719816	-0.072649
O	 1.4268130116	 0.1763403654	 0.4484077903	-0.267584
C	 0.0650539998	-0.1446830979	 0.1135712362	-0.072221
H	-4.0964683615	 1.7683633877	-3.0355381489	 0.124879
H	-3.7844615511	 2.1388064814	-4.7506809402	 0.12626
H	-2.9940168628	 0.7471737177	-3.9741035652	 0.115947
H	-2.5344316037	 3.7022824806	-3.2907793058	 0.118627
H	-0.7574957773	 1.9617345285	-4.5773844458	 0.281699
H	-0.8325185941	 1.7102771935	 0.8914131864	 0.11322
H	 1.7178334869	 1.8516628191	-0.8092559782	 0.110224
H	 1.5663507052	 2.2284487191	 0.9353310188	 0.111413
H	-0.0126431689	-0.6906733296	-0.8350494001	 0.104887
H	-0.4350352655	-0.7123558109	 0.9054348318	 0.11037
6.7099	60.3454	79.7497	119.7242	186.9058	231.3658	262.0435	300.9206	345.0338	439.335	471.7271	558.5685	585.4549	643.3838	799.714	877.3574	889.8302	920.2108	997.9561	1002.3192	1035.0746	1040.8188	1081.6208	1103.1479	1110.3555	1159.066	1171.059	1192.1232	1237.2384	1282.6261	1303.9943	1335.4476	1344.6614	1381.2572	1396.9423	1417.3173	1486.8745	1491.0936	1510.193	1535.8073	2354.1466	3015.1166	3026.1011	3035.4894	3039.6752	3058.682	3074.0335	3083.3238	3113.5058	3127.2571	3803.7294
CC(O)C#CC1COC1	C[C@H](O)C#CC1COC1	
InChI=1S/C7H10O2/c1-6(8)2-3-7-4-9-5-7/h6-8H,4-5H2,1H3	InChI=1S/C7H10O2/c1-6(8)2-3-7-4-9-5-7/h6-8H,4-5H2,1H3/t6-/m0/s1
