19
gdb 2264	3.0640467	1.5784531	1.4972142	1.4729	75.1	-0.24089	0.00524	0.24613	996.0631	0.156164	-422.571889	-422.563787	-422.562843	-422.603702	32.31	
C	 4.7570912284	 1.0248076489	-0.4076637726	-0.496135
C	 3.5638948545	 0.1975764796	-0.0057986741	 0.294731
C	 3.0810997591	-0.914842376	-1.0004974499	-0.102409
O	 1.7150036625	-1.0848063231	-0.6322110183	-0.304368
C	 1.5059613957	-0.0996402878	 0.4259402274	 0.434852
C	 0.052897586	 0.268511145	 0.5154302573	-0.494668
O	 2.3419702168	 0.9663547959	 0.0268837199	-0.284467
C	 2.2492575631	-0.6560098082	 1.6438050941	-0.112311
C	 3.5394392549	-0.4739459754	 1.366002058	-0.14172
H	 4.9390929723	 1.8171048991	 0.3235105566	 0.135082
H	 5.6528251906	 0.398470386	-0.4660694034	 0.122766
H	 4.5938258868	 1.4854211308	-1.3861158176	 0.131059
H	 3.1462949701	-0.5580843551	-2.0352070082	 0.102004
H	 3.6346149584	-1.8546756167	-0.8977202522	 0.097901
H	-0.1003603262	 1.0065928239	 1.3064621769	 0.13137
H	-0.2825394298	 0.6844366189	-0.4369541184	 0.137877
H	-0.5417192906	-0.6203765156	 0.7402724603	 0.132547
H	 1.7915000564	-1.1975397612	 2.4603275899	 0.110393
H	 4.4115070111	-0.8339902291	 1.8953907644	 0.105496
180.9497	188.2122	231.2583	259.7909	266.2051	338.1125	382.6132	423.2005	518.0531	608.8183	635.1419	658.1658	719.4735	730.5039	789.098	840.9486	862.8623	880.6851	885.6268	909.2807	923.6016	1003.5723	1023.4483	1062.7314	1112.042	1144.4645	1172.3454	1196.4628	1229.4899	1257.3701	1307.1098	1348.6768	1368.8189	1414.7317	1428.8377	1480.7068	1482.4852	1485.7129	1494.8082	1511.8956	1642.2639	3024.0643	3043.7296	3057.5144	3073.5028	3114.9487	3121.9348	3134.5587	3141.3621	3212.4526	3238.9937
CC12COC(C)(O1)C=C2	C[C@]12CO[C@](C)(O1)C=C2	
InChI=1S/C7H10O2/c1-6-3-4-7(2,9-6)8-5-6/h3-4H,5H2,1-2H3	InChI=1S/C7H10O2/c1-6-3-4-7(2,9-6)8-5-6/h3-4H,5H2,1-2H3/t6-,7+/m0/s1
