19
gdb 5039	2.777733	1.213159	1.0033305	3.1015	77.13	-0.24033	-0.00862	0.23171	1230.6868	0.155304	-422.553266	-422.543857	-422.542913	-422.587549	34.357	
C	-0.9380000354	 2.4280368204	-0.7863290315	-0.496686
C	-1.0398119276	 1.1047166872	-0.082378693	 0.157845
C	-2.0414323062	 0.8285077865	 1.0355149259	-0.379473
C	-2.0700345578	-0.072893758	-0.1552877801	 0.275304
C	-3.2517000381	-0.2199761704	-1.0676269057	-0.171279
O	-4.1765122381	-1.1952313525	-0.6052960648	-0.408307
C	-0.9514309022	-1.1158151271	 0.010706482	-0.414647
C	 0.0464259993	 0.070656442	-0.0098384928	 0.377784
O	 1.2357010358	 0.1353929298	-0.152696969	-0.31883
H	-0.3441555634	 3.1336094545	-0.1955787623	 0.139752
H	-0.4504699878	 2.3203711499	-1.760061367	 0.134808
H	-1.9248437068	 2.8743324841	-0.9428968683	 0.121018
H	-1.7095545095	 0.4598092813	 2.0028272624	 0.121425
H	-2.8259564414	 1.5789628634	 1.0946837395	 0.119792
H	-3.736725424	 0.7592181799	-1.2096342475	 0.088977
H	-2.9302557924	-0.5707821103	-2.0543114431	 0.11675
H	-4.4580597492	-0.9318496005	 0.2773346295	 0.283546
H	-0.9879550665	-1.7429198253	 0.9059580484	 0.119339
H	-0.7978518589	-1.7529193249	-0.8656427025	 0.132882
82.1946	100.4227	137.4709	153.9709	227.7304	266.0476	301.8561	371.7851	397.0265	443.5783	493.9083	563.1388	632.3103	672.0799	766.9651	781.9324	861.6286	935.543	970.0168	983.4852	994.1699	1032.086	1051.0397	1079.4041	1095.9154	1109.0885	1150.4254	1205.9695	1207.5597	1287.3906	1350.5607	1362.6018	1394.1311	1416.4417	1429.975	1459.1894	1481.6587	1495.2659	1498.7535	1508.5025	1873.0569	2974.9642	3035.2302	3056.0927	3068.3999	3099.3301	3104.7247	3108.9746	3109.601	3187.7387	3809.1839
CC12CC1(CO)CC2=O	C[C@@]12C[C@]1(CO)CC2=O	
InChI=1S/C7H10O2/c1-6-3-7(6,4-8)2-5(6)9/h8H,2-4H2,1H3	InChI=1S/C7H10O2/c1-6-3-7(6,4-8)2-5(6)9/h8H,2-4H2,1H3/t6-,7-/m0/s1
