19
gdb 5697	4.2238021	0.8942446	0.8241982	3.7281	77.89	-0.2406	-0.01892	0.22168000000000002	1428.594	0.154136	-422.52772	-422.518482	-422.517538	-422.562451	33.599	
C	 1.4466046155	-0.069353138	-0.0538413207	-0.231658
O	 0.0385095887	 0.0428630956	 0.0223024873	-0.238608
C	-0.39780581	 0.7279665623	 1.1499599969	 0.072316
C	-0.4371629894	 2.2425375797	 1.1323861129	-0.390309
C	-1.7041239395	 1.4330957284	 1.0255057346	 0.30178
C	-2.6286746129	 1.3280121891	-0.2000522107	-0.410504
C	-3.8068557253	 1.2115830275	 0.7861308579	 0.407684
O	-4.9850078959	 1.0575440513	 0.6554958604	-0.286279
C	-2.8826926666	 1.3691791631	 2.0136343861	-0.432532
H	 1.8542841717	-0.623671727	 0.8047259354	 0.108724
H	 1.676060201	-0.6175385425	-0.9703088286	 0.13011
H	 1.9302595568	 0.9170293515	-0.0908144967	 0.111163
H	-0.1615647438	 0.2380562978	 2.0975936135	 0.084879
H	-0.2345002434	 2.778900391	 2.0543515503	 0.114482
H	-0.0871477858	 2.7333371735	 0.2295033609	 0.120993
H	-2.6827112677	 2.2145079905	-0.8406056428	 0.129198
H	-2.4720889697	 0.4494157182	-0.8327141443	 0.146912
H	-3.0762961276	 2.2871981476	 2.5792941988	 0.131041
H	-2.8984699962	 0.5223753603	 2.7074964489	 0.130606
40.9215	91.7012	137.3348	167.9147	226.7018	292.8034	316.5735	414.563	440.5239	457.8516	491.2963	587.6126	674.2879	718.9029	822.8402	870.0973	893.2736	904.4954	990.0081	1014.3406	1047.8695	1055.4072	1061.2492	1085.8462	1110.08	1172.1246	1182.0566	1186.2244	1193.0232	1215.817	1224.2131	1250.0071	1332.0676	1411.3444	1428.0475	1446.329	1470.4051	1484.8824	1494.0345	1509.2517	1899.2822	2985.6254	3038.0106	3043.6421	3053.525	3072.2814	3094.8878	3106.2803	3120.6694	3121.2666	3210.383
COC1CC11CC(=O)C1	CO[C@H]1CC21CC(=O)C2	
InChI=1S/C7H10O2/c1-9-6-4-7(6)2-5(8)3-7/h6H,2-4H2,1H3	InChI=1S/C7H10O2/c1-9-6-4-7(6)2-5(8)3-7/h6H,2-4H2,1H3/t6-/m0/s1
