19
gdb 3678	2.7664522	1.5485548	1.1463961	2.9599	75.39	-0.23697	0.06158	0.29855	1087.9138	0.156734	-422.505772	-422.497496	-422.496552	-422.538214	32.684	
O	-0.3259824087	-1.7858330694	 2.727434427	-0.440411
C	-1.2070689241	-0.7731098667	 3.1067401045	 0.034167
C	-2.5785405093	-0.7180025652	 2.476684434	-0.376206
C	-1.5419419743	 0.3299352526	 2.1466419466	 0.282288
C	-1.5992648651	 1.8273286684	 2.396899007	-0.14385
C	-2.3393142343	 2.4721018179	 1.2593260293	-0.285522
C	-0.9046524011	 2.0687036422	 1.0471736717	-0.087115
C	-0.7802285281	 0.558833132	 0.8194464808	 0.045984
O	 0.5700485862	 0.0909304125	 0.8354922187	-0.436542
H	 0.2253528504	-1.4311732142	 2.0149313646	 0.294738
H	-1.1356362089	-0.5125878642	 4.162745801	 0.088361
H	-2.7892212221	-1.4711045478	 1.7239730564	 0.117853
H	-3.4254556045	-0.4248486801	 3.089496661	 0.108969
H	-1.4429669945	 2.3233234346	 3.3477179542	 0.090892
H	-3.1422141647	 1.9342599761	 0.7612183623	 0.115685
H	-2.5024674384	 3.5419864699	 1.3439740628	 0.115603
H	-0.1359911137	 2.7840184476	 0.777491216	 0.092348
H	-1.2171114349	 0.1466859177	-0.0948527846	 0.094366
H	 1.0424441601	 0.6016086964	 1.5047391466	 0.288392
96.2142	181.927	227.9592	247.0758	292.3765	341.5814	377.9412	436.9898	485.3362	566.6507	604.0651	636.2309	768.412	801.2414	838.3332	848.5595	901.1493	929.2671	940.8065	965.6871	1013.8742	1016.9334	1027.9063	1045.75	1056.9675	1089.7514	1091.1197	1105.9504	1154.4534	1191.2487	1209.5041	1231.0129	1268.7487	1277.8763	1309.6655	1359.9768	1404.605	1420.8016	1423.847	1477.9519	1488.7581	3070.3019	3100.4869	3111.1067	3121.7077	3173.056	3181.2677	3202.3786	3213.4136	3706.1682	3783.0779
OC1CC11C2CC2C1O	O[C@@H]1C[C@]21[C@@H]1C[C@@H]1[C@H]2O	
InChI=1S/C7H10O2/c8-5-2-7(5)4-1-3(4)6(7)9/h3-6,8-9H,1-2H2	InChI=1S/C7H10O2/c8-5-2-7(5)4-1-3(4)6(7)9/h3-6,8-9H,1-2H2/t3-,4+,5+,6+,7+/m0/s1
