19
gdb 5902	2.0093686	1.1753065	0.892386	3.6265	79.05	-0.23956	-0.01562	0.22394	1388.3436	0.152364	-422.526587	-422.515705	-422.514761	-422.563259	37.354	
C	 1.408714591	 0.0722800181	-0.1357606564	-0.231659
O	 0.002168258	 0.1308704638	-0.054104035	-0.233585
C	-0.4599927456	 0.58340475	 1.1964123582	-0.072761
C	-1.9963879485	 0.545004674	 1.164694037	-0.266573
C	-2.5495937815	 1.1127074387	 2.3879862754	 0.296569
C	-2.9961771115	 1.613675476	 3.3855857653	-0.461211
C	-2.5814588577	 1.2883329394	-0.0700311823	 0.413071
C	-2.0735472946	 2.689831981	-0.3333331642	-0.488813
O	-3.4061670586	 0.7475711506	-0.7604719996	-0.296164
H	 1.8286083223	-0.6212458585	 0.6086865937	 0.111273
H	 1.6612760299	-0.2851781365	-1.136323964	 0.135872
H	 1.867644453	 1.0613736762	 0.0176111868	 0.10774
H	-0.0957888524	-0.0589798439	 2.0131780001	 0.108551
H	-0.1063550232	 1.6061802024	 1.4025047417	 0.100917
H	-2.3218746819	-0.4944564398	 1.0532720974	 0.133196
H	-3.4022514101	 2.0383914164	 4.2703189398	 0.202559
H	-2.0577913414	 3.2825253449	 0.5860816212	 0.144733
H	-1.0469599799	 2.6273339151	-0.7104181237	 0.153635
H	-2.7018390573	 3.1702423721	-1.0838961014	 0.14265
59.9581	77.9167	103.3376	113.9689	131.9267	173.141	211.8063	258.9618	300.2307	353.3234	398.7859	467.1732	517.3467	564.3202	607.8059	638.7745	644.5772	749.9781	932.6412	967.6309	1000.3756	1042.074	1054.7357	1103.3706	1160.468	1180.3542	1200.6915	1230.1457	1249.2232	1283.7657	1314.5115	1376.6789	1409.3369	1468.2046	1475.9263	1480.622	1485.2533	1502.6461	1528.2599	1830.6885	2232.7943	2969.9821	2981.1776	3006.5384	3023.9344	3045.5446	3065.5008	3113.5884	3122.8879	3155.9522	3502.3394
COCC(C#C)C(C)=O	COC[C@@H](C#C)C(=O)C	
InChI=1S/C7H10O2/c1-4-7(5-9-3)6(2)8/h1,7H,5H2,2-3H3	InChI=1S/C7H10O2/c1-4-7(5-9-3)6(2)8/h1,7H,5H2,2-3H3/t7-/m1/s1
