19
gdb 4294	3.839758	1.1887407	0.9948077	2.0306	77.69	-0.24638	0.00716	0.25354	1203.5228	0.158797	-422.569362	-422.561424	-422.56048	-422.602102	30.473	
O	 0.1069156791	 1.4207818357	-0.096227038	-0.431307
C	 0.0576265307	 0.005115093	-0.0258629497	 0.122719
C	-1.3881162534	-0.5803787331	 0.0507229901	-0.291359
C	-1.2264072839	-1.8489730353	 0.8932035474	 0.066873
O	-2.226264303	-2.0868254575	 1.8810643644	-0.27042
C	-1.588175725	-2.8320710323	 2.9207134288	-0.069064
C	-0.0823277715	-2.4026660816	 2.9575330449	-0.379008
C	 0.0130303731	-1.5834841468	 1.7062621501	 0.358891
C	 0.723111316	-0.5727040409	 1.2149641303	-0.308179
H	-0.2896769142	 1.7620425386	 0.7135686384	 0.274031
H	 0.5604953219	-0.320698057	-0.9453375402	 0.095854
H	-2.0168692357	 0.122072089	 0.609028767	 0.108542
H	-1.840597795	-0.7404795486	-0.9301257095	 0.102921
H	-1.1174255405	-2.7450954681	 0.2560730623	 0.069142
H	-2.1173435957	-2.6191365799	 3.8528410909	 0.112683
H	-1.6689804719	-3.9107050512	 2.7193620832	 0.094941
H	 0.1639404518	-1.8200488109	 3.8494184837	 0.124052
H	 0.5757969471	-3.2781471646	 2.9479829555	 0.120138
H	 1.63571364	-0.1471592287	 1.6177473404	 0.098548
70.2457	128.0804	173.2688	303.4	332.6358	365.3988	440.5844	470.5576	572.4235	618.4996	689.0625	713.0209	805.5985	846.8023	857.4608	878.9826	929.8209	956.9105	995.651	1027.3737	1047.6995	1069.5411	1077.4465	1099.5178	1152.8817	1190.1557	1207.9019	1238.8162	1242.9984	1253.7505	1281.7999	1292.6455	1313.5824	1348.5316	1363.5109	1390.5542	1432.8692	1476.8844	1482.2276	1517.433	1739.5293	2934.8774	2989.9768	3026.8213	3047.8471	3053.8451	3084.4737	3101.0103	3116.5795	3193.6546	3791.6574
OC1CC2OCCC2=C1	O[C@@H]1C[C@@H]2OCCC2=C1	
InChI=1S/C7H10O2/c8-6-3-5-1-2-9-7(5)4-6/h3,6-8H,1-2,4H2	InChI=1S/C7H10O2/c8-6-3-5-1-2-9-7(5)4-6/h3,6-8H,1-2,4H2/t6-,7-/m0/s1
