19
gdb 1612	3.0081797	0.9803027	0.8502402	3.3129	77.55	-0.24802	-0.03697	0.21105	1381.7391	0.153959	-422.568739	-422.559097	-422.558153	-422.604223	34.046	
C	 2.4377704754	 4.5554546907	-1.6416942045	-0.468477
C	 3.0280610748	 3.3716494313	-0.8747971006	 0.246008
C	 2.3737828842	 3.0841936956	 0.5006655108	-0.298938
C	 1.5483859692	 1.9219747975	-0.1338808337	-0.056312
C	 2.4903387356	 1.98125393	-1.3766261403	-0.302901
C	 1.5368984882	 0.6248285883	 0.6267342345	 0.158534
O	 0.5498328791	 0.0085381948	 0.9349447277	-0.250264
C	 4.537109902	 3.439761586	-0.8809746227	 0.105088
O	 5.2425650839	 3.3103678117	 0.0869133677	-0.24974
H	 2.6564821503	 5.5019347013	-1.1358151907	 0.132271
H	 2.8456107606	 4.610790268	-2.6575077319	 0.124764
H	 1.3505267259	 4.4621546056	-1.7239582099	 0.130155
H	 3.1202498204	 2.7324471055	 1.2182067728	 0.132289
H	 1.797018272	 3.8924235974	 0.9539880338	 0.114772
H	 0.5206855015	 2.2035381853	-0.3688993441	 0.094993
H	 3.2564231271	 1.1994993745	-1.3506044395	 0.11833
H	 2.0070163084	 1.9671409801	-2.355657266	 0.11958
H	 2.5551289959	 0.2572046471	 0.9023389005	 0.073958
H	 4.9793495054	 3.5961734792	-1.893686174	 0.075889
46.4907	70.7528	81.4509	222.9891	250.0594	259.7347	274.4867	286.1307	354.8937	388.471	439.756	568.2113	692.0974	769.7784	831.2729	895.3448	904.1567	910.6957	924.3019	954.7173	1000.8078	1055.6278	1070.8628	1089.2828	1171.2456	1189.6221	1217.0165	1244.4137	1267.3171	1272.6667	1302.3691	1326.1531	1407.6746	1425.2407	1429.4317	1468.6446	1488.2289	1492.2015	1497.7918	1824.966	1831.3026	2842.3349	2851.1899	3027.7281	3050.2222	3067.5086	3095.6835	3098.5099	3104.9074	3117.0694	3127.657
CC1(CC(C1)C=O)C=O	C[C@]1(C[C@@H](C1)C=O)C=O	
InChI=1S/C7H10O2/c1-7(5-9)2-6(3-7)4-8/h4-6H,2-3H2,1H3	InChI=1S/C7H10O2/c1-7(5-9)2-6(3-7)4-8/h4-6H,2-3H2,1H3/t6-,7+
