19
gdb 5634	1.9566609	1.6577687	1.0186775	1.8912	77.51	-0.24167	-0.02481	0.21686	1200.4872	0.155521	-422.563091	-422.55379	-422.552846	-422.598525	32.595	
C	 1.5499047321	-0.1178312573	 0.0029362549	-0.236677
O	 0.170374476	 0.1705855125	-0.085218113	-0.255473
C	-0.3659145315	 0.779944216	 1.0780763168	 0.089582
C	-1.8669165916	 0.6683589715	 1.0656525966	-0.094128
C	-2.4720784985	 1.8377016826	 1.2503522352	-0.065999
C	-1.5041614605	 2.9814160545	 1.4166889858	-0.296704
C	-0.1181631733	 2.3146819109	 1.1414104248	-0.105523
C	 0.9315336166	 2.7614137245	 2.1317784522	 0.142192
O	 1.6204715136	 2.0296715289	 2.7973170056	-0.247364
H	 1.7737292603	-0.7777881371	 0.8540040664	 0.113561
H	 1.8300887853	-0.6229601741	-0.9247440046	 0.123036
H	 2.1627826292	 0.789107668	 0.1102876504	 0.10638
H	 0.0657204675	 0.2936163676	 1.9667419212	 0.093145
H	-2.3547855277	-0.2906075561	 0.9382722463	 0.105495
H	-3.5449718076	 1.9852769904	 1.3095788545	 0.10199
H	-1.7143841085	 3.8141515327	 0.7361344452	 0.116764
H	-1.5583019792	 3.3979914189	 2.4322673365	 0.116299
H	 0.2299317437	 2.6340519966	 0.1500733525	 0.114093
H	 1.0350309238	 3.8684147992	 2.2180518029	 0.079329
41.07	65.0217	82.3667	170.3517	190.2781	262.158	294.2905	378.8472	415.7369	500.3161	585.1619	680.1724	739.1258	787.9644	835.0159	921.736	954.3264	976.7821	985.6262	1020.3419	1030.1499	1070.218	1110.6191	1125.1683	1150.1826	1176.2992	1181.9649	1218.6983	1249.0156	1276.0999	1297.7621	1352.1538	1359.62	1396.7548	1428.2772	1480.9829	1490.1133	1492.2502	1506.3842	1698.0473	1823.4123	2858.4203	2983.3665	2988.0679	3011.4988	3027.8924	3033.4883	3056.3085	3113.5885	3187.4368	3216.3511
COC1C=CCC1C=O	CO[C@@H]1C=CC[C@H]1C=O	
InChI=1S/C7H10O2/c1-9-7-4-2-3-6(7)5-8/h2,4-7H,3H2,1H3	InChI=1S/C7H10O2/c1-9-7-4-2-3-6(7)5-8/h2,4-7H,3H2,1H3/t6-,7+/m0/s1
