19
gdb 3645	3.3826316	0.9456103	0.8107131	3.306	77.62	-0.24591	-0.02366	0.22225	1411.9609	0.1559	-422.579985	-422.570932	-422.569988	-422.614644	32.944	
O	-4.7868714382	 2.1192969741	 0.2800143382	-0.432986
C	-3.4599448591	 2.6291398648	 0.246238612	 0.108907
C	-2.3874367643	 1.5928903556	-0.1832792832	-0.254222
C	-1.1340381459	 1.8813842387	 0.6842488295	-0.011562
C	-0.3726037253	 0.6354966131	 1.1469342726	-0.312523
C	 0.3461887736	-0.1072131618	 0.0439364771	 0.15661
O	 0.3816985565	 0.2380217141	-1.1099424055	-0.234365
C	-1.700888178	 2.7080626906	 1.8190736458	-0.085038
C	-2.945242426	 3.1170458676	 1.5813941022	-0.135665
H	-4.8124031791	 1.4335654022	 0.95690333	 0.271063
H	-3.5168992146	 3.4590828329	-0.4697195793	 0.096861
H	-2.7782385103	 0.5946374065	 0.0526549563	 0.087743
H	-2.1742265578	 1.6079585483	-1.2525380008	 0.123533
H	-0.4271107931	 2.4925139915	 0.1062670038	 0.100787
H	 0.3884374934	 0.8903278529	 1.9012925711	 0.123527
H	-1.0398350898	-0.0787772034	 1.6526204551	 0.121856
H	 0.872791125	-1.0307740948	 0.3785010342	 0.080491
H	-1.1139206595	 2.957890586	 2.6979335866	 0.094363
H	-3.5433136375	 3.7543295211	 2.2235309044	 0.10062
58.9406	64.4284	138.0095	162.8557	243.3167	293.5039	345.2713	397.6339	415.6357	548.8016	568.8944	679.6231	718.7563	779.7229	783.7069	862.1419	879.2939	923.4242	946.9412	981.1596	1019.1926	1035.7306	1057.293	1104.0282	1118.7429	1150.7021	1168.6614	1232.5049	1251.8163	1268.8865	1290.211	1322.7183	1334.2332	1364.2308	1387.032	1420.4777	1429.5555	1442.0364	1487.773	1682.994	1828.3874	2865.9323	2998.505	3008.6147	3023.9981	3029.5558	3034.4542	3127.123	3170.8362	3203.4002	3794.4972
OC1CC(CC=O)C=C1	O[C@@H]1C[C@H](CC=O)C=C1	
InChI=1S/C7H10O2/c8-4-3-6-1-2-7(9)5-6/h1-2,4,6-7,9H,3,5H2	InChI=1S/C7H10O2/c8-4-3-6-1-2-7(9)5-6/h1-2,4,6-7,9H,3,5H2/t6-,7-/m0/s1
