19
gdb 1920	2.9769745	1.300603	1.1067515	2.8765	76.42	-0.23782	-0.03032	0.20750000000000002	1165.8126	0.153578	-422.534978	-422.525639	-422.524694	-422.569018	34.445	
C	 4.0794550305	-0.067874685	-2.1388248361	-0.491514
C	 2.6886493831	 0.1748225038	-1.6531641248	 0.473672
C	 1.751184062	 1.2551790698	-2.0837392102	-0.351164
C	 2.0550442093	 1.072939476	-0.6065148906	-0.220602
C	 1.3655934751	-0.2038097023	-0.0986706458	 0.299038
C	-0.1413708482	-0.2839147588	 0.0142233251	-0.457103
O	 1.9278296737	-0.965794452	-1.2146878533	-0.366094
C	 2.0716148132	-0.6704798429	 1.1722110692	 0.143468
O	 1.590683687	-0.6357025922	 2.2738878416	-0.253847
H	 4.6729532148	-0.6046794836	-1.3924691524	 0.129566
H	 4.0624444342	-0.6684540092	-3.055243399	 0.137258
H	 4.5756820686	 0.8798113299	-2.3659322194	 0.127335
H	 2.2194613119	 2.1340907981	-2.5166625784	 0.118673
H	 0.7778419553	 1.0042780342	-2.4942314762	 0.118823
H	 2.4686864002	 1.855513171	 0.0156216161	 0.108988
H	-0.4634032506	 0.2017830692	 0.9387309991	 0.143283
H	-0.6300583283	 0.1938115072	-0.837083472	 0.119695
H	-0.4583876154	-1.3304308288	 0.0554988656	 0.134289
H	 3.1019285037	-1.0458422543	 0.9847182614	 0.086237
57.9619	122.8099	186.7287	200.0546	208.7301	272.9499	308.2484	339.3907	369.1523	447.6065	481.1664	527.4893	660.382	715.8941	813.8299	820.0265	856.279	923.3648	953.714	966.127	981.6674	992.7126	1004.5938	1064.4412	1083.1062	1111.3015	1121.5177	1169.6933	1234.5319	1246.7297	1297.2755	1383.2433	1393.3292	1412.8574	1429.917	1474.2336	1478.6599	1486.9032	1490.5659	1501.	1832.4963	2893.7975	3034.95	3051.5467	3099.0403	3118.1472	3120.2761	3123.018	3139.239	3198.7381	3210.1473
CC12CC1C(C)(O2)C=O	C[C@]12C[C@H]1[C@@](C)(O2)C=O	
InChI=1S/C7H10O2/c1-6-3-5(6)7(2,4-8)9-6/h4-5H,3H2,1-2H3	InChI=1S/C7H10O2/c1-6-3-5(6)7(2,4-8)9-6/h4-5H,3H2,1-2H3/t5-,6+,7+/m1/s1
