19
gdb 2474	2.5957779	1.8126498	1.3932109	2.0741	73.24	-0.23986	0.08034	0.3202	985.5079	0.157601	-422.528482	-422.520801	-422.519856	-422.560223	30.268	
C	 0.2435450584	 0.2478426913	-1.8050960999	-0.483865
C	 1.2671878435	 0.0957352584	-0.6914770476	 0.280444
C	 1.9239229629	-1.2927525341	-0.5980411844	-0.287004
C	 3.3406500371	-1.0108753398	-0.0758988982	-0.094066
O	 3.6921625039	 0.2672803921	-0.602701063	-0.258259
C	 2.5304567481	 1.0628661023	-0.6454781699	 0.0403
C	 2.0378856854	 1.5678433442	 0.7248260299	-0.014173
O	 0.7213993493	 2.0904325648	 0.5140759111	-0.247682
C	 0.8690033158	 0.6751990546	 0.6830418318	-0.020552
H	-0.5811768518	-0.4645604066	-1.6853329713	 0.113733
H	-0.1751500544	 1.2573093939	-1.804445077	 0.136256
H	 0.7008854791	 0.0639156382	-2.7834027447	 0.117048
H	 1.3710231386	-1.9838969824	 0.045685975	 0.102623
H	 1.9719434309	-1.7357681462	-1.5979893735	 0.110183
H	 3.3636728649	-0.9983364256	 1.0236400124	 0.097243
H	 4.0877395266	-1.7289279608	-0.4233542467	 0.112509
H	 2.6517710778	 1.8223359562	-1.4208108478	 0.08894
H	 2.6126019443	 1.9537017232	 1.5592766023	 0.107541
H	 0.3029893797	 0.2101084765	 1.4838105515	 0.098779
144.9102	198.3421	230.1161	253.4089	289.3199	342.2062	411.885	502.8452	606.9551	642.9209	665.4752	816.6267	845.1162	860.8351	885.7261	894.6695	928.9253	968.037	979.3711	986.8027	1007.9268	1047.2262	1068.613	1112.8117	1145.8173	1166.4256	1188.2976	1228.7501	1234.8614	1239.8903	1255.2709	1283.8683	1330.3655	1355.7306	1375.0718	1392.4465	1406.733	1484.4947	1490.3699	1502.9575	1517.8819	2995.3236	3027.2617	3048.2428	3087.1737	3089.3099	3093.6412	3099.7609	3119.9915	3165.7415	3187.2422
CC12CCOC1C1OC21	C[C@@]12CCO[C@@H]1[C@H]1O[C@@H]21	
InChI=1S/C7H10O2/c1-7-2-3-8-5(7)4-6(7)9-4/h4-6H,2-3H2,1H3	InChI=1S/C7H10O2/c1-7-2-3-8-5(7)4-6(7)9-4/h4-6H,2-3H2,1H3/t4-,5-,6-,7-/m1/s1
