19
gdb 1039	4.0954927	0.6876065	0.6149313	2.7721	82.2	-0.2422	-0.03095	0.21125	1824.3741	0.152614	-422.553332	-422.542151	-422.541207	-422.592056	37.532	
C	 1.5890298996	 0.1670485101	 0.1329301162	-0.497767
C	 0.1383330533	 0.0483356691	 0.1127953649	 0.11138
C	-1.0607826866	-0.0501264797	 0.0854477934	 0.046669
C	-2.5105034888	-0.1859463391	 0.066518964	-0.380646
C	-2.9658253014	-1.6707043777	 0.0317510253	 0.046539
O	-2.5002976274	-2.3071442956	-1.1206712547	-0.428251
C	-4.4934004938	-1.7842687009	 0.107971802	 0.360847
C	-5.2118908858	-1.2134083872	 1.3083797143	-0.48378
O	-5.0823761539	-2.3346643917	-0.7986919843	-0.315092
H	 1.9877949031	 0.0392044455	 1.1454372032	 0.144652
H	 2.0565781567	-0.5905216684	-0.5056162362	 0.151834
H	 1.912832043	 1.1495657379	-0.228166931	 0.146741
H	-2.9392947823	 0.3066807911	 0.9484488677	 0.121105
H	-2.927837706	 0.3142254901	-0.8168885542	 0.134554
H	-2.5585645612	-2.1641283075	 0.9305572222	 0.096613
H	-3.2999969613	-2.6176397771	-1.5771522011	 0.292312
H	-4.652870805	-1.3866224436	 2.2325030296	 0.14285
H	-5.3174381657	-0.1284518319	 1.190068134	 0.157705
H	-6.2087540164	-1.6504472233	 1.3802162647	 0.151737
18.6553	46.1096	69.1637	86.8498	118.2463	196.1137	213.4297	268.5594	323.013	381.8614	384.255	419.3097	456.2653	486.861	582.0835	633.3644	761.1189	827.2102	885.5162	973.5154	991.5386	1051.4994	1054.0318	1062.6905	1138.3856	1175.2562	1197.6243	1244.7955	1262.3657	1328.0827	1364.9261	1387.6267	1414.8819	1441.6938	1459.3894	1464.2341	1477.0144	1478.3742	1479.2927	1794.9621	2377.8376	2965.0087	3017.5597	3026.5347	3040.7111	3056.7636	3086.0554	3088.3175	3105.7679	3152.0835	3665.4098
CC#CCC(O)C(C)=O	CC#CC[C@H](O)C(=O)C	
InChI=1S/C7H10O2/c1-3-4-5-7(9)6(2)8/h7,9H,5H2,1-2H3	InChI=1S/C7H10O2/c1-3-4-5-7(9)6(2)8/h7,9H,5H2,1-2H3/t7-/m0/s1
