19
gdb 3491	1.9562114	1.5772354	1.3991688	2.9371	76.35	-0.23928	-0.01953	0.21975	1080.4664	0.156579	-422.594034	-422.584997	-422.584053	-422.627769	33.588	
C	-1.5267539596	 1.4558645996	 1.424792321	-0.421648
C	-0.9310915323	 1.3266933616	 0.0087869474	-0.099825
C	-2.0415102758	 1.2787202602	-1.0700774927	 0.081676
O	-1.5644506418	 1.705061272	-2.346752397	-0.435903
C	-2.6899375615	-0.0795242995	-1.170246328	-0.101447
C	-2.1230621154	-1.2008621607	-0.7244065153	-0.054047
C	-0.7846031506	-1.2445739374	-0.0345285391	-0.359618
C	-0.0478668836	 0.0906358883	-0.0851104587	 0.369449
O	 1.1542087128	 0.1498374727	-0.1981879588	-0.318355
H	-2.2009072521	 0.6267013836	 1.659464722	 0.128458
H	-0.7372570666	 1.4835507578	 2.1812033038	 0.132092
H	-2.1011891342	 2.3841309924	 1.5039993104	 0.127795
H	-0.2983864676	 2.1931060739	-0.2014843303	 0.102757
H	-2.7967116091	 2.0292431989	-0.8071996351	 0.089912
H	-1.0175073171	 0.9984521287	-2.7080119958	 0.281442
H	-3.6456500547	-0.1187479972	-1.6855010347	 0.100835
H	-2.6291856854	-2.1543674139	-0.8566267343	 0.102211
H	-0.9161468716	-1.5257793093	 1.0220533436	 0.139003
H	-0.1310951338	-2.0105164316	-0.4650103383	 0.135213
73.4374	93.7743	191.5331	214.3143	243.8624	263.8607	319.5546	409.5512	453.8199	482.6869	526.1703	552.694	618.5979	702.3019	754.9572	830.7145	901.6538	932.3055	946.5139	1005.9043	1008.6224	1014.1082	1042.8475	1078.7077	1124.3795	1160.2876	1186.0631	1235.8496	1268.9675	1288.0152	1321.7679	1331.5323	1373.6297	1403.5786	1407.6304	1430.2237	1443.5607	1498.0358	1500.1779	1716.4507	1815.5941	2998.8787	3034.6389	3039.3662	3074.4493	3080.048	3109.3722	3117.4771	3149.0996	3175.5915	3801.3191
CC1C(O)C=CCC1=O	C[C@@H]1[C@@H](O)C=CCC1=O	
InChI=1S/C7H10O2/c1-5-6(8)3-2-4-7(5)9/h2-3,5-6,8H,4H2,1H3	InChI=1S/C7H10O2/c1-5-6(8)3-2-4-7(5)9/h2-3,5-6,8H,4H2,1H3/t5-,6+/m1/s1
