19
gdb 2002	3.4338994	1.4536803	1.2490214	2.7389	73.93	-0.23623	0.07672	0.31295	1053.1566	0.157969	-422.523196	-422.515475	-422.514531	-422.555186	29.986	
C	 0.2673134494	 0.381403951	 0.379443427	-0.505721
C	 1.2140119317	-0.1666120818	-0.6367633879	 0.404381
O	 2.2094068725	-1.1100639423	-0.2066215641	-0.279075
C	 2.6434253943	 0.0643736339	-0.9086620014	-0.066671
C	 2.464125041	-0.2153223406	-2.4168653232	-0.059391
C	 2.9690621602	-1.5447271822	-2.9977359831	-0.09581
O	 1.8050601747	-2.2302618572	-3.4580034277	-0.256928
C	 0.7231743292	-1.9276645922	-2.5776696769	-0.099018
C	 0.9444492538	-0.4740426507	-2.1352564684	-0.105603
H	 0.7982252234	 0.6341796284	 1.3010388778	 0.135855
H	-0.2292827107	 1.2805442821	 0.0004428743	 0.125748
H	-0.5092219366	-0.3527618109	 0.6234538389	 0.132366
H	 3.3713029509	 0.6952541865	-0.4100803378	 0.101322
H	 2.6624416918	 0.6515341996	-3.0487961125	 0.080975
H	 3.632257308	-1.4236029591	-3.8583901357	 0.102496
H	 3.4874213822	-2.131440573	-2.2269509927	 0.103074
H	-0.2013519308	-2.0800029575	-3.1410281622	 0.101737
H	 0.7276526788	-2.6018775107	-1.7100039953	 0.101436
H	 0.273018646	 0.2423922266	-2.6114823192	 0.078826
135.3691	165.5942	203.6573	221.7565	280.524	340.2597	497.6678	558.5878	604.7152	656.3648	706.1748	739.4507	837.029	842.6859	884.27	928.833	933.2856	977.155	994.0569	1015.6082	1038.18	1063.7069	1077.5587	1097.8609	1121.2014	1160.0181	1192.3164	1226.6201	1256.4005	1258.7842	1274.3877	1305.2983	1320.3977	1363.3494	1394.098	1406.8034	1466.668	1484.3029	1494.9892	1501.2848	1516.5783	3007.3653	3013.2406	3032.7975	3082.6659	3085.8491	3094.486	3099.084	3110.3756	3121.0271	3176.9456
CC12OC1C1COCC21	C[C@]12O[C@H]1[C@H]1COC[C@@H]21	
InChI=1S/C7H10O2/c1-7-5-3-8-2-4(5)6(7)9-7/h4-6H,2-3H2,1H3	InChI=1S/C7H10O2/c1-7-5-3-8-2-4(5)6(7)9-7/h4-6H,2-3H2,1H3/t4-,5+,6-,7+/m0/s1
