19
gdb 5481	3.0989389	1.2281908	1.089912	0.9892	74.68	-0.22791	0.05408	0.28199	1189.3594	0.154907	-422.473296	-422.46458	-422.463636	-422.506422	33.399	
C	 1.2917049164	-0.2766750194	 1.1524884827	-0.373647
C	 1.1092838101	 0.2637436876	-0.2712007484	-0.217573
C	 1.9172442657	-0.5114825352	-1.2948515868	-0.07158
C	 1.4569411396	-0.4305998563	-2.7433378069	-0.192783
C	 2.4076501938	-1.2202165761	-3.6975200003	 0.016875
O	 3.4928815487	-1.7931996063	-2.9448205218	-0.239406
C	 2.2184792809	-2.4493530413	-2.9372227467	-0.059268
C	 1.2517010241	-1.6998303928	-1.9452696592	 0.337701
O	 0.0445840407	-2.2442599534	-1.550671933	-0.454501
H	 0.940238466	-1.3113231167	 1.2335129211	 0.100538
H	 2.3456326008	-0.26286709	 1.4501861939	 0.119414
H	 0.7303054294	 0.3208603055	 1.8772745152	 0.114591
H	 0.0477184565	 0.235414444	-0.5399037238	 0.107776
H	 1.4139031179	 1.3171668451	-0.3036415866	 0.099631
H	 2.9849111991	-0.5560062232	-1.1047409026	 0.105945
H	 0.7194249818	 0.2863792227	-3.0789547424	 0.098015
H	 2.5732047695	-1.0433940874	-4.7531596351	 0.110464
H	 2.1684558952	-3.4910886023	-3.2332575121	 0.108539
H	 0.1893487438	-2.7447273444	-0.7389142472	 0.289271
84.3935	143.0943	181.5718	246.7578	277.4213	302.719	343.8206	382.4999	430.7813	466.0829	597.2346	668.5076	751.3884	767.8821	805.0133	837.2376	858.7662	893.555	931.5819	947.9933	971.2282	996.7773	1034.9851	1056.2007	1065.9785	1123.4926	1137.6072	1167.5046	1183.5685	1229.4183	1243.2753	1284.9817	1294.1606	1340.0087	1370.8305	1386.5298	1411.9091	1452.0777	1485.5505	1498.8339	1502.4409	3027.6216	3030.9634	3067.4868	3096.8152	3105.786	3160.3549	3179.2689	3195.7484	3207.874	3775.9866
CCC1C2C3OC3C12O	CC[C@@H]1[C@H]2[C@H]3O[C@H]3[C@@]12O	
InChI=1S/C7H10O2/c1-2-3-4-5-6(9-5)7(3,4)8/h3-6,8H,2H2,1H3	InChI=1S/C7H10O2/c1-2-3-4-5-6(9-5)7(3,4)8/h3-6,8H,2H2,1H3/t3-,4+,5-,6-,7-/m1/s1
