19
gdb 5093	3.6637654	1.1535178	1.1200616	0.9244	75.81	-0.22656	0.06863	0.29519	1195.0064	0.154172	-422.466062	-422.457149	-422.456205	-422.499424	33.524	
C	 1.6272197576	 0.3281579046	 0.0171706734	-0.256845
O	 0.2439582946	 0.0046513086	 0.0059586599	-0.275558
C	-0.4430441869	 0.5386373723	 1.0693275054	 0.417387
C	-0.8772478645	 1.9750228519	 1.1726889311	-0.351156
C	-1.914972818	 0.8648092799	 1.1393421653	-0.239606
C	-1.990398872	 0.0995548781	 2.5076018489	 0.427356
C	-3.177494534	-0.6256780283	 3.0459854124	-0.502947
O	-1.0685872157	 0.712464004	 3.4326820849	-0.281244
C	-0.5636945692	-0.2054004881	 2.4499862447	-0.145061
H	 2.1240369381	-0.0463670692	 0.9230323461	 0.11315
H	 2.0726211697	-0.1511699733	-0.8571676134	 0.127699
H	 1.7826823503	 1.4136362656	-0.0421378586	 0.116364
H	-0.7188536005	 2.5579269658	 2.0711507135	 0.133399
H	-0.8004719468	 2.5159234945	 0.2342225363	 0.114572
H	-2.6620381862	 0.7827665906	 0.3612242748	 0.101584
H	-2.8965477642	-1.2163783484	 3.9218060155	 0.134774
H	-3.9630415113	 0.0789983122	 3.3420700659	 0.132061
H	-3.5959247936	-1.2957484162	 2.2878423468	 0.129265
H	 0.0133504327	-1.0592531646	 2.7877698471	 0.104805
86.6926	133.5152	163.9916	200.0131	239.6342	284.1307	364.2564	395.1024	429.2832	468.432	538.5513	608.2609	670.6981	760.6164	816.9319	861.1798	875.6521	906.8446	969.3013	980.2801	989.545	1011.7287	1057.5	1070.2919	1090.2321	1107.7264	1166.4635	1168.6601	1180.8705	1216.4331	1239.0626	1275.9522	1367.7212	1405.7202	1454.8396	1469.1478	1484.6372	1485.9406	1491.7103	1501.7439	1505.982	2996.6383	3033.0837	3052.6985	3095.3212	3122.4788	3124.8751	3136.95	3178.4463	3207.5255	3233.1804
COC12CC1C1(C)OC21	CO[C@@]12C[C@@H]1[C@]1(C)O[C@H]21	
InChI=1S/C7H10O2/c1-6-4-3-7(4,8-2)5(6)9-6/h4-5H,3H2,1-2H3	InChI=1S/C7H10O2/c1-6-4-3-7(4,8-2)5(6)9-6/h4-5H,3H2,1-2H3/t4-,5+,6+,7+/m1/s1
