19
gdb 4383	2.1780525	1.544749	0.9670817	1.4533	81.37	-0.24277	-0.06289	0.17988	1231.6107	0.154754	-422.578246	-422.568585	-422.567641	-422.613169	33.855	
C	-2.0882189774	-2.0672615314	 1.708106782	-0.394325
C	-1.7030179813	-1.262435974	 0.4668346315	 0.040334
O	-2.2038732164	 0.0739240157	 0.5905874403	-0.279478
C	-1.1582694396	 1.0140496303	 0.4142918339	-0.147838
C	 0.1035115042	 0.2156156403	 0.2362559914	 0.186957
C	 1.4279235673	 0.8761236408	 0.0582641181	-0.509149
C	-0.2111141296	-1.0925346116	 0.2543730531	 0.104311
C	 0.6893506356	-2.2357282312	 0.0599897218	 0.073188
O	 1.8944160212	-2.1823727867	-0.0764457474	-0.273796
H	-1.7797211349	-3.1133519442	 1.6085116552	 0.116184
H	-1.6156610698	-1.6458295219	 2.6001919751	 0.120459
H	-3.1730883878	-2.0437824064	 1.8431721119	 0.130627
H	-2.1711894495	-1.7307668453	-0.4156202615	 0.085713
H	-1.3501869656	 1.6502410431	-0.4667871673	 0.110976
H	-1.0997724511	 1.6882128491	 1.2840049893	 0.113274
H	 1.6752337852	 1.4729905916	 0.9457422256	 0.137888
H	 2.2154065455	 0.1436105678	-0.1085554631	 0.176076
H	 1.3935448701	 1.5780120023	-0.7846016168	 0.134658
H	 0.1741509337	-3.2222439883	 0.0350094269	 0.07394
60.7786	106.0357	126.5843	157.5898	201.4265	214.5631	238.3748	301.9224	373.8174	416.3116	461.8872	556.7268	626.4874	718.21	798.6703	874.6456	941.9863	951.3558	997.0366	1035.1937	1064.5307	1089.5537	1096.681	1114.4608	1156.6465	1194.9017	1204.9244	1268.3055	1347.1705	1373.4188	1384.9398	1400.8994	1405.0039	1451.6441	1470.0863	1485.15	1493.7883	1494.5002	1512.2035	1683.7265	1781.0375	2874.2375	2952.4107	2960.2155	2982.9767	3023.0022	3038.1406	3066.669	3111.0484	3122.5515	3171.1446
CC1OCC(C)=C1C=O	C[C@H]1OCC(=C1C=O)C	
InChI=1S/C7H10O2/c1-5-4-9-6(2)7(5)3-8/h3,6H,4H2,1-2H3	InChI=1S/C7H10O2/c1-5-4-9-6(2)7(5)3-8/h3,6H,4H2,1-2H3/t6-/m1/s1
