19
gdb 3856	5.4529601	0.8864081	0.8769171	4.3259	76.46	-0.27001	0.01479	0.2848	1353.0609	0.156156	-422.581031	-422.572507	-422.571562	-422.614473	32.135	
C	-5.393352474	-0.6907198422	 0.1436655641	-0.410646
C	-4.0737026105	 0.0623506267	 0.1148454874	 0.05147
C	-2.973553752	-0.3153240851	 1.1531889378	-0.296566
C	-1.9258673111	-0.1976361781	 0.0324620054	 0.444455
C	-3.0504723381	-0.2635350959	-1.0156062301	-0.296566
C	-0.5784811841	-0.9268804311	-0.0327382312	-0.511784
C	 0.0090572024	 0.4832183268	-0.0199039388	 0.441024
O	 1.0801449964	 0.9980007247	-0.0455986496	-0.319838
O	-1.2147551861	 1.0980267041	 0.0381809997	-0.276458
H	-5.9593113054	-0.4658642867	 1.054261798	 0.120303
H	-6.0219826533	-0.4236678527	-0.7128169243	 0.120303
H	-5.2291360221	-1.7742811956	 0.1119668698	 0.111022
H	-4.2534400273	 1.141273142	 0.1469838217	 0.091197
H	-2.8285382187	 0.335412949	 2.0180752949	 0.118715
H	-3.0745937646	-1.3513387228	 1.4938637365	 0.105367
H	-2.9659569836	 0.4279364669	-1.8565823521	 0.118715
H	-3.1771309052	-1.2823008638	-1.397271858	 0.105367
H	-0.3152429597	-1.5326216705	 0.8368147121	 0.14196
H	-0.378494833	-1.4900344556	-0.9466321733	 0.14196
60.9869	87.4378	223.3482	270.1829	279.1777	282.5202	392.2451	446.9484	451.8611	521.4394	531.6019	694.9315	782.9011	796.0896	843.1294	876.9005	893.1344	900.6227	948.9723	967.2665	1039.0447	1074.3053	1075.3605	1100.0569	1129.7239	1170.8583	1214.8528	1218.4238	1233.7228	1235.7088	1274.0551	1289.9764	1328.2654	1373.6962	1413.0796	1451.9162	1454.8973	1479.3735	1495.1453	1496.6711	1938.2031	3023.2556	3047.3613	3050.4465	3059.5549	3080.8827	3091.7868	3095.1969	3116.9118	3118.724	3136.9537	60.9872	87.4374	223.3477	270.1829	279.1776	282.5204	392.2452	446.9485	451.8611	521.4393	531.6021	694.9316	782.9012	796.0897	843.1293	876.9002	893.1345	900.6225	948.972	967.2664	1039.0441	1074.3048	1075.3602	1100.0564	1129.7236	1170.8579	1214.8524	1218.4232	1233.7222	1235.7084	1274.0542	1289.9761	1328.2652	1373.6958	1413.0798	1451.9153	1454.8964	1479.3727	1495.1456	1496.6712	1938.2022	3023.2557	3047.3613	3050.4465	3059.5549	3080.8828	3091.7868	3095.197	3116.9118	3118.7241	3136.9538
CC1CC2(C1)CC(=O)O2	C[C@H]1C[C@]2(C1)CC(=O)O2	
InChI=1S/C7H10O2/c1-5-2-7(3-5)4-6(8)9-7/h5H,2-4H2,1H3	InChI=1S/C7H10O2/c1-5-2-7(3-5)4-6(8)9-7/h5H,2-4H2,1H3/t5-,7-
