19
gdb 931	4.6604095	0.8903319	0.8192429	3.6211	75.73	-0.24089	-0.01957	0.22132	1406.3257	0.156694	-422.553459	-422.544959	-422.544015	-422.587727	31.148	
O	 1.4509753648	-0.1631236845	-0.1906263279	-0.242414
C	 0.2796230402	 0.0705149844	-0.0312593189	 0.153757
C	-0.2811113644	 0.8553991745	 1.1375984149	-0.299844
C	-1.1458621739	 2.0356319434	 0.6880858592	 0.114372
C	-1.7659317518	 2.8660028079	 1.8400794419	-0.258588
C	-3.1304850779	 3.2584275827	 1.2991236719	-0.072856
C	-3.1838450355	 3.8513262993	-0.1005028194	-0.324422
C	-3.3525319343	 2.3693334937	 0.1102611651	 0.121209
O	-2.2430718135	 1.529611494	-0.0825004805	-0.274094
H	-0.4847139339	-0.284826529	-0.7543592249	 0.098442
H	-0.9117452281	 0.1802564766	 1.7318370368	 0.123041
H	 0.551305689	 1.2002093376	 1.7577124196	 0.12066
H	-0.539362148	 2.6957203283	 0.0508563172	 0.08791
H	-1.8900572417	 2.2478641344	 2.7365417022	 0.107004
H	-1.127323013	 3.7141342863	 2.1039801891	 0.111677
H	-3.9230821236	 3.4871980865	 2.0012244932	 0.094343
H	-4.0727211266	 4.4160449857	-0.3603313222	 0.116188
H	-2.2724545832	 4.2207909265	-0.5587887062	 0.11958
H	-4.2851461645	 1.8685175418	-0.119377811	 0.104034
45.4754	76.3603	111.7935	188.5499	298.0116	338.7192	401.8735	456.897	508.3061	651.2711	683.6699	769.896	807.6608	827.7355	845.557	908.777	937.0631	962.036	985.8611	1005.1131	1043.3143	1073.088	1079.1127	1098.687	1116.6833	1127.965	1161.5508	1192.523	1207.0346	1247.5243	1281.7034	1309.4793	1321.3608	1371.7644	1389.5779	1401.9123	1423.9739	1449.7915	1479.4418	1496.534	1830.0785	2915.0362	2987.3922	3026.708	3041.0976	3089.434	3104.7537	3132.4271	3179.8835	3190.6236	3218.7811
O=CCC1CC2CC2O1	O=CC[C@@H]1C[C@H]2C[C@H]2O1	
InChI=1S/C7H10O2/c8-2-1-6-3-5-4-7(5)9-6/h2,5-7H,1,3-4H2	InChI=1S/C7H10O2/c8-2-1-6-3-5-4-7(5)9-6/h2,5-7H,1,3-4H2/t5-,6+,7+/m0/s1
