19
gdb 1624	3.0979048	1.4185071	1.1959543	0.5387	75.2	-0.2353	0.06401	0.29931	1093.8403	0.155527	-422.493001	-422.48449	-422.483546	-422.526234	32.199	
C	 4.4288788209	-1.9712319194	 2.2155688865	-0.476043
C	 4.7160209467	-1.2861966223	 0.8998687581	 0.295255
C	 6.0557254777	-0.7447003263	 0.6093054992	-0.219223
O	 4.9740999386	 0.1227934129	 0.9617790865	-0.274265
C	 3.8390579178	-1.6775094265	-0.2413681338	 0.450566
C	 3.5638733786	-0.8817278397	-1.473971397	-0.344565
C	 2.4051765603	-1.3466481021	-0.6087217553	-0.193346
C	 2.239158247	-2.8519683841	-0.7679047893	-0.094266
O	 3.6498586251	-3.07996483	-0.4868252612	-0.334235
H	 4.5043674467	-3.0553578026	 2.0968893667	 0.141936
H	 5.1322615398	-1.6423421166	 2.9838905649	 0.123032
H	 3.4135174477	-1.7371256317	 2.5522659364	 0.12498
H	 6.8408853739	-0.8352499532	 1.3584767071	 0.115042
H	 6.3944642643	-0.6710377139	-0.4224188786	 0.116698
H	 3.7832028731	 0.1768693112	-1.3889482958	 0.134741
H	 3.7373421154	-1.328960165	-2.4494816111	 0.110144
H	 1.6999265371	-0.6663263944	-0.1518088939	 0.107826
H	 1.6166577962	-3.3139485173	 0.0062920017	 0.110279
H	 1.9480927131	-3.2332929689	-1.7539141111	 0.105444
54.6805	153.9967	183.3894	195.4295	309.4234	313.1812	366.925	431.5898	442.6791	507.6934	588.2321	756.9498	797.6609	842.1157	870.0466	886.1523	926.4812	953.0953	975.7071	987.6232	1000.4352	1019.9915	1030.173	1076.8921	1104.0228	1129.0503	1135.561	1150.324	1165.525	1173.0606	1209.1318	1289.2956	1340.446	1369.4956	1411.7174	1424.2001	1478.9943	1483.2381	1504.3739	1518.2438	1523.1387	3024.5932	3044.1356	3073.7902	3086.7643	3113.0252	3115.5216	3134.3671	3177.5374	3207.674	3221.9976
CC1(CO1)C12CC1CO2	C[C@@]1(CO1)[C@]12C[C@H]1CO2	
InChI=1S/C7H10O2/c1-6(4-9-6)7-2-5(7)3-8-7/h5H,2-4H2,1H3	InChI=1S/C7H10O2/c1-6(4-9-6)7-2-5(7)3-8-7/h5H,2-4H2,1H3/t5-,6+,7-/m0/s1
