19
gdb 3171	2.6122996	1.746186	1.3387907	0.9911	73.54	-0.25218	0.06639	0.31857	1004.6921	0.158411	-422.53959	-422.531991	-422.531047	-422.57145	30.033	
O	-0.0002677896	 0.7376968169	-0.0412123951	-0.436742
C	-0.8274872505	-0.0192010557	 0.8380958497	 0.069256
C	-0.9918985699	 0.7053575115	 2.1705422316	 0.002571
O	-1.9653140932	 0.1042542889	 3.0276374738	-0.259778
C	-2.3458172115	 1.2729162334	 2.2744188197	 0.036621
C	-3.1470326817	 0.9533578117	 1.0307535858	-0.048441
C	-4.2318014638	-0.1550597629	 1.1792721626	-0.224846
C	-3.2158779816	-1.2051284678	 0.6431683004	-0.237739
C	-2.2451183851	-0.0554601918	 0.2432875372	-0.004603
H	 0.8917032088	 0.7512921047	 0.3210091024	 0.283837
H	-0.4258838685	-1.0340161202	 0.9804317033	 0.073712
H	-0.121374262	 1.1310859583	 2.6689448929	 0.085049
H	-2.5672997631	 2.1481433537	 2.8806386757	 0.092856
H	-3.4490930265	 1.8719529864	 0.5215824212	 0.071576
H	-4.6126113577	-0.3207670301	 2.1890974518	 0.107044
H	-5.0784463414	 0.0016531738	 0.5065337752	 0.098308
H	-2.8134710582	-1.8422220933	 1.4325312937	 0.113338
H	-3.564311607	-1.8362374378	-0.1779927366	 0.092836
H	-2.1888670176	 0.1157038604	-0.8324920052	 0.085143
111.809	176.0856	240.2936	277.8543	305.4785	345.8776	488.2008	504.3125	645.6621	717.5087	728.8065	763.4475	827.7139	853.9423	876.3564	893.8096	943.0466	955.9971	982.9665	1023.7432	1036.2939	1049.755	1063.9543	1095.7772	1114.6351	1127.1815	1187.5764	1211.4947	1237.5968	1247.8318	1259.0164	1269.2476	1276.5243	1302.3838	1314.2585	1340.3077	1355.8498	1397.3784	1438.976	1470.2143	1491.2222	2988.8741	3062.1104	3067.5592	3077.0623	3102.6998	3113.061	3115.831	3131.2224	3144.2093	3811.7541
OC1C2OC2C2CCC12	O[C@H]1[C@@H]2O[C@@H]2[C@@H]2CC[C@H]12	
InChI=1S/C7H10O2/c8-5-3-1-2-4(3)6-7(5)9-6/h3-8H,1-2H2	InChI=1S/C7H10O2/c8-5-3-1-2-4(3)6-7(5)9-6/h3-8H,1-2H2/t3-,4+,5+,6+,7-/m0/s1
