19
gdb 3925	3.5060854	1.423423	1.248002	1.1408	75.31	-0.23323	0.07661	0.30984	1043.526	0.15845	-422.4998	-422.492581	-422.491637	-422.530954	29.882	
O	 0.4687069832	 0.3850126274	 0.6479243655	-0.42805
C	-0.8885260052	 0.6320528591	 0.903717829	 0.063758
C	-1.8598830377	-0.0857114006	-0.1057636598	-0.37981
C	-2.7431265098	 1.1759068243	-0.0070663028	 0.276252
C	-3.57531916	 2.2852969567	-0.7102422909	-0.336449
C	-3.4734697874	 2.8801664206	 0.7507631396	 0.105585
C	-3.6386310633	 1.4346629467	 1.250799192	-0.261622
O	-2.0638432572	 3.1274163197	 1.0148168864	-0.303061
C	-1.510459242	 1.9732388765	 0.3723464674	 0.098671
H	 0.9919914713	 0.8533619364	 1.3066471743	 0.285682
H	-1.1582232424	 0.415028502	 1.9437039911	 0.080953
H	-1.3591580976	-0.1964712714	-1.0712038789	 0.122118
H	-2.2925052716	-1.0407031159	 0.1955852455	 0.107996
H	-3.0970303944	 2.8339962302	-1.5248869785	 0.103374
H	-4.6065027156	 2.0278682299	-0.9612832992	 0.102107
H	-4.0673930371	 3.7260547951	 1.0925290014	 0.083554
H	-3.2542537079	 1.217253072	 2.248856608	 0.10054
H	-4.6446908811	 1.028627355	 1.1226065782	 0.098204
H	-0.9019457442	 2.2798987764	-0.4888196384	 0.080197
163.3259	253.0666	281.3615	311.7257	382.141	449.0837	474.4953	501.6528	553.4042	668.5078	687.0826	794.7342	830.5328	849.953	879.8021	899.8002	920.1871	955.273	974.8974	997.895	1022.1193	1051.2679	1061.1024	1093.3415	1112.7192	1136.002	1167.0625	1197.6574	1207.8351	1214.6052	1223.9179	1243.5805	1261.6949	1274.2057	1288.5609	1309.7472	1375.0255	1429.3802	1476.9253	1483.3562	1511.0805	3016.0214	3036.8194	3063.4553	3070.2349	3073.1084	3129.2375	3133.3011	3134.1024	3142.7088	3812.9577
OC1CC23CC(C2)OC13	O[C@@H]1C[C@@]23C[C@@H](C2)O[C@@H]13	
InChI=1S/C7H10O2/c8-5-3-7-1-4(2-7)9-6(5)7/h4-6,8H,1-3H2	InChI=1S/C7H10O2/c8-5-3-7-1-4(2-7)9-6(5)7/h4-6,8H,1-3H2/t4-,5-,6+,7+/m1/s1
