19
gdb 5289	2.2737201	1.6276756	1.1820342	1.9279	75.24	-0.2436	-0.02815	0.21545	1111.0577	0.155675	-422.542141	-422.533333	-422.532389	-422.57585	32.347	
C	 2.29218622	 1.8241040492	-1.2266078599	-0.387265
C	 1.591856887	 0.6640369477	-0.5045661656	-0.300239
C	 1.9507445881	-0.6830371034	-1.0997646479	 0.181622
C	 1.416644378	-1.0593956477	-2.5087833283	-0.122451
O	 0.9753572852	-2.3588011575	-2.062425862	-0.288559
C	 1.3965149072	-2.0990824901	-0.7113817359	 0.039825
C	 2.8229377598	-2.6276352501	-0.4272497213	-0.360905
C	 3.3649103662	-1.251734443	-0.8683625545	 0.357037
O	 4.4603829398	-0.7711179176	-0.9300652683	-0.29983
H	 2.0321660066	 2.7815806624	-0.7661102824	 0.115562
H	 3.3777349505	 1.7036284357	-1.1875708297	 0.150847
H	 1.9966106393	 1.8719167576	-2.2804908336	 0.117313
H	 1.8642716822	 0.6765459498	 0.558140843	 0.1046
H	 0.5027331952	 0.7937064281	-0.5476406513	 0.10387
H	 0.5692295361	-0.4357003915	-2.8222364822	 0.109688
H	 2.1432736942	-1.1155261605	-3.3271464813	 0.117494
H	 0.6124378257	-2.2831566537	 0.0257557959	 0.086128
H	 3.0273937827	-2.8097685846	 0.6340812418	 0.134607
H	 3.1381846563	-3.4972047109	-1.0084423663	 0.140657
76.8051	99.6662	148.3601	194.0319	233.5827	290.2895	314.4253	410.5279	461.3228	511.3243	616.6022	681.3861	752.8487	792.8902	835.2108	903.4344	924.8136	978.1723	989.7517	1003.3672	1009.8581	1042.3384	1057.9624	1113.2508	1125.7426	1150.2614	1169.6192	1201.366	1228.9462	1270.7968	1302.2343	1324.1302	1355.9244	1365.9191	1410.935	1416.5496	1487.2029	1498.3022	1511.1637	1523.3729	1879.2455	3009.5086	3018.6801	3037.7252	3050.8936	3053.2986	3064.2357	3094.8567	3103.3147	3120.8002	3128.6448
CCC12COC1CC2=O	CC[C@]12CO[C@H]1CC2=O	
InChI=1S/C7H10O2/c1-2-7-4-9-6(7)3-5(7)8/h6H,2-4H2,1H3	InChI=1S/C7H10O2/c1-2-7-4-9-6(7)3-5(7)8/h6H,2-4H2,1H3/t6-,7+/m0/s1
