19
gdb 878	2.7109379	1.4299851	1.1515755	1.0754	74.29	-0.25366	-0.02909	0.22457	1107.0427	0.157821	-422.565487	-422.55741	-422.556466	-422.598376	30.476	
O	 0.4014979127	 0.2376406556	 0.9472833793	-0.240919
C	 0.13354388	-0.1840258426	-0.1482200011	 0.150116
C	-0.576688074	 0.5996790284	-1.2403416659	-0.121174
C	-1.0658283022	 1.9805847689	-0.7804314815	-0.221338
C	-2.3415368679	 1.8681246475	 0.0654319647	-0.208885
C	-3.5143496193	 1.2557693518	-0.7192581449	-0.224033
C	-3.1074474669	 0.0738549788	-1.5812572277	 0.050847
O	-2.4810851941	 0.3887911302	-2.838128719	-0.260685
C	-1.6918245942	-0.2472163553	-1.838496936	 0.043017
H	 0.4252128485	-1.219284096	-0.4444095289	 0.079813
H	 0.1841521276	 0.7134952248	-2.0315329516	 0.108996
H	-0.2730278806	 2.4576609723	-0.1986558301	 0.115051
H	-1.2540449413	 2.5990597306	-1.6636218762	 0.10935
H	-2.1241059343	 1.2509970205	 0.9441169803	 0.117789
H	-2.6281269363	 2.8549107211	 0.4428229608	 0.098862
H	-4.3013438335	 0.9378975204	-0.0267848606	 0.101847
H	-3.9657273835	 2.0053712127	-1.3806718819	 0.117469
H	-3.8316400995	-0.7371823256	-1.6601479829	 0.094236
H	-1.4219562112	-1.280116544	-2.0695173866	 0.089643
75.6195	117.0908	193.5788	231.8266	312.1898	361.3384	407.8241	427.4806	523.8635	658.9805	691.9673	757.4198	785.8659	819.7095	876.4612	886.4935	926.4319	956.8593	1009.4011	1027.6916	1052.0752	1070.8522	1094.0494	1133.5321	1164.5653	1198.2852	1220.4813	1273.092	1298.1767	1305.3145	1327.4508	1356.5544	1372.593	1387.0911	1400.2222	1432.0877	1462.5212	1479.5822	1481.615	1502.6728	1829.5071	2853.3581	2969.9609	3032.4275	3044.9469	3055.7261	3070.516	3080.322	3088.6696	3106.3409	3109.3475
O=CC1CCCC2OC12	O=C[C@@H]1CCC[C@H]2O[C@@H]12	
InChI=1S/C7H10O2/c8-4-5-2-1-3-6-7(5)9-6/h4-7H,1-3H2	InChI=1S/C7H10O2/c8-4-5-2-1-3-6-7(5)9-6/h4-7H,1-3H2/t5-,6+,7-/m0/s1
