19
gdb 4601	2.8798808	0.6783107	0.573611	2.3002	82.72	-0.24916	-0.03195	0.21721	1918.9287	0.153309	-422.532769	-422.521598	-422.520654	-422.571773	37.07	
C	-1.648208676	-4.7240364176	-1.7679882219	-0.395418
C	-0.7799159761	-3.48798025	-1.5244878006	-0.184448
C	-1.5910968405	-2.2628983196	-1.0118310415	-0.240259
C	-2.5261549617	-1.7793218895	-2.1244740434	 0.172511
O	-3.7145003878	-1.9528919617	-2.1360033922	-0.245338
C	-0.7156299431	-1.1662210902	-0.6151290577	-0.004158
C	-0.0031637214	-0.2327586647	-0.3416307064	 0.115507
C	 0.8993459532	 0.8570394534	 0.0310282125	-0.195357
O	 2.2632502971	 0.5921320782	-0.2640439674	-0.39944
H	-2.1342773761	-5.0526696742	-0.8434326983	 0.124917
H	-2.4362435909	-4.5300146235	-2.5016995051	 0.136469
H	-1.0386581179	-5.5526231418	-2.1397497235	 0.119584
H	-0.0052042565	-3.706320015	-0.7827193346	 0.116142
H	-0.2528957706	-3.1984948192	-2.4417281699	 0.115272
H	-2.2245679954	-2.5771736748	-0.1739483074	 0.12057
H	-1.997498612	-1.2593628136	-2.9546996097	 0.09066
H	 0.644579416	 1.7625736441	-0.5306327471	 0.143956
H	 0.7569149108	 1.0963271513	 1.0970057372	 0.121288
H	 2.4904045088	-0.2470477716	 0.1498653168	 0.287543
17.8913	47.4829	72.3342	85.4901	120.0276	180.5416	221.1525	253.4019	304.4488	338.1018	349.729	429.6127	460.0541	504.816	597.1925	772.736	815.0473	874.4344	948.8013	983.5862	1012.9344	1041.7564	1062.5096	1103.9199	1133.9596	1167.4045	1215.1848	1247.7786	1294.1752	1318.8905	1359.4604	1361.5413	1415.1385	1417.4127	1419.3915	1488.5479	1489.8767	1498.2831	1504.5268	1836.3333	2352.9651	2884.9737	2978.3587	3035.9103	3040.3107	3047.1124	3064.3734	3078.2054	3109.8132	3117.0639	3816.9715
CCC(C=O)C#CCO	CC[C@H](C=O)C#CCO	
InChI=1S/C7H10O2/c1-2-7(6-9)4-3-5-8/h6-8H,2,5H2,1H3	InChI=1S/C7H10O2/c1-2-7(6-9)4-3-5-8/h6-8H,2,5H2,1H3/t7-/m0/s1
