19
gdb 2557	2.4112927	1.9167737	1.4751378	1.4668	75.59	-0.23451	0.01184	0.24634999999999999	985.2834	0.156795	-422.569084	-422.560955	-422.560011	-422.601164	31.765	
C	 0.7153985625	 1.5044734472	 1.2997873407	-0.510993
C	-0.336087718	 0.6708830836	 0.6525922634	 0.342547
C	-1.6228877402	 0.9250532705	 0.3986828191	-0.222728
C	-2.199854974	-0.3901883222	-0.0956335934	-0.03363
C	-2.2178220882	-1.3458918524	 1.1412030606	-0.081771
O	-0.8219093327	-1.5474322835	 1.3684457145	-0.307264
C	-0.1716577271	-0.8156960181	 0.2828352911	 0.377105
C	 1.1856602735	-1.396639969	 0.0068618643	-0.499784
O	-1.0800150448	-0.9706968026	-0.7872122667	-0.258599
H	 1.0512041841	 1.0446547511	 2.2379831663	 0.139466
H	 1.6026550665	 1.6059539046	 0.6631433488	 0.130268
H	 0.3447020633	 2.5071258237	 1.5288646685	 0.127614
H	-2.1930204585	 1.8139208535	 0.6337807178	 0.100969
H	-3.092963028	-0.3780652202	-0.7170296225	 0.087836
H	-2.6963496322	-0.9036751059	 2.0211932156	 0.099907
H	-2.696084275	-2.3008511475	 0.8971191867	 0.106118
H	 1.8131388779	-1.3246942353	 0.8985612176	 0.132321
H	 1.0845825252	-2.4489860524	-0.2663651218	 0.139775
H	 1.6695749857	-0.857580935	-0.8114189806	 0.130843
151.4655	179.9774	193.6804	229.7797	278.5741	314.8085	393.5425	444.6506	556.1531	592.7224	638.4902	666.9603	771.4273	772.8063	805.5596	858.5954	871.2922	896.3622	926.0214	977.9317	1000.3455	1019.1149	1050.2267	1063.0297	1117.5514	1138.1135	1190.5588	1211.5719	1249.0902	1284.9201	1321.1144	1333.1392	1350.9567	1412.1967	1423.8529	1475.1767	1478.5824	1487.2434	1490.6264	1512.5679	1697.8924	3020.4323	3032.5054	3057.8191	3068.7509	3081.843	3111.4826	3134.1571	3141.6446	3146.2202	3221.2447
CC1=CC2COC1(C)O2	CC1=C[C@@H]2CO[C@@]1(C)O2	
InChI=1S/C7H10O2/c1-5-3-6-4-8-7(5,2)9-6/h3,6H,4H2,1-2H3	InChI=1S/C7H10O2/c1-5-3-6-4-8-7(5,2)9-6/h3,6H,4H2,1-2H3/t6-,7+/m1/s1
