19
gdb 4322	2.4465684	1.4857521	1.168871	2.4894	77.52	-0.25356	-0.03913	0.21443	1120.0451	0.15583	-422.588119	-422.579169	-422.578225	-422.62176	33.57	
C	 0.6980773455	-0.3486571102	-0.9135891354	-0.400654
C	 1.031570899	 0.3187853954	 0.4171470871	-0.035585
C	 1.7076189029	 1.7090755629	 0.3109918365	-0.276003
C	 2.647101194	 1.735067237	 1.4865348743	-0.075388
C	 2.7899605608	 0.539022751	 2.0530355742	-0.107324
C	 1.9988548518	-0.5338027679	 1.3237406875	 0.264436
O	 2.8610356479	-1.3751045342	 0.5916235735	-0.47021
C	 1.182417127	-1.3844725379	 2.2793070843	 0.113422
O	 1.2771548617	-2.5879014521	 2.3171023957	-0.278912
H	 0.1916745754	-1.3078175774	-0.7642179452	 0.116131
H	 0.0362842348	 0.2903011701	-1.5071413051	 0.11005
H	 1.6076960237	-0.5409857401	-1.4869546352	 0.138434
H	 0.1033558926	 0.4616603227	 0.9863066703	 0.076899
H	 2.2637463465	 1.8227132219	-0.6298748856	 0.118307
H	 0.9715016834	 2.5207089925	 0.3340744551	 0.108102
H	 3.1730713454	 2.6322229662	 1.7957612782	 0.103731
H	 3.4540061482	 0.2932596998	 2.8736606627	 0.105106
H	 2.6438504077	-2.2793309011	 0.8721529347	 0.290107
H	 0.4842283616	-0.8317226685	 2.9404822525	 0.09935
66.3351	94.9247	220.987	228.751	264.3844	284.8489	323.5673	403.5713	448.559	458.6994	507.5797	539.3444	668.0431	744.7365	777.3223	820.922	883.1069	928.4873	946.6575	977.9533	983.7747	1013.6677	1028.5609	1102.2362	1121.7042	1132.71	1154.4867	1178.5669	1219.1395	1301.7365	1333.5907	1354.0577	1359.3374	1389.2543	1408.8808	1430.6311	1483.4131	1492.4591	1497.9184	1680.4475	1806.9903	2929.8428	3008.9632	3017.8963	3039.2285	3060.6121	3100.9369	3128.9471	3183.0713	3210.313	3672.8922
CC1CC=CC1(O)C=O	C[C@@H]1CC=C[C@@]1(O)C=O	
InChI=1S/C7H10O2/c1-6-3-2-4-7(6,9)5-8/h2,4-6,9H,3H2,1H3	InChI=1S/C7H10O2/c1-6-3-2-4-7(6,9)5-8/h2,4-6,9H,3H2,1H3/t6-,7-/m1/s1
