19
gdb 2021	3.4990818	1.2875975	1.1741852	0.8477	74.65	-0.25672	0.07836	0.33508	1103.0884	0.157046	-422.539815	-422.531837	-422.530893	-422.571837	31.868	
O	 0.2429624342	-0.1060228651	 4.5668103717	-0.47331
C	 0.3132310699	-0.3987362298	 3.2040677098	 0.402345
C	 0.2326343469	-1.8316158388	 2.7404572077	-0.357994
C	-0.9259663908	-0.8789615929	 2.4904326737	-0.079164
C	-0.9915944209	-0.2066856202	 1.1279042471	-0.291234
C	 0.4246764335	 0.3313255279	 0.919908043	 0.40639
C	 0.8864483348	 0.9647421432	-0.3154879538	-0.254652
O	 1.2474039664	-0.3866801154	-0.0162504298	-0.272771
C	 1.0325545874	 0.5904830397	 2.2940948122	-0.354319
H	 1.0762743236	-0.3707806037	 4.9712488591	 0.282049
H	 0.8405593424	-2.1628720703	 1.9044891114	 0.133852
H	 0.0755112961	-2.569827605	 3.5191849632	 0.110339
H	-1.8380753668	-1.0386136963	 3.0530101537	 0.092535
H	-1.2694973619	-0.8760993597	 0.3081940643	 0.113239
H	-1.713243971	 0.6192548896	 1.1518230674	 0.106352
H	 0.1959437491	 1.0911226593	-1.1492977484	 0.110423
H	 1.7031155044	 1.685738776	-0.2833362155	 0.110128
H	 2.1206677106	 0.4743389996	 2.266280559	 0.105126
H	 0.8009882622	 1.605422932	 2.6396225341	 0.110667
106.515	199.3971	268.9924	293.947	347.8921	381.801	393.8157	414.1954	448.5003	520.5093	590.231	702.701	768.4489	826.8233	841.4718	874.9467	901.2526	924.3772	936.7767	980.1001	986.8214	1041.779	1056.3074	1078.8683	1096.1128	1125.9867	1158.3044	1166.1583	1214.5206	1227.8869	1234.8287	1282.4064	1283.271	1319.0208	1340.3928	1407.1417	1430.8989	1471.4747	1477.5108	1497.1417	1534.4193	3030.9179	3035.3624	3073.8035	3085.0085	3087.0134	3129.6658	3156.6119	3184.8075	3222.2091	3797.3539
OC12CC1CC1(CO1)C2	O[C@@]12C[C@@H]1C[C@@]1(CO1)C2	
InChI=1S/C7H10O2/c8-7-2-5(7)1-6(3-7)4-9-6/h5,8H,1-4H2	InChI=1S/C7H10O2/c8-7-2-5(7)1-6(3-7)4-9-6/h5,8H,1-4H2/t5-,6-,7+/m0/s1
