19
gdb 2238	2.5655929	1.9060745	1.3381478	1.2086	74.48	-0.23435	0.06611	0.30046	992.9169	0.157082	-422.53199	-422.524002	-422.523058	-422.563776	31.758	
C	-0.079300388	 0.0937287817	 0.1814685956	-0.501209
C	 1.416290738	 0.1155292257	 0.0625128693	 0.291112
C	 2.2454267206	 1.260109528	-0.5309958885	-0.304153
C	 3.4617978507	 0.7548386486	 0.3081732067	 0.082086
O	 4.3012883707	-0.1138060888	-0.4516739097	-0.265135
C	 3.4904530302	-1.2187875828	-0.8488171106	-0.150556
C	 2.2500776219	-1.1545470528	 0.0467016408	 0.327029
O	 1.5467688196	-2.3272395479	 0.2977634823	-0.474739
C	 2.5002604631	-0.1304239623	 1.1258401558	-0.219496
H	-0.4432244977	 0.9887940927	 0.6983728248	 0.113375
H	-0.5486900238	 0.068922751	-0.8092807547	 0.12057
H	-0.416399833	-0.7884955621	 0.7302122861	 0.135503
H	 2.3880365743	 1.311107083	-1.6160808731	 0.09481
H	 1.8816883009	 2.2263769584	-0.1676929061	 0.100263
H	 4.0912879687	 1.494383565	 0.7998024101	 0.084876
H	 3.2471952333	-1.1606495228	-1.918604645	 0.101525
H	 4.0423938503	-2.1527871753	-0.6772596921	 0.091454
H	 2.1036798395	-2.9044921881	 0.8324227491	 0.286791
H	 2.4423762706	-0.3139482113	 2.1909772392	 0.085894
180.4734	198.8934	223.1541	260.8528	291.8371	353.0212	386.9433	416.2848	461.2005	594.7747	614.6582	694.2281	727.6972	777.6245	849.5973	890.3136	907.7434	937.4922	956.6888	963.1796	1008.9621	1040.4154	1055.0217	1107.706	1124.9455	1162.2623	1181.7604	1203.3292	1213.9943	1224.3737	1254.5251	1298.4146	1311.8719	1346.9391	1376.8399	1414.9793	1443.4307	1488.3724	1488.8902	1500.0034	1524.174	3000.6448	3026.7972	3032.3279	3037.1326	3081.5816	3089.9588	3125.5946	3133.9193	3198.101	3788.8082
CC12CC3OCC1(O)C23	C[C@]12C[C@@H]3OC[C@@]1(O)[C@H]23	
InChI=1S/C7H10O2/c1-6-2-4-5(6)7(6,8)3-9-4/h4-5,8H,2-3H2,1H3	InChI=1S/C7H10O2/c1-6-2-4-5(6)7(6,8)3-9-4/h4-5,8H,2-3H2,1H3/t4-,5-,6+,7+/m0/s1
