19
gdb 3923	2.6090535	1.7244291	1.4708083	1.2981	76.58	-0.20751	0.06127	0.26878	976.0118	0.156537	-422.443892	-422.43595	-422.435006	-422.475506	32.376	
O	 0.33635476	 0.1411081707	-0.1586579628	-0.414106
C	-0.744331643	 0.3456484235	 0.7157351315	 0.048932
C	-2.1418302267	 0.1704936996	-0.0124284109	-0.349148
C	-2.2563581794	-1.1843622928	 0.7099681976	 0.246456
C	-2.8586401823	-2.1826995163	 1.744329333	-0.341081
C	-1.2587234017	-2.3315022785	 1.8405438475	-0.172077
C	-1.2689166525	-2.3254734193	 0.2996613586	-0.246026
C	-1.2139435313	-0.7716900025	 1.7690137722	 0.371549
O	-1.5695341182	-0.0375161668	 2.9199739209	-0.484761
H	 1.1486093852	 0.2158518888	 0.3534204253	 0.286988
H	-0.6465239291	 1.2968661089	 1.2522932143	 0.090957
H	-2.8506564586	 0.927042623	 0.3313618069	 0.116552
H	-2.1114032489	 0.1589764533	-1.1043813762	 0.109835
H	-3.3856179711	-1.7530062378	 2.599466027	 0.088405
H	-3.3888911051	-3.0641059565	 1.3702273083	 0.097161
H	-0.7205087029	-3.0240918894	 2.4987808832	 0.061606
H	-0.3492487536	-2.033764408	-0.2019172048	 0.120972
H	-1.73961291	-3.1884672808	-0.1778901065	 0.086545
H	-1.9533896306	-0.6373730791	 3.5665111749	 0.281241
171.6948	224.4346	249.3252	290.6752	315.0779	362.5349	379.1981	452.6635	496.8383	539.0018	603.618	634.7646	753.3959	766.0667	806.455	861.7126	889.0969	908.1786	926.3905	974.3083	996.0954	1029.5961	1035.7931	1063.6775	1106.1941	1131.7582	1140.0634	1169.9073	1188.5321	1202.2981	1209.1761	1218.7878	1234.121	1252.7423	1277.7105	1316.9837	1333.4651	1417.1717	1466.0763	1502.7188	1538.5606	3028.1952	3030.1348	3049.5699	3067.8111	3070.9858	3111.8236	3129.4237	3168.8272	3810.4681	3825.7061
OC1CC23CC(C2)C13O	O[C@H]1C[C@@]23C[C@@H](C2)[C@@]13O	
InChI=1S/C7H10O2/c8-5-3-6-1-4(2-6)7(5,6)9/h4-5,8-9H,1-3H2	InChI=1S/C7H10O2/c8-5-3-6-1-4(2-6)7(5,6)9/h4-5,8-9H,1-3H2/t4-,5-,6+,7+/m0/s1
