19
gdb 5522	3.2120342	1.188209	1.0492324	4.6153	75.04	-0.25931	0.01572	0.27503	1212.2117	0.158195	-422.577632	-422.569642	-422.568697	-422.610453	30.526	
C	 2.876042253	-0.7730876352	 1.3377299424	-0.37838
C	 2.0563210347	-0.0218852323	 0.281574283	-0.234765
C	 2.2599984966	-0.5885681618	-1.1194611509	 0.038111
C	 1.3766792339	-0.0795730269	-2.2903037598	 0.073188
C	 0.2588637276	-1.0366801209	-1.8274465572	-0.253341
C	 1.5077054707	-1.9289614585	-1.5043857976	-0.199968
C	 2.0513437606	-2.0827919002	-2.9174612619	 0.452082
O	 2.4870447468	-3.0130326741	-3.5242845651	-0.351937
O	 1.9444072806	-0.8052730588	-3.4251522364	-0.247619
H	 2.7393742402	-0.3293675122	 2.3281244646	 0.119247
H	 2.5789497518	-1.8250961691	 1.3999342099	 0.123334
H	 3.9451441838	-0.7442110982	 1.1022716084	 0.123312
H	 0.9992426809	-0.0310052629	 0.5671039614	 0.103133
H	 2.3590331174	 1.0334283778	 0.2697998408	 0.107018
H	 3.3285835385	-0.5857078489	-1.3613639328	 0.092733
H	 1.2389380432	 0.9651385031	-2.5617972637	 0.095401
H	-0.279142791	-0.7055132051	-0.9405059612	 0.118877
H	-0.4372031393	-1.3881592395	-2.5917187303	 0.122
H	 1.4828352298	-2.8235975364	-0.8881141836	 0.097576
77.3675	125.9611	187.83	228.1551	314.9577	368.7505	450.8284	493.7295	530.8889	645.3122	720.576	781.6937	797.6603	863.7963	867.3645	880.8203	925.0653	931.8637	963.9672	1013.7079	1022.7923	1064.6833	1087.521	1094.4907	1124.5925	1134.1532	1159.6289	1211.5037	1237.7374	1255.3984	1265.0543	1295.9238	1317.9326	1351.3896	1407.8155	1414.4491	1482.5097	1498.6349	1500.8903	1511.7805	1912.2484	3024.7698	3036.3872	3047.2049	3069.7087	3087.1821	3105.9943	3111.014	3145.9501	3155.8652	3162.8909
CCC1C2CC1C(=O)O2	CC[C@@H]1[C@@H]2C[C@H]1C(=O)O2	
InChI=1S/C7H10O2/c1-2-4-5-3-6(4)9-7(5)8/h4-6H,2-3H2,1H3	InChI=1S/C7H10O2/c1-2-4-5-3-6(4)9-7(5)8/h4-6H,2-3H2,1H3/t4-,5+,6-/m0/s1
