19
gdb 930	3.7525305	1.1647349	1.0930174	2.1241	75.57	-0.27593	0.01099	0.28692	1162.9169	0.159135	-422.58053	-422.572926	-422.571982	-422.613293	29.144	
O	 1.1803069713	 0.7258981426	 0.6731511615	-0.307826
C	 0.2735949845	-0.0477990015	 0.5250283528	 0.173293
O	-0.997321608	 0.2587855653	 0.2371197703	-0.224936
C	-1.3039336247	 1.6656972915	 0.0750858498	 0.157056
C	-2.7040587594	 1.8080112159	-0.5837870561	-0.25387
C	-3.4183418522	 2.5870406023	 0.5393189889	-0.014757
C	-2.9614327202	 1.8148989302	 1.8107403348	-0.225008
C	-1.5661731487	 2.3789030937	 1.4101830571	-0.042397
C	-2.3362039079	 3.6408837052	 0.9182834812	-0.229206
H	 0.3616752317	-1.1433830025	 0.6009939996	 0.107154
H	-0.4896265512	 2.1217023469	-0.4892932819	 0.10376
H	-2.6660683715	 2.3605027021	-1.5264954309	 0.102438
H	-3.1452161437	 0.826684229	-0.7751980749	 0.113405
H	-4.4598270479	 2.8604082872	 0.3709878366	 0.063538
H	-3.3366894751	 2.2646577847	 2.7322731995	 0.099252
H	-3.0907387562	 0.729989157	 1.8354010908	 0.100509
H	-0.7279874541	 2.4367172833	 2.1020941942	 0.081834
H	-2.6385195198	 4.2858995431	 1.7459818662	 0.103048
H	-1.8934771667	 4.2409532838	 0.1167980306	 0.092712
48.3819	132.6502	190.6068	280.281	372.2944	415.9533	462.2517	525.0852	666.7256	781.3561	824.7833	834.3782	848.5574	860.8972	875.9958	943.0895	961.6098	969.3837	986.7887	1035.5293	1039.374	1046.3444	1082.5392	1094.6641	1108.5952	1126.1698	1187.2647	1207.8623	1230.5147	1242.4471	1245.9043	1273.9234	1292.0084	1318.4353	1339.7606	1391.9559	1410.6591	1488.4073	1490.2534	1524.1532	1816.7355	3021.2469	3049.8188	3061.6236	3065.211	3102.2125	3113.1527	3115.8613	3118.7262	3126.1286	3138.7959
O=COC1CC2CC1C2	O=CO[C@H]1C[C@H]2C[C@@H]1C2	
InChI=1S/C7H10O2/c8-4-9-7-3-5-1-6(7)2-5/h4-7H,1-3H2	InChI=1S/C7H10O2/c8-4-9-7-3-5-1-6(7)2-5/h4-7H,1-3H2/t5-,6+,7-/m0/s1
