19
gdb 4943	2.2322442	1.5776352	1.1194595	1.8263	74.77	-0.23021	0.05477	0.28498	1138.0577	0.155578	-422.475442	-422.466752	-422.465807	-422.508613	33.098	
C	-0.1016885146	 0.0626342133	-0.0162828943	-0.436497
C	 1.4087102592	 0.1704339522	-0.0158168591	-0.060216
C	 2.1772200074	-0.7402607935	-0.9450739974	-0.186485
C	 3.7048323301	-0.4236101341	-0.9390882915	 0.012841
O	 3.9592190963	 0.6962974336	-0.0784029812	-0.240763
C	 3.7690704948	-0.5989662228	 0.5072694542	-0.03814
C	 2.2420970442	-0.9541539385	 0.5670137076	 0.264802
C	 1.7585616906	-2.0903814237	 1.4138888099	-0.175047
O	 1.8800501213	-1.8098876401	 2.8051638645	-0.415505
H	-0.5255767162	 0.3886362679	 0.9402423716	 0.116467
H	-0.5257996648	 0.6998523347	-0.7991504956	 0.127332
H	-0.4463387443	-0.9590158179	-0.2028393523	 0.119257
H	 1.7909866215	 1.1773108865	 0.1092453497	 0.113317
H	 1.6918034246	-1.3646287584	-1.684684193	 0.092282
H	 4.4204981478	-0.6220611244	-1.7275346649	 0.109803
H	 4.541331251	-0.9746736596	 1.1674544625	 0.113313
H	 0.7268888372	-2.3612427912	 1.1446567322	 0.091437
H	 2.3762734518	-2.9810816617	 1.2484047662	 0.109101
H	 1.4066379221	-0.9885339624	 2.974050551	 0.282703
82.2018	137.2457	210.4388	247.2017	259.4056	282.1778	326.8624	385.9169	439.9485	454.4155	613.483	688.2915	758.1165	792.041	826.6566	847.0488	869.1821	914.9326	930.2652	982.0932	990.3216	1030.4166	1038.9481	1048.108	1081.6702	1113.2389	1149.5877	1165.1939	1196.4577	1229.1778	1242.5999	1265.6834	1336.9707	1363.7926	1371.5759	1417.036	1423.395	1437.3504	1493.3427	1501.9077	1512.0361	2996.5054	3031.3415	3053.9612	3092.0027	3102.7382	3175.4595	3184.5727	3194.0208	3202.383	3813.1359
CC1C2C3OC3C12CO	C[C@@H]1[C@H]2[C@H]3O[C@H]3[C@@]12CO	
InChI=1S/C7H10O2/c1-3-4-5-6(9-5)7(3,4)2-8/h3-6,8H,2H2,1H3	InChI=1S/C7H10O2/c1-3-4-5-6(9-5)7(3,4)2-8/h3-6,8H,2H2,1H3/t3-,4+,5-,6-,7+/m1/s1
