19
gdb 3750	3.3328078	1.3236389	1.1235886	2.5761	76.42	-0.23455	0.01759	0.25214000000000003	1123.9665	0.157202	-422.541838	-422.533635	-422.532691	-422.574281	32.031	
O	 0.4647977639	 0.2752406501	 0.7804287309	-0.436661
C	-0.7959508171	 0.7120124596	 0.3844024434	 0.074791
C	-1.9977279174	-0.2120853312	 0.4836354893	-0.384825
C	-1.8360178894	 0.9673835663	 1.4298032471	 0.368557
C	-2.7877720735	 2.1431529711	 1.417447715	-0.321703
C	-3.7967804646	 1.9875440224	 2.5286330099	-0.058376
C	-3.6241405088	 1.106202406	 3.5103156221	-0.064084
C	-2.3995154615	 0.2388980945	 3.5999852846	-0.128661
O	-1.3662350701	 0.6671017145	 2.7218239013	-0.305783
H	 0.4302511556	 0.1949944681	 1.7431469826	 0.294347
H	-0.7443934402	 1.3898167404	-0.4637344088	 0.09831
H	-2.7646731785	-0.1692062883	-0.2830560589	 0.109223
H	-1.8076166442	-1.1986574948	 0.8938434148	 0.116619
H	-2.2340980877	 3.0857688747	 1.5378350397	 0.118528
H	-3.2948448026	 2.2073598468	 0.4476169265	 0.109386
H	-4.6793275078	 2.6206225114	 2.5031153736	 0.092851
H	-4.3665238197	 0.9774365454	 4.2931609558	 0.093611
H	-1.9697924933	 0.2759937227	 4.607569548	 0.118997
H	-2.6613699129	-0.8141980798	 3.3980554432	 0.104874
102.0655	171.8132	183.386	249.2498	350.752	368.6585	388.9949	426.8481	475.0263	535.8795	607.8614	660.7678	696.4553	795.9952	860.9226	895.9696	917.3436	933.3292	970.0608	993.8509	996.2817	1023.0988	1033.586	1055.1845	1094.9623	1114.2196	1138.7419	1184.7781	1216.4575	1243.2746	1268.0285	1291.6182	1341.71	1380.576	1397.6792	1408.6283	1429.1977	1470.3969	1484.3751	1490.2248	1726.7266	2958.0783	3003.4408	3054.747	3057.3131	3124.8858	3142.3517	3156.2181	3178.799	3218.4831	3756.6302
OC1CC11CC=CCO1	O[C@H]1C[C@@]21CC=CCO2	
InChI=1S/C7H10O2/c8-6-5-7(6)3-1-2-4-9-7/h1-2,6,8H,3-5H2	InChI=1S/C7H10O2/c8-6-5-7(6)3-1-2-4-9-7/h1-2,6,8H,3-5H2/t6-,7+/m0/s1
