19
gdb 1225	2.6504245	0.8680501	0.7646558	3.6438	78.68	-0.24587	-0.01614	0.22973	1535.1416	0.15182	-422.539667	-422.52882	-422.527875	-422.576207	38.227	
C	-3.0657617521	 0.0668587176	-1.9604217162	-0.411767
C	-1.9106148793	-0.8366298259	-1.4917323971	 0.161492
O	-1.3842641203	-1.5736639156	-2.6017984265	-0.442673
C	-0.7360687891	 0.0202741119	-0.9747420921	-0.205533
C	 0.4687318286	-0.8082660355	-0.5057035833	-0.28176
C	 1.6831190207	 0.055047129	-0.2646346704	 0.155926
O	 2.3242780308	 0.0847444005	 0.7540611865	-0.240175
C	-2.3931102677	-1.76051978	-0.4527113684	 0.335357
C	-2.8181075624	-2.5303201037	 0.3672984069	-0.501796
H	-3.452740994	 0.6716682595	-1.1355303671	 0.128101
H	-2.7095889903	 0.7277470222	-2.7553877889	 0.125889
H	-3.8879978684	-0.5397167417	-2.3510357388	 0.118827
H	-2.0134463849	-2.2691964898	-2.8204351506	 0.287521
H	-0.4371587204	 0.6756952399	-1.8018973517	 0.110826
H	-1.0980561572	 0.66028269	-0.1639362287	 0.117934
H	 0.2444731671	-1.3713431183	 0.4031771629	 0.128686
H	 0.7189313153	-1.5205422236	-1.3030682354	 0.139728
H	 1.9669664939	 0.6947057203	-1.1351141163	 0.067727
H	-3.1807206705	-3.2092840667	 1.0996692451	 0.20569
53.2681	62.6065	99.7611	157.4561	184.4848	192.4433	238.9612	267.9706	303.6641	349.16	406.7288	412.9475	521.2467	572.0753	605.1092	640.7522	671.9638	725.2162	773.8219	844.3345	929.6292	937.4679	1017.5968	1053.0059	1069.137	1113.7759	1144.0293	1172.8644	1226.9975	1275.4989	1319.6628	1367.8421	1378.7314	1404.1354	1431.2579	1463.8942	1478.2967	1486.7834	1489.9618	1836.0661	2228.8574	2841.0935	3032.7052	3037.7846	3042.3641	3086.7818	3117.7042	3118.2648	3126.6527	3498.1086	3817.6824
CC(O)(CCC=O)C#C	C[C@@](O)(CCC=O)C#C	
InChI=1S/C7H10O2/c1-3-7(2,9)5-4-6-8/h1,6,9H,4-5H2,2H3	InChI=1S/C7H10O2/c1-3-7(2,9)5-4-6-8/h1,6,9H,4-5H2,2H3/t7-/m0/s1
