19
gdb 5290	2.241944	1.7033803	1.2126925	3.3856	75.75	-0.23076	-0.03104	0.19971999999999998	1098.2954	0.155704	-422.541853	-422.533048	-422.532104	-422.575489	32.403	
C	 2.6654798202	-1.0521381543	 1.150812787	-0.388059
C	 1.850245128	-0.1275634793	 0.2351844792	-0.287401
C	 1.8688478019	-0.5992130754	-1.1951779774	 0.354868
O	 3.1980441356	-0.6247171245	-1.7908854656	-0.323989
C	 2.762186905	 0.1582513356	-2.92883371	-0.080768
C	 1.29728452	 0.1056828155	-2.4793123147	-0.164971
C	 0.558785588	-1.1952971672	-2.8932454803	-0.362256
C	 1.119322807	-1.8881305309	-1.6310451254	 0.376551
O	 0.9961283434	-2.9794738533	-1.1577150114	-0.294282
H	 2.6550942357	-0.6840536577	 2.1805718037	 0.110378
H	 2.2579224505	-2.0663020412	 1.1397166128	 0.14545
H	 3.7044443077	-1.1004921155	 0.8138488656	 0.137186
H	 0.8072673911	-0.0789414731	 0.5737486479	 0.102689
H	 2.247333294	 0.8944115747	 0.2740459282	 0.103211
H	 3.2138501465	 1.1576524443	-2.9119142945	 0.107914
H	 2.9999966607	-0.3271015154	-3.8828728873	 0.107049
H	 0.7203180853	 1.0276995457	-2.454307868	 0.088177
H	-0.5326559819	-1.1193436168	-2.8478987192	 0.136448
H	 0.8322338812	-1.6430367612	-3.8530777806	 0.131804
80.0709	100.45	152.8578	192.1854	232.7154	292.7418	311.4562	403.8155	470.0156	511.6983	612.2473	672.188	765.7487	812.8574	820.7772	898.9734	924.2527	947.4709	982.0733	1004.9971	1029.6169	1044.6191	1050.748	1100.7243	1127.8585	1144.999	1169.0988	1178.3048	1222.0368	1268.357	1305.5384	1320.0893	1343.0811	1372.1057	1407.9042	1435.0369	1474.8262	1496.8215	1512.9127	1523.4549	1886.0104	3017.1634	3021.6007	3048.2448	3053.8079	3058.3067	3062.9616	3105.8332	3120.0069	3130.3344	3136.9841
CCC12OCC1CC2=O	CC[C@]12OC[C@H]1CC2=O	
InChI=1S/C7H10O2/c1-2-7-5(4-9-7)3-6(7)8/h5H,2-4H2,1H3	InChI=1S/C7H10O2/c1-2-7-5(4-9-7)3-6(7)8/h5H,2-4H2,1H3/t5-,7+/m1/s1
