19
gdb 2155	3.2135956	1.3600048	1.2973854	2.125	74.59	-0.24129	0.07538	0.31667	1059.6978	0.155465	-422.513007	-422.504565	-422.50362	-422.545106	33.821	
C	-0.1060557685	 0.0546802763	 0.178790824	-0.458942
C	 1.4003459596	-0.0489756728	-0.0156686322	 0.43256
O	 1.9330703227	-1.0483574823	 0.8503371071	-0.482139
C	 2.2642725757	 1.2147986402	-0.0314781749	-0.217422
C	 3.2257410566	 0.6004338534	-1.0293662285	-0.118539
C	 2.0127747762	-0.3372800244	-1.4195470568	-0.099616
C	 1.4955745181	 0.7868375118	-2.3598084634	-0.318394
C	 2.3433648824	 1.7173232221	-1.4942643763	 0.384035
O	 2.7604033947	 2.9973853134	-1.7946680058	-0.463368
H	-0.331840447	 0.348099874	 1.2118315753	 0.102582
H	-0.560730192	 0.8007393245	-0.4776519513	 0.114269
H	-0.5817526319	-0.9140456735	-0.0037797976	 0.124351
H	 1.8143318664	-0.7475894669	 1.7575505869	 0.272624
H	 2.5036475914	 1.8879352836	 0.7844701602	 0.076332
H	 4.2964623177	 0.4696311319	-1.0139967119	 0.098015
H	 2.0874029536	-1.3687919278	-1.7551684527	 0.07936
H	 1.9304076449	 0.6972139593	-3.3595896421	 0.105337
H	 0.4142364359	 0.9430772157	-2.4429535893	 0.084489
H	 2.0582073534	 3.6111497013	-1.5519902306	 0.284466
159.683	210.9104	239.9418	261.1974	286.9287	331.2186	360.5573	389.6244	438.5994	465.8226	521.3006	603.9405	654.7373	756.6264	792.3099	839.601	874.4068	893.7674	920.1786	930.5402	947.3159	981.6876	1021.603	1028.1817	1088.2695	1102.1403	1127.5974	1134.2195	1153.0177	1191.0541	1201.7223	1231.0932	1273.6533	1288.2254	1311.6599	1365.2938	1405.6706	1439.5062	1485.9903	1490.9987	1516.3871	3026.222	3037.5917	3090.4747	3096.1166	3123.0568	3148.9791	3175.4322	3241.5287	3791.6174	3804.2409
CC1(O)C2C3C1CC23O	C[C@]1(O)[C@H]2[C@H]3[C@@H]1C[C@@]23O	
InChI=1S/C7H10O2/c1-6(8)3-2-7(9)4(3)5(6)7/h3-5,8-9H,2H2,1H3	InChI=1S/C7H10O2/c1-6(8)3-2-7(9)4(3)5(6)7/h3-5,8-9H,2H2,1H3/t3-,4+,5+,6+,7-/m0/s1
