19
gdb 4332	2.3363307	1.8403762	1.2126503	1.297	75.74	-0.24239	-0.00389	0.2385	1058.2384	0.156907	-422.562514	-422.55404	-422.553096	-422.59511	32.853	
C	-0.8197310829	 1.842924938	-1.4768591437	-0.468402
C	 0.1151418438	 0.7206751345	-1.859043227	 0.357202
O	 1.3061946104	 1.1099546669	-2.5618823486	-0.305988
C	 0.3045509095	 0.3333768523	-3.2693546324	-0.059574
C	 0.6445894701	-1.0697354351	-3.6114010899	-0.037329
C	 1.1043892352	-1.9048216883	-2.6795462958	-0.100034
C	 1.3154969112	-1.4560062342	-1.2582145267	-0.29058
C	 0.3316912127	-0.3596218997	-0.8049442951	 0.0701
O	 0.738423759	 0.2029444985	 0.4381746832	-0.437019
H	-0.47954044	 2.3220243876	-0.5549377026	 0.13471
H	-0.8628056253	 2.5915197778	-2.271433784	 0.12376
H	-1.8300512309	 1.4593537788	-1.2980234218	 0.121937
H	-0.2217015419	 0.9103356918	-4.0281882748	 0.087629
H	 0.5079436931	-1.3873009113	-4.6402249206	 0.093155
H	 1.3707600098	-2.9256919283	-2.9379057052	 0.098776
H	 1.2478724572	-2.2972221128	-0.562082043	 0.112081
H	 2.3343100557	-1.0556301176	-1.1608361634	 0.119682
H	-0.6444698195	-0.8159758281	-0.5978280381	 0.094805
H	 1.582077853	 0.6449227394	 0.2851035695	 0.285089
95.1456	174.0392	214.1729	254.4975	279.3844	352.5241	365.2323	421.3762	429.263	494.301	552.9952	599.6983	687.1756	716.3951	802.8722	812.6427	880.7122	949.6352	965.9825	969.4791	984.5965	1041.6847	1060.9239	1079.4498	1096.0646	1117.3069	1182.7885	1201.9637	1245.1745	1287.9624	1324.626	1352.3727	1362.7136	1406.7522	1410.8133	1424.4022	1459.0279	1467.6098	1479.9242	1500.6126	1710.515	3013.6722	3036.9863	3043.0283	3083.032	3110.1632	3121.74	3131.0215	3162.9741	3187.6214	3789.4046
CC12OC1C=CCC2O	C[C@]12O[C@H]1C=CC[C@H]2O	
InChI=1S/C7H10O2/c1-7-5(8)3-2-4-6(7)9-7/h2,4-6,8H,3H2,1H3	InChI=1S/C7H10O2/c1-7-5(8)3-2-4-6(7)9-7/h2,4-6,8H,3H2,1H3/t5-,6+,7-/m1/s1
