19
gdb 1374	2.3495003	1.0581953	0.9497772	2.7906	77.72	-0.2542	-0.02162	0.23257999999999998	1343.006	0.152533	-422.536214	-422.525601	-422.524657	-422.572039	37.609	
C	 2.5970722374	 1.6372041473	-1.7963266337	-0.429508
C	 3.1580440623	 1.291233671	-0.4124074072	 0.027503
C	 4.690693234	 1.2340819989	-0.4366372932	-0.31052
C	 5.3605443195	 1.2942357616	 0.9147919897	 0.153534
O	 4.7857883458	 1.3596521902	 1.9732663258	-0.241493
C	 2.592095734	-0.053282082	 0.1243758495	-0.063185
O	 2.9806676284	-1.1573701123	-0.6966572008	-0.428178
C	 1.1394951413	-0.002892962	 0.3016217499	 0.296077
C	-0.0573314457	 0.0339484772	 0.4125925708	-0.441411
H	 2.9109894226	 0.9018138573	-2.5459248746	 0.112668
H	 1.5040163447	 1.666543435	-1.7808279481	 0.131443
H	 2.9566906981	 2.6158550107	-2.1281303801	 0.117192
H	 2.8518007006	 2.06093165	 0.3048367512	 0.102779
H	 5.0310872784	 0.3169650565	-0.938099549	 0.144922
H	 5.1077942101	 2.059128056	-1.0323223791	 0.1172
H	 6.4739770371	 1.2800617668	 0.8745562131	 0.081762
H	 3.0551658937	-0.2415415485	 1.0977895081	 0.139669
H	 2.368365546	-1.1997035034	-1.4386695187	 0.289118
H	-1.1125263783	 0.0591382997	 0.5320028765	 0.200426
60.4144	79.4693	137.0318	155.1923	181.465	218.0966	237.1107	267.4638	299.0444	336.8261	342.079	480.3835	543.497	611.9755	627.9373	672.5225	712.7608	735.6111	815.736	866.6654	948.0017	989.9445	1002.7026	1014.12	1096.9571	1119.7376	1160.1812	1226.5937	1266.5519	1293.2815	1327.5285	1356.4512	1385.811	1406.0158	1420.3647	1424.0574	1440.0081	1499.0922	1507.6339	1823.827	2230.7424	2869.9389	3013.3608	3033.3226	3043.1522	3056.2576	3074.0633	3099.3516	3116.0722	3502.1934	3817.8342
CC(CC=O)C(O)C#C	C[C@H](CC=O)[C@H](O)C#C	
InChI=1S/C7H10O2/c1-3-7(9)6(2)4-5-8/h1,5-7,9H,4H2,2H3	InChI=1S/C7H10O2/c1-3-7(9)6(2)4-5-8/h1,5-7,9H,4H2,2H3/t6-,7-/m1/s1
