19
gdb 1508	3.2054055	1.158516	0.9909258	3.0887	78.14	-0.24494	0.04638	0.29131999999999997	1240.3043	0.153532	-422.522106	-422.512583	-422.511639	-422.5555	37.163	
C	 0.7919805221	 2.7490322805	 3.7569996635	-0.466468
C	-0.208136923	 2.2510429703	 2.7316065262	 0.369818
O	-1.472339685	 2.9194555591	 2.8775417994	-0.471844
C	 0.1407637735	 2.3277191055	 1.2243033071	-0.282346
C	-0.6133926819	 0.9677052436	 1.0201780565	 0.201843
O	-1.9706403736	 1.1479299163	 0.6633343681	-0.48773
C	-0.422241056	 0.7186290065	 2.5582277661	-0.309447
C	-0.0114003789	 0.002438866	 0.1151822373	 0.320016
C	 0.5328044206	-0.7906525106	-0.605119015	-0.433154
H	 0.457173715	 2.517095488	 4.7758903683	 0.109925
H	 1.7687822938	 2.2774467716	 3.6138622731	 0.121784
H	 0.9125912416	 3.8338925902	 3.678125041	 0.130221
H	-1.820984423	 2.70358445	 3.7503193625	 0.280977
H	-0.2583290444	 3.1806783699	 0.6719774738	 0.117516
H	 1.2135399235	 2.2299502257	 1.0485566556	 0.111516
H	-2.3078996319	 1.8289099103	 1.263187604	 0.283843
H	-1.2757346053	 0.2670038397	 3.0709550471	 0.100941
H	 0.4847328302	 0.1475768437	 2.7693363087	 0.110639
H	 0.9981567127	-1.4936832662	-1.2507358633	 0.191951
105.5038	144.4305	201.6824	226.8512	249.697	330.1184	343.6553	378.5069	389.2921	441.9402	448.6328	525.6004	549.1699	558.7208	592.9837	619.714	661.6346	700.222	834.2012	866.5196	899.1428	927.8335	934.8999	988.3217	1004.4303	1057.849	1071.898	1130.1819	1204.0574	1211.3172	1213.5685	1256.411	1288.7686	1366.3797	1407.8023	1446.5103	1450.5167	1476.5695	1488.4155	1491.2714	2241.9353	3024.1454	3060.2604	3076.4866	3091.3102	3114.7921	3126.7555	3142.5993	3503.4983	3731.2869	3792.9415
CC1(O)CC(O)(C1)C#C	C[C@@]1(O)C[C@](O)(C1)C#C	
InChI=1S/C7H10O2/c1-3-7(9)4-6(2,8)5-7/h1,8-9H,4-5H2,2H3	InChI=1S/C7H10O2/c1-3-7(9)4-6(2,8)5-7/h1,8-9H,4-5H2,2H3/t6-,7+
