19
gdb 2875	3.2217569	1.5055348	1.4014244	0.6581	73.12	-0.21911	0.0747	0.29381	1005.8575	0.158252	-422.560484	-422.552919	-422.551975	-422.591886	30.744	
C	 2.2219370302	 1.6611513212	 0.0019426246	-0.413422
C	 1.5743460207	 0.2916102466	 0.1869424045	 0.023823
C	 2.2292276143	-0.5901769423	 1.2486389011	-0.156697
C	 3.2910810323	-1.3672315464	 0.4851228792	 0.003116
O	 3.2376741044	-0.9829487745	-0.8769155304	-0.261248
C	 1.8246230478	-0.7095178821	-0.976417114	 0.043003
C	 1.1795711443	-2.00813592	-0.4506338647	-0.30307
C	 1.9838036061	-2.0376840629	 0.8480065983	 0.347562
O	 1.8478424506	-3.0170154143	 1.8188461966	-0.474661
H	 2.1459268674	 2.2588620391	 0.9161310645	 0.111901
H	 3.2803849511	 1.5544033474	-0.2497925758	 0.133555
H	 1.7338549641	 2.2215313713	-0.8029799272	 0.108794
H	 0.4978024293	 0.3968520673	 0.3623469879	 0.074521
H	 2.3586275409	-0.3012873702	 2.2829877797	 0.093987
H	 4.2679070464	-1.6386225196	 0.8594330203	 0.103982
H	 1.585727651	-0.3858168221	-1.9878726849	 0.079482
H	 0.1019673557	-1.9159808558	-0.2916791218	 0.106262
H	 1.3851980356	-2.8670917307	-1.097682742	 0.09476
H	 2.2248058379	-3.8348576119	 1.4748010042	 0.28435
189.8623	212.4117	237.8167	278.5784	325.1284	372.1417	441.2561	508.7821	563.4392	606.9838	701.562	721.9144	763.1965	853.9005	878.9508	912.3563	932.158	935.3117	957.7259	967.0323	999.5368	1022.3746	1040.075	1070.0594	1095.0731	1121.8072	1147.7572	1153.9856	1218.9615	1235.9838	1256.6474	1274.4003	1297.337	1321.4169	1343.162	1377.134	1405.922	1438.4343	1491.8457	1495.462	1502.621	3033.9872	3045.4687	3052.725	3095.7418	3108.5279	3121.5491	3142.0185	3209.9904	3224.8715	3788.3873
CC1C2C3OC1CC23O	C[C@@H]1[C@@H]2[C@@H]3O[C@H]1C[C@]23O	
InChI=1S/C7H10O2/c1-3-4-2-7(8)5(3)6(7)9-4/h3-6,8H,2H2,1H3	InChI=1S/C7H10O2/c1-3-4-2-7(8)5(3)6(7)9-4/h3-6,8H,2H2,1H3/t3-,4-,5+,6-,7-/m0/s1
