19
gdb 845	3.6295382	1.1786382	1.0376759	2.0444	75.35	-0.24803	-0.02353	0.2245	1178.6005	0.157794	-422.562129	-422.554086	-422.553142	-422.595482	29.868	
O	 0.589265107	-0.885147763	 0.2771432424	-0.242581
C	 0.4932427429	 0.1756760776	-0.2875623282	 0.136975
C	 0.400288446	 1.5151077529	 0.3905083783	-0.100113
C	-1.0391264408	 2.1432502726	 0.3298653989	-0.277459
C	-1.0680803629	 2.172007673	 1.8874963744	 0.121084
O	-0.9580680846	 3.4526404679	 2.4774651917	-0.25629
C	 0.4153325204	 3.8335315604	 2.478641915	-0.087814
C	 1.2037630508	 2.5288610111	 2.6782536297	-0.243788
C	 0.3406069205	 1.5011308724	 1.9403720339	-0.047396
H	 0.4334510397	 0.2242638284	-1.400102193	 0.07638
H	 1.1657665685	 2.170187137	-0.0425543241	 0.088658
H	-1.103723222	 3.1284584973	-0.1356764036	 0.117218
H	-1.7940683815	 1.491297088	-0.1180792938	 0.11219
H	-1.9156165824	 1.6636959244	 2.3514355188	 0.086112
H	 0.6880724135	 4.3164407086	 1.5262759358	 0.089694
H	 0.5571581733	 4.565181279	 3.2781612573	 0.112578
H	 2.2267546457	 2.5910190576	 2.2959766169	 0.103466
H	 1.2530150635	 2.2793151277	 3.7424909166	 0.112573
H	 0.3973119026	 0.494939177	 2.3542935232	 0.098514
54.9122	96.263	176.6526	213.8021	246.2247	361.9273	424.064	598.0452	638.2131	657.6097	761.0369	773.1544	859.1993	883.2777	888.7176	917.8006	930.8274	970.5276	976.4482	1008.0021	1043.5967	1061.4897	1110.2557	1133.023	1150.584	1186.4412	1214.3476	1230.6893	1237.6563	1254.1579	1270.5283	1283.2095	1325.0217	1349.0072	1367.8906	1394.1936	1421.5368	1470.3227	1485.0029	1522.5801	1821.4408	2859.4131	2972.5466	3037.1375	3054.1455	3061.5259	3088.5352	3093.1932	3103.7356	3124.5338	3125.2048
O=CC1CC2OCCC12	O=C[C@H]1C[C@@H]2OCC[C@H]12	
InChI=1S/C7H10O2/c8-4-5-3-7-6(5)1-2-9-7/h4-7H,1-3H2	InChI=1S/C7H10O2/c8-4-5-3-7-6(5)1-2-9-7/h4-7H,1-3H2/t5-,6-,7+/m1/s1
