19
gdb 2256	2.7336057	1.8547161	1.635898	1.4248	73.66	-0.239	0.07453	0.31353	912.1583	0.159173	-422.536221	-422.52926	-422.528316	-422.566896	29.359	
O	 0.3836875766	 0.1233845148	 0.3338775437	-0.491988
C	-0.6197285558	 1.0486907005	 0.6111481515	 0.428215
C	-0.7929163754	 1.7054034497	 1.9899705676	-0.330561
C	-2.2428933811	 2.0199523178	 1.5199624215	 0.104618
O	-2.3178985106	 3.2680304725	 0.8482160905	-0.267079
C	-1.2300733675	 3.4142587011	-0.0688069258	-0.092575
C	-0.8448141559	 2.0362685235	-0.5993453679	-0.088765
C	-2.1537050453	 1.2722534791	-0.9576446936	-0.237066
C	-2.1667154289	 0.8067256923	 0.5033373363	-0.120257
H	 0.3861712073	-0.5382726439	 1.0343725422	 0.276702
H	-0.7981100375	 0.9403874721	 2.7753713459	 0.087845
H	-0.155898263	 2.5380238463	 2.3023717729	 0.102826
H	-3.0431120657	 2.0096561049	 2.2594594489	 0.083213
H	-1.5804720898	 4.0701013374	-0.8729604357	 0.107024
H	-0.3753195972	 3.9051248011	 0.4198308888	 0.094688
H	-0.0347210438	 2.076444677	-1.3294043438	 0.078776
H	-2.9938015023	 1.8711915596	-1.3194340501	 0.100729
H	-1.9720791355	 0.4367909739	-1.6375575914	 0.105387
H	-2.6707792088	-0.1069283997	 0.8253810884	 0.058269
229.117	289.8219	309.5	342.5607	388.2832	429.7975	460.2511	514.9335	591.7339	652.9449	694.7832	800.4652	838.5117	857.9598	869.6437	903.5464	940.5795	968.4556	984.0008	1011.4823	1043.846	1053.5751	1071.9093	1084.665	1111.7331	1143.4284	1173.6221	1186.9969	1206.2144	1235.3636	1257.6026	1263.4761	1282.0576	1310.6001	1321.692	1353.5356	1373.2602	1402.6888	1478.3457	1482.613	1518.8273	2992.7018	3035.5382	3058.2575	3065.9502	3087.5469	3094.0543	3101.5192	3116.446	3118.0406	3799.5788
OC12CC3OCC1CC23	O[C@@]12C[C@H]3OC[C@@H]1C[C@@H]23	
InChI=1S/C7H10O2/c8-7-2-6-5(7)1-4(7)3-9-6/h4-6,8H,1-3H2	InChI=1S/C7H10O2/c8-7-2-6-5(7)1-4(7)3-9-6/h4-6,8H,1-3H2/t4-,5+,6+,7-/m0/s1
