19
gdb 5749	3.8139619	1.3779082	1.233383	1.0705	74.45	-0.23017	0.08994	0.32011	1069.4495	0.158198	-422.518907	-422.511282	-422.510338	-422.551087	29.496	
C	 1.4161519357	 0.09203768	-0.6732725267	-0.240463
O	 1.0838473607	-0.2364427285	 0.6646595183	-0.236196
C	 0.0759553301	 0.5479325734	 1.2022865004	 0.24484
O	 0.5007762953	 1.9179552858	 1.3284588023	-0.291701
C	 0.0410282023	 2.3791745049	 2.5792186282	 0.112088
C	 0.5359982219	 1.7189496143	 3.8513559911	-0.100765
C	 1.0277395688	 0.3088841665	 3.5249738013	-0.224872
C	-0.2427448661	 0.1181983804	 2.6334222606	-0.113231
C	-0.8488033249	 1.4007155668	 3.2622464309	-0.131938
H	 1.8356052646	 1.1018668615	-0.7432746796	 0.132204
H	 2.1599899778	-0.6357715592	-1.00428524	 0.125853
H	 0.5350062988	 0.0275746045	-1.3294103151	 0.105244
H	-0.8118285731	 0.5247058867	 0.5429903554	 0.054476
H	-0.1684535629	 3.4419226545	 2.5936570017	 0.101123
H	 0.7789546092	 2.2996351021	 4.7345571057	 0.081746
H	 1.9939360528	 0.2022576357	 3.026490473	 0.114076
H	 0.9907446108	-0.3399575732	 4.4027231597	 0.099498
H	-0.7775211215	-0.8266258353	 2.7071293779	 0.079496
H	-1.8519660902	 1.568115879	 3.6307476449	 0.088521
101.6727	130.535	179.3406	232.442	347.3446	444.7255	476.2063	548.5859	656.5989	722.5856	750.4164	788.9073	814.518	857.0833	913.5517	932.3422	974.3885	998.5659	1005.9882	1015.0973	1042.0937	1052.8435	1066.5216	1095.1275	1121.0427	1151.4423	1167.183	1181.0888	1199.7914	1230.4896	1238.3898	1276.2044	1289.4359	1325.1425	1360.461	1401.9064	1409.4857	1480.9562	1484.6801	1494.4868	1512.0287	2926.9029	2993.0238	3066.2223	3070.2249	3119.5063	3125.9822	3136.5097	3167.942	3188.8717	3203.0488
COC1OC2C3CC1C23	CO[C@@H]1O[C@@H]2[C@@H]3C[C@H]1[C@H]23	
InChI=1S/C7H10O2/c1-8-7-4-2-3-5(4)6(3)9-7/h3-7H,2H2,1H3	InChI=1S/C7H10O2/c1-8-7-4-2-3-5(4)6(3)9-7/h3-7H,2H2,1H3/t3-,4+,5-,6-,7-/m1/s1
