19
gdb 5907	1.9622958	1.1305396	0.9434555	2.9569	78.51	-0.25293	-0.03943	0.2135	1382.3488	0.151656	-422.533938	-422.522834	-422.52189	-422.570574	38.499	
C	-0.2169254954	 0.0204023377	 0.0603339253	-0.38167
C	 1.313102545	-0.0311030439	 0.0792820761	-0.196347
C	 1.9442730278	 1.363079816	 0.0696400222	-0.182994
C	 3.4824907635	 1.3523325292	 0.1080202845	 0.097999
O	 3.9836964478	 0.7757982699	 1.3161187245	-0.458595
C	 4.0461451101	 2.7953003297	 0.1166150649	 0.155549
O	 3.4471225287	 3.7617625914	-0.2617961317	-0.240626
C	 4.0709034522	 0.6964154305	-1.0640639775	 0.305698
C	 4.5864936075	 0.1655499693	-2.0124717924	-0.493739
H	-0.6066939703	 0.5601734394	 0.9302949429	 0.118505
H	-0.5843919493	 0.5308717333	-0.8365284516	 0.11869
H	-0.6473055043	-0.9856348708	 0.0718560329	 0.113082
H	 1.6486494299	-0.5707686065	 0.9735213832	 0.094537
H	 1.6738253655	-0.6010530448	-0.7856589715	 0.106388
H	 1.6301034698	 1.9275389928	-0.8141841691	 0.121966
H	 1.6092388725	 1.9336393936	 0.9433664486	 0.110767
H	 4.1136410368	-0.1662062679	 1.1686700549	 0.295522
H	 5.0792073482	 2.8371381562	 0.5204725027	 0.103387
H	 5.031445054	-0.3053520152	-2.8547771187	 0.21188
69.9525	80.7601	92.3372	124.212	166.3994	172.7162	193.5568	244.8953	273.1558	331.5227	372.5448	407.5599	480.2208	582.7316	638.6241	655.5762	669.4051	735.6783	755.1282	870.2402	917.5949	952.4284	996.2027	1041.2473	1055.5902	1128.5879	1148.0679	1188.2134	1274.852	1303.171	1329.798	1343.8617	1392.7622	1395.7813	1415.9031	1468.9303	1495.088	1499.7528	1510.9644	1846.1575	2221.4323	2923.5649	3024.5599	3031.8049	3046.1302	3057.1616	3092.8888	3102.8614	3104.6102	3497.3825	3831.0077
CCCC(O)(C=O)C#C	CCC[C@](O)(C=O)C#C	
InChI=1S/C7H10O2/c1-3-5-7(9,4-2)6-8/h2,6,9H,3,5H2,1H3	InChI=1S/C7H10O2/c1-3-5-7(9,4-2)6-8/h2,6,9H,3,5H2,1H3/t7-/m0/s1
