19
gdb 2838	2.9915384	1.4322734	1.1224557	2.3799	74.69	-0.24214	0.07021	0.31235	1111.6899	0.156217	-422.513376	-422.504886	-422.503942	-422.545768	33.235	
C	-1.7281283448	-1.4194537892	-0.5271957529	-0.509275
C	-1.8633801482	-0.0339147028	 0.0314198994	 0.307109
C	-3.213042345	 0.649961364	 0.2581751972	-0.162222
C	-2.1895886143	 1.2682736291	-0.683244573	-0.192436
C	-1.6271927656	 1.9883100717	 0.6187289342	-0.152519
C	-3.016099552	 1.7704655227	 1.2805169502	 0.150766
O	-3.9246927381	 2.8398073345	 1.1425344412	-0.443995
C	-0.8531918998	 0.682795673	 0.9388275094	 0.09746
O	 0.4719167268	 0.6284880127	 0.4561058199	-0.444812
H	-1.9183025958	-2.1775706935	 0.2410810516	 0.125526
H	-2.4333129495	-1.5910172897	-1.3470430686	 0.119078
H	-0.7151476923	-1.5810637681	-0.9098689423	 0.126179
H	-4.1395620836	 0.1497610548	-0.0005250677	 0.090243
H	-2.2420724818	 1.519355549	-1.7331348168	 0.092207
H	-1.131262931	 2.9557575724	 0.6761299895	 0.07673
H	-3.0217208832	 1.5181167776	 2.3464481307	 0.083301
H	-4.0035363146	 3.0316357309	 0.2000369835	 0.277909
H	-0.7917233454	 0.3849358722	 1.9917987095	 0.080515
H	 0.4517936782	 0.8772122289	-0.476298355	 0.278237
175.2811	185.6638	209.187	216.6814	258.538	317.4298	346.7364	377.4596	429.1346	462.5724	562.35	639.9554	800.4494	812.4521	834.0572	838.9885	881.8665	905.732	913.8661	951.8457	975.376	1022.307	1043.926	1059.3469	1090.222	1115.7975	1131.4891	1163.8564	1169.8203	1220.5599	1233.0851	1273.4594	1281.0994	1291.422	1303.123	1396.1423	1419.6706	1437.7935	1441.748	1483.2507	1499.6625	3028.0876	3045.6384	3057.7219	3090.3605	3101.8663	3137.987	3179.8383	3214.2413	3777.5784	3780.5895
CC12C3C1C(C3O)C2O	C[C@]12[C@@H]3[C@H]1[C@@H]([C@H]3O)[C@@H]2O	
InChI=1S/C7H10O2/c1-7-3-2(6(7)9)5(8)4(3)7/h2-6,8-9H,1H3	InChI=1S/C7H10O2/c1-7-3-2(6(7)9)5(8)4(3)7/h2-6,8-9H,1H3/t2-,3+,4+,5+,6-,7+/m0/s1
