19
gdb 2402	2.6347823	1.5917384	1.3490553	2.4169	75.08	-0.24116	0.06136	0.30252	1030.4335	0.156643	-422.506957	-422.498863	-422.497919	-422.539292	31.785	
O	-0.713533751	-1.214143733	-1.9107232147	-0.464361
C	-0.9602234465	-0.5459860513	-0.7182062184	 0.278579
C	-1.8334917676	 0.7051115306	-0.8704281524	-0.11037
O	-2.6488127503	 0.3316473929	 0.2660336581	-0.291546
C	-1.9638297239	-0.925195049	 0.4321531519	 0.038136
C	-0.8197354312	-0.8398004716	 1.4727181729	-0.327016
C	 0.1497253758	-0.4432577608	 0.3410803011	 0.296797
C	 1.5515420142	-0.9538543709	 0.1488436119	-0.34708
C	 1.2983621325	 0.5188260782	 0.3732004519	-0.321559
H	-0.1479658713	-1.9705001185	-1.7189502992	 0.28281
H	-1.3451438627	 1.6772933133	-0.7376512147	 0.10218
H	-2.413493421	 0.7022663031	-1.8014047259	 0.108098
H	-2.640966179	-1.7825741563	 0.4441225259	 0.077743
H	-0.993854713	-0.0890449601	 2.246975511	 0.113496
H	-0.5770567071	-1.7979552502	 1.943393263	 0.099447
H	 1.9981550655	-1.5331644871	 0.9507601734	 0.116799
H	 1.8556169786	-1.2590635859	-0.8486648898	 0.111627
H	 1.5755097151	 0.9462831118	 1.3313130939	 0.117811
H	 1.4307594227	 1.1880611747	-0.4713436198	 0.11841
82.9101	202.941	230.5693	238.1408	336.8437	345.1447	381.1207	441.7904	466.889	547.9865	655.6251	737.8781	786.316	820.0863	872.0444	885.8795	919.8866	925.0421	974.7615	987.6119	1009.9731	1049.9438	1058.5675	1071.1549	1082.5555	1098.1425	1135.0837	1161.9397	1170.7606	1191.7816	1212.5275	1255.9892	1282.3267	1317.5121	1333.5967	1380.5546	1398.5062	1460.1513	1468.7794	1498.3856	1512.5898	3018.9285	3047.312	3071.6968	3083.5175	3111.7417	3115.7158	3124.9328	3196.7785	3213.4156	3802.8342
OC12COC1CC21CC1	O[C@@]12CO[C@@H]1CC12CC1	
InChI=1S/C7H10O2/c8-7-4-9-5(7)3-6(7)1-2-6/h5,8H,1-4H2	InChI=1S/C7H10O2/c8-7-4-9-5(7)3-6(7)1-2-6/h5,8H,1-4H2/t5-,7+/m1/s1
