19
gdb 1415	2.8522341	1.7212891	1.2553039	2.5546	75.45	-0.24053	0.0667	0.30723	1027.4127	0.155844	-422.502332	-422.494211	-422.493267	-422.5341	33.005	
C	 0.0133154309	 0.0995544076	 0.3645612104	-0.477318
C	 1.2955250144	-0.5276183836	-0.1508798075	 0.408937
O	 2.2151452098	-0.766755746	 0.9205132595	-0.491346
C	 1.2329369761	-1.6513181485	-1.2125700352	-0.187243
C	 1.0874876525	-0.6296984413	-2.3889739393	-0.070024
C	 2.2756905123	-1.23717072	-3.172823147	-0.312288
C	 2.6961812838	-1.305725375	-1.7045905281	 0.434612
O	 3.882971686	-1.8048727745	-1.2312188965	-0.48032
C	 2.0259505377	 0.0827385084	-1.358051997	-0.153952
H	-0.504909661	-0.579627646	 1.0538471855	 0.106468
H	 0.2295788192	 1.0267575653	 0.9045016058	 0.126881
H	-0.6756953302	 0.3254144435	-0.4540019061	 0.124764
H	 1.7601848319	-1.2760852472	 1.6000441661	 0.278974
H	 0.7784870237	-2.6425825203	-1.1554341677	 0.063909
H	 0.1528805993	-0.2335450706	-2.7778658741	 0.079209
H	 2.0946112083	-2.1907768937	-3.6785226403	 0.095483
H	 2.8413360911	-0.5547942144	-3.8150404748	 0.09642
H	 3.8562974236	-1.6702348577	-0.2730604056	 0.286842
H	 2.4765781608	 1.071040334	-1.4610528383	 0.069992
181.1833	201.4372	237.1945	296.3504	323.1154	332.6017	401.503	408.3667	493.9781	531.4679	544.0676	624.2554	693.27	726.1054	822.0915	859.3956	863.0094	893.825	923.6738	933.5607	984.9333	1007.5348	1048.4828	1052.9431	1089.1335	1107.1021	1126.0036	1139.9196	1154.4645	1166.3955	1186.696	1211.3991	1248.5481	1273.6767	1345.4766	1383.7717	1409.7335	1420.0352	1488.9454	1495.1255	1519.6172	3022.7121	3041.7715	3088.3717	3093.7619	3101.0692	3106.1584	3117.3467	3147.5717	3748.552	3803.531
CC1(O)C2C3CC2(O)C13	C[C@@]1(O)[C@H]2[C@@H]3C[C@@]2(O)[C@H]13	
InChI=1S/C7H10O2/c1-6(8)4-3-2-7(4,9)5(3)6/h3-5,8-9H,2H2,1H3	InChI=1S/C7H10O2/c1-6(8)4-3-2-7(4,9)5(3)6/h3-5,8-9H,2H2,1H3/t3-,4+,5-,6+,7-
