19
gdb 4046	2.6835541	1.6820169	1.4067358	2.8905	74.5	-0.22369	0.06875	0.29244000000000003	995.1203	0.15697	-422.517007	-422.509081	-422.508137	-422.54902	31.329	
C	-2.8573195769	-2.4785805664	 0.3617902436	-0.523696
C	-3.3890649182	-1.1062182543	 0.098213123	 0.439042
O	-4.6874579715	-0.9609832752	-0.5978402463	-0.355188
C	-4.230488685	 0.4094177582	-0.3488691352	 0.032884
C	-3.7760206646	 0.0420979679	 1.0896335594	-0.073608
C	-2.5410956397	 0.8580152084	 1.4471970744	-0.287323
C	-1.7788564551	 0.8146270696	 0.0822727607	 0.089431
O	-0.5697142705	 0.0653516783	 0.1266071138	-0.437835
C	-2.7793101811	 0.0470790746	-0.7640358763	-0.072203
H	-3.5209749186	-3.0329458737	 1.0325598427	 0.12573
H	-2.7661033465	-3.0362388795	-0.5753507919	 0.133221
H	-1.8652589124	-2.4047511431	 0.8155553319	 0.139903
H	-4.8655044752	 1.2275871143	-0.6904909513	 0.086295
H	-4.5435661996	-0.1633453216	 1.8354618567	 0.074192
H	-2.7910849978	 1.8776962054	 1.7589792119	 0.098956
H	-1.9386726055	 0.399229179	 2.2377877251	 0.100518
H	-1.5873915739	 1.8227899571	-0.3120656599	 0.06693
H	 0.0615929115	 0.5475185219	 0.6698966989	 0.283657
H	-2.5600716294	-0.1441503109	-1.8133862013	 0.079093
115.0515	189.4219	200.9052	286.2485	296.632	352.7001	413.4726	483.5549	516.6572	630.623	674.5014	714.4339	754.867	800.1128	855.8722	890.7591	908.1267	930.3623	971.6935	980.6368	1018.2651	1021.1263	1040.2767	1082.3128	1106.3418	1159.6632	1161.9929	1206.3221	1218.1536	1237.1514	1239.1141	1261.075	1273.4369	1300.7963	1339.0652	1389.2557	1421.095	1429.8067	1477.3615	1485.0289	1490.33	2994.5455	3040.8455	3043.1768	3087.839	3109.0439	3111.6679	3125.9881	3127.7702	3140.8748	3816.4866
CC12OC3C1CC(O)C23	C[C@@]12O[C@H]3[C@@H]1C[C@@H](O)[C@@H]23	
InChI=1S/C7H10O2/c1-7-3-2-4(8)5(7)6(3)9-7/h3-6,8H,2H2,1H3	InChI=1S/C7H10O2/c1-7-3-2-4(8)5(7)6(3)9-7/h3-6,8H,2H2,1H3/t3-,4+,5+,6-,7+/m0/s1
