19
gdb 1038	2.6768152	0.9661828	0.8367679	2.0187	80.43	-0.24715	-0.03448	0.21267000000000003	1474.9958	0.152088	-422.551178	-422.540054	-422.53911	-422.58896	38.05	
C	 1.5202625968	-0.0825934978	 0.0542684481	-0.498577
C	 0.0646630685	-0.0709050918	 0.0413553581	 0.118982
C	-1.1391739983	-0.0700636687	 0.0279729403	 0.019335
C	-2.5956511372	-0.0281501657	 0.0057543199	-0.385201
C	-3.1653291473	 1.1029659233	-0.9022959555	 0.265962
C	-4.6981044421	 1.1492268075	-0.7835108605	-0.420814
O	-2.8007253233	 0.8825864154	-2.2395578183	-0.460067
C	-2.5915236232	 2.4351764214	-0.4373283412	 0.146246
O	-1.9437971727	 3.1441019894	-1.166444107	-0.269357
H	 1.9110615177	-0.0647330653	 1.0776357283	 0.146839
H	 1.9149656633	-0.9790487951	-0.4364398448	 0.149542
H	 1.9268370673	 0.7886155984	-0.470867854	 0.152566
H	-3.0019421383	-0.9712948117	-0.3786514499	 0.14126
H	-2.9887557958	 0.0919954291	 1.0238218789	 0.121777
H	-5.0213895308	 1.3475141019	 0.2434566969	 0.114881
H	-5.1020719893	 1.9247862964	-1.439230607	 0.132296
H	-5.1129813791	 0.1874320401	-1.0980674265	 0.136488
H	-2.2041287556	 1.6104686768	-2.475090222	 0.293726
H	-2.8092911207	 2.7207126464	 0.6128213062	 0.094115
24.3761	53.8329	64.6343	115.6401	207.3912	215.0645	241.8293	292.1091	309.5035	329.1924	373.9308	382.8732	388.927	440.0188	543.8274	642.515	777.829	827.5477	863.056	916.8818	950.9754	1020.0332	1052.5785	1054.3803	1110.0927	1156.0419	1171.5222	1192.9669	1290.7294	1325.2502	1384.0253	1401.316	1415.1533	1432.6555	1459.8363	1478.2907	1478.5202	1489.0565	1494.4882	1820.125	2374.7816	2922.412	3019.9423	3027.8945	3040.4969	3059.939	3088.4152	3090.039	3115.1435	3125.4391	3694.472
CC#CCC(C)(O)C=O	CC#CC[C@](C)(O)C=O	
InChI=1S/C7H10O2/c1-3-4-5-7(2,9)6-8/h6,9H,5H2,1-2H3	InChI=1S/C7H10O2/c1-3-4-5-7(2,9)6-8/h6,9H,5H2,1-2H3/t7-/m0/s1
