19
gdb 5848	2.2792627	1.5955146	1.1632573	2.6251	79.03	-0.22701	-0.05222	0.17479	1126.5946	0.157296	-422.579183	-422.570383	-422.569439	-422.612898	32.148	
C	 1.4387039346	 0.0197868693	-0.1555153124	-0.240131
O	 0.052865763	-0.1455595444	 0.0864765428	-0.257068
C	-0.4456665164	 0.5963987052	 1.1941895722	 0.027251
C	-1.9667942234	 0.6055146835	 1.0922218426	-0.253275
C	-2.5471802921	-0.8073109966	 1.2434237721	-0.251414
C	-1.9588010348	-1.5375217183	 2.4152789403	-0.037897
C	-0.7948209987	-1.1998358417	 2.9877706297	-0.141476
C	 0.0299097225	-0.0826932569	 2.4923112778	 0.372866
O	 1.0713723219	 0.2479456429	 3.0282543235	-0.345708
H	 2.0538019566	-0.3213642176	 0.6859175301	 0.132601
H	 1.6744939296	-0.5752777061	-1.0410180549	 0.123943
H	 1.6829192444	 1.0740117799	-0.354339378	 0.108356
H	-0.0370339837	 1.6172082704	 1.1819436244	 0.077754
H	-2.3598436468	 1.2483569564	 1.8889813175	 0.110041
H	-2.2633745154	 1.0460231818	 0.1355264002	 0.109234
H	-3.6380697337	-0.766906914	 1.339767701	 0.10988
H	-2.345955566	-1.3900364966	 0.3341005184	 0.14268
H	-2.5153233119	-2.3908744551	 2.7976271411	 0.107238
H	-0.3947505597	-1.7401795221	 3.8402571315	 0.105123
70.5899	107.88	161.8183	174.1092	240.1322	314.9505	333.2566	397.2932	443.6719	484.096	586.9113	650.0335	732.761	750.041	856.1585	872.5787	915.1018	964.7166	988.1027	1023.9535	1061.3118	1083.411	1128.8699	1140.468	1185.9151	1192.8777	1229.343	1245.8974	1274.0987	1338.5611	1350.6032	1375.4923	1387.2131	1412.2776	1462.4147	1477.8208	1478.7293	1487.0103	1513.3595	1679.6537	1767.614	2992.6206	3003.7494	3023.9069	3040.0313	3060.5123	3062.6916	3089.7118	3119.1475	3148.6959	3185.8285
COC1CCC=CC1=O	CO[C@H]1CCC=CC1=O	
InChI=1S/C7H10O2/c1-9-7-5-3-2-4-6(7)8/h2,4,7H,3,5H2,1H3	InChI=1S/C7H10O2/c1-9-7-5-3-2-4-6(7)8/h2,4,7H,3,5H2,1H3/t7-/m0/s1
