19
gdb 1353	3.4485135	0.9284111	0.8856584	2.5593	77.49	-0.26163	0.03751	0.29913999999999996	1381.549	0.153208	-422.508233	-422.498129	-422.497185	-422.543355	36.821	
C	 0.2223478362	 2.9944225491	-1.1508448984	-0.470552
C	-1.13940615	 2.3447283687	-1.2458504643	 0.427473
C	-1.8416660008	 2.2637247761	-2.5357874144	-0.236475
O	-2.2133751419	 3.2413072328	-1.5651703351	-0.280647
C	-1.4946192067	 1.3188872202	-0.1802515765	 0.069444
O	-1.1855736049	 1.8817536329	 1.078889379	-0.440781
C	-0.7409892057	-0.0211327	-0.389656901	-0.372568
C	-1.0430201861	-0.9589733311	 0.6841761498	 0.257229
C	-1.324844809	-1.6732516539	 1.6102780288	-0.416099
H	 0.3402169399	 3.4722195832	-0.1759022646	 0.152438
H	 1.0263851959	 2.2600074435	-1.2668003987	 0.117716
H	 0.3298005816	 3.7495824107	-1.9327713441	 0.124547
H	-1.3567403543	 2.6483976184	-3.432308062	 0.111904
H	-2.5771089237	 1.4785120733	-2.7128602351	 0.108117
H	-2.5737595903	 1.1224287888	-0.2659460485	 0.084645
H	-1.3417222122	 1.2007658709	 1.7446303163	 0.28954
H	-1.0185612641	-0.4506637369	-1.3593524628	 0.132866
H	 0.3382205254	 0.1695879231	-0.415591242	 0.138946
H	-1.5593643592	-2.3340138898	 2.4081056436	 0.202259
68.7924	71.8114	120.8752	178.0098	207.1658	270.0546	317.4678	350.3269	360.5515	383.3684	395.9556	470.8871	522.06	562.5638	628.5913	660.7791	763.0026	835.2337	874.3097	917.6235	934.5567	967.1515	1019.0677	1047.8092	1095.2981	1116.9484	1136.4013	1168.399	1216.4936	1239.8553	1290.8592	1306.2718	1367.7074	1386.4188	1413.1332	1448.9219	1464.9359	1479.3974	1499.8901	1533.4381	2231.6121	2993.9247	3034.2662	3047.3289	3074.3192	3075.8072	3116.073	3140.0585	3158.2313	3503.8494	3779.2054
CC1(CO1)C(O)CC#C	C[C@@]1(CO1)[C@H](O)CC#C	
InChI=1S/C7H10O2/c1-3-4-6(8)7(2)5-9-7/h1,6,8H,4-5H2,2H3	InChI=1S/C7H10O2/c1-3-4-6(8)7(2)5-9-7/h1,6,8H,4-5H2,2H3/t6-,7-/m1/s1
