19
gdb 1681	3.0089727	1.4358767	1.2790713	1.8915	75.64	-0.27378	0.01042	0.2842	1061.1211	0.156874	-422.537995	-422.529809	-422.528865	-422.570642	31.357	
C	-2.1968825991	 1.7090659504	-0.5811730572	-0.492681
C	-1.0951455322	 1.8943591184	 0.4491592223	 0.504202
O	-0.7766568234	 0.5718457667	 0.975299716	-0.272782
C	-0.0254910316	-0.2393018427	 0.2234181397	 0.16778
O	 0.4465639885	 0.0054393879	-0.8541861392	-0.311461
C	-1.1983976185	 2.946807584	 1.5888397178	-0.105703
C	 0.3450106372	 2.8100954063	 1.7709055343	-0.231447
C	 0.112058799	 2.8560338475	 0.2265444156	-0.090242
C	-0.87254774	 4.0289225508	 0.5154691275	-0.246019
H	-3.0276005755	 1.1547780879	-0.1336005989	 0.125347
H	-2.5852266205	 2.6561886049	-0.955741471	 0.12625
H	-1.8175014325	 1.1360035335	-1.4303381444	 0.150406
H	 0.1010087242	-1.1940353663	 0.759743558	 0.107238
H	-1.961697078	 2.9903843468	 2.3668757663	 0.076037
H	 0.8481520028	 3.6811688046	 2.1960088464	 0.093768
H	 0.7178913033	 1.8829473552	 2.20144206	 0.106638
H	 0.855777055	 2.789319495	-0.5648209979	 0.094297
H	-0.4086251163	 4.9380787824	 0.9026792462	 0.100582
H	-1.6293549824	 4.2688750069	-0.2306828914	 0.09779
84.2746	162.02	186.3798	238.5584	239.5315	356.9525	398.7307	456.4581	532.2018	583.571	655.7046	754.1756	793.3815	828.4341	881.4031	900.5883	903.4957	911.7234	1005.2187	1014.9832	1026.3175	1046.2866	1069.1527	1091.4301	1110.6792	1145.015	1153.3685	1190.1021	1196.1055	1210.1724	1214.164	1247.3811	1250.5055	1306.727	1410.1719	1413.0997	1485.7911	1497.6057	1514.5252	1547.12	1812.3803	3014.1959	3055.1905	3077.9619	3080.092	3108.1195	3123.7903	3139.1904	3141.5909	3154.3692	3159.6144
CC1(OC=O)C2CC1C2	C[C@]1(OC=O)[C@H]2C[C@@H]1C2	
InChI=1S/C7H10O2/c1-7(9-4-8)5-2-6(7)3-5/h4-6H,2-3H2,1H3	InChI=1S/C7H10O2/c1-7(9-4-8)5-2-6(7)3-5/h4-6H,2-3H2,1H3/t5-,6+,7-
