19
gdb 3184	2.4534903	1.7035536	1.0976796	2.1801	74.94	-0.22861	-0.01606	0.21255000000000002	1109.2429	0.157012	-422.562783	-422.554506	-422.553562	-422.595576	31.682	
C	-0.1865590324	-2.3929284989	-0.7703432762	-0.40502
C	-0.7587440618	-1.2249678373	 0.0296251521	-0.101735
C	-2.2709230456	-1.0421530016	-0.1373407456	-0.062209
C	-3.1914884183	-1.0625190241	 1.0658503118	-0.322803
C	-2.814890529	 0.2417621862	 0.4352270766	 0.096457
O	-1.8674012232	 1.0141835358	 1.1205527486	-0.248702
C	-0.772000561	 1.3403552321	 0.2817350612	-0.173232
C	-0.094533368	 0.1058848768	-0.3257588728	 0.355769
O	 0.878797569	 0.2140722205	-1.0321533635	-0.311155
H	-0.6483220888	-3.3342084344	-0.4586196963	 0.114242
H	-0.3685669558	-2.257021674	-1.8408545103	 0.125398
H	 0.8940514075	-2.4664767296	-0.630796235	 0.132374
H	-0.5497145214	-1.3779801888	 1.0978537458	 0.107487
H	-2.6721992456	-1.3875071398	-1.0852317596	 0.096182
H	-4.2066676808	-1.4181985175	 0.9299014868	 0.118002
H	-2.7527200069	-1.2829701191	 2.0331185897	 0.125937
H	-3.5627793331	 0.8175476177	-0.1091696694	 0.090233
H	-1.0678344387	 2.0130075306	-0.5385198861	 0.121886
H	-0.0420448461	 1.8749079752	 0.897308212	 0.140892
72.9799	173.9187	192.3171	251.6454	291.1566	322.1001	375.5852	452.3475	493.8389	522.0025	597.1667	701.2435	727.5228	787.3427	823.2594	862.467	947.9232	982.0101	1001.01	1030.57	1060.106	1067.8819	1082.267	1107.3063	1125.6524	1159.8732	1177.9586	1191.1297	1225.3196	1263.1279	1276.1999	1319.1502	1342.3081	1374.8386	1401.5372	1411.5491	1460.5057	1477.1306	1490.2328	1493.9018	1821.2533	2990.982	3010.4043	3045.9345	3090.1847	3105.2247	3113.6223	3130.9204	3135.3783	3154.9388	3226.05
CC1C2CC2OCC1=O	C[C@@H]1[C@H]2C[C@H]2OCC1=O	
InChI=1S/C7H10O2/c1-4-5-2-7(5)9-3-6(4)8/h4-5,7H,2-3H2,1H3	InChI=1S/C7H10O2/c1-4-5-2-7(5)9-3-6(4)8/h4-5,7H,2-3H2,1H3/t4-,5-,7-/m1/s1
