19
gdb 2340	2.8945763	1.2592002	1.1263844	1.2081	75.9	-0.24513	-0.02492	0.22021	1158.517	0.155427	-422.538438	-422.529731	-422.528787	-422.572288	32.016	
C	 4.2394131014	 1.1083031256	-2.8742278503	-0.472903
C	 2.9214347439	 1.5793670188	-2.3199861811	 0.462418
C	 2.8691959497	 2.25079779	-0.9222131977	-0.302331
C	 1.5913631334	 1.3907854028	-0.5900908254	-0.090013
C	 1.7970639426	 0.499564147	 0.6035575957	 0.135247
O	 1.9282289057	-0.6981581917	 0.5637095794	-0.24467
C	 1.6773428792	 0.7008853087	-1.9704386913	-0.138648
C	 0.9906958258	 1.4718546573	-3.1026231857	-0.100788
O	 2.1417611389	 2.3301911901	-3.2865259281	-0.329538
H	 4.7663961797	 0.4803327776	-2.1490520974	 0.1232
H	 4.0908663988	 0.5334185834	-3.792898377	 0.12619
H	 4.8765899431	 1.9682185093	-3.1107600964	 0.129332
H	 3.7277665814	 2.0180767664	-0.2843770466	 0.10926
H	 2.7237761462	 3.3316588323	-0.9522953671	 0.118942
H	 0.6922609194	 1.9941958838	-0.4166087694	 0.094701
H	 1.8529108607	 1.0481188586	 1.572879355	 0.078051
H	 1.6638094957	-0.3869585874	-1.9696349946	 0.099737
H	 0.7903390707	 0.8775746483	-4.0032906577	 0.104065
H	 0.0860234137	 2.035910249	-2.8416573144	 0.097748
50.5069	100.631	189.3747	214.5012	234.316	285.8814	340.4921	360.3927	434.374	609.0513	633.8239	703.3474	773.8495	825.7914	893.1279	913.5937	916.2163	927.5921	984.1591	987.7134	1006.929	1038.0689	1098.7116	1128.6418	1142.9874	1170.9005	1182.7684	1193.9114	1209.3007	1241.312	1259.9679	1327.8126	1352.8292	1358.2821	1410.3476	1421.6764	1464.1291	1481.4063	1488.6307	1527.0785	1821.202	2860.6075	3007.4837	3032.4597	3039.911	3049.1124	3053.892	3101.6928	3115.3117	3127.526	3141.6896
CC12CC(C=O)C1CO2	C[C@]12C[C@H](C=O)[C@H]1CO2	
InChI=1S/C7H10O2/c1-7-2-5(3-8)6(7)4-9-7/h3,5-6H,2,4H2,1H3	InChI=1S/C7H10O2/c1-7-2-5(3-8)6(7)4-9-7/h3,5-6H,2,4H2,1H3/t5-,6-,7+/m1/s1
