19
gdb 5543	2.8521349	1.206064	0.9642703	2.4768	77.26	-0.24148	-0.00685	0.23463	1272.1459	0.155379	-422.550341	-422.541124	-422.54018	-422.584447	34.012	
C	 1.4848410359	-0.1448377717	 1.3503272849	-0.389997
C	 0.9450521397	 0.1750598537	-0.0468461569	-0.18603
C	 1.5979858729	-0.6552155063	-1.1507472978	-0.109064
C	 1.1278413973	-2.1068131433	-1.3338368182	-0.14168
C	 1.86018521	-2.7334611606	-2.473984779	-0.335273
C	 0.7365481967	-1.8231454021	-2.866136522	 0.328223
O	-0.2639674005	-2.2703723687	-3.680737619	-0.443723
C	 0.9697225729	-0.3949014921	-2.5481226486	 0.298077
O	 0.4415421093	 0.5858188915	-3.0136573631	-0.351737
H	 1.3145082476	-1.1933477001	 1.6175988735	 0.115954
H	 2.5631432382	 0.0393144465	 1.4088501431	 0.117708
H	 0.9988548037	 0.4747677124	 2.110208715	 0.117766
H	-0.1410960052	 0.0214399371	-0.074341253	 0.099505
H	 1.1043875365	 1.2336605203	-0.2796457766	 0.119201
H	 2.6898731271	-0.556673268	-1.1089697942	 0.085228
H	 0.5366330716	-2.6661559458	-0.6211153652	 0.116606
H	 2.8964124878	-2.4685232819	-2.6746785655	 0.120633
H	 1.6202156362	-3.7741768095	-2.6729371876	 0.136141
H	-0.9135735276	-1.5570231413	-3.7441230897	 0.302465
76.3669	97.2172	141.3718	184.3027	238.4333	285.3317	331.9997	365.1589	404.1638	462.5154	525.7442	567.9631	691.4076	725.3183	771.2647	822.6751	842.6234	914.042	934.3644	942.5349	998.7496	1018.2835	1043.8156	1076.0197	1116.8535	1118.9933	1161.3807	1202.0924	1215.705	1258.8398	1287.7401	1340.4995	1381.802	1389.801	1413.5445	1422.0744	1484.3254	1497.2759	1499.4021	1505.7636	1826.0086	3021.4368	3031.3544	3034.5601	3069.719	3099.7896	3101.0546	3104.9042	3192.4951	3213.7981	3761.0507
CCC1C2CC2(O)C1=O	CC[C@H]1[C@@H]2C[C@]2(O)C1=O	
InChI=1S/C7H10O2/c1-2-4-5-3-7(5,9)6(4)8/h4-5,9H,2-3H2,1H3	InChI=1S/C7H10O2/c1-2-4-5-3-7(5,9)6(4)8/h4-5,9H,2-3H2,1H3/t4-,5-,7+/m0/s1
