19
gdb 2506	2.6765196	1.8452636	1.3807421	2.5008	73.65	-0.2256	0.06885	0.29445	976.2012	0.158708	-422.530034	-422.522697	-422.521753	-422.561179	30.193	
O	 0.0549416808	 0.3484473599	-0.0676146503	-0.472472
C	-1.0817939094	 0.8815626552	 0.5605193292	 0.373562
C	-1.0003102788	 2.3648901595	 0.8696239237	-0.272418
C	-2.2580563885	 2.9526574873	 1.5407370598	-0.205132
C	-2.8904882752	 2.0076545449	 2.576306055	-0.218781
C	-3.0565351981	 0.6169887643	 1.974052078	 0.093041
O	-3.5271841347	 0.6942391167	 0.5838132525	-0.307057
C	-2.3088572408	 0.1150898995	 0.1322632608	 0.064573
C	-1.7587759072	-0.0720239673	 1.5269061996	-0.228112
H	 0.7775478977	 0.3529682321	 0.5707933816	 0.280903
H	-0.1327900797	 2.4998172757	 1.5343492495	 0.082636
H	-0.7701587782	 2.9151435925	-0.0496621086	 0.10819
H	-2.0096144256	 3.9118128434	 2.0064624079	 0.089397
H	-3.0073329325	 3.1534460558	 0.7715356616	 0.124896
H	-2.2695918006	 1.9205002617	 3.4779699605	 0.097822
H	-3.8605351875	 2.4062297723	 2.8935110192	 0.102808
H	-3.7258590988	-0.0247286294	 2.5552359273	 0.083062
H	-2.3283482615	-0.5266105298	-0.7408145837	 0.111266
H	-1.2656595214	-0.9129865744	 1.9968825962	 0.091816
182.9498	248.2931	290.7433	326.5579	363.8335	374.6508	422.3759	482.7799	557.8971	635.6767	685.4214	722.7367	817.9509	850.4534	868.4701	900.379	913.2519	937.7315	949.2335	1012.9187	1026.6116	1055.5897	1059.8118	1087.6311	1111.9626	1146.0712	1166.5293	1215.4703	1231.8687	1248.4832	1267.9953	1276.8359	1334.9119	1356.0636	1372.8249	1380.7753	1392.3303	1442.0319	1477.2424	1486.751	1498.3629	2986.3043	3022.3158	3050.6732	3056.5046	3060.6039	3069.76	3106.7566	3183.2278	3197.9602	3782.3852
OC12CCCC3OC1C23	O[C@@]12CCC[C@H]3O[C@@H]1[C@@H]23	
InChI=1S/C7H10O2/c8-7-3-1-2-4-5(7)6(7)9-4/h4-6,8H,1-3H2	InChI=1S/C7H10O2/c8-7-3-1-2-4-5(7)6(7)9-4/h4-6,8H,1-3H2/t4-,5+,6-,7-/m1/s1
