19
gdb 1968	3.2673627	1.3673163	1.2622343	0.7341	74.1	-0.25641	0.07388	0.33029000000000003	1089.6644	0.155791	-422.546837	-422.538499	-422.537555	-422.579181	32.357	
C	 0.2005192687	-0.7379396044	-0.3272332881	-0.486471
C	 1.5292375923	-0.0907571076	-0.0518542946	 0.433251
C	 2.2501890903	-0.3372770464	 1.274212329	-0.355016
C	 3.1189196957	 0.9050465034	 1.4765175458	 0.433251
C	 4.3758379132	 0.828991908	 2.2978226925	-0.486468
O	 2.3255270817	 2.0984729696	 1.6360323406	-0.302053
C	 2.9179917691	 1.8333367528	 0.3529460396	-0.060806
C	 1.9509133295	 1.2048690044	-0.6068727869	-0.060808
O	 2.4475871356	-0.0252650969	-1.1615902042	-0.30205
H	-0.5338630004	-0.4483361353	 0.4314063412	 0.128365
H	-0.17481986	-0.445074076	-1.3107966541	 0.130501
H	 0.2909142143	-1.8297586305	-0.3085397128	 0.127469
H	 1.5408378463	-0.4514970535	 2.1012538306	 0.111293
H	 2.8578829589	-1.247230469	 1.2201994364	 0.111294
H	 4.1475521959	 0.5320036629	 3.327518713	 0.12747
H	 5.0654533602	 0.0886653692	 1.8794109941	 0.128363
H	 4.8766566315	 1.7997370789	 2.3275018432	 0.1305
H	 3.6754840289	 2.5402121709	 0.0233653695	 0.095958
H	 1.3229814883	 1.8032037495	-1.2624547647	 0.095959
131.6922	184.1178	200.9439	215.6919	287.2009	353.2832	395.507	403.9195	442.3746	478.2826	581.421	648.5523	720.6497	779.1611	819.6893	853.6279	911.4217	918.2763	961.4161	970.5273	1016.9799	1031.7101	1038.3323	1079.6254	1128.3026	1130.2518	1205.5308	1223.9212	1257.6206	1270.9616	1321.4831	1333.9111	1406.1443	1413.1676	1447.0768	1456.6458	1470.9934	1486.5956	1487.1181	1496.7975	1500.7711	3034.7596	3035.6063	3042.7371	3085.0516	3098.6734	3099.0329	3124.5647	3124.7003	3139.7312	3151.0604
CC12CC3(C)OC3C1O2	C[C@]12C[C@]3(C)O[C@@H]3[C@H]1O2	
InChI=1S/C7H10O2/c1-6-3-7(2)5(9-7)4(6)8-6/h4-5H,3H2,1-2H3	InChI=1S/C7H10O2/c1-6-3-7(2)5(9-7)4(6)8-6/h4-5H,3H2,1-2H3/t4-,5-,6+,7+/m1/s1
