19
gdb 5293	2.3505089	1.7418721	1.347621	2.1307	75.95	-0.2468	0.00778	0.25458	1034.2058	0.157081	-422.537387	-422.529162	-422.528217	-422.570135	31.013	
C	 1.4503286836	-0.0750259796	 0.0126133695	-0.255423
O	 0.0387364148	-0.0665246747	 0.1025800587	-0.287801
C	-0.4807545984	 0.6411771481	 1.1955531121	 0.338758
C	-1.9962611649	 0.8810993746	 1.0609003044	-0.123155
O	-1.834169054	 2.2844897029	 1.3556101104	-0.295708
C	-0.391963433	 2.2019610952	 1.2807995175	 0.062196
C	 0.2876845336	 2.5644666495	 2.6047671148	-0.282354
C	 0.3866583757	 1.2298910166	 3.313719612	-0.054313
C	-0.0112604273	 0.2034179538	 2.5610098223	-0.168102
H	 1.9194105394	-0.5454651435	 0.8867526045	 0.114789
H	 1.705063982	-0.6481884546	-0.8816088336	 0.129497
H	 1.8577539887	 0.9415016589	-0.0917763048	 0.107553
H	-2.3539059187	 0.7093401534	 0.0380249695	 0.105062
H	-2.6535709185	 0.3807874996	 1.7798439327	 0.102788
H	-0.0032069607	 2.7293945498	 0.403119191	 0.075165
H	 1.2732602654	 3.0291085953	 2.4677280307	 0.104025
H	-0.3320196003	 3.2830891279	 3.1534928982	 0.126724
H	 0.738544894	 1.1455076308	 4.3367382808	 0.100455
H	-0.0333426314	-0.836592414	 2.8681497692	 0.099844
103.729	128.6634	169.4679	205.8894	259.4534	349.5025	400.933	439.8278	491.4423	606.5573	685.1939	756.1102	763.9993	858.4555	865.7487	926.996	941.5164	980.6099	1007.4046	1016.7633	1048.662	1058.15	1084.4681	1141.3002	1147.1688	1171.042	1181.3682	1197.7448	1208.6482	1237.2912	1263.0654	1309.1877	1327.42	1355.3138	1384.581	1463.9453	1478.8558	1486.5954	1507.5881	1513.7813	1674.2243	2989.9616	3018.3501	3019.7805	3045.4248	3052.0458	3066.9	3078.1771	3121.0372	3178.5993	3203.2784
COC12COC1CC=C2	CO[C@]12CO[C@H]1CC=C2	
InChI=1S/C7H10O2/c1-8-7-4-2-3-6(7)9-5-7/h2,4,6H,3,5H2,1H3	InChI=1S/C7H10O2/c1-8-7-4-2-3-6(7)9-5-7/h2,4,6H,3,5H2,1H3/t6-,7+/m0/s1
