19
gdb 1773	2.1258619	1.8768508	1.3086895	2.4522	76.29	-0.24554	0.06819	0.31373	1037.0064	0.155507	-422.496234	-422.487535	-422.486591	-422.528815	34.025	
O	 0.4030164804	 2.4043635532	-2.396259813	-0.475825
C	 0.3545656632	 2.9585329356	-1.1354124881	 0.326211
C	 1.5107262182	 3.1192786491	-0.0913856329	-0.361752
C	 0.253458192	 3.8370702301	 0.5057471332	 0.326134
O	 0.1529047356	 4.5776522518	 1.663595535	-0.475822
C	-0.6035869595	 2.6071941579	 0.0524835467	-0.361664
C	 0.0150037521	 4.4308143947	-0.8856339713	 0.387734
C	-1.0300452856	 5.331829565	-1.4327785189	-0.381441
C	 0.4552754116	 5.6915099445	-1.5338104698	-0.381438
H	 0.6355104593	 1.4737076918	-2.3165485553	 0.286113
H	 1.8378857222	 2.2060223566	 0.4176704353	 0.074981
H	 2.3459093141	 3.7593021552	-0.3825412369	 0.101936
H	 0.3441902205	 4.0061551076	 2.4141497897	 0.286113
H	-0.410631796	 1.661438728	 0.5706639715	 0.074973
H	-1.6681703459	 2.7871205952	-0.1094131609	 0.101934
H	-1.5397247499	 5.0430011467	-2.3467807935	 0.117962
H	-1.6388219252	 5.9041037798	-0.7396044957	 0.117954
H	 0.9189210974	 5.63837148	-2.5140172908	 0.117953
H	 0.8196260655	 6.4994291172	-0.9068228744	 0.117945
156.6802	190.239	206.6159	211.4161	221.594	252.6495	324.0757	454.2618	478.7419	502.4988	616.0276	619.6986	668.2808	678.1294	750.8365	764.7322	788.0447	914.9096	958.1815	960.37	989.7623	1042.9241	1048.6424	1053.9168	1081.6972	1087.5323	1121.2381	1123.289	1123.5376	1128.7816	1160.6465	1183.8763	1269.9097	1309.5525	1355.5275	1364.8905	1455.8162	1456.9202	1481.9303	1512.4137	1570.5528	3036.8933	3043.9782	3120.7109	3123.827	3125.0137	3127.1728	3199.4202	3213.1351	3819.4071	3820.0682
OC12CC(O)(C1)C21CC1	O[C@]12C[C@](O)(C1)C12CC1	
InChI=1S/C7H10O2/c8-6-3-7(9,4-6)5(6)1-2-5/h8-9H,1-4H2	InChI=1S/C7H10O2/c8-6-3-7(9,4-6)5(6)1-2-5/h8-9H,1-4H2/t6-,7+
