19
gdb 4324	2.7041355	1.586319	1.1980302	1.7738	76.1	-0.24611	0.00901	0.25512	1066.2129	0.15801	-422.545088	-422.537034	-422.536089	-422.577775	30.976	
O	 0.5509707036	 0.0595554272	 0.7502143874	-0.436431
C	-0.8469373831	-0.0515263166	 0.922947388	 0.083799
C	-1.5927860497	 0.5663048676	-0.2755355391	-0.283812
C	-2.8571710191	 1.0898085565	 0.3607722116	-0.075453
C	-2.768871229	 1.13118366	 1.6915045196	-0.163781
C	-1.4292331418	 0.6688546178	 2.1778012212	 0.23635
C	-0.4580197863	 1.6819820224	 2.8426108193	-0.129424
O	-0.07595705	 0.6997650961	 3.833456573	-0.286843
C	-1.2297626126	-0.1033691147	 3.5005195044	-0.145043
H	 0.976250522	-0.2581130829	 1.555536656	 0.291877
H	-1.1373099095	-1.1122510348	 1.0030099484	 0.072041
H	-0.9928955638	 1.3773818986	-0.7095533623	 0.122493
H	-1.7725412598	-0.1578947999	-1.0765860056	 0.109354
H	-3.7145990763	 1.4146687867	-0.2182608179	 0.09918
H	-3.5377410532	 1.4976178894	 2.3637141954	 0.096893
H	 0.389621806	 2.0191678051	 2.2407685306	 0.119927
H	-0.9659254295	 2.5422723482	 3.2992565869	 0.09377
H	-0.9877386667	-1.1713337823	 3.426821357	 0.099346
H	-2.0428524012	 0.0303510455	 4.2289085562	 0.095758
83.5454	101.6616	224.8901	271.2826	318.1783	380.3224	429.9076	455.4523	482.6061	561.243	659.626	754.9118	770.0323	817.9558	889.1235	952.9831	962.4749	976.7238	989.3599	994.2778	1016.2145	1018.0046	1065.6714	1108.3724	1130.9404	1153.424	1176.2834	1178.4286	1211.4954	1252.3784	1283.5728	1298.1666	1307.9268	1340.3937	1369.6866	1385.0977	1436.1917	1487.4508	1504.7098	1531.5292	1675.5118	2957.98	2990.0404	3011.4724	3026.1395	3044.5938	3073.5331	3100.4677	3177.2765	3203.5705	3792.7188
OC1CC=CC11COC1	O[C@@H]1CC=CC21COC2	
InChI=1S/C7H10O2/c8-6-2-1-3-7(6)4-9-5-7/h1,3,6,8H,2,4-5H2	InChI=1S/C7H10O2/c8-6-2-1-3-7(6)4-9-5-7/h1,3,6,8H,2,4-5H2/t6-/m1/s1
