19
gdb 1137	2.4696834	1.4292713	1.1052157	3.2063	75.79	-0.23172	-0.02087	0.21085	1162.6406	0.154634	-422.534184	-422.524959	-422.524015	-422.569002	33.312	
C	 3.744191258	-0.7758213465	-2.4788233609	-0.483853
C	 2.587915236	-0.1319386787	-1.737502753	 0.385304
O	 2.760195687	 0.6649841635	-0.8447948336	-0.295752
C	 1.1940705601	-0.5378710313	-2.194786135	-0.25811
C	 0.0198191414	-0.0615690002	-1.3197882418	-0.093615
O	-0.5042895559	 0.7721557891	-2.3823714648	-0.303906
C	 0.5551358918	 0.388402926	-3.2490990112	 0.477347
C	 1.1685335322	 1.3542951043	-4.2080544571	-0.33759
C	 0.3392516673	 0.1770667433	-4.7099485504	-0.336784
H	 3.7816995804	-1.8451729967	-2.237433907	 0.144293
H	 3.6060574296	-0.7043412563	-3.5634356221	 0.138007
H	 4.684817718	-0.3067010788	-2.1884896146	 0.14584
H	 1.1716529664	-1.5927299502	-2.4802209155	 0.091447
H	-0.6943461263	-0.8362546203	-1.0227838724	 0.103676
H	 0.3313864972	 0.5292695785	-0.4543841717	 0.131866
H	 0.7161779531	 2.3391498315	-4.2512138588	 0.132854
H	 2.2417150079	 1.344744498	-4.3679267355	 0.116812
H	-0.6535268096	 0.389730209	-5.0919519614	 0.12967
H	 0.8495628154	-0.6455446542	-5.2016902533	 0.112495
51.2796	64.2832	123.7165	149.2888	223.5682	287.1124	313.4202	368.3348	452.2401	530.1552	594.6552	608.0616	741.3363	751.8663	860.7069	878.4216	890.1686	935.4213	949.5663	969.3036	1013.0328	1021.4547	1050.9059	1064.7028	1067.6542	1099.1705	1174.6766	1182.6024	1187.0083	1208.8237	1221.3891	1346.1125	1351.6655	1370.2163	1384.9242	1446.0639	1462.468	1474.8719	1489.425	1517.3306	1812.7535	3032.6135	3042.1677	3075.4654	3092.1	3106.5172	3124.2825	3131.5909	3153.2781	3209.6694	3224.3026
CC(=O)C1COC11CC1	CC(=O)[C@H]1COC21CC2	
InChI=1S/C7H10O2/c1-5(8)6-4-9-7(6)2-3-7/h6H,2-4H2,1H3	InChI=1S/C7H10O2/c1-5(8)6-4-9-7(6)2-3-7/h6H,2-4H2,1H3/t6-/m1/s1
