19
gdb 1086	3.2243839	1.3213114	1.1731366	1.7875	75.14	-0.24429	-0.02001	0.22428	1108.6437	0.156877	-422.55677	-422.548457	-422.547513	-422.590247	31.288	
C	 3.561419132	-0.0324071461	-6.3645093195	-0.492091
C	 2.7176008618	-1.0569380794	-5.6257234729	 0.25647
O	 3.1454009895	-2.1531346202	-5.3396746616	-0.29274
C	 1.3223630833	-0.6413038881	-5.2445921451	 0.205608
C	 1.0607510928	 0.3739782456	-4.06506367	-0.273744
C	-0.3510797683	-0.2435147967	-4.1928581837	 0.094507
C	 0.3368138823	-1.5932102649	-4.5022737012	-0.269054
O	-0.7929718579	 0.2110496345	-5.4844949884	-0.276828
C	 0.3721808817	-0.0357011518	-6.2986538692	-0.124304
H	 3.5108781877	 0.947391548	-5.8780155071	 0.138203
H	 4.5956703227	-0.3750042487	-6.4135710437	 0.144367
H	 3.1795359845	 0.097455016	-7.3843281109	 0.145966
H	 1.5865730857	 0.0890294604	-3.1527794344	 0.115896
H	 1.161993945	 1.4424089884	-4.269382154	 0.104599
H	-1.146319329	-0.1057982932	-3.4628905459	 0.086185
H	 0.8010048083	-2.0697470579	-3.6391374189	 0.11784
H	-0.2252558524	-2.3160435071	-5.0968762051	 0.10671
H	 0.129147852	-0.7353503282	-7.1069055528	 0.11005
H	 0.7358537583	 0.9028700094	-6.7330117055	 0.102359
42.203	127.5214	168.7444	175.7517	327.8209	360.3265	437.7075	481.1085	520.4408	591.1033	611.0008	673.9874	824.8587	855.0593	885.4163	903.0141	932.7152	955.2758	961.2806	989.8304	1008.778	1021.9964	1045.7217	1094.2801	1119.105	1130.091	1171.4789	1203.6594	1211.6267	1234.7949	1239.3182	1285.0364	1316.8156	1370.727	1386.6218	1462.3665	1474.4274	1475.7367	1505.5616	1531.6379	1799.7624	3022.2536	3035.1938	3064.1772	3070.2873	3082.8803	3096.8266	3142.0919	3145.639	3151.9121	3155.4904
CC(=O)C12CC(C1)OC2	CC(=O)[C@]12C[C@H](C1)OC2	
InChI=1S/C7H10O2/c1-5(8)7-2-6(3-7)9-4-7/h6H,2-4H2,1H3	InChI=1S/C7H10O2/c1-5(8)7-2-6(3-7)9-4-7/h6H,2-4H2,1H3/t6-,7-
