19
gdb 4897	2.1373815	1.3134659	0.9695864	3.4136	76.57	-0.24909	-0.03429	0.2148	1268.4311	0.153613	-422.576036	-422.566371	-422.565427	-422.61161	34.506	
C	 1.9729125387	-0.8878100991	 1.411899025	-0.398057
C	 1.5151968714	-0.157803417	 0.1433823676	-0.251052
C	 2.1236051273	-0.656668884	-1.18130932	 0.219205
C	 1.4461403526	-0.0580417385	-2.451415665	-0.402982
C	 0.8233259954	-1.4284875361	-2.7207543816	 0.418918
O	-0.0188124992	-1.830073004	-3.4681537132	-0.285575
C	 1.6329246341	-2.1007515553	-1.5960966677	-0.406743
C	 3.6333113408	-0.5633386704	-1.2010170253	 0.103433
O	 4.278341371	-0.0142313417	-2.05873448	-0.248357
H	 1.8209918434	-1.969458906	 1.3325566892	 0.123498
H	 3.0297319782	-0.7149892488	 1.6338481847	 0.126643
H	 1.3990309025	-0.5378974734	 2.2749397338	 0.126559
H	 0.4248167775	-0.2460859467	 0.0545142632	 0.110201
H	 1.7222585782	 0.915470827	 0.2394686519	 0.114951
H	 0.7440370618	 0.7667622221	-2.3041015295	 0.128896
H	 2.1810603083	 0.2308325361	-3.2098461616	 0.158442
H	 1.0433671484	-2.6509029484	-0.8575943545	 0.135232
H	 2.4175129689	-2.7628178034	-1.9778838682	 0.139917
H	 4.1434529606	-1.0802807621	-0.359009289	 0.086873
35.8308	63.523	102.5454	194.5041	238.428	253.2249	298.0047	324.7513	383.1094	418.0072	480.7338	569.4648	655.2673	686.7813	749.577	781.074	843.7198	901.2764	916.7709	999.6717	1012.5572	1026.1906	1052.4072	1085.3191	1124.5372	1156.4459	1176.2867	1200.805	1244.2058	1262.8391	1328.2302	1372.8687	1413.8081	1425.1056	1428.5249	1443.3102	1487.9043	1499.9753	1507.9912	1818.9084	1896.9763	2891.914	3020.201	3041.0886	3051.4531	3053.9673	3060.0041	3106.6795	3109.9204	3114.2989	3116.1858
CCC1(CC(=O)C1)C=O	CCC1(CC(=O)C1)C=O	
InChI=1S/C7H10O2/c1-2-7(5-8)3-6(9)4-7/h5H,2-4H2,1H3	InChI=1S/C7H10O2/c1-2-7(5-8)3-6(9)4-7/h5H,2-4H2,1H3
