19
gdb 5434	3.0469569	1.1567342	0.9853518	2.4805	76.22	-0.24577	0.00858	0.25434999999999997	1256.4202	0.156043	-422.527229	-422.518297	-422.517353	-422.560874	33.216	
C	-2.0298895935	-0.0551417631	-2.2305225629	-0.444719
C	-2.1358669722	-0.0461613624	-0.7149931991	 0.02985
C	-1.27842428	 0.9584537291	 0.1416027465	-0.195742
C	-1.5438617365	-0.0105821766	 1.3486289765	-0.000285
C	-0.644281839	 0.024206263	 2.5734130128	-0.125165
O	-0.8918973166	-1.0681031711	 3.4465704191	-0.414169
C	-1.2265742225	-0.989701191	 0.1560828832	-0.19543
C	-0.1097998509	 0.0115922321	-0.1865016444	 0.43414
O	 1.0308796669	 0.0374957971	-0.5307149637	-0.335834
H	-2.5000557584	-0.9533790708	-2.6445586194	 0.124234
H	-2.5430057546	 0.8127703239	-2.6579688455	 0.124715
H	-0.9901073981	-0.0325389394	-2.5710069712	 0.139185
H	-3.1777347947	-0.0712163653	-0.3816033156	 0.083396
H	-1.318881621	 2.0461715154	 0.1354321801	 0.091098
H	-2.5969733991	-0.0451536282	 1.6432996805	 0.088136
H	 0.4152975648	 0.0743454031	 2.2800759141	 0.109213
H	-0.8606767105	 0.9243387412	 3.1592934444	 0.115425
H	-0.6127384807	-1.8725696329	 2.9977320389	 0.285738
H	-1.2140424334	-2.0787434942	 0.1609691754	 0.086213
81.7023	135.8383	150.3556	210.5723	213.8932	284.0725	316.9589	417.5926	423.2455	453.478	539.5697	677.3976	738.5315	761.7681	789.8476	833.3958	870.6532	950.0184	1002.9647	1021.0605	1039.9229	1045.269	1073.7109	1087.31	1095.0769	1105.6041	1151.1945	1166.4243	1213.1816	1225.7431	1229.3294	1257.3146	1351.1613	1390.3875	1407.957	1421.1433	1436.6815	1494.6273	1500.837	1502.2803	1911.1243	2994.9916	3034.6808	3061.4989	3064.4407	3076.9021	3099.0015	3111.5382	3130.1475	3140.5008	3817.0607
CC1C2C(CO)C1C2=O	C[C@@H]1[C@H]2[C@H](CO)[C@@H]1C2=O	
InChI=1S/C7H10O2/c1-3-5-4(2-8)6(3)7(5)9/h3-6,8H,2H2,1H3	InChI=1S/C7H10O2/c1-3-5-4(2-8)6(3)7(5)9/h3-6,8H,2H2,1H3/t3-,4+,5+,6-
