19
gdb 942	2.4832236	1.4834074	1.0913044	1.9295	76.	-0.27344	0.00667	0.28011	1148.1519	0.15648	-422.556069	-422.547387	-422.546443	-422.590159	31.867	
O	 1.1580443661	 1.0747345555	 0.4780517352	-0.307154
C	 0.3548473437	 0.1811768866	 0.4432395452	 0.173093
O	-0.9682083389	 0.3077866809	 0.2916015752	-0.209984
C	-1.4673686319	 1.6441483486	 0.0970135444	 0.082534
C	-2.9638041819	 1.6775268542	-0.2697152764	-0.258678
C	-3.162492174	 2.8302390945	 0.7614273727	-0.311212
C	-1.7778259079	 2.4918770734	 1.3349815198	 0.349194
C	-0.840310952	 3.3313821122	 2.1467583958	-0.332272
C	-1.4802638853	 2.1038774281	 2.7533590424	-0.318282
H	 0.6003187914	-0.8888725818	 0.5318288413	 0.110296
H	-0.8139809774	 2.1547488374	-0.6143201321	 0.104087
H	-3.2133826395	 1.8772040328	-1.313224368	 0.106026
H	-3.4542219309	 0.7548010932	 0.0478155587	 0.120262
H	-3.2001100788	 3.8171554904	 0.2909558175	 0.107616
H	-4.013553983	 2.7335475154	 1.4396642658	 0.106286
H	 0.214047172	 3.2781288517	 1.8993595521	 0.138654
H	-1.1866004447	 4.306077217	 2.4758382637	 0.109073
H	-0.8541036081	 1.2356421094	 2.9296859674	 0.118999
H	-2.268974819	 2.2410828505	 3.4865724393	 0.111461
45.1932	83.1957	165.1337	202.8269	253.3375	298.7471	339.0843	380.311	516.354	555.4074	707.2629	763.3946	777.0382	819.3706	867.1039	894.4903	922.5372	935.9919	962.8024	1000.4105	1044.6507	1051.194	1051.7461	1077.7536	1117.8871	1142.7305	1189.3995	1196.6053	1210.2566	1236.0963	1246.9379	1279.6722	1283.4866	1379.3729	1384.4207	1408.6466	1459.9323	1478.507	1498.303	1501.8436	1811.2837	3025.4213	3054.8004	3075.7406	3083.0577	3103.4792	3125.5377	3130.4797	3134.9397	3206.6388	3223.8333
O=COC1CCC11CC1	O=CO[C@H]1CCC21CC2	
InChI=1S/C7H10O2/c8-5-9-6-1-2-7(6)3-4-7/h5-6H,1-4H2	InChI=1S/C7H10O2/c8-5-9-6-1-2-7(6)3-4-7/h5-6H,1-4H2/t6-/m0/s1
