19
gdb 5353	3.4926874	1.0631827	0.9184455	1.305	77.85	-0.22791	0.0099	0.23781	1297.6204	0.156631	-422.553808	-422.545056	-422.544112	-422.587118	33.547	
O	 1.1829557117	-0.0456522088	-0.3729126648	-0.413872
C	 0.6856848685	 0.0607576471	 0.9602253106	-0.166259
C	-0.7574083291	 0.4547561391	 0.9999683156	 0.274176
C	-1.2860835215	 1.5062525568	 1.6398940038	-0.185676
C	-2.7666696965	 1.5642818324	 1.496761302	-0.11679
C	-3.5345273293	 0.3801500625	 2.0834077495	-0.339082
C	-3.1305972104	 0.3755956621	 0.6336197333	 0.394501
O	-4.1140458378	 0.5233678632	-0.3459989471	-0.468423
C	-1.8257611198	-0.326536549	 0.2524911355	-0.376668
H	 1.0407582753	 0.80789036	-0.7960346975	 0.282161
H	 0.8296568529	-0.9374018032	 1.3923404591	 0.111247
H	 1.2834974087	 0.7643970234	 1.5597752476	 0.090718
H	-0.719057303	 2.2211372146	 2.2274530224	 0.092135
H	-3.286348275	 2.5107754953	 1.4027593755	 0.097323
H	-3.0247938057	-0.2658709519	 2.7915859136	 0.108228
H	-4.5899025545	 0.5453522058	 2.2744069979	 0.111719
H	-4.6157307891	-0.2978852282	-0.3907872228	 0.282082
H	-1.8193206393	-1.391355567	 0.51984147	 0.103411
H	-1.672209996	-0.2746217042	-0.8322175342	 0.11907
80.2389	111.7018	208.4372	262.0323	289.9704	303.6205	372.9274	406.5184	415.0604	477.7363	511.5411	584.1256	681.2307	737.5519	847.6844	859.5452	877.2217	897.9067	922.0565	963.7829	988.7755	1005.3063	1040.8809	1051.5383	1060.6291	1083.535	1141.8509	1187.1047	1202.964	1241.9373	1246.7989	1310.1322	1311.8818	1344.0713	1373.8056	1397.6437	1416.2769	1464.3493	1483.4992	1497.4071	1696.1724	2986.1093	3022.7973	3046.7037	3058.3805	3119.7105	3176.1294	3186.6123	3215.7541	3795.2677	3806.9879
OCC1=CC2CC2(O)C1	OCC1=C[C@@H]2C[C@]2(O)C1	
InChI=1S/C7H10O2/c8-4-5-1-6-3-7(6,9)2-5/h1,6,8-9H,2-4H2	InChI=1S/C7H10O2/c8-4-5-1-6-3-7(6,9)2-5/h1,6,8-9H,2-4H2/t6-,7-/m1/s1
