19
gdb 4718	2.6520383	0.9812396	0.7543957	1.6652	78.01	-0.25545	0.0455	0.30095	1484.276	0.154169	-422.504735	-422.494611	-422.493666	-422.540099	36.836	
O	 2.6942015279	-1.9110201947	-1.4620364821	-0.42266
C	 3.0693860561	-0.5684555465	-1.2521560037	-0.055267
C	 2.6182876823	-0.0325260873	 0.1288183238	-0.219947
C	 1.1660548868	-0.1679388457	 0.2515381433	 0.311864
C	-0.0290140136	-0.3023004281	 0.2908175368	-0.456852
C	 3.0774883033	 1.4023158756	 0.3412952853	-0.001773
C	 4.4922242073	 1.6936897329	 0.8077626473	-0.339973
C	 3.3109036802	 1.947465238	 1.7129350147	 0.098083
O	 2.8793074461	 3.2567668697	 1.9369194363	-0.426832
H	 1.7365104366	-1.9563471009	-1.351412536	 0.285283
H	 4.1615385409	-0.5351970535	-1.3047446366	 0.113189
H	 2.6733683798	 0.0960656902	-2.036325693	 0.09259
H	 3.0881562829	-0.6729311263	 0.8878989854	 0.107342
H	-1.0841294626	-0.4032720999	 0.3592279665	 0.200554
H	 2.6590070131	 2.1214400291	-0.356746747	 0.107299
H	 5.1480601352	 0.8591021175	 1.0354900199	 0.113109
H	 4.9853354582	 2.5601944623	 0.381462756	 0.116955
H	 3.1671061006	 1.2634272901	 2.5501221324	 0.089535
H	 3.4962309688	 3.6717348874	 2.5490756809	 0.287502
59.0055	99.3547	110.696	149.3657	197.5955	267.0721	302.7072	329.1847	351.8931	415.1404	432.7056	471.7763	520.0938	586.4294	631.5282	655.2025	812.3938	818.8217	884.0165	926.7861	955.2524	1024.6344	1046.8367	1068.6355	1084.9557	1094.2303	1104.4759	1156.4139	1186.9193	1206.5738	1220.3622	1255.9544	1303.473	1328.425	1375.0304	1384.1305	1426.585	1434.3819	1494.336	1505.2399	2226.6095	2980.1181	3017.0493	3088.3197	3093.8419	3128.2451	3158.9131	3219.8371	3501.6647	3778.7655	3803.1167
OCC(C#C)C1CC1O	OC[C@H](C#C)[C@@H]1C[C@H]1O	
InChI=1S/C7H10O2/c1-2-5(4-8)6-3-7(6)9/h1,5-9H,3-4H2	InChI=1S/C7H10O2/c1-2-5(4-8)6-3-7(6)9/h1,5-9H,3-4H2/t5-,6-,7+/m0/s1
