19
gdb 5565	3.5139446	1.0219474	0.8808137	2.8508	76.31	-0.26331	0.07822	0.34153	1339.9302	0.156379	-422.500108	-422.491602	-422.490657	-422.533409	32.175	
O	 1.3948887518	 0.794453827	 0.0346969027	-0.41863
C	 0.3077102741	-0.0463348122	 0.3846212289	-0.090705
C	-0.8693616203	 0.7230560876	 0.938889849	-0.040801
C	-1.8332700296	 0.0004379502	 1.8311435575	-0.067364
C	-3.0252661612	 0.9121873902	 2.1706521074	-0.348216
C	-2.014135997	 1.8998160197	 2.7917512494	 0.462149
C	-2.1857623527	 2.7634832318	 3.9572702116	-0.273455
O	-2.0427017899	 3.3096019788	 2.6369222985	-0.272496
C	-0.8463382902	 1.0189555347	 2.4259661828	-0.165614
H	 1.5918560688	 1.3448108479	 0.8000807248	 0.283161
H	 0.023747676	-0.5588761274	-0.5407490592	 0.114467
H	 0.6130032993	-0.823450117	 1.1060718866	 0.081261
H	-1.2520365642	 1.4900449167	 0.267288304	 0.100604
H	-1.8190598802	-1.0756210904	 1.9481388592	 0.093799
H	-3.6005997083	 1.2864538839	 1.3186304129	 0.113614
H	-3.7096393597	 0.4897470962	 2.9105042814	 0.11237
H	-3.1716978542	 2.8762072291	 4.4076904016	 0.114832
H	-1.3473861914	 2.9454927233	 4.6295516444	 0.113681
H	 0.0359415287	 0.8438639401	 3.0321573464	 0.087344
89.3609	114.2971	153.5225	233.4398	303.6376	336.7493	359.7805	394.3577	452.7188	502.2461	587.965	784.9428	802.23	843.2487	862.4736	886.2795	907.624	952.0673	979.6557	1009.3432	1017.1895	1060.6269	1073.0103	1090.1142	1116.1962	1123.0233	1154.2173	1157.5039	1184.1608	1185.2111	1233.1609	1240.8057	1270.115	1289.486	1361.7691	1412.5301	1433.3908	1449.5755	1483.5767	1507.9312	1539.6049	2959.3886	3054.8788	3067.7834	3074.1405	3109.7137	3121.1415	3158.7807	3168.5733	3196.5678	3809.3728
OCC1C2CC3(CO3)C12	OC[C@H]1[C@@H]2C[C@@]3(CO3)[C@H]12	
InChI=1S/C7H10O2/c8-2-5-4-1-7(3-9-7)6(4)5/h4-6,8H,1-3H2	InChI=1S/C7H10O2/c8-2-5-4-1-7(3-9-7)6(4)5/h4-6,8H,1-3H2/t4-,5-,6-,7+/m0/s1
