19
gdb 4747	2.2593143	1.3234519	1.115893	1.6647	77.8	-0.27504	0.00366	0.2787	1197.7436	0.152871	-422.553371	-422.542992	-422.542048	-422.588335	37.378	
C	 0.5302005021	 3.0217679405	-0.626051105	-0.396535
C	 0.302676636	 2.4148638747	 0.7592163585	-0.209305
C	-0.5003916589	 1.0939790211	 0.7608205128	 0.168805
C	-0.6407231825	 0.5133677709	 2.1774297835	-0.432502
O	 0.1204219309	 0.1004974912	-0.1352277445	-0.253831
C	 1.3551021168	-0.3569509579	 0.0977683985	 0.194239
O	 2.1011082443	-0.0574336401	 0.9910481915	-0.309701
C	-1.831383041	 1.3000636504	 0.1814963757	 0.353154
C	-2.9364912283	 1.4935950036	-0.2469943385	-0.464532
H	 1.1182540266	 2.3565688101	-1.2648021289	 0.123244
H	-0.4182028842	 3.2222020605	-1.1325553668	 0.130622
H	 1.0755557259	 3.9656835719	-0.537939438	 0.116859
H	 1.2559166192	 2.2246661007	 1.2566282737	 0.13606
H	-0.2586520855	 3.1171492919	 1.385737305	 0.109765
H	-1.1689993865	-0.4423304631	 2.1398217117	 0.131288
H	 0.3410358599	 0.369658379	 2.6280025885	 0.154453
H	-1.2248157455	 1.2034333398	 2.7915278373	 0.130719
H	 1.5954567606	-1.085723633	-0.6936971336	 0.114516
H	-3.9116716999	 1.6588044577	-0.6346383615	 0.202683
73.5836	119.5024	139.6312	179.4733	203.6733	233.4765	251.5199	261.6836	272.925	372.7451	392.2335	444.8601	531.8474	599.1783	629.1702	655.0082	675.8343	774.4595	808.5906	856.3586	925.2324	1006.0805	1038.5825	1043.636	1071.0254	1142.0251	1174.6594	1210.6074	1244.628	1325.7908	1368.5184	1400.9489	1413.4101	1416.3173	1478.3273	1487.5985	1497.5391	1503.033	1506.0533	1808.3517	2241.4544	3014.675	3046.1733	3049.6152	3059.7072	3108.3653	3115.5676	3128.0465	3131.2583	3163.5391	3500.4201
CCC(C)(OC=O)C#C	CC[C@](C)(OC=O)C#C	
InChI=1S/C7H10O2/c1-4-7(3,5-2)9-6-8/h1,6H,5H2,2-3H3	InChI=1S/C7H10O2/c1-4-7(3,5-2)9-6-8/h1,6H,5H2,2-3H3/t7-/m1/s1
