19
gdb 4481	2.8534302	1.788114	1.3745324	1.537	73.37	-0.21562	0.06858	0.2842	984.6317	0.158539	-422.5126	-422.505202	-422.504257	-422.544107	29.499	
C	 4.2515556382	-0.6098400708	-0.4189856587	-0.411776
C	 2.96678114	 0.1681492863	-0.1202607615	-0.0152
C	 2.271549501	-0.4131961476	 1.1242924173	-0.063091
O	 0.9687523959	 0.1096864796	 1.3770186383	-0.277019
C	 0.1532240488	 0.3320829987	 0.2688302404	 0.109271
C	 0.0486058019	-0.51018145	-0.9800723	 0.036822
O	 1.2715575957	-1.1638587988	-1.3146894361	-0.303852
C	 1.9757656468	 0.1209667754	-1.2830848084	 0.089514
C	 0.6693178564	 0.8837276694	-1.0267902198	-0.212984
H	 4.9195177341	-0.6261351252	 0.4487651328	 0.115392
H	 4.0204821676	-1.6459360488	-0.6873717105	 0.136088
H	 4.7990239209	-0.1590742149	-1.2528826934	 0.114744
H	 3.2089770342	 1.2244472533	 0.0592659213	 0.082237
H	 2.2162996823	-1.5035376867	 1.0168136854	 0.111235
H	 2.8542960688	-0.1871908787	 2.022542379	 0.102532
H	-0.7967820144	 0.7434836533	 0.5978633632	 0.108065
H	-0.8672163615	-0.9280649243	-1.3846472167	 0.103712
H	 2.4425463652	 0.3132221984	-2.2539575749	 0.078964
H	 0.368928178	 1.8144135412	-1.4906386978	 0.095346
135.5526	207.909	222.8997	267.0383	339.9944	415.0961	488.7207	534.2344	608.4163	681.5864	732.9365	793.1036	818.9584	862.451	903.0855	926.6123	944.1672	980.2582	990.3507	1005.2132	1053.6528	1056.2709	1062.2489	1102.2184	1115.3081	1126.209	1161.1072	1204.0135	1245.7583	1274.6961	1280.3276	1310.8696	1335.8044	1347.3501	1370.5481	1404.721	1419.9012	1447.5017	1494.589	1501.2464	1504.1272	3016.9452	3027.6312	3032.9766	3058.3469	3082.1777	3100.1996	3107.3904	3158.4409	3168.8037	3191.6769
CC1COC2C3OC1C23	C[C@@H]1CO[C@@H]2[C@@H]3O[C@H]1[C@H]23	
InChI=1S/C7H10O2/c1-3-2-8-6-4-5(3)9-7(4)6/h3-7H,2H2,1H3	InChI=1S/C7H10O2/c1-3-2-8-6-4-5(3)9-7(4)6/h3-7H,2H2,1H3/t3-,4-,5-,6+,7-/m1/s1
