19
gdb 3614	3.4539103	0.923663	0.8199398	1.4801	77.6	-0.24664	-0.09292	0.15372	1443.2118	0.15478	-422.567016	-422.557432	-422.556487	-422.604391	33.545	
C	-0.7698923474	 4.459867801	 2.8049230359	-0.408539
C	-1.357292266	 3.6184159772	 1.6836517449	 0.058186
C	-1.2401031841	 2.0708797581	 1.7729396901	-0.248749
C	-0.9425713057	 2.0501715033	 0.2281756958	-0.081256
C	-0.6151614986	 3.5596270281	 0.318720785	-0.26195
C	 0.1443041617	 1.1098520566	-0.1961204357	 0.271202
O	 1.3257749406	 1.3765025161	-0.2267826169	-0.287153
C	-0.2698902893	-0.3205944586	-0.5769175204	 0.090011
O	-1.411278106	-0.6985281551	-0.6135796224	-0.219219
H	 0.2790339941	 4.1974725905	 2.9830435292	 0.117245
H	-0.8098368661	 5.5273295082	 2.5610559831	 0.117995
H	-1.3165986327	 4.3124162617	 3.7430911902	 0.116106
H	-2.4056550423	 3.892211694	 1.520352231	 0.076542
H	-0.359719405	 1.7698525981	 2.3496536126	 0.111271
H	-2.1051347473	 1.5002627866	 2.1152860349	 0.115575
H	-1.8581334631	 1.8279633134	-0.3236892603	 0.102226
H	 0.463008393	 3.7051788664	 0.4323264864	 0.121537
H	-0.9784271954	 4.1976158643	-0.4898655147	 0.102933
H	 0.5990254395	-0.9681222399	-0.8215312986	 0.106037
4.9843	65.9443	122.937	150.4844	206.7288	239.6397	281.358	322.0254	406.6273	506.5522	536.5256	604.9969	655.2608	747.7055	809.5583	878.9355	900.2033	931.7921	949.0801	985.4075	998.836	1052.9297	1115.9615	1132.503	1142.9044	1174.9836	1233.7235	1236.586	1252.9872	1269.8035	1293.5031	1360.6282	1366.9908	1390.3117	1413.3144	1474.378	1493.6529	1496.1541	1500.4976	1792.3928	1822.6857	2919.9561	3024.3452	3039.1785	3054.7147	3062.5723	3092.2433	3092.5547	3095.0203	3118.6226	3125.3139
CC1CC(C1)C(=O)C=O	C[C@@H]1C[C@@H](C1)C(=O)C=O	
InChI=1S/C7H10O2/c1-5-2-6(3-5)7(9)4-8/h4-6H,2-3H2,1H3	InChI=1S/C7H10O2/c1-5-2-6(3-5)7(9)4-8/h4-6H,2-3H2,1H3/t5-,6+
