19
gdb 3502	2.4843682	1.4997539	1.2208948	1.1545	76.19	-0.23435	0.01091	0.24526	1089.4172	0.157028	-422.558962	-422.550351	-422.549407	-422.591795	33.383	
O	 0.4349086436	 0.0137753218	 0.4331932372	-0.430292
C	-0.9367673904	 0.131681223	 0.834548413	 0.082634
C	-1.0219381196	 0.7259245427	 2.2172221589	-0.11633
C	-1.4255444884	 1.9708251313	 2.4710706381	-0.048046
C	-1.9137714799	 2.9457983196	 1.4352968581	-0.315235
C	-2.2326416469	 2.3089594613	 0.0999644099	 0.430876
O	-2.2184163692	 3.294358918	-0.9000943816	-0.480936
C	-3.2228361213	 1.1791583534	 0.035927039	-0.368968
C	-1.7398985352	 0.9116130858	-0.1887444774	-0.138862
H	 0.8261894303	 0.8909351348	 0.5165142587	 0.275633
H	-1.2891718833	-0.907733585	 0.8553559024	 0.089349
H	-0.6578460166	 0.0967285535	 3.0247723522	 0.094622
H	-1.3968360757	 2.3410728712	 3.4934184131	 0.094843
H	-2.7927115354	 3.4877143744	 1.8086729917	 0.114888
H	-1.1474533092	 3.7160308215	 1.267043912	 0.12432
H	-2.5380766904	 2.9068746408	-1.720855952	 0.280774
H	-3.6738986044	 0.8284502415	 0.9592251627	 0.119933
H	-3.8773809311	 1.1247727732	-0.8290272567	 0.103839
H	-1.4416835268	 0.700331517	-1.2125201892	 0.086958
100.4087	145.6815	172.1735	260.6584	315.1555	346.1755	365.0643	404.6074	443.4017	504.412	504.4973	583.4757	683.5826	734.7127	768.8646	848.2655	907.4938	926.2429	934.4974	975.6007	1004.3651	1014.7286	1024.4914	1038.552	1050.522	1115.4044	1138.0493	1161.8596	1196.0208	1218.0326	1259.7982	1265.4782	1342.2953	1358.2056	1402.2443	1406.313	1428.6451	1437.3852	1476.2211	1493.5205	1721.204	3009.047	3022.8507	3035.1342	3116.5219	3142.2409	3146.7805	3173.5765	3203.3055	3796.7935	3823.8796
OC1C=CCC2(O)CC12	O[C@H]1C=CC[C@]2(O)C[C@H]12	
InChI=1S/C7H10O2/c8-6-2-1-3-7(9)4-5(6)7/h1-2,5-6,8-9H,3-4H2	InChI=1S/C7H10O2/c8-6-2-1-3-7(9)4-5(6)7/h1-2,5-6,8-9H,3-4H2/t5-,6+,7+/m1/s1
