19
gdb 1485	2.3363582	1.6539279	1.3348285	3.6909	75.29	-0.22952	-0.03226	0.19726	1052.4398	0.155576	-422.537755	-422.528882	-422.527938	-422.571239	32.797	
C	-1.0634052221	 1.9475676302	-1.3178396478	-0.44997
C	-1.1270146919	 1.0376076287	-0.0946631654	 0.166363
C	-1.1261246364	 1.856085546	 1.2076455744	-0.433547
C	-2.2067072913	-0.1016373574	-0.0299699126	-0.12401
C	-2.5343200243	-0.8264615668	-1.3417552197	-0.09586
O	-1.3709158721	-1.6834182791	-1.2205035084	-0.286748
C	-1.0851898224	-1.1826665453	 0.1085920295	-0.019416
C	-0.0320880479	-0.0582249126	 0.0028412921	 0.392926
O	 1.1632312957	-0.0260622208	-0.0106031526	-0.304484
H	-1.0235640339	 1.3817703913	-2.2522628786	 0.129901
H	-1.9305639853	 2.6163241927	-1.3564370423	 0.11702
H	-0.1614074114	 2.5657606127	-1.2728131819	 0.136074
H	-1.1764971293	 1.2137205019	 2.0934861919	 0.120702
H	-0.2142957331	 2.455831727	 1.2806227764	 0.136171
H	-1.9894000646	 2.5300809794	 1.2315088853	 0.120945
H	-3.007781891	 0.0379969621	 0.6936819373	 0.083328
H	-3.4571433344	-1.4184512218	-1.2999523198	 0.10753
H	-2.5273990954	-0.2424119568	-2.2676847465	 0.110365
H	-1.0033381486	-1.9700688314	 0.8622261885	 0.09271
62.5099	161.4705	182.683	215.2136	237.5709	263.9099	277.36	336.1744	414.67	485.6466	633.1921	656.1439	753.3444	773.8249	815.6213	891.8207	942.1442	960.6566	970.9073	996.445	1010.4633	1015.8293	1059.7317	1067.9663	1141.4318	1165.5402	1187.0198	1193.9833	1227.7934	1261.8221	1268.4994	1316.2927	1354.5334	1396.0946	1418.0771	1480.4097	1485.2229	1499.9044	1504.8899	1529.6168	1888.8355	3021.5981	3027.9289	3034.4812	3075.8383	3080.7653	3095.2576	3102.0995	3112.5834	3116.4453	3129.5663
CC1(C)C2COC2C1=O	CC1(C)[C@H]2CO[C@H]2C1=O	
InChI=1S/C7H10O2/c1-7(2)4-3-9-5(4)6(7)8/h4-5H,3H2,1-2H3	InChI=1S/C7H10O2/c1-7(2)4-3-9-5(4)6(7)8/h4-5H,3H2,1-2H3/t4-,5+/m0/s1
