19
gdb 3574	2.6945563	1.3240947	0.9391137	0.3982	75.2	-0.24813	-0.02431	0.22382	1234.6976	0.156057	-422.615267	-422.606338	-422.605394	-422.64952	32.928	
C	-0.5570647061	 2.2841548708	 1.0839349544	-0.398312
C	-0.9127568514	 1.1746274896	 0.0938941334	-0.109215
C	-2.4312538274	 0.9759037793	-0.0783483284	-0.320907
C	-2.796581755	-0.0730446139	-1.1250342954	 0.394602
O	-3.8512807224	-0.0588588043	-1.7118179774	-0.308929
C	-1.7329317653	-1.1371942742	-1.3789504763	-0.323421
C	-0.8670358952	-1.4089567826	-0.141584299	-0.322144
C	-0.2310682772	-0.1516351134	 0.4493358237	 0.400467
O	 0.7458491322	-0.209745752	 1.1574051656	-0.314007
H	-0.9844280879	 2.075569722	 2.0702919496	 0.122916
H	 0.5252731031	 2.3576875657	 1.203147072	 0.140953
H	-0.944500702	 3.2479918498	 0.7415670963	 0.114078
H	-0.5021525254	 1.4449520808	-0.8932606233	 0.110307
H	-2.8692493947	 0.649095343	 0.876656434	 0.133147
H	-2.9339412785	 1.9112746075	-0.3386747512	 0.134105
H	-2.2241990064	-2.0403688367	-1.7484996837	 0.134044
H	-1.1020086227	-0.7680810828	-2.2002950875	 0.135731
H	-1.4840041161	-1.8507439192	 0.6537875655	 0.139219
H	-0.0726411516	-2.1318367292	-0.3440224522	 0.137366
38.2885	98.6906	176.2083	199.0363	275.4481	303.2329	362.8231	402.8219	439.2339	520.9133	529.5546	567.4169	633.5678	722.7132	747.5248	830.2946	881.6812	935.3587	962.8571	998.1833	1063.1547	1086.0014	1101.654	1141.217	1159.6161	1188.9239	1226.8659	1257.145	1283.9744	1315.3582	1333.1699	1343.2456	1357.3468	1409.5419	1451.2493	1458.439	1460.9029	1491.0614	1497.2004	1814.9615	1823.789	2973.8194	3012.8343	3015.8912	3026.4278	3044.4908	3095.9124	3100.9768	3105.8551	3110.0096	3139.1911
CC1CC(=O)CCC1=O	C[C@@H]1CC(=O)CCC1=O	
InChI=1S/C7H10O2/c1-5-4-6(8)2-3-7(5)9/h5H,2-4H2,1H3	InChI=1S/C7H10O2/c1-5-4-6(8)2-3-7(5)9/h5H,2-4H2,1H3/t5-/m1/s1
