19
gdb 3458	2.6232285	1.3156584	0.9890921	2.2308	77.25	-0.24586	-0.03203	0.21383	1224.9351	0.155491	-422.583537	-422.574391	-422.573447	-422.617651	33.624	
C	 0.9213338596	 1.164769298	 0.1806293323	-0.412967
C	 1.2520617876	-0.3202693963	 0.020535556	-0.033978
C	 1.9937153145	-0.6958035417	-1.2465187393	-0.073148
C	 2.918627066	-1.6331230024	-1.0373912055	-0.115085
C	 2.9354825425	-2.0464274451	 0.4180319909	-0.157537
C	 4.2711871327	-2.3549351855	 1.049459343	 0.136887
O	 4.5429183148	-2.0625284019	 2.1898314451	-0.256917
C	 2.1940351975	-0.8742835609	 1.1086185743	 0.133543
O	 1.4934715754	-1.2267584133	 2.2791668045	-0.447994
H	 0.459561601	 1.3470947962	 1.1555564339	 0.132243
H	 1.8257659408	 1.7791284017	 0.1109715348	 0.115093
H	 0.2241890336	 1.503441645	-0.5926592005	 0.111979
H	 0.3136354749	-0.8942531482	 0.0735494972	 0.094272
H	 1.7568773039	-0.2571513738	-2.2101288245	 0.099009
H	 3.5520629888	-2.0838845884	-1.793651277	 0.100791
H	 2.3405041433	-2.969217642	 0.5503255792	 0.120343
H	 5.0038931494	-2.9010852582	 0.4132843333	 0.084734
H	 2.9478375018	-0.1026223131	 1.3307719687	 0.07756
H	 2.1625260418	-1.4436472801	 2.9390794137	 0.291171
61.3592	103.237	155.7865	213.2064	218.6017	286.8896	294.8955	391.2846	447.6498	466.3476	537.2436	553.3849	624.1684	737.7784	746.0798	819.0741	880.0535	939.2925	967.4603	1022.9542	1045.1742	1069.105	1079.8318	1103.8654	1123.8886	1138.3152	1157.8862	1211.3244	1256.7024	1282.7284	1304.2964	1335.8897	1347.2116	1390.4996	1405.9324	1414.9526	1442.5016	1496.8151	1500.2845	1672.2158	1809.0935	2877.2445	2944.0725	2977.9164	2990.8995	3031.8747	3098.9284	3111.1504	3177.8695	3202.1843	3796.6151
CC1C=CC(C=O)C1O	C[C@H]1C=C[C@@H](C=O)[C@@H]1O	
InChI=1S/C7H10O2/c1-5-2-3-6(4-8)7(5)9/h2-7,9H,1H3	InChI=1S/C7H10O2/c1-5-2-3-6(4-8)7(5)9/h2-7,9H,1H3/t5-,6-,7+/m0/s1
