19
gdb 2458	2.8758139	1.816389	1.45153	1.7831	73.72	-0.23294	0.09048	0.32342000000000004	962.5164	0.158867	-422.551327	-422.543951	-422.543007	-422.582782	29.225	
C	 0.3963941887	 1.338182661	-0.4369841733	-0.499026
C	 1.7014759945	 0.625626542	-0.6961333053	 0.278037
C	 2.7219101752	 1.2642430079	-1.6357584777	-0.141872
O	 4.0164689173	 1.0304692711	-1.0789063812	-0.268224
C	 3.9328023319	-0.0526324467	-0.1569922306	 0.062573
C	 3.985696602	-1.3973685677	-0.893584457	-0.091557
O	 2.6701317001	-1.5723041556	-1.4370235848	-0.263584
C	 1.7703190896	-0.8879167838	-0.5979003242	 0.047862
C	 2.5024780787	-0.0441662271	 0.4029365381	-0.179077
H	-0.2362408319	 0.769331701	 0.2518280606	 0.119105
H	 0.5631760084	 2.3278521836	 0.003482904	 0.123461
H	-0.1697825504	 1.4756161095	-1.3652497705	 0.125955
H	 2.6590401782	 0.8363847994	-2.6454165139	 0.107117
H	 2.5714976603	 2.3478016704	-1.704792636	 0.100692
H	 4.7251123122	 0.0674888806	 0.5849876012	 0.085839
H	 4.7031753561	-1.3954682736	-1.7174692756	 0.118181
H	 4.2246278621	-2.2174514456	-0.1988601775	 0.090449
H	 0.8738428598	-1.4525728973	-0.3608708804	 0.09348
H	 2.2820671171	 0.022236721	 1.4606030941	 0.090588
160.7482	200.7745	204.406	265.7	300.0421	401.2677	496.4363	554.8508	631.4574	730.4333	772.5823	806.2458	846.3528	854.6714	893.7479	928.1589	955.4239	968.6448	995.6207	1010.6777	1022.6047	1051.4101	1085.2305	1112.9676	1123.6088	1128.2579	1207.8516	1226.4059	1241.7975	1261.945	1280.9939	1298.4989	1337.487	1355.8886	1381.3618	1418.2875	1431.0844	1491.1964	1498.5605	1499.9174	1517.6695	2987.3968	3011.0185	3024.8401	3056.9141	3085.9245	3096.5157	3098.4263	3107.555	3155.9192	3192.1188
CC12COC3COC1C23	C[C@]12CO[C@@H]3CO[C@H]1[C@H]23	
InChI=1S/C7H10O2/c1-7-3-9-4-2-8-6(7)5(4)7/h4-6H,2-3H2,1H3	InChI=1S/C7H10O2/c1-7-3-9-4-2-8-6(7)5(4)7/h4-6H,2-3H2,1H3/t4-,5-,6+,7-/m1/s1
