19
gdb 4426	3.0658835	1.3465278	1.2029237	2.2784	74.38	-0.24359	0.0764	0.31999	1101.5557	0.15606	-422.495697	-422.487447	-422.486503	-422.528764	31.109	
C	-0.0059285263	 0.0014645929	-0.1878880159	-0.40531
C	 1.4987193127	 0.0278578682	-0.0025055776	 0.090833
O	 1.9021491314	-0.4271745997	 1.3104153837	-0.297995
C	 2.7504043744	 0.7261699064	 1.4999690532	-0.126985
C	 2.2357067618	 1.3735972072	 0.2067102916	 0.269108
C	 3.1454651718	 1.9873983674	-0.908273113	-0.349547
C	 2.3548218464	 3.2951552797	-0.7717384626	 0.039995
O	 2.4560639764	 3.7060831594	 0.5970713259	-0.249297
C	 1.4800862757	 2.710846371	 0.2556703511	-0.055516
H	-0.5083779927	 0.5927700892	 0.5829231064	 0.121341
H	-0.2841491085	 0.3921390559	-1.1729453043	 0.115727
H	-0.3705918875	-1.0278219751	-0.1151918611	 0.13075
H	 1.9824708347	-0.58016896	-0.7830897911	 0.06947
H	 2.529954789	 1.2587945171	 2.4319675982	 0.111784
H	 3.8154450741	 0.4584432291	 1.4841514393	 0.099531
H	 4.2154094759	 2.0584781064	-0.6955894428	 0.113069
H	 2.9945082991	 1.4911341809	-1.871772936	 0.109252
H	 2.1669584676	 4.0671977391	-1.5083513705	 0.107256
H	 0.4503175239	 2.9168536249	 0.5226027457	 0.106535
65.9866	123.428	185.3161	224.9278	258.5702	340.5142	404.8754	468.3059	482.1778	573.6303	755.2324	792.3956	837.9429	859.0944	861.128	883.4992	917.06	964.2788	982.689	1012.1351	1016.7437	1046.3965	1086.872	1101.551	1114.8872	1151.968	1177.8502	1184.6746	1210.1443	1231.7487	1256.1158	1286.2637	1307.1272	1364.5149	1381.7014	1384.1277	1404.5554	1468.9953	1481.2849	1497.3421	1521.3952	2974.0674	3008.796	3035.1388	3053.7089	3062.0692	3106.5239	3111.2009	3116.249	3182.4273	3197.5661
CC1OCC11CC2OC12	C[C@@H]1OC[C@]21C[C@@H]1O[C@H]21	
InChI=1S/C7H10O2/c1-4-7(3-8-4)2-5-6(7)9-5/h4-6H,2-3H2,1H3	InChI=1S/C7H10O2/c1-4-7(3-8-4)2-5-6(7)9-5/h4-6H,2-3H2,1H3/t4-,5-,6-,7-/m0/s1
