19
gdb 4622	6.367292	0.52193	0.5071356	1.865	84.73	-0.2412	0.03051	0.27171	2167.7795	0.154293	-422.488706	-422.478184	-422.477239	-422.52618	35.948	
C	 6.7990469942	-1.158604174	-1.8811041078	-0.233773
O	 5.8554271941	-1.1413088582	-0.826238904	-0.239643
C	 4.6883619264	-0.4665847706	-1.157243999	 0.134124
C	 4.6322569202	 1.0253418775	-1.0056451266	-0.311521
C	 3.9250249102	 0.1173275717	 0.0067449726	-0.239489
C	 2.4952723352	 0.0471776894	 0.0473837689	 0.037468
C	 1.290737192	-0.0183519767	 0.0663894178	 0.082169
C	-0.1686217652	-0.0467040023	 0.1285139269	-0.19197
O	-0.7712324021	 1.2383458074	 0.0303908732	-0.403739
H	 6.4024688701	-1.6719154863	-2.7697050628	 0.110196
H	 7.1001942984	-0.1424639666	-2.172936435	 0.110846
H	 7.6736714132	-1.7031013085	-1.5187103617	 0.130949
H	 4.104567732	-0.9189424446	-1.9593454011	 0.10086
H	 5.5278871188	 1.5232281093	-0.6518987946	 0.123852
H	 4.0116831005	 1.5972925608	-1.6850820779	 0.127788
H	 4.4383164921	 0.0141229162	 0.9582848044	 0.122141
H	-0.5730336726	-0.6268729438	-0.7087406588	 0.137288
H	-0.4813349269	-0.5643236536	 1.049939298	 0.116787
H	-0.3293388607	 1.808882493	 0.6678359575	 0.285668
20.8231	62.6097	87.3101	117.9304	162.6822	206.5477	217.843	289.6096	328.8645	379.3171	429.5291	463.3417	518.204	582.9236	737.4249	813.3884	900.6342	925.1118	966.7797	987.1356	1033.5199	1052.6404	1055.4865	1091.6282	1123.084	1157.5859	1183.3401	1196.7985	1214.8538	1225.0625	1244.3647	1334.6678	1354.1361	1411.9241	1420.997	1466.4132	1486.4827	1491.4358	1492.0567	1508.6892	2353.5644	2972.2433	2986.6605	3038.6133	3057.8702	3103.5142	3122.9575	3142.492	3153.9063	3239.1773	3816.2185
COC1CC1C#CCO	CO[C@@H]1C[C@H]1C#CCO	
InChI=1S/C7H10O2/c1-9-7-5-6(7)3-2-4-8/h6-8H,4-5H2,1H3	InChI=1S/C7H10O2/c1-9-7-5-6(7)3-2-4-8/h6-8H,4-5H2,1H3/t6-,7-/m1/s1
