19
gdb 3384	2.5661206	1.5384835	1.2131331	3.1761	74.32	-0.23785	-0.02022	0.21763000000000002	1085.8583	0.157355	-422.573636	-422.565381	-422.564437	-422.607058	30.8	
C	-0.4280842723	 1.9807680048	 1.3713434837	-0.414
C	-0.7744531729	 1.3129142235	 0.0279530943	-0.089537
C	-2.2232964411	 0.8133916674	-0.0557718857	-0.088943
C	-2.8053722978	 0.6503655157	-1.4734912076	-0.088908
O	-2.5613436911	-0.7723616325	-1.4665826075	-0.292785
C	-2.1739053915	-0.7494808495	-0.0734327066	 0.119526
C	-0.7357148953	-1.1922842476	 0.1257887551	-0.338318
C	 0.1069903924	 0.0587245521	-0.1523429511	 0.387673
O	 1.2768974754	 0.0758361748	-0.4298757861	-0.313182
H	-0.6437116817	 1.3163457132	 2.2156713615	 0.118684
H	 0.6336296266	 2.2387360081	 1.4054402008	 0.140684
H	-1.0139856471	 2.8946896506	 1.5084958134	 0.122263
H	-0.5368749479	 2.0132033105	-0.7798928571	 0.102406
H	-2.8813038179	 1.2860640424	 0.6744449397	 0.07893
H	-3.8756732469	 0.8786069687	-1.5580504236	 0.101348
H	-2.2678384063	 1.1558715509	-2.2853200925	 0.106692
H	-2.8986521474	-1.2819124737	 0.5515048986	 0.076552
H	-0.5528982382	-1.5038205381	 1.163054982	 0.126895
H	-0.4487403891	-2.0199100213	-0.5265016613	 0.144023
50.569	92.4387	211.1117	229.8095	249.6254	348.6756	388.1239	459.8488	564.9055	608.6383	678.0584	738.1476	808.6788	829.5769	858.7667	891.78	951.5079	996.5783	1000.9434	1028.2123	1040.972	1055.0342	1095.6778	1134.6464	1158.0555	1171.6423	1174.6553	1191.3767	1264.102	1279.3498	1289.3343	1308.4253	1345.7114	1357.3937	1367.2211	1404.8699	1430.6139	1496.3058	1499.6884	1527.096	1846.5179	3009.0767	3030.1743	3033.1707	3049.3712	3051.6245	3056.1244	3098.8429	3101.0554	3117.8753	3122.1862
CC1C2COC2CC1=O	C[C@@H]1[C@H]2CO[C@H]2CC1=O	
InChI=1S/C7H10O2/c1-4-5-3-9-7(5)2-6(4)8/h4-5,7H,2-3H2,1H3	InChI=1S/C7H10O2/c1-4-5-3-9-7(5)2-6(4)8/h4-5,7H,2-3H2,1H3/t4-,5-,7+/m1/s1
