19
gdb 3371	2.3032015	1.9236711	1.2293851	2.9886	74.44	-0.23548	0.04894	0.28442	1035.9228	0.157444	-422.499939	-422.492039	-422.491095	-422.532235	30.659	
O	 0.4526693442	 0.4835202072	 0.0815125769	-0.422647
C	-0.8082153112	 0.6049412467	 0.6863546568	 0.1131
C	-1.0537802632	-0.0204538968	 2.0912681649	-0.115214
C	 0.0823589018	 0.1570541955	 3.1508910165	-0.243129
C	-0.7176360702	 1.3069451061	 3.8411997102	-0.328983
C	-1.6351848315	 1.3378844526	 2.6236133899	 0.320784
C	-3.0470303287	 1.83600078	 2.3466571418	-0.182617
O	-2.6690057177	 2.2547011372	 1.0090350403	-0.28943
C	-1.27122792	 1.9811481833	 1.2583211873	 0.006592
H	 1.1282131289	 0.7303234693	 0.721350292	 0.281235
H	-1.5352309609	 0.2569314935	-0.0523973688	 0.105465
H	-1.5917755376	-0.9682716989	 2.1484089978	 0.068125
H	 0.2724059787	-0.7218355516	 3.7687969898	 0.114646
H	 1.0455637944	 0.476803028	 2.7388260805	 0.086512
H	-1.2333434185	 0.9522434114	 4.7393926765	 0.108788
H	-0.1812103632	 2.2266258101	 4.0936611933	 0.101816
H	-3.8541147034	 1.0931694485	 2.3407271302	 0.103442
H	-3.3546812229	 2.6962574665	 2.9578264459	 0.1013
H	-0.6288372691	 2.8571864713	 1.1104139682	 0.070215
84.4323	203.5975	222.508	246.284	289.1241	336.3871	365.463	494.5777	547.1891	645.8623	704.8599	784.4172	804.2495	843.5458	888.8873	938.1866	945.3452	973.0969	993.6454	1008.2847	1031.1199	1070.7109	1089.8025	1123.905	1139.2637	1171.4882	1174.9618	1212.6527	1219.9379	1233.0978	1239.9642	1261.1709	1270.8994	1296.7903	1307.7158	1317.8378	1373.6068	1420.7784	1479.3069	1495.8733	1517.0741	2998.3085	3040.032	3042.7195	3046.0912	3049.5464	3078.8236	3089.1505	3093.9665	3116.8424	3810.565
OC1C2CCC22COC12	O[C@H]1[C@H]2CC[C@@]32CO[C@H]13	
InChI=1S/C7H10O2/c8-5-4-1-2-7(4)3-9-6(5)7/h4-6,8H,1-3H2	InChI=1S/C7H10O2/c8-5-4-1-2-7(4)3-9-6(5)7/h4-6,8H,1-3H2/t4-,5+,6-,7+/m1/s1
