19
gdb 449	4.0421374	0.9345829	0.8726875	2.1601	76.55	-0.25074	0.06984	0.32058000000000003	1383.6834	0.156041	-422.491488	-422.482954	-422.48201	-422.525429	31.378	
C	 3.1374265405	-1.273016945	 0.7997912817	-0.265209
C	 3.7505002228	 0.0943539079	 0.9323184981	-0.270753
C	 2.4168845674	-0.0698134732	 0.2382030918	-0.006286
C	 1.1847346805	 0.4317928106	 0.9049402411	-0.03717
O	-0.0835602086	 0.0649783431	 0.3121129181	-0.28401
C	 0.29943925	 1.4217135542	 0.2939799185	 0.344202
C	-0.5130678144	 2.5731223315	 0.8785926399	-0.1545
O	-0.2394711696	 3.3690946501	-0.2967531765	-0.275903
C	 0.4459986424	 2.2818811112	-0.9583941226	-0.153457
H	 3.57647465	-1.9727515604	 0.098067347	 0.119599
H	 2.725648488	-1.7348931317	 1.6909441915	 0.119287
H	 3.7561781378	 0.5562984294	 1.9142124698	 0.11659
H	 4.611845077	 0.3412916536	 0.3225023175	 0.119522
H	 2.4105595774	 0.0317181215	-0.8426551566	 0.090633
H	 1.1903193078	 0.3638141806	 1.9956671466	 0.091687
H	-1.5817215598	 2.3511331381	 0.9955189702	 0.11421
H	-0.1316747838	 3.0403536206	 1.7944510847	 0.108464
H	-0.1060204769	 1.905997307	-1.829398148	 0.11365
H	 1.4648537415	 2.5558083907	-1.2582357427	 0.109445
59.2447	102.9114	128.9777	153.3655	288.8526	324.0298	376.2398	414.4119	496.6031	599.7099	765.183	820.1321	835.5631	854.8275	891.5409	908.1645	925.974	947.2897	977.2683	1018.3516	1021.6533	1063.3205	1076.1966	1085.9532	1125.9614	1129.8578	1143.4483	1167.3428	1182.7808	1197.3349	1205.7906	1224.2483	1297.2711	1315.2021	1343.9095	1407.9043	1469.1396	1497.7258	1500.3927	1523.6569	1541.923	3008.2136	3019.4845	3060.5703	3061.8655	3079.4664	3133.7699	3137.9633	3156.6335	3213.1395	3228.1933
C1CC1C1OC11COC1	C1CC1[C@@H]1OC21COC2	
InChI=1S/C7H10O2/c1-2-5(1)6-7(9-6)3-8-4-7/h5-6H,1-4H2	InChI=1S/C7H10O2/c1-2-5(1)6-7(9-6)3-8-4-7/h5-6H,1-4H2/t6-/m0/s1
