19
gdb 1312	4.4744552	0.5515241	0.5134261	2.9562	82.74	-0.2537	-0.03292	0.22077999999999998	2230.2144	0.152947	-422.542899	-422.531978	-422.531034	-422.581887	36.971	
C	 2.6383661245	-1.9603186557	-0.9239450246	-0.38433
C	 1.9674404122	-2.1715124873	 0.4258468368	 0.147585
O	 1.2511553488	-3.3911355709	 0.3524067843	-0.432258
C	 1.0227761833	-0.9981919051	 0.78392445	-0.352654
C	 0.3242834629	-1.2302296741	 2.0434825746	 0.002173
C	-0.2180152253	-1.4745628811	 3.092325449	 0.101522
C	-0.9321561525	-1.7568934507	 4.3297165533	-0.415401
C	-2.3278309101	-2.3341301094	 4.0784332748	 0.169786
O	-2.8173357041	-3.2040087598	 4.7449819876	-0.227615
H	 3.2903133594	-2.8067700568	-1.1536520904	 0.128382
H	 1.8860003302	-1.8852481698	-1.7155457272	 0.123981
H	 3.2405053272	-1.0468237655	-0.9225553823	 0.112435
H	 2.7399358794	-2.2285593146	 1.2103876386	 0.073203
H	 0.7681396018	-3.4907030156	 1.1815579546	 0.284021
H	 1.5994416601	-0.0662990378	 0.837670898	 0.12734
H	 0.2931429521	-0.8794346227	-0.0272181576	 0.134391
H	-0.38840167	-2.4491726645	 4.9807145299	 0.154728
H	-1.0742712729	-0.8269804541	 4.9020067383	 0.157293
H	-2.8668567371	-1.8684244446	 3.2250799626	 0.095416
11.3204	42.8855	67.949	92.6965	136.8276	223.1178	251.2881	292.347	331.3784	389.2455	402.1652	449.1007	461.5642	490.0469	550.7434	721.4842	817.2056	840.5361	907.6407	944.5196	1033.6042	1042.2076	1054.898	1102.008	1154.5318	1159.8149	1211.2631	1240.0906	1288.6038	1294.0896	1307.5746	1382.0504	1400.9753	1414.707	1441.1643	1443.0725	1459.197	1483.7026	1499.8875	1841.5559	2358.8822	2901.7757	2963.7803	3000.6828	3021.7144	3042.0697	3061.7054	3079.087	3114.8091	3124.8129	3782.4177	11.3186	42.8836	67.948	92.6964	136.8274	223.1183	251.2881	292.3471	331.3788	389.2442	402.1641	449.1006	461.5643	490.0473	550.7435	721.4842	817.2057	840.5361	907.6405	944.5194	1033.6042	1042.2076	1054.8978	1102.0077	1154.5315	1159.8149	1211.2632	1240.0901	1288.6037	1294.0894	1307.5743	1382.0496	1400.975	1414.7072	1441.1645	1443.0724	1459.1965	1483.7021	1499.8871	1841.5553	2358.8824	2901.7756	2963.7802	3000.6828	3021.7144	3042.0697	3061.7054	3079.087	3114.8091	3124.8129	3782.4167
CC(O)CC#CCC=O	C[C@H](O)CC#CCC=O	
InChI=1S/C7H10O2/c1-7(9)5-3-2-4-6-8/h6-7,9H,4-5H2,1H3	InChI=1S/C7H10O2/c1-7(9)5-3-2-4-6-8/h6-7,9H,4-5H2,1H3/t7-/m0/s1
