19
gdb 1376	3.3919138	0.7519853	0.6563268	2.6303	78.92	-0.25918	-0.03146	0.22772000000000003	1687.9617	0.152809	-422.549781	-422.53915	-422.538206	-422.586379	37.322	
C	 5.2924851221	 1.9671515341	 3.0969280937	-0.482309
C	 5.434248916	 2.0155689258	 1.5943042718	 0.364731
O	 6.0897393607	 2.8660645527	 1.0292785474	-0.317196
C	 4.7234230822	 0.9538215655	 0.7481715551	 0.030917
O	 5.0236253777	 1.1533439019	-0.6064633877	-0.436907
C	 3.2010200389	 0.9693972085	 0.9801421576	-0.203036
C	 2.4890896924	-0.0642380034	 0.0851109176	-0.352601
C	 1.044159134	-0.0636297574	 0.2717130765	 0.287774
C	-0.1449043292	-0.0421259328	 0.4470842956	-0.433945
H	 5.3340283367	 0.9399442603	 3.4707386695	 0.141586
H	 6.073875045	 2.5714760052	 3.5594473775	 0.152047
H	 4.3175121119	 2.3774991475	 3.3845067975	 0.160083
H	 5.1120255879	-0.0281312727	 1.0754001043	 0.087245
H	 5.5843413665	 1.9472450005	-0.6257548848	 0.293908
H	 2.9775034481	 0.7571329713	 2.030892134	 0.108934
H	 2.813329555	 1.9689795245	 0.754305568	 0.119755
H	 2.7372070505	 0.150461386	-0.959463351	 0.158606
H	 2.8872513024	-1.0656350518	 0.2970461655	 0.126864
H	-1.1971887988	-0.0339010957	 0.5874943821	 0.193546
51.9584	79.8485	94.3391	105.7176	122.9462	213.2827	258.4984	325.24	350.6209	399.7211	445.6472	477.8906	502.4454	597.1987	615.7662	637.8757	640.7255	774.6958	816.7286	938.3965	957.7637	973.9328	999.8567	1055.6025	1088.8455	1140.1084	1186.0351	1220.8916	1252.0161	1293.4034	1313.9423	1361.7285	1376.001	1386.8639	1438.1018	1463.892	1470.1167	1475.6315	1487.2406	1795.0707	2239.009	2939.4157	3021.2583	3041.1435	3044.6095	3074.683	3096.5571	3106.8428	3153.172	3507.5118	3658.4795
CC(=O)C(O)CCC#C	CC(=O)[C@H](O)CCC#C	
InChI=1S/C7H10O2/c1-3-4-5-7(9)6(2)8/h1,7,9H,4-5H2,2H3	InChI=1S/C7H10O2/c1-3-4-5-7(9)6(2)8/h1,7,9H,4-5H2,2H3/t7-/m1/s1
