19
gdb 5387	2.297028	1.612605	1.0933518	1.9183	79.22	-0.21101	0.0058	0.21681	1140.9134	0.156533	-422.538425	-422.529691	-422.528746	-422.572129	32.693	
O	 1.5342001587	 0.9938302051	 0.2940764791	-0.403713
C	 0.710032958	 0.010638536	 0.918302653	-0.18448
C	-0.7432076175	 0.375753133	 0.9213344726	 0.230624
C	-1.7385529221	-0.2903416234	 0.3341950665	-0.231865
C	-3.0455844234	 0.4025867809	 0.5920035628	-0.130826
O	-2.704945568	 1.5632045928	 1.3467050046	-0.312614
C	-1.312236944	 1.5677154486	 1.6056417154	 0.383757
C	-0.8616486227	 2.0679401931	 2.9561415649	-0.331707
C	-0.6394794372	 2.909502735	 1.7136548007	-0.33082
H	 1.1810363931	 1.1425835879	-0.5898007147	 0.284899
H	 0.8372333913	-0.9739964233	 0.4453190997	 0.099039
H	 1.0906870576	-0.0698324394	 1.9429723656	 0.121143
H	-1.6503076842	-1.2086236841	-0.2333949173	 0.102696
H	-3.559727103	 0.7024200546	-0.3346197384	 0.10725
H	-3.74858468	-0.2272726996	 1.1615599436	 0.106704
H	-1.6527215296	 2.3723703421	 3.6320874972	 0.123834
H	-0.0039873309	 1.606335549	 3.4340536861	 0.113453
H	-1.2806657561	 3.7735733427	 1.5788156397	 0.120378
H	 0.36850908	 3.0004277491	 1.327605019	 0.132247
64.4431	86.327	173.3383	229.396	261.7525	312.93	354.9521	393.9218	431.274	542.8824	613.8688	701.7568	771.8498	781.8914	819.1622	866.4613	895.1166	926.5859	943.8834	971.9472	989.2816	1044.0584	1045.9777	1050.0587	1070.4253	1092.4929	1155.2087	1193.7311	1198.485	1203.1918	1237.7294	1303.3056	1360.5198	1381.7951	1408.5198	1419.8787	1447.0439	1487.3632	1501.1998	1520.7633	1709.8837	2966.0909	2986.0212	2998.3742	3061.4145	3131.9036	3140.0637	3210.2332	3220.4657	3240.8509	3808.1739
OCC1=CCOC11CC1	OCC1=CCOC21CC2	
InChI=1S/C7H10O2/c8-5-6-1-4-9-7(6)2-3-7/h1,8H,2-5H2	InChI=1S/C7H10O2/c8-5-6-1-4-9-7(6)2-3-7/h1,8H,2-5H2
