19
gdb 1806	2.8422878	1.4988149	1.3859054	3.2924	75.64	-0.23137	0.0816	0.31296999999999997	1040.5786	0.155753	-422.477759	-422.469526	-422.468582	-422.510449	31.423	
C	 2.6105969199	-0.1852067536	-2.4334754386	-0.5218
C	 2.44337316	-0.3136784062	-0.953372691	 0.324093
C	 2.5771958494	-1.5399907375	-0.0103697786	-0.275719
C	 2.470532582	-0.2677956219	 0.8603439267	-0.040758
O	 3.4019373456	 0.4105810114	-0.0674036412	-0.348953
C	 1.3046562387	 0.2081697154	-0.032015264	 0.50598
C	-0.1671120261	-0.2370397018	 0.0026121254	-0.390515
C	-0.4579279048	 1.2754100481	-0.0356030199	-0.082126
O	 0.9531590236	 1.5872003754	-0.0744435825	-0.320706
H	 1.8665092852	-0.7962514753	-2.9547020857	 0.122713
H	 2.4791509337	 0.8585144855	-2.7335798412	 0.144958
H	 3.6067540097	-0.5170108557	-2.7404159122	 0.135528
H	 1.7681219826	-2.2753750788	 0.0189066084	 0.095167
H	 3.5684388941	-1.993509239	-0.0102108716	 0.110571
H	 2.6367588033	-0.135306184	 1.9293654861	 0.094121
H	-0.5043074681	-0.8030427487	-0.8679598558	 0.115498
H	-0.478521057	-0.7555822118	 0.9111394177	 0.117471
H	-0.9791998339	 1.640806522	-0.9275131334	 0.106888
H	-0.940168778	 1.6903404763	 0.8566878816	 0.107589
85.1185	174.2824	186.8333	198.5732	223.0409	332.6212	429.4594	455.677	544.1949	648.8832	654.7416	742.4659	753.2002	803.3743	866.7021	875.8244	909.0866	946.3792	975.8369	1004.2151	1011.9602	1022.6274	1101.0553	1123.0643	1133.4684	1152.4484	1163.603	1166.4482	1199.3606	1222.4903	1228.4643	1249.8564	1293.029	1352.9719	1363.7512	1412.1658	1475.4272	1484.1312	1486.4362	1491.1152	1531.551	3026.9086	3039.4685	3059.3928	3068.6249	3075.9443	3112.0108	3119.7262	3123.1711	3129.6632	3149.9209
CC12CC(O1)C21CCO1	C[C@@]12C[C@@H](O1)[C@@]12CCO1	
InChI=1S/C7H10O2/c1-6-4-5(9-6)7(6)2-3-8-7/h5H,2-4H2,1H3	InChI=1S/C7H10O2/c1-6-4-5(9-6)7(6)2-3-8-7/h5H,2-4H2,1H3/t5-,6+,7-/m1/s1
