19
gdb 1647	2.5838157	1.4560679	1.11297	0.9321	75.74	-0.24777	-0.0316	0.21616999999999997	1142.4074	0.155088	-422.538497	-422.529562	-422.528618	-422.572307	33.057	
C	 0.1851214786	-2.9298307535	-1.1872237438	-0.473047
C	-0.9691475528	-1.9458197104	-1.1893565655	 0.338122
C	-2.312301354	-2.3795608732	-1.7215369424	-0.307929
C	-1.4705165731	-1.3961832248	-2.501815331	-0.305119
C	-0.9580263202	-1.0311982752	 0.0178071284	-0.064161
O	-2.0191510026	-0.0421629104	 0.047085485	-0.292441
C	-1.1173482169	 1.0844333348	 0.0717868205	-0.192033
C	 0.0692205707	 0.1155210687	 0.0162206235	 0.352332
O	 1.2572890217	 0.2061938705	-0.0341303848	-0.277842
H	 0.142781548	-3.588327224	-0.3112525638	 0.117353
H	 0.157012816	-3.5617203681	-2.0796344992	 0.118079
H	 1.148387749	-2.4093330741	-1.1683608536	 0.142555
H	-2.4014250183	-3.3956568048	-2.0912763716	 0.111498
H	-3.1991520589	-1.989904853	-1.2352493645	 0.129396
H	-0.9818270652	-1.7338902468	-3.4091090678	 0.111394
H	-1.820427994	-0.370419682	-2.5298055019	 0.118412
H	-0.9418508981	-1.6230579184	 0.9458059692	 0.103928
H	-1.2316380112	 1.7462702518	-0.7957637507	 0.135216
H	-1.1947862289	 1.6735413028	 0.9943291641	 0.134286
68.3969	113.6907	126.3579	220.4758	244.0169	296.3846	326.1534	377.2567	424.6962	487.6916	561.29	696.7699	719.5301	789.278	828.4508	874.3877	915.2536	926.7828	954.816	1007.5606	1019.7713	1042.9205	1048.9279	1067.9466	1086.1295	1090.555	1127.8736	1141.5307	1192.971	1241.2472	1273.3415	1296.6173	1344.5396	1357.0055	1418.1868	1456.2558	1479.1869	1490.2529	1496.2704	1509.6399	1920.2492	2991.7588	3019.7225	3026.7761	3067.7649	3089.9168	3109.9208	3133.8247	3136.8175	3217.0312	3230.1165
CC1(CC1)C1OCC1=O	CC1(CC1)[C@@H]1OCC1=O	
InChI=1S/C7H10O2/c1-7(2-3-7)6-5(8)4-9-6/h6H,2-4H2,1H3	InChI=1S/C7H10O2/c1-7(2-3-7)6-5(8)4-9-6/h6H,2-4H2,1H3/t6-/m1/s1
