19
gdb 3427	3.2353584	1.2431842	0.9765272	0.4772	78.29	-0.22244	0.0209	0.24334	1209.9577	0.157737	-422.531396	-422.523	-422.522055	-422.564299	31.847	
O	 0.2895987192	-0.154781009	 0.2572307162	-0.425188
C	-0.6596673396	 0.6491520926	 0.8879377567	 0.117357
C	-1.4761248484	 0.192511908	 2.0664956577	-0.100274
C	-2.9448650671	 0.5409597021	 2.1920792944	-0.120426
O	-3.2328872567	 1.1664468755	 3.4323625476	-0.233694
C	-3.1854410938	 2.5746746644	 3.389257313	-0.131919
C	-1.8936821223	 3.2304408997	 2.9805039126	-0.05661
C	-0.7592135315	 2.7021423721	 2.516050624	-0.083622
C	-0.4294553426	 1.2821022188	 2.2470312095	-0.123966
H	 0.7144111915	-0.709138897	 0.9194702239	 0.284437
H	-1.1682011065	 1.2575128485	 0.1461977798	 0.110742
H	-1.2005719904	-0.7698685912	 2.4918338865	 0.082322
H	-3.2674527758	 1.1834133732	 1.3594916055	 0.094213
H	-3.5507122043	-0.3707861141	 2.1530999087	 0.107883
H	-3.9842718044	 2.9582250631	 2.7244870691	 0.095619
H	-3.4489944131	 2.9106425135	 4.4005584946	 0.118861
H	-1.940117719	 4.3156924843	 3.0742469616	 0.087956
H	 0.0505790426	 3.3954617368	 2.2891145483	 0.089133
H	 0.4933023323	 0.9482281687	 2.7219533405	 0.087177
94.5953	140.1289	199.278	238.1647	290.2647	302.0432	379.6512	399.2299	422.6713	485.4918	652.8108	710.3897	773.8965	838.1784	870.1068	880.8779	926.453	963.9003	986.6397	1007.0806	1030.2991	1049.1146	1064.3623	1081.9909	1130.3763	1141.974	1177.9343	1221.4348	1250.0967	1278.8107	1299.6793	1328.8455	1352.0574	1392.2203	1399.8405	1417.6393	1430.1079	1468.7834	1475.3029	1497.3353	1735.7097	2914.7307	2993.9964	3037.3984	3063.8024	3097.8661	3113.7208	3133.0008	3137.4894	3164.4676	3822.3129
OC1C2COCC=CC12	O[C@H]1[C@@H]2COCC=C[C@H]12	
InChI=1S/C7H10O2/c8-7-5-2-1-3-9-4-6(5)7/h1-2,5-8H,3-4H2	InChI=1S/C7H10O2/c8-7-5-2-1-3-9-4-6(5)7/h1-2,5-8H,3-4H2/t5-,6+,7+/m0/s1
