19
gdb 4569	1.9379258	1.6331418	1.4650836	1.1321	76.66	-0.24912	0.03587	0.28499	1070.3562	0.15431	-422.531598	-422.52194	-422.520996	-422.565929	35.158	
C	-0.0570187173	-0.0697296059	-0.0052689241	-0.417231
C	 1.2310650992	 0.4295589305	 0.6189415661	 0.119376
O	 2.1356583242	 0.8321116939	-0.4040270339	-0.2765
C	 3.4528859705	 0.637582957	 0.0741354754	 0.016996
O	 3.370032793	 0.040834204	 1.3512605756	-0.270785
C	 2.0792204704	-0.5791764485	 1.441031012	 0.136719
C	 1.6934271472	-0.6585126115	 2.9160418808	-0.440827
C	 2.1089669342	-1.9160794817	 0.8284997097	 0.37221
C	 2.1479248411	-3.0144986384	 0.3417366384	-0.508337
H	-0.7658005285	-0.3722398719	 0.7721356942	 0.118139
H	-0.5173914607	 0.7285098848	-0.5933638185	 0.129138
H	 0.1360411589	-0.9224759978	-0.6592665966	 0.139414
H	 1.0198861255	 1.2801890343	 1.2870060222	 0.071254
H	 3.9867327695	-0.0075688263	-0.6393561518	 0.104435
H	 3.9843163781	 1.5919039196	 0.1892123026	 0.106381
H	 2.3888169273	-1.3070596559	 3.4529688083	 0.140842
H	 1.7271817699	 0.3398418241	 3.3593289321	 0.127109
H	 0.6858720607	-1.0691842259	 3.023555119	 0.130112
H	 2.1868094367	-3.9847761141	-0.0891683114	 0.201559
71.3057	103.6712	148.425	195.3915	210.8756	222.406	258.5561	319.8778	374.9619	463.8453	498.6796	583.137	635.3549	639.2761	664.1116	706.6509	752.0328	875.3112	890.6282	911.6401	1015.8811	1043.5352	1087.79	1133.6113	1142.7202	1153.2052	1161.1164	1195.3846	1211.4126	1241.1603	1352.1789	1379.7761	1405.3877	1413.7099	1430.8823	1478.9106	1483.9274	1493.214	1496.8555	1549.8595	2228.8949	2969.3314	2988.9321	3031.9881	3047.976	3051.5874	3117.2567	3130.1208	3137.2711	3139.8391	3497.953
CC1OCOC1(C)C#C	C[C@@H]1OCO[C@]1(C)C#C	
InChI=1S/C7H10O2/c1-4-7(3)6(2)8-5-9-7/h1,6H,5H2,2-3H3	InChI=1S/C7H10O2/c1-4-7(3)6(2)8-5-9-7/h1,6H,5H2,2-3H3/t6-,7+/m0/s1
