19
gdb 5750	3.5711418	1.3222128	1.1675456	3.0071	73.26	-0.22597	0.06828	0.29425	1092.8529	0.158493	-422.522937	-422.515312	-422.514368	-422.555062	29.967	
O	 1.3764834867	 0.7201434674	-0.1368040144	-0.422179
C	 0.3282491502	-0.1105646685	 0.3442471872	-0.085593
C	-0.759758009	 0.6746641968	 1.0745683811	 0.003974
C	-1.9295881432	-0.2059593546	 1.6083431799	-0.265613
C	-3.1824598269	 0.6295729144	 1.3457588701	-0.086084
C	-3.4063902327	 1.0745563747	-0.0867025785	 0.102915
O	-2.2092889799	 0.9231854937	-0.8507658345	-0.310588
C	-1.4861139962	 1.6821783957	 0.1814033486	 0.094467
C	-2.8103338133	 2.0321288727	 0.8938841338	-0.166709
H	 1.8371692941	 1.0845891157	 0.6256453301	 0.2791
H	-0.1106471664	-0.5831046425	-0.5395742701	 0.131704
H	 0.7177898917	-0.9104935381	 0.9930370089	 0.084317
H	-0.3031063166	 1.2263713608	 1.9103442823	 0.058921
H	-1.9706574909	-1.1642315129	 1.078848301	 0.11006
H	-1.8163700293	-0.4271553992	 2.6733075201	 0.100001
H	-4.0682902782	 0.4979495228	 1.9574849766	 0.087529
H	-4.3532777417	 1.049326531	-0.6133292102	 0.101606
H	-0.8739406515	 2.4680047179	-0.2603313002	 0.087183
H	-3.1421604669	 2.975743372	 1.3030004281	 0.09499
95.5845	145.1503	205.7265	290.0132	324.9366	389.3179	489.2552	543.0731	633.1342	721.4123	753.4677	798.2452	804.6381	860.5961	873.2845	900.3363	930.4378	976.7497	999.5871	1013.9803	1029.8604	1041.3714	1049.1642	1074.6833	1084.506	1102.9483	1119.9243	1173.9103	1204.8762	1232.0852	1255.8346	1269.8022	1293.4363	1299.6168	1343.8038	1366.3323	1389.5543	1405.9749	1412.1386	1491.6841	1504.8658	2981.3771	2992.4864	3044.5658	3087.2418	3093.786	3123.134	3174.0228	3183.3013	3212.406	3813.6002
OCC1CC2C3OC1C23	OC[C@@H]1C[C@@H]2[C@@H]3O[C@H]1[C@H]23	
InChI=1S/C7H10O2/c8-2-3-1-4-5-6(3)9-7(4)5/h3-8H,1-2H2	InChI=1S/C7H10O2/c8-2-3-1-4-5-6(3)9-7(4)5/h3-8H,1-2H2/t3-,4-,5-,6+,7-/m0/s1
