19
gdb 4203	2.360409	1.50249	1.2203395	0.8988	74.4	-0.25674	-0.03044	0.22630000000000003	1098.8222	0.15651	-422.564314	-422.555856	-422.554912	-422.597731	31.473	
C	 1.0616624388	-0.7400923452	-0.9233872784	-0.41119
C	 0.9348720433	 0.2546732555	 0.2359456993	 0.00801
C	 1.4017086426	-0.3447026281	 1.5968869835	-0.261729
C	 2.799088473	 0.1915650203	 1.8155726943	 0.059394
O	 3.6671124505	 0.0326239482	 0.6781794292	-0.259329
C	 3.0494400729	 1.3032833343	 0.8918121437	 0.03143
C	 1.8114412659	 1.520168565	 0.0247117937	-0.134585
C	 1.1376026637	 2.8233367629	 0.4165715675	 0.138435
O	 0.0103000853	 2.9306632772	 0.825608198	-0.2364
H	 0.4350821712	-1.6206967714	-0.7463120356	 0.111527
H	 0.7364891353	-0.2873174982	-1.8665534154	 0.108972
H	 2.0961416012	-1.0734317727	-1.0398861796	 0.137729
H	-0.106716549	 0.5739445771	 0.3203834462	 0.102661
H	 0.7625134228	-0.0028900426	 2.4190969736	 0.114218
H	 1.3735960225	-1.4391212386	 1.5929831805	 0.11012
H	 3.2895259846	 0.1103215948	 2.7823632568	 0.097679
H	 3.7282550554	 2.1259266766	 1.1071864471	 0.097934
H	 2.1162766003	 1.6394382774	-1.0258226388	 0.104056
H	 1.7843345698	 3.7236155876	 0.2955017545	 0.081068
56.346	120.5061	189.0353	231.4865	252.798	297.8143	376.0303	404.2139	424.4992	665.8787	685.1092	709.1717	783.8993	816.1891	861.757	889.6852	910.492	965.2198	975.6311	1009.4742	1027.8567	1056.11	1058.7925	1120.234	1139.5214	1148.6513	1211.9646	1232.1574	1268.292	1282.6549	1292.0104	1322.5995	1363.9397	1369.2666	1403.5173	1422.1096	1447.7793	1481.1984	1496.8934	1511.9728	1829.0392	2858.7921	3005.5053	3031.5676	3042.1649	3078.5497	3086.2525	3094.9763	3124.2532	3132.2837	3151.6038
CC1CC2OC2C1C=O	C[C@H]1C[C@H]2O[C@H]2[C@@H]1C=O	
InChI=1S/C7H10O2/c1-4-2-6-7(9-6)5(4)3-8/h3-7H,2H2,1H3	InChI=1S/C7H10O2/c1-4-2-6-7(9-6)5(4)3-8/h3-7H,2H2,1H3/t4-,5+,6+,7-/m0/s1
