19
gdb 3508	2.4289191	1.5237073	0.9811744	2.5382	78.69	-0.23918	0.00659	0.24577000000000002	1191.3992	0.157703	-422.564365	-422.555851	-422.554906	-422.597595	32.966	
O	 0.6497085153	 1.8870277732	-0.0810014811	-0.448937
C	-0.4590231149	 2.0418275559	 0.7856652386	 0.058393
C	-1.0011330363	 3.4293340722	 0.5857071189	-0.058617
C	-2.0881264785	 3.9617629504	 1.1367975719	-0.067081
C	-3.0554863281	 3.336886917	 2.1054839919	-0.313172
C	-3.2352065873	 1.8449484552	 2.1527300594	-0.050215
C	-2.6316499626	 0.867153252	 1.4768810061	-0.09738
C	-1.4932097295	 0.9332821377	 0.4961829507	 0.04554
O	-0.8062277597	-0.3280904654	 0.4520606205	-0.444018
H	 0.7740683099	 0.9319299483	-0.1643358642	 0.284031
H	-0.1399275951	 1.9165167998	 1.8378776908	 0.064863
H	-0.3982131152	 4.0299587785	-0.0895342858	 0.104574
H	-2.3140300982	 4.9985637494	 0.8967300601	 0.091634
H	-2.8135074693	 3.6878856882	 3.1235975544	 0.128536
H	-4.0504689852	 3.7684768761	 1.9201385614	 0.123221
H	-4.0293585209	 1.5415906198	 2.8339050087	 0.092541
H	-2.9833241101	-0.150426986	 1.6400403994	 0.092313
H	-1.8587725747	 1.0729546677	-0.5278083383	 0.11204
H	-0.6059459597	-0.57868591	 1.3622072063	 0.281735
58.5024	106.1632	269.874	298.5465	330.8679	359.3414	383.9673	398.0481	459.3844	476.9007	553.3788	559.3849	683.1295	704.337	711.1469	811.6507	870.4892	942.3387	960.5402	983.3529	1005.795	1021.879	1047.5178	1082.2429	1095.1371	1111.4256	1212.0774	1230.2966	1245.4387	1256.2622	1278.5063	1312.2481	1364.0242	1391.694	1395.4482	1409.5066	1434.4688	1442.9353	1451.4341	1734.9447	1745.1463	2910.7979	2967.4759	3005.2664	3047.7216	3122.7013	3143.1547	3146.5628	3176.0116	3756.3626	3783.2211
OC1C=CCC=CC1O	O[C@H]1C=CCC=C[C@@H]1O	
InChI=1S/C7H10O2/c8-6-4-2-1-3-5-7(6)9/h2-9H,1H2	InChI=1S/C7H10O2/c8-6-4-2-1-3-5-7(6)9/h2-9H,1H2/t6-,7-/m0/s1
