19
gdb 5051	2.5431128	1.5364169	1.1179091	1.9071	75.79	-0.2432	0.00246	0.24566	1128.5653	0.155829	-422.556487	-422.547627	-422.546683	-422.58994	33.502	
C	-2.6392497042	-2.3107319177	 0.6944848827	-0.496421
C	-1.9310542321	-1.5558525469	 1.7844165608	 0.315648
O	-0.6053429091	-2.0347075354	 2.1481467001	-0.346767
C	-0.7384914581	-0.6847500208	 1.6560141894	 0.303862
C	 0.0457978704	-0.4103310038	 0.400969795	-0.1526
O	 1.4409608988	-0.4017247135	 0.6678319193	-0.418612
C	-0.7861035455	 0.3521724172	 2.7787749943	-0.324521
C	-2.040230495	-0.0181032148	 3.5391595659	-0.085654
C	-2.6797887653	-1.0475257068	 2.9819083973	-0.122355
H	-3.0634023788	-3.2391014376	 1.0928246626	 0.130858
H	-3.4623961199	-1.7161820878	 0.2845393439	 0.127542
H	-1.9575631396	-2.575219652	-0.1159891449	 0.132219
H	-0.2071965234	-1.1498811834	-0.3714249864	 0.090114
H	-0.1962163336	 0.5834648243	 0.0095371321	 0.10816
H	 1.6472841612	-1.2581066662	 1.06023753	 0.293487
H	 0.1123149102	 0.3064635055	 3.4044219157	 0.129794
H	-0.837007207	 1.3717599334	 2.3745874977	 0.112256
H	-2.341672311	 0.4924030205	 4.4468616451	 0.102501
H	-3.5989092079	-1.4997680042	 3.3350857595	 0.100489
61.7293	144.9839	176.2045	218.2752	273.8983	293.0947	339.4879	424.9035	436.1446	476.6634	528.7928	604.7006	698.3741	723.5905	751.7648	812.5834	886.5652	901.1546	944.2758	952.789	953.9796	1007.2971	1041.6295	1068.4482	1096.8646	1149.1508	1158.5105	1200.0797	1227.3782	1257.631	1323.5326	1368.5179	1372.3739	1409.8174	1425.7662	1448.2738	1460.7093	1485.6421	1490.7215	1499.7616	1668.8849	3007.1302	3028.0907	3037.7992	3070.74	3076.5527	3097.4602	3132.3039	3188.8482	3214.0134	3796.6965
CC12OC1(CO)CC=C2	C[C@@]12O[C@]1(CO)CC=C2	
InChI=1S/C7H10O2/c1-6-3-2-4-7(6,5-8)9-6/h2-3,8H,4-5H2,1H3	InChI=1S/C7H10O2/c1-6-3-2-4-7(6,5-8)9-6/h2-3,8H,4-5H2,1H3/t6-,7-/m0/s1
