19
gdb 2564	3.3146614	1.3464467	1.1687503	2.0329	76.49	-0.24766	0.01475	0.26241	1116.3521	0.158638	-422.578309	-422.570411	-422.569466	-422.611009	29.882	
C	 1.279534543	 0.4937119722	-0.8796011769	-0.4884
C	-0.0714741891	-0.0370572769	-0.5179531926	 0.320509
C	-0.3640506658	-1.2535512292	-0.0501732804	-0.204868
C	-1.8349782977	-1.4493263617	 0.2048932125	 0.041878
O	-2.1690428071	-1.7016120445	 1.5739338396	-0.250639
C	-2.2917457639	-0.4325223164	 2.1610555602	 0.014146
O	-2.8858065273	 0.4102460706	 1.1946761357	-0.262018
C	-2.4553515362	-0.0458056865	-0.0867887674	 0.074014
C	-1.3173292222	 0.8074987234	-0.6891417232	-0.320511
H	 1.5134161323	 1.3948697467	-0.2989963972	 0.130611
H	 2.0671751857	-0.2431370341	-0.7025139891	 0.126871
H	 1.316745683	 0.7886049567	-1.9360130371	 0.128636
H	 0.358208723	-2.039015578	 0.143770115	 0.093652
H	-2.2719711451	-2.268999671	-0.3731328519	 0.088374
H	-2.9517673405	-0.5038999897	 3.0304803653	 0.11624
H	-1.3056560783	-0.0383219342	 2.4629727831	 0.082242
H	-3.3369295961	-0.0794905666	-0.7315951668	 0.085288
H	-1.4997238004	 1.0269606425	-1.7498201487	 0.106117
H	-1.2484709572	 1.7752869966	-0.17896493	 0.117857
74.3191	124.5321	180.9725	250.2829	291.3455	408.7974	410.8218	486.2734	601.8927	607.6309	738.7392	818.2582	831.5229	875.7344	881.0383	904.2713	963.2499	992.9664	1000.359	1022.0694	1045.894	1055.4472	1084.9827	1104.9101	1173.7099	1181.4305	1202.4114	1230.6355	1270.2645	1286.9128	1302.6104	1345.6129	1355.9077	1372.9821	1413.5469	1428.1513	1472.2153	1478.8418	1486.3449	1540.6912	1717.1011	2948.1209	3016.8409	3021.3837	3060.3267	3062.7658	3067.347	3078.8723	3086.4497	3115.0877	3192.9565
CC1=CC2OCOC2C1	CC1=C[C@H]2OCO[C@H]2C1	
InChI=1S/C7H10O2/c1-5-2-6-7(3-5)9-4-8-6/h2,6-7H,3-4H2,1H3	InChI=1S/C7H10O2/c1-5-2-6-7(3-5)9-4-8-6/h2,6-7H,3-4H2,1H3/t6-,7+/m1/s1
