19
gdb 5629	3.2397796	1.2811979	1.0301622	1.7049	76.63	-0.24497	0.00196	0.24692999999999998	1187.531	0.157531	-422.531198	-422.522984	-422.52204	-422.564414	30.414	
C	 1.3859498027	-0.059150378	-0.1799070653	-0.237836
O	 0.0290203748	-0.2541871424	 0.1463023137	-0.249318
C	-0.430967878	 0.5801898928	 1.1999132192	 0.081169
C	-1.9422933713	 0.5815501106	 1.1965691261	-0.089778
C	-2.4694355002	 0.0688935158	 2.3080562319	-0.081925
C	-1.4113295609	-0.357595615	 3.2855408002	 0.0913
O	-1.1995078976	 0.5872906452	 4.3734576816	-0.296862
C	 0.0115218277	 1.0753800741	 3.7610221071	-0.086171
C	-0.079867293	 0.0523627842	 2.6082007811	-0.113295
H	 2.0587850063	-0.3003334718	 0.6575011337	 0.103236
H	 1.6174278076	-0.726074876	-1.0139136359	 0.12914
H	 1.5845198179	 0.9795256805	-0.488383719	 0.105009
H	-0.0293913702	 1.597507199	 1.0464992903	 0.065658
H	-2.4980391345	 0.9604153886	 0.346153898	 0.106202
H	-3.5294346947	-0.0186171757	 2.5186479785	 0.105825
H	-1.5406396684	-1.3722935229	 3.6770635652	 0.080934
H	-0.0715941247	 2.1281553217	 3.4575414181	 0.097318
H	 0.8732482029	 0.9655847005	 4.4297103892	 0.101816
H	 0.7156715435	-0.6915377211	 2.5823819765	 0.087576
75.2773	110.4032	171.8024	191.2305	274.6718	301.2951	407.7036	435.5905	537.6546	694.5631	743.8815	776.0761	857.3292	870.2528	905.8209	952.6315	982.2345	985.0886	1000.1987	1012.5522	1023.6733	1063.4513	1103.1457	1124.8957	1145.0142	1164.6031	1182.324	1200.0039	1220.8868	1263.2388	1293.6596	1304.1419	1335.6716	1353.254	1366.821	1394.8569	1478.7298	1488.2989	1509.3276	1519.8831	1677.6673	2941.5678	2972.1513	3003.3724	3016.7235	3049.3274	3052.6858	3114.4085	3121.7035	3188.4193	3212.6843
COC1C=CC2OCC12	CO[C@H]1C=C[C@@H]2OC[C@H]12	
InChI=1S/C7H10O2/c1-8-6-2-3-7-5(6)4-9-7/h2-3,5-7H,4H2,1H3	InChI=1S/C7H10O2/c1-8-6-2-3-7-5(6)4-9-7/h2-3,5-7H,4H2,1H3/t5-,6+,7+/m1/s1
