19
gdb 5986	4.3988089	0.9097058	0.8940545	2.5471	74.46	-0.22866	0.0702	0.29886	1350.5771	0.156711	-422.485235	-422.476935	-422.47599	-422.518634	31.36	
O	 1.5174906282	 0.6391831962	 0.0829730441	-0.416394
C	 0.5598750155	-0.281149626	 0.57987731	-0.053164
C	-0.3632831583	 0.3394888037	 1.6362101945	-0.350807
C	-1.4103677298	-0.6137871281	 2.1336543138	 0.303579
C	-1.2361690541	-1.8859187933	 2.9740688573	-0.288288
C	-2.7774486302	-1.8502657695	 3.1168270428	 0.069088
O	-3.2530521762	-2.1304570893	 1.7683613687	-0.296138
C	-2.7660519365	-0.8346948491	 1.4247877593	 0.058094
C	-2.7454896851	-0.3043198152	 2.8170247342	-0.209893
H	 2.0972116245	 0.8829597884	 0.8115898127	 0.280782
H	-0.0294588411	-0.5970982711	-0.2870280899	 0.117498
H	 1.0431153042	-1.1837044703	 0.9861588216	 0.092429
H	 0.2467492204	 0.696427092	 2.479670323	 0.088481
H	-0.8381341202	 1.2285040484	 1.2024439384	 0.107832
H	-0.8141139935	-2.7851980199	 2.5133787262	 0.100843
H	-0.7349757585	-1.6666885701	 3.9214201135	 0.100075
H	-3.3234693984	-2.3839156027	 3.8915117698	 0.088196
H	-3.0472523461	-0.3960457634	 0.4760528987	 0.108888
H	-3.1457302449	 0.5791251693	 3.2953861014	 0.098898
79.2313	98.0406	114.6677	282.8996	306.0837	337.089	351.6336	456.4143	534.6488	686.9066	746.2535	774.0499	789.2693	807.764	827.3313	908.5236	919.5456	944.0128	966.3421	989.6671	1014.9438	1041.5335	1053.2411	1064.9504	1078.0319	1125.8994	1145.8939	1161.4469	1182.6597	1212.7158	1241.8361	1276.0708	1305.7113	1314.8748	1331.3801	1394.5405	1409.3443	1422.3542	1482.3084	1489.3513	1512.6401	2982.1108	2994.1613	3041.9378	3048.9402	3080.6898	3102.9966	3146.9493	3198.6485	3212.4646	3816.2322
OCCC12CC3OC1C23	OCC[C@]12C[C@@H]3O[C@H]1[C@H]23	
InChI=1S/C7H10O2/c8-2-1-7-3-4-5(7)6(7)9-4/h4-6,8H,1-3H2	InChI=1S/C7H10O2/c8-2-1-7-3-4-5(7)6(7)9-4/h4-6,8H,1-3H2/t4-,5+,6-,7+/m0/s1
