19
gdb 2826	2.3884273	1.603154	1.2629896	3.2227	75.39	-0.22713	0.05678	0.28391	1090.9863	0.154697	-422.487513	-422.478784	-422.47784	-422.520146	33.954	
C	-0.9412273812	 2.4850561772	 4.3708415246	-0.500981
C	-0.8104680808	 1.4899868001	 3.2683420827	 0.432184
O	 0.4065099407	 0.698143363	 3.1962691692	-0.31832
C	-0.8804957625	 0.0336911414	 3.2115949576	-0.108056
C	-1.5292524805	 0.0589239756	 1.7954620492	 0.219848
C	-2.7079234054	-0.8114074485	 1.4680455217	-0.493003
C	-0.6900910993	 0.8051418008	 0.7910537447	 0.105889
O	 0.6746074685	 0.7201336984	 0.5657984261	-0.430762
C	-1.4156528429	 1.6172007134	 1.8411046407	-0.272029
H	-0.5520947634	 2.0721296047	 5.3050605908	 0.136817
H	-0.3841811687	 3.3991685874	 4.1360244577	 0.136473
H	-1.9909172223	 2.7601136831	 4.5162593129	 0.130755
H	-1.0354152477	-0.7169574584	 3.9789947296	 0.107154
H	-3.4792970821	-0.7639016343	 2.2466241093	 0.116616
H	-3.1707227117	-0.5044241857	 0.5248935619	 0.124745
H	-2.4066249536	-1.8611929757	 1.3636954161	 0.12682
H	-1.2032784959	 0.8703319554	-0.1677939022	 0.104137
H	 1.0781158898	 0.6818627924	 1.4440161543	 0.293516
H	-2.1740411109	 2.3537229995	 1.5997143131	 0.0882
142.9075	194.2071	199.5428	212.1865	265.6537	280.2857	319.8295	365.183	466.3326	529.4933	564.7806	590.7758	647.3027	667.3157	731.806	802.9823	857.0633	874.8901	905.5087	917.8983	963.4826	980.924	1011.6059	1076.219	1101.7038	1106.3168	1156.4531	1171.0434	1190.2014	1250.7675	1271.3063	1314.652	1384.1369	1408.882	1416.7981	1469.0962	1482.4931	1483.6564	1488.2344	1496.7901	1504.3379	3015.4156	3034.4432	3070.2502	3097.4736	3097.7522	3120.6548	3124.2525	3173.3327	3177.4623	3733.9281
CC12OC1C1(C)C(O)C21	C[C@@]12O[C@@H]1[C@]1(C)[C@H](O)[C@H]21	
InChI=1S/C7H10O2/c1-6-3(4(6)8)7(2)5(6)9-7/h3-5,8H,1-2H3	InChI=1S/C7H10O2/c1-6-3(4(6)8)7(2)5(6)9-7/h3-5,8H,1-2H3/t3-,4+,5+,6-,7-/m0/s1
