19
gdb 4100	2.1620265	1.5861021	1.434807	2.2117	75.65	-0.24403	-0.02668	0.21735	1052.585	0.155524	-422.555094	-422.546184	-422.54524	-422.588717	33.439	
C	-0.6667462775	-1.5725958654	-2.6129948553	-0.419338
C	-1.6271010238	-1.6120009604	-1.431250733	-0.010403
C	-2.7474604319	-0.5315925233	-1.3185625779	-0.251146
C	-2.2118080425	-0.0822274099	 0.0558175207	-0.104121
C	-1.0867097577	 0.9866026824	-0.0374673597	-0.352026
C	-0.0591039638	-0.1437647669	 0.1255860014	 0.314939
O	 1.0527528322	-0.18400565	 0.5821734399	-0.320289
C	-1.0898019697	-1.2540507441	-0.0137891264	 0.306308
O	-0.9116072647	-2.3551643511	 0.8066952126	-0.473363
H	 0.1541174067	-2.2837429143	-2.4741802421	 0.13136
H	-1.1836152864	-1.8340723945	-3.5425699713	 0.119195
H	-0.2288344862	-0.5774019108	-2.7483596709	 0.115983
H	-2.0569548819	-2.6138047841	-1.339220366	 0.09967
H	-2.7322377823	 0.2455949673	-2.0887864995	 0.097694
H	-3.7513131126	-0.9605140471	-1.2865416311	 0.107637
H	-2.8987961401	 0.0175924092	 0.8942431168	 0.085174
H	-1.0401627698	 1.5387519527	-0.9802856808	 0.125012
H	-1.0362321938	 1.7025904444	 0.7874399444	 0.134123
H	-0.1993410244	-2.1477024639	 1.4257293282	 0.293589
61.4918	96.0165	211.0198	221.2483	231.9042	343.7522	351.2899	379.0952	412.3419	493.4235	508.7518	605.3743	678.5184	756.9369	807.4662	825.6015	882.912	895.1715	944.094	976.393	1004.8004	1028.9338	1066.8361	1107.6347	1116.187	1126.9046	1159.4185	1202.7848	1211.9708	1222.2957	1272.9332	1291.9962	1329.7555	1368.9457	1379.1094	1410.4438	1442.9964	1492.0043	1494.7297	1496.9598	1849.6926	3028.6725	3053.7601	3059.5643	3061.6429	3095.5205	3102.3109	3108.2328	3111.2392	3133.1532	3764.5821
CC1CC2CC(=O)C12O	C[C@@H]1C[C@@H]2CC(=O)[C@]12O	
InChI=1S/C7H10O2/c1-4-2-5-3-6(8)7(4,5)9/h4-5,9H,2-3H2,1H3	InChI=1S/C7H10O2/c1-4-2-5-3-6(8)7(4,5)9/h4-5,9H,2-3H2,1H3/t4-,5-,7+/m1/s1
