19
gdb 5961	4.1883529	1.0028679	0.9385278	1.2515	75.45	-0.23004	0.06376	0.2938	1320.8581	0.154809	-422.460072	-422.451467	-422.450523	-422.49382	32.371	
C	 0.2759777517	-0.4317375334	-0.5891094716	-0.388189
C	 1.2419540418	 0.132263451	 0.4368124505	-0.060836
O	 1.3828686304	 1.5327139605	 0.1929085845	-0.286318
C	 2.2289818244	 2.1609091511	 1.0712518	 0.415291
C	 3.7313476855	 2.099588551	 1.0093059044	-0.347038
C	 3.0159565494	 3.4306980803	 0.8456005064	-0.20014
C	 2.4937515905	 3.9615107563	 2.2189567005	 0.027072
O	 2.8677665884	 3.0510339406	 3.2681916497	-0.236782
C	 1.7319357148	 2.7416963423	 2.4505262034	-0.063217
H	 0.14446619	-1.5069614272	-0.4357286713	 0.117368
H	-0.7009429571	 0.0529837575	-0.5065729367	 0.127546
H	 0.6541748721	-0.2687874124	-1.6023332101	 0.128115
H	 0.868623637	-0.0346205088	 1.4585393487	 0.09491
H	 2.2256056649	-0.3539967438	 0.364981894	 0.098898
H	 4.3351098387	 1.8984125065	 1.8852286361	 0.134812
H	 4.1060933909	 1.6993673911	 0.0721665357	 0.115796
H	 3.0905968161	 4.033241435	-0.0491178315	 0.103986
H	 2.3055564898	 4.9917444488	 2.4944386392	 0.110073
H	 0.7781111707	 2.5600589436	 2.9319265581	 0.108654
58.5672	89.0733	131.6118	244.4682	310.3137	330.6563	363.0373	412.6135	461.6498	565.7684	685.2414	746.0056	795.4129	812.3066	817.2707	852.3785	884.9627	907.5584	927.3594	971.0748	994.0606	1011.3109	1023.4466	1063.7714	1076.9559	1089.7002	1143.2916	1171.7951	1186.2599	1204.8889	1254.5939	1264.2706	1292.7582	1351.4874	1388.9285	1402.705	1426.2779	1475.9556	1483.6554	1499.2512	1526.163	2986.4638	3020.5517	3045.5097	3120.3922	3122.297	3136.8702	3182.8149	3199.0701	3214.8756	3232.3433
CCOC12CC1C1OC21	CCO[C@@]12C[C@@H]1[C@@H]1O[C@H]21	
InChI=1S/C7H10O2/c1-2-8-7-3-4(7)5-6(7)9-5/h4-6H,2-3H2,1H3	InChI=1S/C7H10O2/c1-2-8-7-3-4(7)5-6(7)9-5/h4-6H,2-3H2,1H3/t4-,5+,6+,7+/m1/s1
