19
gdb 3205	2.933235	1.3474902	1.161529	1.3245	75.89	-0.24292	0.06789	0.31081000000000003	1123.3994	0.155311	-422.504637	-422.495879	-422.494935	-422.537557	33.461	
C	-1.7049640992	-1.0607399453	-0.8921201511	-0.52438
C	-1.9777572813	-0.0458835269	 0.178484361	 0.234705
C	-0.8769841192	 0.7790658034	 0.8307226691	 0.048711
O	 0.339535762	 0.8472929322	 0.1446317856	-0.434665
C	-1.9919726303	 1.5043588832	 0.1526756874	-0.128102
C	-3.2130213141	 1.5431627264	 1.0803941248	-0.346881
C	-3.184895006	 0.0011702083	 1.0856747869	 0.398744
C	-4.3083855432	-0.9295842549	 1.1735337671	-0.269536
O	-3.3524445337	-0.8159465198	 2.2384184775	-0.280938
H	-1.5685373697	-2.0600338614	-0.4599005704	 0.122252
H	-2.5280292934	-1.1206355039	-1.6122249879	 0.120638
H	-0.7948279182	-0.801819901	-1.439594803	 0.130651
H	-0.7898754853	 0.8115376648	 1.9193116467	 0.090511
H	 0.8385233849	 0.0477341338	 0.3439398689	 0.289842
H	-1.797687135	 2.1620480933	-0.6847073404	 0.100102
H	-3.0674659119	 2.0269634918	 2.0517088984	 0.110884
H	-4.1123352546	 1.9469606248	 0.608631152	 0.112383
H	-5.3060814384	-0.5509556896	 1.3958571326	 0.112437
H	-4.2840858533	-1.8707926095	 0.6249396549	 0.112641
99.1816	180.9041	211.8291	223.1493	251.1616	289.691	335.5261	345.6601	434.1613	472.4114	507.2508	598.9404	676.3862	779.6539	825.0513	834.4706	890.5425	919.2735	958.8779	961.8246	1025.0275	1057.421	1082.0301	1109.6891	1116.4755	1127.1814	1131.8821	1161.2384	1182.3265	1231.1521	1244.9019	1266.6411	1298.862	1368.2067	1412.0195	1434.5356	1449.6017	1484.4346	1495.9026	1498.1594	1535.8502	3022.7087	3048.0324	3067.277	3073.4744	3080.4897	3104.8055	3114.8493	3158.1223	3202.6815	3801.6211
CC12C(O)C1CC21CO1	C[C@@]12[C@@H](O)[C@@H]1C[C@]12CO1	
InChI=1S/C7H10O2/c1-6-4(5(6)8)2-7(6)3-9-7/h4-5,8H,2-3H2,1H3	InChI=1S/C7H10O2/c1-6-4(5(6)8)2-7(6)3-9-7/h4-5,8H,2-3H2,1H3/t4-,5-,6-,7+/m0/s1
