19
gdb 5213	2.4536019	1.592122	1.4054948	1.8782	75.21	-0.23662	0.0706	0.30722	1034.0773	0.155617	-422.477026	-422.468504	-422.46756	-422.509957	32.516	
C	 1.9612654666	-4.1841739104	 0.2735605873	-0.517837
C	 0.5193849434	-3.7709550989	 0.3217232105	 0.269008
C	-0.6178972948	-3.9602585204	-0.7111372832	-0.326966
C	-1.3253646733	-3.2059706413	 0.4350187569	-0.155463
C	-0.4735943956	-3.9290691096	 1.520021213	 0.045796
O	-0.0526765258	-2.7048003029	 2.1956131512	-0.378767
C	-0.0502460114	-2.3704612016	 0.7628753568	 0.421996
C	 0.3849179995	-0.9826420454	 0.4085222411	-0.20954
O	 1.6975477226	-0.7336839922	 0.8805380531	-0.415479
H	 2.468122229	-3.8889376242	 1.1975855273	 0.130577
H	 2.0582779374	-5.2693424537	 0.1592142989	 0.117416
H	 2.4821009069	-3.708068013	-0.5631780735	 0.129587
H	-0.512597733	-3.4264993818	-1.6602200313	 0.100019
H	-0.9452542901	-4.9885110773	-0.8908502837	 0.097862
H	-2.3602088758	-2.8786264488	 0.5310568911	 0.083687
H	-0.7092447411	-4.8031634244	 2.1272733662	 0.092879
H	 0.4011764982	-0.8592000497	-0.6798243084	 0.117165
H	-0.3381895656	-0.2591296805	 0.8179007237	 0.101382
H	 1.7097048729	-1.0097898437	 1.8048235129	 0.296678
86.5248	124.8509	208.553	235.6852	248.9351	289.7297	376.5362	420.4912	475.0305	528.4807	655.9167	697.6755	736.6438	774.0723	809.8403	858.0076	884.6944	920.3285	943.9832	965.3912	1011.2972	1030.4597	1062.8995	1085.809	1109.0028	1142.884	1154.2188	1169.3337	1196.7671	1226.8224	1231.2794	1274.3129	1324.1263	1370.8553	1374.3163	1410.815	1441.0223	1484.3586	1489.3203	1491.7633	1517.853	2980.0898	3032.376	3047.6182	3072.5742	3098.1734	3102.0545	3108.685	3115.5964	3128.9915	3793.056
CC12CC3C1OC23CO	C[C@@]12C[C@H]3[C@@H]1O[C@@]23CO	
InChI=1S/C7H10O2/c1-6-2-4-5(6)9-7(4,6)3-8/h4-5,8H,2-3H2,1H3	InChI=1S/C7H10O2/c1-6-2-4-5(6)9-7(4,6)3-8/h4-5,8H,2-3H2,1H3/t4-,5-,6+,7+/m0/s1
