19
gdb 3145	2.52518	1.6046494	1.1946564	2.179	74.51	-0.24766	0.0588	0.30646	1079.1889	0.156583	-422.501123	-422.492936	-422.491992	-422.533809	31.557	
O	 0.3670266237	-0.1798023827	 0.6952156023	-0.42402
C	-0.9506972177	 0.2757312031	 0.8802044603	 0.023926
C	-1.4258871622	 0.4303617003	 2.3412135323	-0.033556
O	-2.7501762517	 0.9716161144	 2.2723690025	-0.244438
C	-1.6429747429	 1.8755309956	 2.1608751702	-0.049096
C	-1.1726331915	 1.8257912206	 0.6997537799	 0.308601
C	 0.0215473273	 2.7373819207	 0.3061893566	-0.304904
C	-0.9778141631	 3.6472746886	-0.4616223467	-0.212699
C	-2.0221439075	 2.4985681575	-0.4028241354	-0.286874
H	 0.9590129925	 0.3837869234	 1.2063003977	 0.28437
H	-1.5900166367	-0.365733261	 0.2683180503	 0.100109
H	-1.1596817937	-0.1560108702	 3.2142879439	 0.105797
H	-1.5994010665	 2.6963493224	 2.8697426038	 0.101802
H	 0.5996185245	 3.1928194086	 1.116576708	 0.093759
H	 0.7095996485	 2.2153471515	-0.3648746317	 0.115228
H	-1.2838938674	 4.5123992224	 0.1325190963	 0.104461
H	-0.6696646013	 3.9988661975	-1.4485421314	 0.101667
H	-3.052804232	 2.7505305795	-0.1432543727	 0.109389
H	-2.0299754125	 1.9026958178	-1.3207510061	 0.106476
102.3528	114.072	202.1561	256.9643	284.2001	326.8785	354.0028	509.6245	542.1933	549.8365	693.0671	782.2116	811.2695	844.6519	855.6658	869.864	879.167	938.0815	957.4747	967.9951	990.7851	1049.4621	1060.1049	1089.0949	1114.1675	1145.8903	1176.4682	1203.4271	1219.7835	1233.2359	1239.7697	1251.7509	1272.4655	1285.7413	1288.2957	1314.979	1374.209	1421.8995	1475.1016	1484.7556	1505.7671	3043.5775	3054.9725	3063.4815	3085.5495	3094.3542	3106.8734	3121.6578	3162.8444	3180.7771	3797.3859
OC1C2OC2C11CCC1	O[C@H]1[C@@H]2O[C@@H]2C21CCC2	
InChI=1S/C7H10O2/c8-5-4-6(9-4)7(5)2-1-3-7/h4-6,8H,1-3H2	InChI=1S/C7H10O2/c8-5-4-6(9-4)7(5)2-1-3-7/h4-6,8H,1-3H2/t4-,5-,6-/m0/s1
