19
gdb 2299	2.2043901	1.5741999	1.4455097	3.2076	75.48	-0.23414	-0.01697	0.21716999999999997	1044.5568	0.154645	-422.559148	-422.549933	-422.548989	-422.592976	34.319	
C	-0.9555644717	 2.2223582576	 1.1022121371	-0.491538
C	-1.1064070771	 1.1050470507	 0.0965298836	 0.168102
C	-1.7254268963	 1.4427557246	-1.3092039715	-0.276544
C	-2.8381846395	 0.3737641804	-1.102696769	-0.289597
C	-2.1349367129	-0.0932042676	 0.1929030819	 0.368539
O	-2.8866498816	-0.2319464855	 1.3626808583	-0.478412
C	-0.9748690973	-1.1152668724	-0.0229889957	-0.431235
C	 0.0095705582	 0.0724969475	-0.064394622	 0.382805
O	 1.2021947268	 0.151071243	-0.1472032241	-0.31009
H	-0.7180144326	 1.8338005024	 2.0969275083	 0.130119
H	-0.1463089243	 2.8962672274	 0.8012592196	 0.133212
H	-1.8772179715	 2.8078388796	 1.180558292	 0.121109
H	-2.0936444381	 2.4692096382	-1.365308955	 0.11608
H	-1.0576436705	 1.2733315049	-2.1571460153	 0.115446
H	-3.8065007505	 0.8278371838	-0.8785907332	 0.110269
H	-2.9699103798	-0.371250378	-1.8924018164	 0.096253
H	-3.4303782808	-1.0241764412	 1.2885278216	 0.280993
H	-0.8082330571	-1.7316889457	 0.8665689499	 0.134618
H	-1.0031441233	-1.7590628397	-0.9069697602	 0.11987
55.6496	157.6347	163.4079	186.9249	219.2199	265.2899	311.675	386.1247	390.0734	504.2996	537.5172	580.6396	609.4735	689.375	755.4937	772.1059	845.8521	883.6585	921.3313	953.7873	988.4213	1012.1334	1040.265	1078.8077	1134.5181	1170.3693	1185.9926	1207.0506	1213.8127	1236.304	1256.0326	1271.658	1320.885	1365.6211	1406.3175	1424.8189	1476.5118	1485.4397	1491.5753	1496.5248	1881.5009	3033.8768	3049.5756	3055.4167	3067.4506	3102.3882	3105.1144	3108.4322	3109.4495	3124.613	3796.46
CC12CCC1(O)CC2=O	C[C@]12CC[C@@]1(O)CC2=O	
InChI=1S/C7H10O2/c1-6-2-3-7(6,9)4-5(6)8/h9H,2-4H2,1H3	InChI=1S/C7H10O2/c1-6-2-3-7(6,9)4-5(6)8/h9H,2-4H2,1H3/t6-,7-/m1/s1
