19
gdb 4132	2.2292171	2.0030432	1.5755705	2.1965	74.52	-0.23676	0.00188	0.23864	951.3707	0.157581	-422.566789	-422.558943	-422.557999	-422.59837	31.791	
C	 0.3732596903	-0.516982703	-0.2114731887	-0.418778
C	 0.9211296324	 0.7917472965	 0.3307530428	 0.151146
O	 2.3338533453	 0.9023656824	 0.0995489642	-0.300758
C	 2.9353240481	 1.2404918434	 1.3874205657	 0.056901
C	 1.8657687277	 2.1480012107	 2.0079565689	-0.286687
C	 0.7966968024	 1.0222722932	 1.8740111536	 0.336152
O	-0.5331128518	 1.2756246177	 2.2275846769	-0.504107
C	 1.524557597	-0.1281744113	 2.5541943085	-0.162778
C	 2.8249332462	 0.0050913021	 2.2716422906	-0.077193
H	 0.863983018	-1.3742544417	 0.2562109051	 0.118249
H	-0.7043047666	-0.5759237947	-0.0277883631	 0.123372
H	 0.5427330186	-0.5756397846	-1.2904760391	 0.12123
H	 0.4097116936	 1.6331147777	-0.1587010968	 0.078974
H	 3.9287060328	 1.6419291701	 1.1967252591	 0.077106
H	 2.066035466	 2.4213132671	 3.045736306	 0.093945
H	 1.6454600624	 3.0333748447	 1.4059784499	 0.104942
H	-0.5741692446	 1.4020530028	 3.1809655232	 0.280373
H	 1.023357123	-0.9474146095	 3.0552421802	 0.103496
H	 3.6306218392	-0.6833590435	 2.491657403	 0.104417
166.6783	202.8776	247.2037	272.1314	343.9738	366.4453	431.2166	478.2817	508.5432	525.8885	632.6246	661.027	746.7378	773.0169	806.1554	855.0197	896.177	909.945	928.129	946.4622	962.6165	1027.8822	1062.2313	1080.3862	1093.4231	1106.1974	1141.4236	1163.4459	1224.1992	1250.0822	1278.7293	1285.4161	1332.4894	1360.4144	1365.198	1392.3675	1407.2159	1485.1106	1492.5977	1497.2606	1633.2286	2996.9302	3043.0057	3067.1328	3114.0005	3125.6816	3130.6137	3139.8795	3197.2275	3224.0785	3815.8726
CC1OC2CC1(O)C=C2	C[C@@H]1O[C@H]2C[C@]1(O)C=C2	
InChI=1S/C7H10O2/c1-5-7(8)3-2-6(4-7)9-5/h2-3,5-6,8H,4H2,1H3	InChI=1S/C7H10O2/c1-5-7(8)3-2-6(4-7)9-5/h2-3,5-6,8H,4H2,1H3/t5-,6+,7+/m0/s1
