19
gdb 800	2.8440361	1.3728312	1.1381094	3.0816	76.3	-0.24792	-0.01986	0.22806	1122.6402	0.158277	-422.561442	-422.5534	-422.552455	-422.594064	30.639	
O	 0.7478975597	-0.819822857	-0.3989445849	-0.274603
C	-0.0610444461	-0.0084854095	-0.0163731566	 0.10392
C	-1.0461796281	 0.6723151711	-0.8826115071	 0.210578
C	-1.4552120772	 2.0801583036	-0.4787430916	-0.322219
C	-2.4189822515	 0.9630888728	-0.2530533224	-0.068201
C	-3.6631636416	 0.8209806602	-1.1279011937	-0.23685
C	-3.3397243639	 0.2065929866	-2.4961247768	-0.074942
O	-2.1587004366	 0.760465234	-3.0504655647	-0.2462
C	-1.0070032244	 0.3117623562	-2.3584173647	-0.165108
H	-0.1161399536	 0.2877065023	 1.058744537	 0.065814
H	-0.9611262907	 2.5275031915	 0.3776029135	 0.119524
H	-1.6555487517	 2.7570395106	-1.3024288953	 0.137354
H	-2.5322942829	 0.6395726306	 0.7776420806	 0.096185
H	-4.4036183041	 0.1928389814	-0.6218920695	 0.106993
H	-4.1246323748	 1.8049212046	-1.2668617215	 0.114378
H	-3.2272236409	-0.8860671254	-2.40411891	 0.093464
H	-4.1436395782	 0.4032716171	-3.2107474558	 0.109961
H	-0.89647009	-0.7786117378	-2.4577564572	 0.110573
H	-0.1484239033	 0.7796457771	-2.8485924495	 0.119379
94.2334	127.4876	209.7866	236.1829	325.9138	384.6203	395.2206	432.5842	497.4542	537.815	682.1248	751.4288	759.4117	846.7635	852.2145	926.2983	948.2601	967.3593	1006.2011	1045.6799	1069.4839	1074.9798	1111.4584	1119.818	1138.2597	1149.6492	1240.1718	1258.9498	1274.9499	1317.8283	1326.7291	1365.9565	1372.0574	1415.2404	1424.2032	1438.0878	1476.3959	1488.6332	1495.5274	1505.3759	1807.6218	2842.9396	2973.7946	2997.9936	3038.6305	3079.1956	3085.5158	3091.5341	3130.1254	3145.0659	3221.6765
O=CC12CC1CCOC2	O=C[C@]12C[C@H]1CCOC2	
InChI=1S/C7H10O2/c8-4-7-3-6(7)1-2-9-5-7/h4,6H,1-3,5H2	InChI=1S/C7H10O2/c8-4-7-3-6(7)1-2-9-5-7/h4,6H,1-3,5H2/t6-,7+/m1/s1
