19
gdb 5398	1.9747957	1.6119399	1.053815	3.1534	76.2	-0.23784	-0.02588	0.21195999999999998	1203.1989	0.154292	-422.540644	-422.531247	-422.530303	-422.575026	34.028	
C	 1.5603870398	 0.9798818728	 0.5149928831	-0.38753
C	 0.9228642071	-0.3393073165	 0.0660988735	-0.198991
C	 1.618992509	-0.9819267747	-1.1297702403	-0.192136
C	 1.0965284311	-2.3538756923	-1.6615024794	 0.427459
O	 1.0661691545	-3.4565903168	-1.2018455644	-0.30783
C	 0.8180139656	-1.7548566967	-3.0335414951	-0.193977
O	-0.056980231	-0.6300588004	-2.7704953578	-0.275612
C	 1.3418181531	-0.442914198	-2.5578400042	 0.416801
C	 2.0536082731	 0.6319443755	-3.3134434107	-0.506066
H	 1.0418960121	 1.3877053083	 1.3880455074	 0.120157
H	 2.6128209466	 0.8415959534	 0.7867739525	 0.115146
H	 1.5183683798	 1.7372559712	-0.2751018961	 0.117994
H	 0.9410223351	-1.0591696053	 0.8930223861	 0.115418
H	-0.1308205373	-0.1834402922	-0.1882191176	 0.118295
H	 2.6970609842	-1.0914600484	-0.9464362105	 0.097778
H	 0.7752543658	-2.2000503027	-4.0210011517	 0.119886
H	 1.8526864037	 1.6146957766	-2.8740298901	 0.140873
H	 3.1353729467	 0.4680472465	-3.288858265	 0.132528
H	 1.721508811	 0.6508679496	-4.3546807897	 0.139808
71.546	103.411	138.1177	189.1937	199.4705	260.7308	269.4178	310.5266	367.111	528.2658	551.3495	593.3756	659.0851	692.8324	777.2977	823.5237	837.6085	883.9394	958.6483	990.5012	1016.1574	1042.7494	1063.7552	1071.0791	1111.6905	1151.0608	1180.1591	1221.6791	1232.6575	1276.7724	1331.3047	1373.3709	1401.3798	1411.7734	1445.2535	1478.196	1488.8375	1491.7134	1499.7282	1504.8802	1896.626	3023.0074	3031.0515	3039.1664	3039.8121	3075.4009	3101.1125	3104.129	3105.5021	3124.4771	3189.4169
CCC1C(=O)C2OC12C	CC[C@H]1C(=O)[C@H]2O[C@@]12C	
InChI=1S/C7H10O2/c1-3-4-5(8)6-7(4,2)9-6/h4,6H,3H2,1-2H3	InChI=1S/C7H10O2/c1-3-4-5(8)6-7(4,2)9-6/h4,6H,3H2,1-2H3/t4-,6+,7-/m0/s1
