19
gdb 2745	2.7441917	1.6371681	1.5093826	1.1605	73.89	-0.22315	0.07162	0.29477	990.0643	0.157085	-422.500212	-422.492319	-422.491375	-422.532112	30.842	
C	-0.3749924148	 0.2209074877	-0.0169895972	-0.424323
C	 1.1331747849	 0.2383349935	 0.0805689779	-0.103268
C	 1.9610373979	-0.7802820078	 0.8325119193	 0.272189
C	 1.4756482641	-2.2405847273	 0.7516834284	-0.296513
C	 1.5759194469	-2.1525387541	-0.814099564	-0.296514
C	 2.0571915263	-0.6958491102	-0.6689982514	 0.272189
O	 3.3488798963	-0.2376805251	-0.9637319745	-0.284539
C	 4.1008902176	-0.4687338517	 0.2308539684	-0.002561
O	 3.2014579031	-0.3671343235	 1.3383908124	-0.284539
H	-0.8233887414	 0.6815651599	 0.8693286154	 0.126125
H	-0.71033748	 0.7808652516	-0.8960889861	 0.126125
H	-0.772386572	-0.7943393414	-0.0995423865	 0.12192
H	 1.5775044472	 1.225046618	 0.1645100588	 0.108571
H	 2.2047922813	-2.9316391795	 1.178753732	 0.116881
H	 0.495460477	-2.4532116234	 1.1877304995	 0.106056
H	 2.3583680019	-2.7967866895	-1.2194576195	 0.116881
H	 0.6606768808	-2.3081336774	-1.3922312756	 0.106056
H	 4.5597144038	-1.4708000235	 0.2038863643	 0.094493
H	 4.870608179	 0.3018626638	 0.3234767084	 0.124774
176.1189	179.1676	211.0727	221.0881	240.6726	377.6432	385.4025	471.3197	542.4021	679.4268	689.8938	746.7827	758.5406	763.1027	836.1663	912.3518	942.6662	949.7856	978.5489	993.1131	1019.7078	1079.1126	1101.8443	1115.586	1157.3824	1160.6139	1186.163	1213.6927	1230.3537	1233.0173	1261.3826	1277.597	1298.7136	1409.8466	1411.1918	1435.368	1465.3597	1488.5326	1494.5372	1498.7085	1534.2992	2966.5834	3037.6996	3055.4166	3060.9892	3100.2572	3100.9373	3110.4396	3112.4952	3128.7014	3172.3254
CC1C23CCC12OCO3	C[C@H]1[C@@]23CC[C@@]12OCO3	
InChI=1S/C7H10O2/c1-5-6-2-3-7(5,6)9-4-8-6/h5H,2-4H2,1H3	InChI=1S/C7H10O2/c1-5-6-2-3-7(5,6)9-4-8-6/h5H,2-4H2,1H3/t5-,6-,7+
