19
gdb 3738	2.9403974	1.3179624	1.1525379	2.8627	75.93	-0.22905	0.05627	0.28532	1138.5988	0.155586	-422.492572	-422.484008	-422.483063	-422.525664	32.846	
O	-0.560711835	 0.9497037885	 0.4896210141	-0.436249
C	-1.7891724884	 0.2965914134	 0.5293893754	 0.057327
C	-3.0035366883	 1.0018800424	 1.1283456919	-0.392204
C	-2.3042692793	-0.0874472859	 1.8793135202	 0.362766
O	-1.4528520117	 0.2235260094	 2.9947189977	-0.334882
C	-1.7311982573	-1.0693155084	 3.6018443695	-0.140287
C	-2.7240580188	-1.3998202728	 2.4907283877	 0.203167
C	-4.0987487573	-1.9791176781	 2.612383852	-0.320677
C	-3.0260393173	-2.7077172583	 1.8314708299	-0.330118
H	-0.1917866192	 0.8796781185	 1.3823132507	 0.294029
H	-1.9513047023	-0.3679378815	-0.3164192595	 0.096003
H	-2.8559993944	 2.0144019797	 1.4904600914	 0.128624
H	-3.9823635988	 0.7953205522	 0.7050778222	 0.112796
H	-0.833031892	-1.697072494	 3.6415997596	 0.110487
H	-2.1467143144	-0.9530673107	 4.6087338928	 0.113091
H	-4.3989614589	-2.3836886833	 3.573867951	 0.117548
H	-4.9012973702	-1.5016429559	 2.0591238528	 0.12012
H	-2.5976247435	-3.6071446159	 2.262379049	 0.118323
H	-3.1025620529	-2.7272811291	 0.7488369917	 0.120137
80.0792	133.1588	170.5407	238.7038	263.7436	317.5212	404.6912	427.6846	456.7671	547.6005	556.7809	660.9633	772.311	813.227	854.7581	859.9327	884.5174	904.0532	969.1895	980.7277	999.7813	1010.1183	1022.9931	1056.5869	1074.89	1084.7185	1104.97	1143.8277	1153.2778	1169.6098	1187.2886	1240.771	1298.7898	1324.1247	1366.9965	1409.4706	1426.6855	1463.0559	1481.912	1517.0903	1525.6457	3022.2249	3072.8293	3118.869	3123.1019	3125.9885	3129.82	3200.9391	3215.0623	3215.9283	3721.8894
OC1CC11OCC11CC1	O[C@@H]1C[C@@]21OCC12CC1	
InChI=1S/C7H10O2/c8-5-3-7(5)6(1-2-6)4-9-7/h5,8H,1-4H2	InChI=1S/C7H10O2/c8-5-3-7(5)6(1-2-6)4-9-7/h5,8H,1-4H2/t5-,7+/m1/s1
