19
gdb 1768	2.5320022	1.8672628	1.3574598	0.384	74.01	-0.23409	0.07578	0.30987	1008.7314	0.155652	-422.516857	-422.508819	-422.507875	-422.548675	32.14	
C	 4.2692091325	-0.4344879879	 1.7161894743	-0.510679
C	 3.2352930127	-0.1670886415	 0.6602746628	 0.376013
C	 2.5008829056	 1.1775539123	 0.4486722104	-0.314102
C	 1.4529008193	 0.1868216336	-0.1103428351	 0.375955
C	-0.0305009957	 0.4190188105	-0.1427676446	-0.510652
O	 1.9125496639	-0.7827584097	 0.9090240471	-0.364448
C	 2.1649808144	-0.4023190762	-1.3649704213	-0.002815
O	 3.3137765774	 0.3338837016	-1.8191058041	-0.252382
C	 3.4799202298	-0.6634001263	-0.7964545451	-0.002851
H	 4.5008043204	-1.5038968283	 1.7659801538	 0.129458
H	 5.1933824061	 0.1047749281	 1.4851531006	 0.129812
H	 3.9128767211	-0.114225012	 2.6986700285	 0.13021
H	 2.1697385383	 1.588153764	 1.4030586209	 0.101476
H	 2.9336773388	 1.9315111223	-0.2059706773	 0.11747
H	-0.3942682091	 0.7452431713	 0.8350139792	 0.13015
H	-0.2767174097	 1.1870069378	-0.8829292224	 0.129779
H	-0.5578493673	-0.5011531305	-0.4165412099	 0.129548
H	 1.650163379	-1.0141331914	-2.098178787	 0.10403
H	 4.1236018026	-1.5052111877	-1.0287837906	 0.104028
190.7274	196.1625	226.4209	246.2531	262.2628	324.0855	417.6853	467.451	560.6945	590.4778	595.6915	612.8707	722.326	784.2894	797.3376	844.1128	862.0424	881.1522	908.8163	941.2881	984.579	1012.5374	1041.4178	1067.756	1086.5151	1167.3305	1176.6885	1213.1111	1231.5855	1235.7651	1244.9138	1321.7808	1323.6478	1398.9944	1409.6054	1424.2912	1478.7287	1479.3878	1481.6087	1490.9124	1493.2411	3037.4555	3037.628	3093.4715	3105.8519	3105.9138	3120.8845	3121.0155	3167.8858	3167.9493	3180.8282
CC12CC(C)(O1)C1OC21	C[C@]12C[C@](C)(O1)[C@H]1O[C@@H]21	
InChI=1S/C7H10O2/c1-6-3-7(2,9-6)5-4(6)8-5/h4-5H,3H2,1-2H3	InChI=1S/C7H10O2/c1-6-3-7(2,9-6)5-4(6)8-5/h4-5H,3H2,1-2H3/t4-,5+,6-,7+
