19
gdb 2693	3.0330212	1.1387591	0.939331	2.8788	76.81	-0.238	-0.03315	0.20484999999999998	1283.003	0.154078	-422.529696	-422.520383	-422.519439	-422.564659	33.57	
C	 0.6383316707	 0.9462679006	-0.237180114	-0.412639
C	 0.8221623886	-0.5584035248	-0.1278741005	-0.147514
C	 1.8175369646	-1.0797992861	 0.9556197729	 0.043701
O	 2.5847165518	-1.7930589762	-0.0330081965	-0.321472
C	 1.776625253	-1.2669444843	-1.0917662635	 0.464882
C	 1.5163442887	-2.044162197	-2.3346843722	-0.336148
C	 2.3821766794	-0.7890408116	-2.3696680524	-0.335586
C	 1.2111307963	-1.9982855168	 1.9918360801	 0.129486
O	 0.8258774802	-1.6288697174	 3.0707857289	-0.244641
H	 0.108370211	 1.3351254135	 0.63799788	 0.133402
H	 1.6031577164	 1.4575684608	-0.308639282	 0.127426
H	 0.0501317791	 1.2054960156	-1.1239508474	 0.122674
H	-0.1496798703	-1.0596002538	-0.0679128223	 0.09352
H	 2.3942883133	-0.2882043006	 1.4486747761	 0.102119
H	 2.0196195407	-3.0002530661	-2.4314839205	 0.128359
H	 0.5248728678	-2.0051226816	-2.7750942085	 0.117337
H	 3.4520162469	-0.9244708962	-2.4867227193	 0.128934
H	 1.9827667369	 0.1052142304	-2.8371841382	 0.117786
H	 1.1210456848	-3.0551304085	 1.6515328893	 0.088376
39.739	63.1033	183.8425	198.637	213.9071	224.4682	299.1995	365.0192	399.9419	443.8954	529.2483	617.0761	753.9938	761.9675	851.5749	869.7505	885.9859	943.852	970.7532	979.2259	1036.0825	1048.2886	1068.6792	1075.6002	1088.3658	1118.3103	1148.3003	1186.2401	1207.184	1241.3653	1268.253	1313.2603	1350.7504	1392.4178	1406.9736	1411.3232	1446.6116	1491.9618	1495.2682	1502.0285	1829.8117	2881.2338	3034.2065	3041.1742	3049.8669	3102.6766	3112.8614	3126.6193	3129.405	3210.1759	3224.1674
CC1C(OC11CC1)C=O	C[C@@H]1[C@H](OC21CC2)C=O	
InChI=1S/C7H10O2/c1-5-6(4-8)9-7(5)2-3-7/h4-6H,2-3H2,1H3	InChI=1S/C7H10O2/c1-5-6(4-8)9-7(5)2-3-7/h4-6H,2-3H2,1H3/t5-,6-/m1/s1
