19
gdb 2477	2.6064491	1.8807409	1.4251586	1.4387	73.79	-0.2511	0.09235	0.34345	973.3493	0.157939	-422.536225	-422.528631	-422.527687	-422.567833	30.104	
C	-0.137525902	-0.3076545999	-0.0427602983	-0.460312
C	 1.3188725525	 0.0958175748	 0.0513962065	 0.388325
O	 1.6101177275	 0.9591903633	-1.0443614335	-0.29458
C	 2.9515853578	 0.7480057846	-1.4136172358	 0.000255
O	 3.2353008097	-0.6107757256	-1.1622110904	-0.25732
C	 2.5038773299	-0.9539157705	-0.0046589826	 0.04178
C	 3.0475805904	-0.3829839068	 1.3111945879	-0.084255
C	 1.9977700755	-0.5110243914	 2.3754839951	-0.305731
C	 1.8851193326	 0.614733199	 1.3857302307	-0.103109
H	-0.4253119466	-0.9582292883	 0.7868017127	 0.116721
H	-0.7754355431	 0.5815767155	-0.0166776427	 0.128435
H	-0.3257724236	-0.8328836663	-0.9835268056	 0.127215
H	 3.0652626111	 0.9443108828	-2.4833870103	 0.118679
H	 3.6259617573	 1.3998016489	-0.8333125905	 0.087952
H	 2.2923145762	-2.0255065093	-0.0435457172	 0.082886
H	 4.0973366252	-0.2407384383	 1.5360001988	 0.094447
H	 1.2956165221	-1.3420268059	 2.3619277731	 0.108493
H	 2.3090135556	-0.220384179	 3.373614375	 0.119261
H	 1.8879281419	 1.6558100722	 1.6856834372	 0.090857
158.3576	200.3638	220.0766	251.2672	301.7103	383.1982	413.0198	493.8337	618.0734	641.3674	742.8857	783.4529	808.3368	854.3701	914.6466	935.555	950.2867	957.4179	991.6357	1017.0387	1031.6708	1066.5655	1078.9589	1092.1073	1122.2929	1155.4107	1164.0491	1166.7215	1188.7061	1211.1459	1241.2001	1263.2808	1301.4204	1338.1402	1357.811	1410.3822	1429.3009	1482.3592	1488.3367	1498.5445	1539.6527	2961.7916	3042.9288	3079.4061	3090.4182	3106.2561	3112.3061	3124.4014	3181.5025	3188.9856	3201.4317
CC12OCOC1C1CC21	C[C@]12OCO[C@H]1[C@@H]1C[C@H]21	
InChI=1S/C7H10O2/c1-7-5-2-4(5)6(7)8-3-9-7/h4-6H,2-3H2,1H3	InChI=1S/C7H10O2/c1-7-5-2-4(5)6(7)8-3-9-7/h4-6H,2-3H2,1H3/t4-,5+,6+,7-/m1/s1
