19
gdb 722	3.3819953	1.3542387	1.056648	2.6056	74.92	-0.22988	-0.01696	0.21292	1137.2587	0.158177	-422.567863	-422.560023	-422.559079	-422.600752	30.03	
O	 0.7120115574	-0.13440755	-1.1966232336	-0.303736
C	-0.0766464933	-0.0047820118	-0.2923539469	 0.360253
C	-0.8425444269	 1.3070450048	-0.0760487179	-0.18211
O	-1.5634772344	 1.3162768916	 1.1391872506	-0.252237
C	-2.5231466347	 0.2776442718	 1.1900109629	 0.136123
C	-2.8387599305	-0.1864454688	 2.6282192412	-0.245784
C	-2.5238210744	-1.653658566	 2.2116371811	-0.246972
C	-1.9596070433	-1.1408861884	 0.854497444	-0.04033
C	-0.4318900869	-1.088511166	 0.712066469	-0.318896
H	-0.1269781587	 2.1335042795	-0.039595429	 0.141442
H	-1.4966859858	 1.4765402747	-0.9485546097	 0.117512
H	-3.4081250847	 0.5487505899	 0.5959680224	 0.067411
H	-2.1155258944	 0.2297393903	 3.3326835926	 0.118019
H	-3.845621001	 0.0165247643	 2.9974863648	 0.105924
H	-1.8191457302	-2.1975481438	 2.8454881159	 0.104857
H	-3.4189207773	-2.2679468065	 2.0910325955	 0.107836
H	-2.3952063257	-1.6094446152	-0.0320968407	 0.080399
H	 0.0179641221	-0.8079041438	 1.673800776	 0.128179
H	 0.0025640928	-2.0399915765	 0.397779292	 0.12211
51.8856	106.4181	218.9348	291.6184	357.3332	399.1333	456.0653	501.4762	549.458	622.0049	679.2156	755.1793	776.0882	816.8139	865.0643	943.185	949.2852	964.489	970.6552	1023.3253	1070.118	1102.8077	1133.0964	1135.6849	1164.8805	1215.5984	1240.2305	1243.5578	1265.513	1266.0306	1273.5051	1303.0508	1308.1375	1348.6302	1354.2566	1381.7249	1455.6296	1458.2929	1474.894	1495.1968	1829.147	2967.0961	2990.9547	3027.8877	3061.6028	3067.4785	3076.1747	3094.6761	3110.1236	3113.1695	3133.46
O=C1COC2CCC2C1	O=C1CO[C@@H]2CC[C@@H]2C1	
InChI=1S/C7H10O2/c8-6-3-5-1-2-7(5)9-4-6/h5,7H,1-4H2	InChI=1S/C7H10O2/c8-6-3-5-1-2-7(5)9-4-6/h5,7H,1-4H2/t5-,7-/m1/s1
