19
gdb 4365	2.7376182	1.3324591	0.9766557	3.6543	76.63	-0.24588	-0.03517	0.21070999999999998	1216.9756	0.156596	-422.617426	-422.608636	-422.607691	-422.65112	32.635	
C	 0.0673933115	 2.532341173	-0.0729229694	-0.401391
C	-0.8312738435	 1.297775606	-0.0415166819	-0.079195
C	-1.7952612372	 1.2265708918	-1.2472756882	-0.218325
C	-2.7186111774	-0.0037403288	-1.202391895	-0.309241
C	-1.9171758926	-1.2913890097	-1.0892144914	 0.384196
O	-2.0854359373	-2.2458228172	-1.8065502837	-0.293451
C	-0.8539465422	-1.2827919118	 0.011306577	-0.390797
C	-0.0239450724	 0.0016968309	 0.0258424413	 0.374011
O	 1.1818151626	-0.0251676113	 0.0705544256	-0.296889
H	 0.7381051964	 2.5500841892	 0.7888974883	 0.132195
H	 0.692077448	 2.5357123873	-0.9708628184	 0.130857
H	-0.5344553704	 3.4459992132	-0.0675160569	 0.110042
H	-1.45245164	 1.3197111503	 0.8683513662	 0.092196
H	-2.4012248118	 2.137340748	-1.2752086432	 0.115327
H	-1.2089530399	 1.2126907996	-2.175146674	 0.12059
H	-3.3719942552	 0.0668055601	-0.3208893879	 0.118805
H	-3.3561345951	-0.0682544362	-2.0866711333	 0.127286
H	-1.3895348378	-1.3325540667	 0.9709334178	 0.139929
H	-0.2059269355	-2.1551222478	-0.0755078928	 0.143855
71.4561	92.0313	185.3904	198.9437	277.0803	308.3063	359.5743	409.2366	433.6447	485.8475	565.2472	617.9601	686.8118	724.9375	784.299	851.4586	862.6841	931.2591	957.6143	1010.5474	1046.5977	1072.9894	1117.4361	1128.4945	1146.3221	1201.6628	1218.4478	1250.8184	1262.9406	1309.767	1338.4457	1345.8188	1381.2827	1415.3577	1439.0841	1465.8489	1488.6395	1493.1763	1499.3494	1808.9085	1833.7481	2982.8453	3013.4285	3019.3797	3031.8572	3047.2846	3081.9899	3113.2545	3116.3926	3129.5502	3140.849
CC1CCC(=O)CC1=O	C[C@H]1CCC(=O)CC1=O	
InChI=1S/C7H10O2/c1-5-2-3-6(8)4-7(5)9/h5H,2-4H2,1H3	InChI=1S/C7H10O2/c1-5-2-3-6(8)4-7(5)9/h5H,2-4H2,1H3/t5-/m0/s1
