19
gdb 450	3.72785	0.9999916	0.9170983	2.9533	76.66	-0.23035	0.06904	0.29939	1327.2512	0.156096	-422.48792	-422.479356	-422.478412	-422.522107	31.33	
C	-2.3292615832	 1.3494528308	-1.7854729409	-0.18857
O	-1.4301035613	 2.4491622281	-1.9369704806	-0.244402
C	-0.8886852728	 1.1746155425	-1.5635372223	 0.10428
C	-0.3034734262	 1.0640923037	-0.1981971678	-0.129677
C	 1.2089527198	 1.2102333799	-0.0158397981	-0.373589
C	 0.557332125	-0.1184839843	 0.1416377666	 0.450944
C	 0.4824299992	-1.0734425758	 1.3276409149	-0.358568
C	 0.6606927363	-2.1661735226	 0.2506992393	-0.069157
O	 0.7776495639	-1.1743064134	-0.797626668	-0.304224
H	-3.0004435326	 1.4096143899	-0.9287955466	 0.107084
H	-2.7869593911	 0.984108612	-2.7041510651	 0.113665
H	-0.3122936331	 0.6868401646	-2.3491860728	 0.105175
H	-0.929154455	 1.4597320804	 0.5980877522	 0.089163
H	 1.7996305478	 1.3612598433	-0.9141296213	 0.128889
H	 1.5761264962	 1.7274329698	 0.8646343434	 0.11693
H	 1.3057713789	-0.9880170978	 2.0395352053	 0.117752
H	-0.4662633269	-1.0871359772	 1.8672827058	 0.115675
H	 1.565678773	-2.7777879385	 0.3288971849	 0.110362
H	-0.2053556278	-2.8192253653	 0.094290251	 0.108269
54.5092	78.1852	130.3882	148.9188	304.9629	323.1038	348.2053	450.8984	505.5387	621.6048	780.2922	793.3035	842.4242	853.9936	867.2033	889.3447	920.6731	946.1228	972.5831	1016.9979	1025.6987	1046.1083	1086.3986	1099.8527	1121.7028	1152.5427	1164.5529	1170.3751	1183.2159	1210.6581	1213.6851	1248.0182	1280.8374	1294.8751	1353.2298	1386.7272	1455.788	1486.9477	1495.4335	1529.9989	1535.1363	3029.6592	3073.4771	3075.4686	3076.2713	3117.3672	3125.154	3128.7198	3139.6234	3161.6763	3215.0601
C1OC1C1CC11CCO1	C1O[C@H]1[C@@H]1C[C@]21CCO2	
InChI=1S/C7H10O2/c1-2-9-7(1)3-5(7)6-4-8-6/h5-6H,1-4H2	InChI=1S/C7H10O2/c1-2-9-7(1)3-5(7)6-4-8-6/h5-6H,1-4H2/t5-,6+,7-/m0/s1
