19
gdb 2185	3.2279209	1.7541043	1.6877706	1.4447	73.11	-0.25038	0.08583	0.33621	909.5131	0.159252	-422.57636	-422.569526	-422.568582	-422.60704	28.601	
C	-0.0473147608	-0.0348077414	 0.0187705318	-0.477461
C	 1.4537753452	 0.0575423046	 0.0088506254	 0.454538
C	 2.1462962121	 1.0623169663	-0.9443984248	-0.251378
C	 3.6061394963	 0.9417509662	-0.4509745757	-0.088486
C	 4.2321036991	-0.3917725307	-0.9330489085	-0.249661
C	 3.4048823488	-1.0923740231	 0.1648698448	 0.071574
O	 2.0356325106	-1.2335742924	-0.2257298024	-0.30629
C	 3.3402791365	 0.2654805978	 0.9513646816	 0.071913
O	 1.9831422916	 0.4406472449	 1.2761040966	-0.267855
H	-0.3674753759	-0.7563772767	 0.7735632204	 0.13839
H	-0.4833674153	 0.9406843544	 0.2468127349	 0.12849
H	-0.4080042662	-0.3636989467	-0.9586819096	 0.130987
H	 2.023410188	 0.7920676609	-1.995849977	 0.103969
H	 1.7420190223	 2.065348996	-0.782315215	 0.104145
H	 4.1876189604	 1.8607912922	-0.5173160571	 0.070039
H	 4.0458694168	-0.7028620879	-1.9638591217	 0.103054
H	 5.3045014115	-0.4460961116	-0.7203487974	 0.099065
H	 3.7462591806	-2.0247459643	 0.6164283127	 0.077562
H	 3.9975713984	 0.4529284215	 1.796156301	 0.087405
177.6715	249.9848	282.6911	378.9782	395.2314	470.7147	592.2743	602.9626	653.9692	683.6114	791.32	798.8324	835.2669	848.0522	853.3066	892.998	909.18	948.122	967.613	983.663	1035.9622	1052.7189	1073.6032	1092.0123	1129.1857	1147.7963	1181.7072	1188.7169	1204.4118	1237.4671	1263.5513	1274.3772	1312.5438	1324.073	1349.9686	1354.9485	1422.7812	1471.7632	1479.9669	1486.3004	1488.1441	3051.3837	3057.1201	3061.9695	3102.6683	3109.9014	3111.3288	3117.3408	3136.4924	3140.0246	3162.7486
CC12CC3CC(O1)C3O2	C[C@]12C[C@@H]3C[C@H](O1)[C@@H]3O2	
InChI=1S/C7H10O2/c1-7-3-4-2-5(8-7)6(4)9-7/h4-6H,2-3H2,1H3	InChI=1S/C7H10O2/c1-7-3-4-2-5(8-7)6(4)9-7/h4-6H,2-3H2,1H3/t4-,5-,6+,7-/m0/s1
