19
gdb 5430	3.1179803	1.0754385	0.9124668	3.2567	77.37	-0.24119	-0.0089	0.23229	1303.2171	0.155495	-422.54939	-422.540208	-422.539264	-422.583311	34.015	
C	-3.0543518093	 0.0235132949	 1.300742335	-0.509092
C	-1.9953790951	-0.0859562447	 0.2398429599	 0.332155
C	-0.9661795487	 1.0302039315	-0.0404076389	-0.422201
C	 0.1154328924	-0.0802385914	-0.1261973815	 0.430134
O	 1.313136599	-0.0498303368	-0.1525366253	-0.320347
C	-0.8901914546	-1.1703011403	 0.0650406787	-0.243204
C	-2.0237667082	-0.9891004143	-0.950431147	-0.088439
C	-3.0286225237	-2.1194952229	-1.0356707556	-0.102835
O	-4.2645108855	-1.7030468598	-1.592453397	-0.41589
H	-3.5737673631	-0.9241502511	 1.4690678327	 0.128345
H	-2.6204344441	 0.3345183655	 2.2570584449	 0.132098
H	-3.8042658459	 0.7757122773	 1.0254192765	 0.126732
H	-1.135412759	 1.6528827784	-0.9241343987	 0.119802
H	-0.7678705666	 1.6756989684	 0.8212322958	 0.129051
H	-0.7408462845	-2.1216588504	 0.5632187601	 0.105268
H	-1.7816629346	-0.5639551006	-1.9234631647	 0.098531
H	-2.649937076	-2.8966099739	-1.7071006479	 0.124557
H	-3.1646106115	-2.5883296952	-0.0485722231	 0.089918
H	-4.6317727811	-1.0226211847	-1.0190931239	 0.285417
80.8663	114.6923	149.0869	209.1854	240.3219	287.5149	315.4284	364.1092	374.665	470.9993	524.3252	555.1414	626.6924	673.3553	752.1348	837.0491	912.5687	945.9999	955.748	997.6867	1044.8939	1047.9924	1065.3435	1077.2286	1101.075	1126.9318	1144.9614	1193.4621	1211.426	1228.5258	1248.6005	1338.5802	1383.5192	1415.621	1422.9711	1433.9139	1464.1713	1491.2471	1498.1698	1513.3063	1882.1396	2983.2179	3024.1492	3050.288	3077.6393	3082.6411	3104.353	3108.0581	3113.6124	3182.8732	3817.4174
CC12CC(=O)C1C2CO	C[C@@]12CC(=O)[C@@H]1[C@H]2CO	
InChI=1S/C7H10O2/c1-7-2-5(9)6(7)4(7)3-8/h4,6,8H,2-3H2,1H3	InChI=1S/C7H10O2/c1-7-2-5(9)6(7)4(7)3-8/h4,6,8H,2-3H2,1H3/t4-,6+,7+/m1/s1
