19
gdb 603	2.2160737	2.2008555	1.8940015	0.6968	72.62	-0.22306	0.07261	0.29567	878.8343	0.161032	-422.542612	-422.535917	-422.534973	-422.573335	27.64	
C	-0.5029424648	 1.2573418712	-1.1617851869	-0.219593
C	 0.5434434132	 2.2492617505	-1.7285421217	-0.207928
C	 1.8174988695	 2.3251258734	-0.8762889086	 0.048419
C	 1.6162239494	 2.802363422	 0.5627702818	-0.074409
O	 0.6802806957	 1.9979371105	 1.2730287925	-0.25883
C	 0.7568709062	 0.624977723	 0.9965053551	 0.046222
C	 0.1135111379	 0.1556476071	-0.3074335649	-0.126343
C	 1.6175782389	 0.1259250678	-0.1314975801	 0.060066
O	 2.4245770435	 1.028685203	-0.8332624613	-0.263357
H	-1.2328707132	 1.8002070037	-0.5517284235	 0.113874
H	-1.0563013369	 0.808742142	-1.9918215674	 0.100167
H	 0.8592192229	 1.9256812095	-2.7255140997	 0.109345
H	 0.1042520197	 3.2463057172	-1.8391959455	 0.097468
H	 2.5535974397	 2.9758109445	-1.3588452594	 0.086773
H	 2.5941613853	 2.7892575404	 1.0662057486	 0.101273
H	 1.2225033724	 3.8232591482	 0.5903660279	 0.106688
H	 0.6480402505	 0.0285632004	 1.8973322015	 0.094419
H	-0.4101495079	-0.7951468942	-0.2929818973	 0.083252
H	 2.1257963481	-0.8264823301	-0.0269801212	 0.102493
147.6095	229.0233	336.1022	370.2846	451.8046	484.6318	523.9472	652.7224	694.2067	743.5028	754.8394	786.2553	835.3112	877.1442	889.5084	904.2709	949.3958	977.8331	1033.8518	1049.6883	1082.7511	1088.6602	1112.7221	1126.7344	1141.82	1176.3062	1222.0595	1236.9674	1259.7411	1281.2238	1325.804	1328.7302	1342.1002	1362.8745	1381.3851	1388.7953	1411.737	1445.1031	1474.5385	1493.1374	1496.8516	2996.7872	3038.2683	3044.7249	3065.7525	3073.7983	3080.9851	3093.442	3144.3455	3151.6304	3170.4437
C1CC2COC3C1C3O2	C1C[C@H]2CO[C@H]3[C@@H]1[C@H]3O2	
InChI=1S/C7H10O2/c1-2-5-6-7(5)9-4(1)3-8-6/h4-7H,1-3H2	InChI=1S/C7H10O2/c1-2-5-6-7(5)9-4(1)3-8-6/h4-7H,1-3H2/t4-,5+,6-,7+/m0/s1
