19
gdb 1155	3.9884363	0.9697109	0.8985544	3.6971	75.64	-0.22888	-0.01605	0.21283	1348.8724	0.154593	-422.528348	-422.519163	-422.518219	-422.563456	33.023	
C	 5.4925143728	 3.0582657111	-1.6473224042	-0.476537
C	 4.0837668088	 3.6167648458	-1.5757105029	 0.394258
O	 3.8297202876	 4.6540895185	-1.0084135176	-0.288249
C	 2.9886342789	 2.7818230841	-2.2426969722	-0.461489
C	 1.7048963547	 3.5345867292	-2.4184008278	 0.333778
C	 1.3103215601	 4.2814002013	-3.6794498539	-0.339533
C	 0.4125517744	 3.2120111413	-3.1334246713	 0.029196
O	-0.3999880899	 3.7222934891	-2.0766042269	-0.289376
C	 0.7924808351	 4.0041293458	-1.2879495051	-0.121631
H	 6.1577350819	 3.638343349	-1.0067852199	 0.145268
H	 5.5117086797	 2.0032596127	-1.3531670166	 0.136471
H	 5.8544376518	 3.1056034374	-2.6813827614	 0.143643
H	 3.3579400859	 2.3926509032	-3.19955265	 0.11673
H	 2.8421922457	 1.8953920615	-1.6051434212	 0.129265
H	 0.9924223012	 5.3197585349	-3.6387385219	 0.118878
H	 1.8802830956	 4.007039604	-4.5629632709	 0.10698
H	 0.0600907528	 2.340347293	-3.6742295602	 0.101517
H	 0.8639794769	 5.0524428774	-0.983947031	 0.119595
H	 0.8253939458	 3.3569320008	-0.403442275	 0.101235
39.8271	63.4657	119.3709	127.3091	261.8814	301.888	324.0645	377.8025	457.6595	474.0025	555.8912	722.8624	762.7049	792.333	834.5018	874.4925	904.3808	929.2926	975.9372	986.3173	1000.7258	1005.1326	1035.3973	1066.0879	1081.0718	1113.0775	1149.3072	1168.7225	1196.8577	1261.3717	1290.5995	1316.0495	1350.9483	1382.7233	1415.9054	1450.0639	1463.6571	1476.5622	1487.0346	1517.3177	1812.0734	2994.0163	3029.7875	3035.0971	3054.0143	3092.2936	3095.8184	3110.6627	3152.5373	3171.5473	3201.6683
CC(=O)CC12CC1OC2	CC(=O)C[C@@]12C[C@@H]1OC2	
InChI=1S/C7H10O2/c1-5(8)2-7-3-6(7)9-4-7/h6H,2-4H2,1H3	InChI=1S/C7H10O2/c1-5(8)2-7-3-6(7)9-4-7/h6H,2-4H2,1H3/t6-,7-/m0/s1
