19
gdb 2501	2.739148	1.9540199	1.362529	1.3229	74.41	-0.24113	0.0761	0.31723	961.5149	0.159105	-422.522335	-422.515154	-422.514209	-422.55336	29.64	
O	 0.497494271	 0.4053548174	-0.1115439411	-0.49149
C	-0.7742659018	 0.8936562123	 0.2508159252	 0.466075
C	-1.8652580103	-0.1670650528	 0.1000671859	-0.33099
C	-3.2207630448	 0.5250309942	-0.0618854327	-0.072082
O	-3.3283535156	 1.6456790523	 0.8022318734	-0.277318
C	-2.1511625626	 2.4052355907	 0.8525411471	 0.154843
C	-1.0912078536	 2.3232654188	-0.2965551936	-0.155488
C	-0.0767965457	 2.8807183451	 0.7414925204	-0.252933
C	-0.8787474157	 1.8044724146	 1.5225835837	-0.159065
H	 0.6593297798	-0.4026737344	 0.3867764564	 0.277491
H	-1.6572094308	-0.7856258808	-0.7795357217	 0.107378
H	-1.8619997711	-0.8256843897	 0.9789742568	 0.097607
H	-3.3331818286	 0.8556365783	-1.105960658	 0.096933
H	-4.0585522501	-0.1377196868	 0.1708788315	 0.106801
H	-2.4237974957	 3.4106962597	 1.1786941387	 0.084826
H	-1.2025783359	 2.6219428668	-1.3399112384	 0.073874
H	 0.9692290329	 2.6548001124	 0.5502905708	 0.12029
H	-0.2257475567	 3.9180314735	 1.0536424858	 0.088255
H	-0.7645227347	 1.4993399285	 2.5647308896	 0.064994
206.7084	218.7932	250.9605	372.5048	400.6282	417.7184	420.267	518.0317	550.3174	665.8666	702.1458	777.3943	818.1884	864.7126	897.3929	906.6855	931.7836	949.3279	992.4234	1022.4699	1051.0448	1078.1589	1083.235	1105.4489	1136.5787	1137.6609	1183.6726	1189.1545	1195.6817	1231.2798	1237.8954	1245.6467	1264.516	1289.0591	1347.2418	1371.7199	1402.7384	1423.3846	1486.2256	1508.6712	1513.4743	2984.2218	3017.3935	3066.6155	3075.1154	3088.4244	3091.6013	3097.1685	3107.8403	3170.2426	3808.2624
OC12CCOC3C1CC23	O[C@]12CCO[C@@H]3[C@H]1C[C@H]23	
InChI=1S/C7H10O2/c8-7-1-2-9-6-4(7)3-5(6)7/h4-6,8H,1-3H2	InChI=1S/C7H10O2/c8-7-1-2-9-6-4(7)3-5(6)7/h4-6,8H,1-3H2/t4-,5+,6-,7-
