19
gdb 5592	2.2256885	1.3508407	1.0403324	2.7907	77.59	-0.24681	-0.02567	0.22114	1226.0055	0.155499	-422.52447	-422.515456	-422.514512	-422.558629	32.655	
C	 1.5542889418	-1.1158568998	 1.1784168145	-0.37711
C	 1.1218075799	-0.2039660289	 0.0258465815	-0.218709
C	 1.7123412821	-0.6135561527	-1.308494936	-0.097501
C	 2.0575980585	 0.3268845673	-2.3980029545	 0.037044
O	 2.5123979936	 1.5859765895	-1.9298317009	-0.274836
C	 3.6598951506	 0.9679131413	-1.27648535	-0.153069
C	 3.1949830845	-0.4302458702	-1.6620871926	 0.175954
C	 4.0583970896	-1.5025894477	-2.1539782919	 0.053025
O	 5.2678616529	-1.4609124441	-2.1462451688	-0.274097
H	 1.2564749943	-2.1544992798	 0.9980059941	 0.116607
H	 2.6415709823	-1.1020382426	 1.3069615235	 0.124358
H	 1.0998907615	-0.798360294	 2.121569244	 0.119256
H	 0.0288468276	-0.2168825675	-0.0690619097	 0.106702
H	 1.3928892321	 0.8349675231	 0.2356929482	 0.122591
H	 1.3499672546	-1.5668647822	-1.6953022955	 0.099971
H	 1.725409695	 0.258964718	-3.4285763607	 0.120038
H	 4.5878841344	 1.2498977736	-1.7806132493	 0.137319
H	 3.7162210153	 1.2168893466	-0.2121587886	 0.116209
H	 3.5122167493	-2.3879433699	-2.5545955276	 0.066248
73.1632	86.9947	171.9984	184.3943	222.0384	253.7642	279.3996	347.406	431.8979	528.8636	582.4185	707.3956	733.8191	796.2773	816.033	887.3696	939.2981	955.1759	975.9436	1005.5868	1033.6135	1050.5867	1086.451	1103.3693	1119.7893	1124.8733	1153.3411	1229.2011	1268.3761	1286.9471	1330.8411	1346.5109	1369.3483	1413.0387	1426.0616	1467.1201	1489.0774	1499.7939	1508.0972	1518.741	1792.4858	2861.3225	3033.412	3035.2197	3050.1854	3079.1971	3103.4145	3109.0415	3109.9146	3114.4943	3174.202
CCC1C2OCC12C=O	CC[C@H]1[C@H]2OC[C@@]12C=O	
InChI=1S/C7H10O2/c1-2-5-6-7(5,3-8)4-9-6/h3,5-6H,2,4H2,1H3	InChI=1S/C7H10O2/c1-2-5-6-7(5,3-8)4-9-6/h3,5-6H,2,4H2,1H3/t5-,6+,7-/m0/s1
