19
gdb 2384	2.4494531	1.8536228	1.3765919	1.1909	75.82	-0.24405	0.00506	0.24911	1002.4608	0.157568	-422.5439	-422.535964	-422.53502	-422.576026	30.854	
C	-0.0556549408	 0.0367982932	-0.1275767794	-0.440098
C	 1.4618186521	 0.0408448936	-0.0750535067	 0.354152
C	 2.0358977029	-0.3341100729	 1.3188786801	-0.139359
O	 2.2756105423	 1.0574994739	 1.6147751408	-0.294594
C	 2.0824408277	 1.4325102118	 0.2154289469	 0.018229
C	 3.3840468764	 1.6686572734	-0.4831213381	-0.069326
C	 3.9395643531	 0.7294921656	-1.2448627758	-0.076672
C	 3.2916380025	-0.5986177947	-1.5060134049	-0.131711
O	 1.9038793236	-0.6403999016	-1.2237759863	-0.302094
H	-0.4682479783	 0.5538096474	 0.7429514739	 0.12806
H	-0.4036532979	 0.5376360128	-1.0357114022	 0.123962
H	-0.4296151379	-0.9913786068	-0.137343176	 0.123621
H	 1.3439137967	-0.7956634788	 2.0316216895	 0.103194
H	 2.9659673219	-0.9165522354	 1.287076109	 0.099069
H	 1.4092812746	 2.2945542134	 0.1418745909	 0.07622
H	 3.8864905988	 2.6151843107	-0.3037136216	 0.099085
H	 4.9136924353	 0.8819980195	-1.7031060894	 0.100804
H	 3.3838916945	-0.8652201637	-2.5654894271	 0.120225
H	 3.8270784725	-1.3837973113	-0.9426888435	 0.107232
103.2046	169.2804	245.9692	260.0822	307.2094	333.1603	411.4893	470.2525	503.1902	552.4093	636.3824	720.8275	804.5007	875.3035	898.9443	909.554	923.079	950.4962	973.0285	999.9895	1005.7763	1038.646	1051.9501	1123.777	1149.7488	1174.6524	1191.7781	1223.0817	1243.5843	1267.1035	1289.2362	1336.6154	1380.191	1404.1456	1406.6373	1417.5303	1484.0687	1490.2625	1497.3041	1514.2931	1723.8323	2945.3131	3013.4073	3037.4873	3042.9537	3050.3052	3069.1997	3116.2539	3124.8967	3152.1456	3174.5957
CC12COC1C=CCO2	C[C@]12CO[C@H]1C=CCO2	
InChI=1S/C7H10O2/c1-7-5-8-6(7)3-2-4-9-7/h2-3,6H,4-5H2,1H3	InChI=1S/C7H10O2/c1-7-5-8-6(7)3-2-4-9-7/h2-3,6H,4-5H2,1H3/t6-,7-/m0/s1
