19
gdb 1154	3.409461	1.1228061	0.9635292	2.8583	76.46	-0.23258	-0.00981	0.22277000000000002	1260.4553	0.154884	-422.531918	-422.522796	-422.521852	-422.567003	32.955	
C	 6.5344555281	 1.7106285744	-1.6906624529	-0.481814
C	 5.3008731142	 2.5420274203	-1.4054646786	 0.381906
O	 5.2833728446	 3.7458655749	-1.5080120431	-0.297893
C	 4.0407079187	 1.7678185646	-0.9926936213	-0.397832
C	 3.4156410874	 1.0804371177	-2.1734928693	 0.47207
C	 2.5857154206	 1.7156853421	-3.2456659476	-0.321279
C	 2.0398099307	 0.5243804744	-2.4783002342	-0.196932
C	 2.7848234761	-0.7262422754	-2.9245195805	-0.087249
O	 4.0729443989	-0.089548452	-2.6926632635	-0.32254
H	 6.873486134	 1.2273578306	-0.7661984101	 0.136538
H	 6.2928561968	 0.9063765514	-2.3932070183	 0.169614
H	 7.3307601384	 2.3441666733	-2.0829458564	 0.135973
H	 4.2849935646	 1.0185433071	-0.2304416777	 0.114425
H	 3.332300604	 2.4883028343	-0.5767308747	 0.125965
H	 2.1352934123	 2.6679153103	-2.9845144924	 0.126927
H	 2.8801957135	 1.6136523935	-4.2868165683	 0.11666
H	 1.1226548374	 0.5535908006	-1.9059278183	 0.104942
H	 2.6570726441	-1.5835411927	-2.2544953265	 0.111866
H	 2.6633521055	-1.0471600794	-3.9657633766	 0.108653
32.5981	65.5073	124.9819	150.3934	233.7512	282.8993	388.2582	402.2384	435.6348	509.6167	554.3171	718.0855	745.4133	781.6234	848.3613	876.5007	891.7245	951.2499	955.8806	974.297	995.8162	1008.4897	1036.0979	1065.8622	1074.7089	1114.1102	1134.6068	1170.5855	1219.7665	1252.9329	1267.7543	1309.7012	1340.3976	1387.3618	1398.1612	1452.1197	1467.028	1475.4962	1485.0405	1518.4411	1817.449	3026.1427	3034.1384	3039.9291	3075.8661	3100.3214	3113.5529	3116.8215	3154.7484	3203.2938	3213.3789
CC(=O)CC12CC1CO2	CC(=O)C[C@]12C[C@H]1CO2	
InChI=1S/C7H10O2/c1-5(8)2-7-3-6(7)4-9-7/h6H,2-4H2,1H3	InChI=1S/C7H10O2/c1-5(8)2-7-3-6(7)4-9-7/h6H,2-4H2,1H3/t6-,7-/m0/s1
