19
gdb 3662	2.652474	1.5004908	1.2618114	0.6966	76.27	-0.24234	0.08347	0.32581	1089.9565	0.154479	-422.475673	-422.466956	-422.466012	-422.50857	33.138	
C	 0.0053632853	-0.1106685464	-0.3885915368	-0.418677
C	 0.8928579497	 0.3874165357	 0.7206360082	-0.071058
O	 1.9866877313	 1.2781801632	 0.331053354	-0.313057
C	 2.2881872212	 0.0188220643	 0.8659124977	 0.482663
C	 3.2358661484	-0.3517245078	 2.0142665222	-0.055619
C	 4.4124315654	-0.2946327	 1.0127969757	-0.266086
C	 3.2465150207	-1.0751376749	 0.335388433	 0.296536
C	 3.2387200843	-1.8854295005	-0.920829403	-0.520252
O	 3.0191523876	-1.7679208388	 1.6377603872	-0.345168
H	-0.5845041056	-0.9672286911	-0.0452397664	 0.130089
H	-0.6908717657	 0.673131462	-0.7042812006	 0.130426
H	 0.594713515	-0.4166113687	-1.2559368912	 0.12727
H	 0.3712522105	 0.7305143883	 1.6154653728	 0.098833
H	 3.2048090492	-0.0978058841	 3.0725507624	 0.099403
H	 4.6874546381	 0.6774630885	 0.5964588415	 0.113696
H	 5.2693999192	-0.9132464677	 1.2844910101	 0.103887
H	 4.0602404829	-2.6078282843	-0.9179569552	 0.134597
H	 2.2966810221	-2.4319253542	-1.0220279192	 0.13653
H	 3.3573590205	-1.2295479635	-1.7889166325	 0.135989
139.2314	142.0485	176.4959	206.4171	224.8812	281.2476	318.3306	427.9295	454.3264	500.6025	589.3097	651.859	674.0844	746.4242	794.5531	833.0739	872.4082	920.3423	951.1108	995.0502	1016.1161	1027.166	1052.902	1088.3672	1104.2444	1130.4437	1153.4324	1172.5098	1207.5883	1224.0037	1229.6429	1325.8847	1369.5289	1408.0737	1414.635	1473.7278	1477.582	1481.3712	1488.5657	1495.1877	1571.8038	3039.5306	3041.9398	3065.7152	3097.9729	3103.1614	3115.7335	3118.7507	3132.4356	3137.6701	3147.7918
CC1OC11C2CC1(C)O2	C[C@@H]1O[C@]21[C@@H]1C[C@@]2(C)O1	
InChI=1S/C7H10O2/c1-4-7(8-4)5-3-6(7,2)9-5/h4-5H,3H2,1-2H3	InChI=1S/C7H10O2/c1-4-7(8-4)5-3-6(7,2)9-5/h4-5H,3H2,1-2H3/t4-,5-,6+,7+/m0/s1
