19
gdb 1828	2.3845632	1.9965334	1.3280562	4.3202	74.81	-0.258	0.01865	0.27665	999.9542	0.15848	-422.596883	-422.589059	-422.588115	-422.628816	30.603	
C	 0.004689141	 2.5375367338	 0.0128675488	-0.471936
C	-0.8771177673	 1.3056760015	 0.0068153996	 0.150871
C	-2.029094822	 1.1548185173	 1.0532869243	-0.261929
C	-2.7598554309	 0.3197558877	-0.0274700262	-0.041992
C	-1.9753856699	 1.1268369091	-1.0917082363	-0.261928
C	-2.2229614368	-1.1019506672	 0.0045260414	-0.073406
O	-0.7827587073	-1.1404115606	 0.0411009542	-0.242782
C	-0.0642471469	 0.0161443833	 0.0439784791	 0.427815
O	 1.134268593	-0.0362547505	 0.0746620117	-0.340821
H	 0.6300485786	 2.5679261058	 0.9093600644	 0.133473
H	 0.6748540434	 2.5445269545	-0.8511435182	 0.133496
H	-0.6106509703	 3.4424534683	-0.014796936	 0.104659
H	-1.8006738206	 0.679817784	 2.011625396	 0.109261
H	-2.5161565757	 2.1175194715	 1.2283646346	 0.106412
H	-3.8517661051	 0.3159733145	-0.0547635815	 0.076782
H	-1.6996138318	 0.6271623035	-2.024708265	 0.109261
H	-2.4524452556	 2.0843299595	-1.315973863	 0.106411
H	-2.5772201373	-1.6401114973	 0.8913701592	 0.118176
H	-2.5327377885	-1.6632839687	-0.884604257	 0.118175
122.3831	188.1034	208.527	278.3686	318.255	378.3464	394.947	454.2552	493.4396	617.3134	659.7314	750.1573	795.1833	849.9364	853.0463	883.8507	924.335	932.023	994.0884	1017.7349	1038.7862	1051.4445	1103.7934	1109.2983	1132.0437	1165.7562	1207.557	1226.1568	1235.9943	1273.1033	1294.1759	1333.0489	1352.4979	1416.3554	1420.3256	1481.0108	1484.5305	1488.7103	1509.8033	1518.1223	1846.1677	3030.2308	3041.105	3051.2749	3055.3099	3071.3238	3087.7371	3110.1598	3110.1773	3114.4827	3120.7408
CC12CC(C1)COC2=O	C[C@@]12C[C@@H](C1)COC2=O	
InChI=1S/C7H10O2/c1-7-2-5(3-7)4-9-6(7)8/h5H,2-4H2,1H3	InChI=1S/C7H10O2/c1-7-2-5(3-7)4-9-6(7)8/h5H,2-4H2,1H3/t5-,7+
