19
gdb 966	5.8388595	0.6845194	0.6757617	2.8547	77.35	-0.24449	-0.02037	0.22412	1658.0745	0.155525	-422.494312	-422.485645	-422.484701	-422.529095	31.251	
O	 0.3456354775	-1.1682175165	-0.3430462225	-0.236949
C	 0.4581418421	-0.006365615	-0.0485080257	 0.158791
C	-0.220290811	 0.6623066829	 1.1247626643	-0.27297
C	-1.0702230158	 1.8674496343	 0.6775154951	-0.246366
C	-1.7092613263	 2.5942603896	 1.8478164351	 0.031128
C	-0.8553543296	 3.5922307494	 2.6874960866	 0.046926
C	-2.1514616501	 4.2869682339	 3.1641336317	-0.222372
C	-2.2291609992	 4.0458236805	 1.6393676706	 0.030595
O	-0.8255623516	 4.5154389198	 1.5274333119	-0.312497
H	 1.0921481737	 0.6798569146	-0.6588154575	 0.073135
H	-0.8184280139	-0.0858205685	 1.6538009788	 0.118764
H	 0.568970474	 1.0132135872	 1.8055760568	 0.118867
H	-0.4523992845	 2.5793560736	 0.1215551792	 0.125977
H	-1.8577136765	 1.5179569327	-0.0020596688	 0.109498
H	-2.3687305789	 1.9441827908	 2.4332936016	 0.074282
H	 0.081192605	 3.4315870541	 3.2231856893	 0.095015
H	-2.8315343451	 3.730243263	 3.8135317956	 0.098483
H	-2.0299059348	 5.3295584125	 3.4576865727	 0.112586
H	-2.9445944251	 4.426542181	 0.9094844452	 0.097106
55.1969	62.1613	93.7244	133.9314	282.1471	305.5716	354.7645	517.2785	546.4931	659.7076	734.7139	760.7187	779.2817	829.2001	878.7764	888.2384	905.9678	922.8268	995.6313	1030.3347	1033.9095	1068.9426	1075.0297	1128.3625	1140.914	1144.0509	1151.6607	1192.7404	1200.0607	1211.8951	1257.0767	1273.5656	1283.8793	1312.5811	1360.0941	1413.8973	1431.2089	1464.7895	1488.7087	1494.7668	1836.57	2852.7998	3011.0474	3032.0408	3048.7576	3068.1153	3083.3864	3101.4384	3109.0459	3116.385	3154.6589
O=CCCC1C2CC1O2	O=CCC[C@H]1[C@@H]2C[C@H]1O2	
InChI=1S/C7H10O2/c8-3-1-2-5-6-4-7(5)9-6/h3,5-7H,1-2,4H2	InChI=1S/C7H10O2/c8-3-1-2-5-6-4-7(5)9-6/h3,5-7H,1-2,4H2/t5-,6-,7+
