19
gdb 5391	3.0480022	1.2479534	0.9496981	1.8817	77.48	-0.23216	0.01351	0.24567	1236.1916	0.157626	-422.537055	-422.528662	-422.527718	-422.5701	31.837	
O	 1.615127303	 0.8396966939	 0.816340233	-0.406098
C	 0.6020717501	-0.1223699259	 0.6006493541	-0.14507
C	-0.8052142434	 0.3975629318	 0.7685583197	 0.24203
C	-1.091548448	 1.6121485312	 1.2387809462	-0.179695
C	-2.5201780845	 2.0620586187	 1.4084962456	-0.122792
O	-3.4156251062	 0.9876006323	 1.6747770058	-0.258793
C	-3.2985075535	-0.1037232144	 0.8092471496	 0.101073
C	-2.6750853931	-1.3498870488	 1.3740325058	-0.306862
C	-1.9203277047	-0.4985003524	 0.3580832804	-0.155687
H	 1.4934252191	 1.5368403505	 0.1630142972	 0.28295
H	 0.6964803725	-0.5899197752	-0.3951606653	 0.09104
H	 0.7881047016	-0.923674985	 1.3275103359	 0.128348
H	-0.3010668431	 2.2934184889	 1.5366250996	 0.095424
H	-2.6112747552	 2.7332015854	 2.2683242619	 0.117309
H	-2.8525775302	 2.6304077794	 0.5220220929	 0.098426
H	-4.1280451658	-0.2013643732	 0.1109297191	 0.088468
H	-2.3540113747	-1.2907126889	 2.4077167789	 0.126006
H	-3.049659911	-2.3164251456	 1.0545148833	 0.111256
H	-1.8315435928	-0.9244851927	-0.6386010536	 0.092669
88.7922	134.9324	186.866	234.0136	240.8278	333.7484	376.4755	406.8657	517.4263	561.2765	591.3787	740.1312	766.7415	819.4573	827.7934	833.6449	945.7248	974.3536	983.287	1018.0975	1044.3547	1056.754	1070.2405	1082.0075	1106.3803	1123.8486	1170.9607	1184.6862	1209.8084	1234.0394	1268.2538	1294.5991	1360.5479	1383.2703	1401.6698	1409.2887	1427.4085	1473.7916	1490.445	1495.671	1731.2514	2949.3566	2951.3016	3040.777	3072.7738	3111.1311	3130.5741	3135.8773	3183.0235	3230.4401	3808.4469
OCC1=CCOC2CC12	OCC1=CCO[C@@H]2C[C@H]12	
InChI=1S/C7H10O2/c8-4-5-1-2-9-7-3-6(5)7/h1,6-8H,2-4H2	InChI=1S/C7H10O2/c8-4-5-1-2-9-7-3-6(5)7/h1,6-8H,2-4H2/t6-,7-/m1/s1
