19
gdb 2885	2.1874441	1.7292212	1.5639745	2.2527	75.33	-0.22449	0.07268	0.29717	1001.532	0.154582	-422.485499	-422.476712	-422.475768	-422.51816	33.705	
C	-2.3702322379	-1.6695195446	 0.0713269043	-0.53077
C	-2.2896261002	-0.3501807199	 0.7660768725	 0.438106
O	-3.5167820623	 0.2614910309	 1.2892882627	-0.364136
C	-2.4629090987	 1.2067667571	 1.6291526905	 0.02633
C	-1.4059699126	 0.1200490698	 1.9725694856	-0.193883
C	-0.3719979939	 0.768517408	 1.0295546296	 0.042495
O	 0.5129057449	-0.0760445756	 0.3210980068	-0.439686
C	-1.6879361597	 1.0301109698	 0.2833518798	 0.252935
C	-1.9370804614	 1.7211870779	-1.024163381	-0.535619
H	-2.7788697599	-2.4328557764	 0.7411368208	 0.129113
H	-3.0186793596	-1.6019819532	-0.8081279484	 0.12975
H	-1.3694971214	-1.9707098861	-0.2473532613	 0.144442
H	-2.7283543542	 2.1167369646	 2.1658933503	 0.089426
H	-1.2751014566	-0.3886731949	 2.9279932324	 0.076139
H	 0.145811645	 1.6565356127	 1.4189497207	 0.064816
H	 1.2450399139	-0.3048368255	 0.9020077247	 0.285447
H	-1.393612203	 1.2277261623	-1.8364049817	 0.132541
H	-3.0059977322	 1.702658183	-1.2608347721	 0.13319
H	-1.6125200802	 2.7670123801	-0.9909752363	 0.119363
169.4094	181.3174	195.3899	203.6	218.3282	273.0706	296.0237	337.2248	408.4962	540.8501	569.2654	655.5978	686.1004	742.1167	788.2963	792.1134	840.0889	882.2287	916.0587	941.911	960.2321	1037.5975	1088.575	1099.5741	1116.4585	1130.5597	1144.7792	1160.5055	1199.1108	1239.3761	1256.9405	1288.8603	1339.7066	1366.246	1400.7865	1415.3559	1447.1284	1482.0353	1486.7632	1490.1417	1493.8738	3000.9894	3030.5345	3039.7659	3096.2262	3105.9186	3106.19	3113.7209	3128.8364	3134.5453	3820.0965
CC12OC3C1C(O)C23C	C[C@@]12O[C@H]3[C@@H]1[C@@H](O)[C@@]23C	
InChI=1S/C7H10O2/c1-6-4(8)3-5(6)9-7(3,6)2/h3-5,8H,1-2H3	InChI=1S/C7H10O2/c1-6-4(8)3-5(6)9-7(3,6)2/h3-5,8H,1-2H3/t3-,4+,5-,6+,7+/m0/s1
