19
gdb 626	3.4608623	1.3864929	1.047498	1.017	77.42	-0.24053	0.01141	0.25194	1131.5436	0.15972	-422.559452	-422.55195	-422.551006	-422.591455	28.947	
C	-0.2014122674	-1.4850484318	 0.7699294947	-0.102377
O	 1.1823184309	-1.5416853943	 1.1090761047	-0.260913
C	 1.9060139412	-0.6659773891	 0.2435187038	-0.162241
C	 0.8699078126	 0.2422396759	-0.3764470606	 0.307017
C	 0.9406154578	 1.0233521432	-1.4470392231	-0.24214
C	-0.2820499757	 1.7335419867	-1.9695957721	-0.106317
O	-1.433324282	 1.5720092225	-1.1622383636	-0.251397
C	-1.5868348688	 0.2625051505	-0.6327462661	-0.112449
C	-0.4390348041	-0.0354382508	 0.3267833761	-0.093296
H	-0.4362934364	-2.1848252743	-0.050244745	 0.088241
H	-0.7695160559	-1.7845931102	 1.6543392248	 0.110943
H	 2.644958212	-0.1282104882	 0.8509340855	 0.117161
H	 2.4530585378	-1.2361788064	-0.5224850575	 0.105645
H	 1.8586585457	 1.1465422086	-2.0168228602	 0.090179
H	-0.1107050283	 2.8152656315	-2.0328566277	 0.119934
H	-0.4822280773	 1.3853657359	-3.0001898198	 0.098108
H	-2.5608419098	 0.254233598	-0.1356935872	 0.109275
H	-1.6052878115	-0.4883584444	-1.4401959603	 0.088285
H	-0.5380662809	 0.5983649066	 1.2178318035	 0.09634
102.8496	170.4239	230.1392	284.6622	327.384	345.0769	455.1054	534.5081	591.4779	663.9868	755.8889	794.2919	819.7984	900.1216	941.6846	963.4196	985.122	1023.9314	1026.2944	1065.8424	1079.3795	1093.1334	1118.3388	1150.2587	1181.7048	1210.8952	1233.0662	1242.4504	1286.4031	1295.228	1316.7719	1341.492	1353.2052	1375.4272	1406.8723	1419.0434	1488.6742	1499.5011	1506.4518	1519.8492	1764.5303	2932.0943	2957.5638	2970.0334	2988.2257	3021.3683	3034.3023	3042.4601	3086.7918	3094.3236	3155.6962
C1OCC2=CCOCC12	C1OCC2=CCOC[C@@H]12	
InChI=1S/C7H10O2/c1-2-8-4-7-5-9-3-6(1)7/h1,7H,2-5H2	InChI=1S/C7H10O2/c1-2-8-4-7-5-9-3-6(1)7/h1,7H,2-5H2/t7-/m0/s1
