19
gdb 1069	3.0055326	1.1232016	1.0141575	3.7824	76.45	-0.24478	-0.02239	0.22239	1245.4094	0.153357	-422.588497	-422.578832	-422.577887	-422.623565	35.175	
C	-3.856806165	 1.0474540767	-1.6184579244	-0.487759
C	-2.803446871	-0.0157316248	-1.3577046626	 0.335107
O	-2.5282606143	-0.8420434849	-2.1984028568	-0.301642
C	-2.0729487052	 0.0294087885	-0.0151852592	 0.208875
C	-2.9955505967	 0.2794328971	 1.1802759937	-0.472195
C	-1.0786945019	-1.1538275561	 0.2025212102	-0.385118
C	 0.0252341131	-0.1273507919	 0.4507344595	 0.407792
O	 1.1178567009	-0.1738425977	 0.9345157041	-0.288679
C	-0.8510183625	 1.032444281	-0.0553559365	-0.38917
H	-3.5061463187	 2.041127549	-1.3215572059	 0.139229
H	-4.1196820531	 1.0419565193	-2.6766627361	 0.146593
H	-4.755072513	 0.8355314378	-1.0279381089	 0.149636
H	-3.7403670535	-0.5174576646	 1.2794161438	 0.12925
H	-2.4141606674	 0.3043856029	 2.1078948485	 0.129945
H	-3.5245177663	 1.2332808223	 1.0989277544	 0.124865
H	-1.2889758914	-1.8572342061	 1.0118988905	 0.125159
H	-0.9214019119	-1.7077507357	-0.7286107958	 0.158981
H	-0.9063387726	 1.9175736565	 0.5839494445	 0.129772
H	-0.5676610495	 1.3399387006	-1.0676371429	 0.139358
41.0319	61.491	172.8515	184.8061	233.6613	268.3519	318.0547	332.6234	376.9828	422.6874	478.3367	539.1539	589.5698	622.2011	696.506	720.663	850.5023	875.5358	884.5682	957.1677	964.8709	1005.6077	1048.8081	1081.0423	1121.5903	1131.7849	1157.9334	1205.4076	1219.857	1258.7936	1302.7524	1383.1236	1413.4776	1425.496	1444.232	1463.1011	1476.9548	1498.5413	1501.2362	1799.7083	1895.9379	3032.998	3041.4961	3050.823	3060.6041	3098.317	3103.5075	3111.2649	3112.6909	3120.0314	3154.611
CC(=O)C1(C)CC(=O)C1	CC(=O)C1(C)CC(=O)C1	
InChI=1S/C7H10O2/c1-5(8)7(2)3-6(9)4-7/h3-4H2,1-2H3	InChI=1S/C7H10O2/c1-5(8)7(2)3-6(9)4-7/h3-4H2,1-2H3
