19
gdb 622	2.7484288	1.9534178	1.5811528	2.682	73.18	-0.24721	0.07864	0.32585000000000003	915.0846	0.16075	-422.556602	-422.549745	-422.548801	-422.58765	27.715	
C	-0.7315702093	-0.4164227318	-1.089871673	-0.100191
O	-1.4527025339	-0.1519643028	 0.1063670889	-0.277059
C	-0.7828370572	 0.8006421263	 0.9412786915	 0.218533
O	-0.7614119616	 0.3232210618	 2.2574732033	-0.261939
C	 0.2609276547	-0.6238081878	 2.5810356804	-0.04598
C	 0.8822314522	-1.3202046967	 1.3636192758	-0.25656
C	 1.394584732	-0.2637618139	 0.3883896741	-0.049306
C	 0.6665099003	 0.1250792051	-0.878977654	-0.080254
C	 0.5918527562	 1.0176297659	 0.3262813659	-0.12409
H	-0.7628028892	-1.4980841611	-1.2756703304	 0.104467
H	-1.2051280953	 0.0845306516	-1.9472774615	 0.098582
H	-1.3803121014	 1.7174773731	 0.9898004405	 0.083516
H	 1.0554774752	-0.1016564012	 3.1350243624	 0.091947
H	-0.1957930021	-1.3516301162	 3.2595227805	 0.106043
H	 1.7081747201	-1.9501849973	 1.7081234098	 0.097705
H	 0.1468443446	-1.9819559486	 0.898813686	 0.122925
H	 2.472345486	-0.1451573186	 0.3452547384	 0.089176
H	 1.2511198438	 0.4008210705	-1.7487639402	 0.091061
H	 1.0526472546	 1.9948393519	 0.3894883917	 0.091422
153.823	158.8943	254.2582	377.4366	454.6675	484.8079	535.2285	618.4637	730.5859	767.6491	777.1084	800.62	831.8564	899.5459	925.924	953.5998	975.5698	989.8331	1015.8222	1041.2072	1047.0713	1070.5773	1095.4446	1107.0087	1121.3038	1153.9253	1179.2898	1225.6831	1249.485	1272.0359	1312.6677	1336.6566	1342.8323	1367.3372	1377.2321	1393.6721	1426.1657	1438.1806	1481.3663	1516.7796	1526.1702	2990.154	2991.4158	3031.8287	3048.7655	3053.9048	3069.1387	3099.1326	3157.2194	3180.2904	3196.7039
C1OC2OCCC3C1C23	C1O[C@H]2OCC[C@H]3[C@@H]1[C@@H]23	
InChI=1S/C7H10O2/c1-2-8-7-6-4(1)5(6)3-9-7/h4-7H,1-3H2	InChI=1S/C7H10O2/c1-2-8-7-6-4(1)5(6)3-9-7/h4-7H,1-3H2/t4-,5+,6-,7+/m0/s1
