19
gdb 2379	3.308307	1.1310752	0.9511357	2.3885	76.22	-0.22246	0.06789	0.29035	1270.9598	0.155932	-422.486621	-422.477983	-422.477039	-422.520251	32.525	
O	 0.0412451542	 0.1806277559	 0.5315578271	-0.451711
C	-0.8020540466	 1.2475328046	 0.2985112305	 0.296984
C	-1.9416652676	 1.2444854507	-0.7163977272	-0.143343
O	-2.7817714803	 2.0136350932	 0.1908062665	-0.291229
C	-1.7803835771	 1.9504300283	 1.2094275503	 0.014082
C	-0.5268683719	 2.6683072177	 0.7644224859	-0.11941
C	 0.5736495181	 2.8404061911	 1.7647942191	-0.004001
C	 1.88966344	 3.4614868492	 1.3482934993	-0.278505
C	 0.9471560901	 4.2170150503	 2.2527706378	-0.276194
H	 0.9233413749	 0.4198691718	 0.2261888895	 0.294428
H	-1.7882839581	 1.7514795703	-1.6767144824	 0.100097
H	-2.3597733779	 0.244212	-0.8783662615	 0.114721
H	-2.0904348003	 1.8086934401	 2.2382606461	 0.111014
H	-0.6462879892	 3.4879742287	 0.0551581179	 0.082155
H	 0.6420450533	 2.0398716021	 2.4954971851	 0.095009
H	 2.8065188702	 3.0664338759	 1.7720572256	 0.1126
H	 1.984247058	 3.8030559456	 0.3225035657	 0.111553
H	 1.2186213623	 4.3356853526	 3.2957550583	 0.114816
H	 0.412722738	 5.062927622	 1.8336622366	 0.116937
54.3574	135.3551	149.9597	222.4859	282.0547	308.7694	363.9258	404.0621	428.2474	493.8384	699.9058	733.1785	779.0784	827.6843	868.4203	888.6781	923.3121	941.7213	969.6899	989.5392	1016.5163	1030.5513	1059.1964	1070.9905	1078.8351	1091.7502	1135.8406	1143.8677	1174.8688	1192.1392	1199.5232	1228.0631	1245.7718	1280.1133	1304.76	1344.4049	1427.9544	1461.5061	1469.0351	1506.5461	1513.4563	3020.3658	3075.0713	3097.8399	3128.1616	3135.1852	3151.483	3183.9287	3207.9707	3224.1414	3796.1385
OC12COC1C2C1CC1	O[C@@]12CO[C@@H]1[C@H]2C1CC1	
InChI=1S/C7H10O2/c8-7-3-9-6(7)5(7)4-1-2-4/h4-6,8H,1-3H2	InChI=1S/C7H10O2/c8-7-3-9-6(7)5(7)4-1-2-4/h4-6,8H,1-3H2/t5-,6-,7-/m1/s1
