19
gdb 5811	1.9084871	1.5847178	0.933189	4.1952	77.1	-0.23339	-0.01034	0.22305	1249.4529	0.156131	-422.577648	-422.568434	-422.56749	-422.612486	32.926	
O	-0.3485217225	-0.9430396989	 0.1641635732	-0.418802
C	 0.2696423328	 0.3293042781	 0.0271360992	-0.100607
C	-0.1947685614	 0.9385356576	-1.2864848231	 0.009581
C	 0.4015563588	 2.3472175	-1.5588043806	-0.29183
C	 0.7049471238	 2.3315354625	-3.0370564867	-0.082182
C	 0.5900973807	 1.1176232597	-3.5681765558	-0.058998
C	 0.1814354618	 0.0880791798	-2.5449839281	-0.126265
C	-0.9353951591	-0.8412309647	-2.9855340048	 0.136257
O	-1.3940556966	-0.8782615426	-4.0997181133	-0.253192
H	-0.0326949948	-1.3536430775	 0.974209343	 0.290811
H	-0.0003326355	 0.9942486023	 0.8627033289	 0.09169
H	 1.368647283	 0.2383875344	 0.0198789205	 0.088592
H	-1.2872240773	 1.0224272781	-1.242163327	 0.093213
H	-0.2895809589	 3.1485643704	-1.274065537	 0.111072
H	 1.3189852055	 2.5138214232	-0.9741150354	 0.103945
H	 1.0068988533	 3.22350184	-3.574899982	 0.09728
H	 0.7629368027	 0.856256866	-4.6042963415	 0.111132
H	 1.0234301632	-0.5795946096	-2.2919732132	 0.099069
H	-1.3062203896	-1.5097104488	-2.1797974164	 0.099234
53.6381	73.8945	119.2084	190.4356	216.8777	253.9647	282.6167	388.0895	410.3781	435.3775	606.6598	674.3724	759.3824	772.9157	799.3955	917.1557	947.5081	967.0514	975.2597	1001.2831	1039.3503	1063.6161	1076.6175	1090.9086	1120.74	1138.376	1184.7835	1227.8523	1252.1727	1275.1839	1294.5879	1305.8281	1329.1637	1357.5254	1382.0922	1416.6124	1457.2008	1489.6901	1521.1561	1694.6905	1821.6828	2916.9717	2959.3494	2960.7128	2992.6908	2995.1581	3033.9076	3056.8128	3190.037	3225.5678	3832.6242
OCC1CC=CC1C=O	OC[C@H]1CC=C[C@@H]1C=O	
InChI=1S/C7H10O2/c8-4-6-2-1-3-7(6)5-9/h1-2,4,6-7,9H,3,5H2	InChI=1S/C7H10O2/c8-4-6-2-1-3-7(6)5-9/h1-2,4,6-7,9H,3,5H2/t6-,7-/m1/s1
