19
gdb 5716	3.1398566	0.852391	0.7048412	2.8836	78.13	-0.26091	0.02488	0.28579	1613.0854	0.153185	-422.500605	-422.490191	-422.489247	-422.536705	36.776	
C	 4.199830011	 1.89053635	 4.5024303268	-0.376691
C	 3.2022288856	 2.0351307699	 3.3472074521	-0.216681
C	 3.2781642728	 0.8783714126	 2.3813048075	 0.084923
O	 4.4015669264	 0.8560523496	 1.4849932432	-0.254237
C	 3.1006416656	 1.0345681816	 0.9337829677	 0.031292
C	 2.5854797266	-0.09708861	 0.0569597434	-0.073036
O	 3.1781227813	-0.0740442633	-1.236150819	-0.409408
C	 1.1208462793	-0.0599978425	-0.0091212644	 0.29435
C	-0.075708492	 0.0249237431	-0.088824497	-0.458899
H	 4.0060233503	 0.9818034095	 5.0827357915	 0.116472
H	 5.2234113155	 1.8329891517	 4.1207068339	 0.136194
H	 4.1371680505	 2.7425626559	 5.1854317261	 0.115594
H	 2.1780910287	 2.0968467691	 3.7371874174	 0.105667
H	 3.3935107239	 2.9650144508	 2.800196453	 0.105812
H	 3.0502939425	-0.1004892751	 2.8106792598	 0.0893
H	 2.9029835584	 2.033752978	 0.539288238	 0.09252
H	 2.9162577932	-1.0412242637	 0.5045416566	 0.126091
H	 2.7663502755	 0.6405351165	-1.7348668511	 0.286415
H	-1.1347033051	 0.0765427162	-0.1547292052	 0.204324
48.8772	84.9963	99.2584	141.339	193.5181	213.5691	245.3528	268.8541	321.0984	382.2886	421.0887	523.1309	548.6134	594.9169	646.993	677.6161	757.8031	836.0797	917.4891	926.5601	949.5878	1018.5579	1040.1967	1073.3525	1099.6564	1118.0639	1154.6808	1176.1431	1254.2181	1273.2745	1278.4948	1293.2067	1339.61	1391.007	1409.299	1416.7078	1473.0389	1495.3985	1500.0175	1510.6543	2232.1374	3028.2275	3037.2603	3053.2521	3065.9811	3081.8415	3091.2942	3106.4706	3117.8522	3501.5643	3806.3635
CCC1OC1C(O)C#C	CC[C@@H]1O[C@H]1[C@H](O)C#C	
InChI=1S/C7H10O2/c1-3-5(8)7-6(4-2)9-7/h1,5-8H,4H2,2H3	InChI=1S/C7H10O2/c1-3-5(8)7-6(4-2)9-7/h1,5-8H,4H2,2H3/t5-,6+,7+/m1/s1
