19
gdb 3080	2.6846938	1.6506918	1.3719235	0.5489	74.13	-0.25676	0.06349	0.32025	1001.2559	0.158267	-422.532718	-422.525109	-422.524165	-422.564456	30.508	
O	 0.4563423283	-0.0160859969	 0.0940889673	-0.447082
C	-0.7247122905	 0.4966862963	 0.6444988902	 0.169173
C	-2.1380227583	 0.0964378368	 0.1031689675	-0.075317
C	-2.6194964221	 1.4222972622	 0.7608352449	-0.24143
C	-1.2181895026	 1.9412606184	 0.3188626289	-0.153597
C	-1.3556642622	 1.866323836	-1.1961663173	 0.485966
C	-0.4967025355	 2.5508097626	-2.1693637012	-0.299712
O	-1.8350440336	 2.9979595359	-1.9109958799	-0.296303
C	-2.0371838498	 0.4941757842	-1.3838898249	-0.3253
H	 0.4982916385	 0.224263931	-0.8368914116	 0.286996
H	-0.6533081427	 0.3336107466	 1.7218695995	 0.091746
H	-2.5921367132	-0.8660118505	 0.3364541235	 0.068076
H	-3.4916808759	 1.9157066637	 0.3276204687	 0.112208
H	-2.7210836891	 1.3505091478	 1.8455625135	 0.103164
H	-0.7542534981	 2.8357628187	 0.7325348123	 0.069297
H	 0.291782079	 3.2203429721	-1.8264693985	 0.117824
H	-0.3363912836	 2.1156267393	-3.1558590922	 0.113891
H	-3.0125425264	 0.6057661261	-1.8647774938	 0.120608
H	-1.443525512	-0.2095589704	-1.9766443268	 0.099792
108.7034	223.9453	234.7482	304.9977	330.8763	374.9894	443.795	485.385	546.9907	627.6077	753.2258	786.0252	821.9937	830.3746	853.183	881.7764	930.7064	951.9235	965.2346	996.9543	1016.3815	1027.1322	1077.4033	1113.9883	1124.0048	1138.72	1156.2373	1175.4908	1182.879	1197.7939	1223.1366	1244.5993	1264.9317	1300.1915	1305.9026	1325.0017	1433.5596	1446.0397	1491.0291	1510.0616	1534.7226	3049.2522	3072.3307	3073.4382	3096.9114	3101.4068	3122.6007	3129.3201	3133.7875	3158.9114	3819.6767
OC1C2CC1C1(CO1)C2	O[C@@H]1[C@H]2C[C@@H]1[C@@]1(CO1)C2	
InChI=1S/C7H10O2/c8-6-4-1-5(6)7(2-4)3-9-7/h4-6,8H,1-3H2	InChI=1S/C7H10O2/c8-6-4-1-5(6)7(2-4)3-9-7/h4-6,8H,1-3H2/t4-,5-,6+,7-/m0/s1
