19
gdb 4299	2.9604051	1.3402166	0.9621523	4.4129	79.27	-0.25989	-0.03724	0.22265000000000001	1244.1278	0.156632	-422.615374	-422.606433	-422.605489	-422.648832	33.128	
C	-3.8914543896	-1.6059179487	-0.0389832451	-0.401462
C	-2.5464407307	-0.9375796676	-0.2673020711	 0.131553
C	-2.5341297455	 0.5591212782	 0.025442812	-0.273909
C	-1.1221442379	 1.067154838	 0.0033621272	-0.159408
C	-0.0845747307	 0.2630776846	 0.2622608313	 0.156706
C	 1.3525494103	 0.69809286	 0.2625663991	-0.473369
C	-0.3343199935	-1.1449598078	 0.689815707	 0.379365
O	 0.5198801678	-1.8387249721	 1.1817433089	-0.334095
O	-1.596640269	-1.6303100676	 0.5706289785	-0.24717
H	-4.2121816776	-1.4792018352	 0.9993337227	 0.129802
H	-4.6488693982	-1.1665069726	-0.6951794265	 0.11909
H	-3.8255728901	-2.6759531181	-0.2503177488	 0.135867
H	-2.2307361697	-1.0868654268	-1.3099578525	 0.089676
H	-3.1447014498	 1.0775512208	-0.7224297543	 0.117071
H	-3.0009204153	 0.7618823667	 1.0008733803	 0.124633
H	-0.9540936223	 2.1194822994	-0.2138159862	 0.102744
H	 1.8052441579	 0.5321265536	 1.2445494814	 0.149266
H	 1.939753186	 0.1083815025	-0.4493777449	 0.139267
H	 1.4420805378	 1.7550315325	-0.000499839	 0.114373
90.8316	132.6794	162.2253	227.6891	269.6513	271.0931	306.5406	357.0721	420.2949	446.7383	527.337	561.4549	686.5147	709.794	769.369	866.4758	885.2949	925.1442	965.477	997.0919	1072.2735	1075.0705	1076.613	1115.1988	1144.8137	1172.0819	1223.4069	1261.7998	1324.8078	1371.0925	1390.6708	1402.7076	1414.3114	1416.5269	1467.0543	1470.7743	1484.8555	1488.2494	1499.0192	1719.541	1813.6307	2996.9949	3009.5832	3041.6441	3045.2157	3065.373	3100.4506	3118.5624	3125.6656	3128.9616	3156.2787
CC1CC=C(C)C(=O)O1	C[C@H]1CC=C(C)C(=O)O1	
InChI=1S/C7H10O2/c1-5-3-4-6(2)9-7(5)8/h3,6H,4H2,1-2H3	InChI=1S/C7H10O2/c1-5-3-4-6(2)9-7(5)8/h3,6H,4H2,1-2H3/t6-/m0/s1
