19
gdb 874	2.2301461	1.6080367	1.0870075	2.3933	76.32	-0.2392	-0.02117	0.21803	1140.982	0.156629	-422.554781	-422.54625	-422.545306	-422.588888	31.525	
O	 1.5394706447	-0.3734307209	-0.259121836	-0.263184
C	 0.3790118259	-0.0923400137	-0.1061915859	 0.166615
C	-0.4378631067	 0.7688084197	-1.0438233021	-0.154629
C	-1.1802205992	 1.9023276918	-0.2833743187	-0.253144
C	-2.640535477	 1.7396936362	-0.7420576616	-0.095286
O	-2.7840817907	 0.3486869195	-0.9950822835	-0.273697
C	-1.6022153564	-0.0462035059	-1.6434176914	 0.422435
C	-1.6700287187	-0.370463499	-3.1144657324	-0.326551
C	-1.5212892417	-1.4727483999	-2.0804382588	-0.345314
H	-0.201435508	-0.4806459015	 0.7637332597	 0.079841
H	 0.2264242134	 1.1481366525	-1.8225823429	 0.095992
H	-1.1100314463	 1.7440548492	 0.7983245437	 0.114244
H	-0.7673452009	 2.8885908124	-0.5033338542	 0.117433
H	-3.3770626759	 2.0226390736	 0.0131252096	 0.11371
H	-2.8291050954	 2.3222408936	-1.6568029854	 0.097752
H	-2.6397905982	-0.2642603922	-3.5876373347	 0.12317
H	-0.8185311941	-0.1345072791	-3.7441730687	 0.118025
H	-2.3876284427	-2.0925927406	-1.8793977939	 0.130642
H	-0.5672329821	-1.9832049254	-2.0037518428	 0.131947
40.9263	68.0695	179.7538	223.8077	278.1346	323.2745	367.8584	427.8285	515.3024	545.3755	636.6896	770.316	797.344	865.0168	880.9587	901.8233	920.2078	958.528	961.923	990.0259	1025.7727	1047.6386	1074.8683	1081.4564	1094.8937	1149.1688	1192.0128	1201.7638	1237.7671	1245.6812	1272.4632	1286.0922	1341.7783	1349.0635	1386.5185	1421.988	1450.5636	1487.8882	1490.9166	1519.1654	1830.1921	2857.5386	2988.8736	3048.4181	3093.1474	3106.1318	3118.9737	3130.4164	3136.6651	3217.9674	3231.7887
O=CC1CCOC11CC1	O=C[C@@H]1CCOC21CC2	
InChI=1S/C7H10O2/c8-5-6-1-4-9-7(6)2-3-7/h5-6H,1-4H2	InChI=1S/C7H10O2/c8-5-6-1-4-9-7(6)2-3-7/h5-6H,1-4H2/t6-/m0/s1
