19
gdb 5446	3.733764	1.0731121	1.0285863	2.7145	74.36	-0.24934	0.06051	0.30985	1225.308	0.157754	-422.488879	-422.480978	-422.480034	-422.521395	30.552	
O	 1.6269436107	 0.5154741441	-0.1953731465	-0.417786
C	 0.3890712494	 0.1537107957	 0.3968641621	-0.097662
C	-0.5326905544	 1.3385506857	 0.5845165867	-0.046302
C	-0.3729838747	 2.1196100813	 1.8666125188	-0.09601
C	-1.6005618951	 1.2201161796	 1.6308435018	-0.083618
C	-2.4958363596	 2.4796092158	 1.643947995	 0.099577
O	-2.7271975463	 3.1345187182	 0.3713560097	-0.2975
C	-1.6592435267	 4.0885383443	 0.6212684831	-0.109196
C	-1.2771740474	 3.3738180129	 1.933225426	-0.084424
H	 2.0152753142	 1.2065000478	 0.3513554006	 0.280465
H	-0.0635724737	-0.5702781451	-0.2886874508	 0.116546
H	 0.5388079072	-0.3602717723	 1.3612623871	 0.081676
H	-0.7725230388	 1.8564069138	-0.3388304416	 0.111895
H	 0.4677923989	 1.9433957067	 2.5290154409	 0.084961
H	-1.8552530402	 0.2705748205	 2.0878077645	 0.084958
H	-3.3909214611	 2.4355598769	 2.2685194082	 0.081089
H	-0.9158089099	 4.1046731912	-0.183890167	 0.106141
H	-2.0620686953	 5.098914039	 0.7626498364	 0.10324
H	-1.1915788571	 3.9656928439	 2.8428095649	 0.081949
100.1091	134.5346	212.4294	223.3522	325.4995	358.4762	408.3614	460.6107	570.7632	699.2601	760.4559	789.9362	848.9183	870.909	881.7779	916.8181	948.4953	972.0487	989.6638	997.3302	1024.1402	1048.5333	1061.5324	1073.5258	1104.7764	1114.8269	1159.2839	1168.5859	1194.0018	1215.2336	1223.9476	1267.8227	1279.1848	1295.3798	1327.1532	1350.4439	1369.4982	1419.401	1437.1559	1507.0898	1519.4271	2963.4141	3018.453	3065.6578	3072.0981	3083.6121	3127.5966	3160.7852	3162.3996	3176.3883	3811.0294
OCC1C2C1C1OCC21	OC[C@@H]1[C@@H]2[C@H]1[C@@H]1OC[C@H]21	
InChI=1S/C7H10O2/c8-1-3-5-4-2-9-7(4)6(3)5/h3-8H,1-2H2	InChI=1S/C7H10O2/c8-1-3-5-4-2-9-7(4)6(3)5/h3-8H,1-2H2/t3-,4-,5+,6+,7-/m1/s1
