19
gdb 2087	2.543663	1.6742291	1.2678569	2.1675	76.94	-0.2305	0.00184	0.23234000000000002	1045.5699	0.157524	-422.537357	-422.529255	-422.528311	-422.56942	32.043	
O	 0.3830833128	 0.2456209017	 0.6528498402	-0.457913
C	-0.9231495433	 0.7170743401	 0.4132610967	 0.348522
C	-1.9759442833	-0.1422532219	 1.0584653678	-0.351629
C	-1.7198471004	 1.2397077892	 1.5976551516	 0.01247
O	-2.7550829101	 2.142037312	 1.3611474314	-0.231293
C	-2.3714091002	 3.4803275043	 1.1009568109	-0.05542
C	-1.1935195762	 3.626359905	 0.1110299488	-0.294286
C	-1.2497627576	 2.6729704688	-1.0592807831	-0.043426
C	-1.1344103274	 1.3504899644	-0.9175172328	-0.145301
H	 0.9892334181	 0.9750401363	 0.4796294484	 0.27784
H	-2.9124845895	-0.286217764	 0.5325969616	 0.127172
H	-1.6193225591	-0.9871439836	 1.6363458112	 0.122665
H	-1.1979073322	 1.3386142412	 2.5505089624	 0.085864
H	-3.2707997366	 3.9536370506	 0.6949358752	 0.111501
H	-2.1119625377	 4.0010783696	 2.0362497378	 0.090211
H	-1.1745739063	 4.6653788166	-0.2330656494	 0.104893
H	-0.2572161344	 3.4729892103	 0.6598704006	 0.109792
H	-1.3935323807	 3.0951335504	-2.0507654682	 0.095141
H	-1.1429883158	 0.6953284091	-1.786080211	 0.093198
152.4507	159.4626	229.299	284.3734	322.9965	338.399	388.8028	419.3006	454.0881	541.859	618.2768	634.8221	772.9762	784.7509	807.6455	866.1169	902.161	923.3337	944.674	993.2437	999.0052	1032.5798	1042.0762	1081.4541	1108.1626	1116.2695	1169.7122	1211.9091	1218.8446	1266.473	1272.6058	1282.8615	1324.4796	1355.9502	1394.3396	1409.701	1429.7317	1474.9879	1482.6046	1507.9099	1702.8029	2980.1724	3035.0451	3070.2756	3087.0335	3093.2963	3141.6282	3142.271	3166.7747	3238.5325	3791.0259
OC12CC1OCCC=C2	O[C@@]12C[C@@H]1OCCC=C2	
InChI=1S/C7H10O2/c8-7-3-1-2-4-9-6(7)5-7/h1,3,6,8H,2,4-5H2	InChI=1S/C7H10O2/c8-7-3-1-2-4-9-6(7)5-7/h1,3,6,8H,2,4-5H2/t6-,7-/m0/s1
