19
gdb 4213	2.7863468	1.5291257	1.0944726	2.1325	75.19	-0.22669	-0.01694	0.20975	1123.6508	0.156911	-422.566077	-422.557785	-422.556841	-422.599038	31.739	
C	 0.2204735893	-2.4252135275	-0.3125523716	-0.402266
C	-0.8278996814	-1.3463556051	-0.0721415846	 0.03535
O	-1.5482827123	-1.1436069505	-1.2866906405	-0.261527
C	-2.5503019244	-0.1779401028	-1.1465950676	 0.1043
C	-2.5243066889	 0.9507467011	-2.1290648635	-0.315979
C	-2.0534765526	 1.1777715626	-0.7073463819	-0.064021
C	-0.5649779463	 1.2071853797	-0.3766175368	-0.333394
C	-0.1832266678	-0.0371144786	 0.4173059347	 0.37122
O	 0.5635668264	-0.0237294807	 1.3665757021	-0.31623
H	 0.8176178271	-2.5587902284	 0.5913235965	 0.143795
H	-0.2620900763	-3.3695127903	-0.5750381792	 0.125379
H	 0.8825314396	-2.1353400403	-1.1339297309	 0.125781
H	-1.5172160852	-1.6778462244	 0.722753561	 0.095703
H	-3.5041262439	-0.5593762061	-0.7829957148	 0.088474
H	-1.7720035329	 0.9026306056	-2.909007005	 0.124863
H	-3.4707848473	 1.3857889811	-2.4295830815	 0.11767
H	-2.6922794497	 1.7646235799	-0.0561415341	 0.100625
H	 0.0347819106	 1.2055083889	-1.2955584067	 0.131907
H	-0.2770921938	 2.089694436	 0.1977975243	 0.128352
60.0498	142.6342	215.291	256.0064	294.8127	332.972	420.4156	450.9169	476.255	502.6923	598.9795	709.9437	737.1602	813.0417	816.5113	861.4743	885.2624	936.2965	993.1743	1028.442	1046.3936	1074.4932	1088.1857	1117.5471	1126.8877	1146.7205	1175.675	1200.2675	1226.3417	1237.1828	1289.0015	1327.5474	1329.4074	1372.4374	1396.6867	1405.9136	1449.6164	1479.6419	1485.8817	1497.9892	1819.6634	2963.6504	3034.3131	3051.7708	3103.6548	3115.8909	3124.7945	3136.0071	3147.7461	3166.2656	3226.7532
CC1OC2CC2CC1=O	C[C@@H]1O[C@@H]2C[C@@H]2CC1=O	
InChI=1S/C7H10O2/c1-4-6(8)2-5-3-7(5)9-4/h4-5,7H,2-3H2,1H3	InChI=1S/C7H10O2/c1-4-6(8)2-5-3-7(5)9-4/h4-5,7H,2-3H2,1H3/t4-,5-,7+/m0/s1
