19
gdb 2546	3.9685884	1.0865977	0.9861747	3.1025	79.01	-0.23303	0.01226	0.24528999999999998	1261.2221	0.156306	-422.541178	-422.532559	-422.531615	-422.574836	31.551	
C	 1.4409972091	-0.2474031204	-0.2031607504	-0.492648
C	 0.0520139255	 0.2980341995	-0.1466097818	 0.28656
C	-1.1062310353	-0.3474672454	-0.0292112265	-0.270933
C	-2.2500625349	 0.6155988996	-0.0155475177	 0.340035
C	-3.319470992	 0.4756263013	 1.1033078854	-0.120024
O	-4.304789702	 0.0170690402	 0.1576461965	-0.273793
C	-3.454933982	 0.3439689592	-0.9587229268	-0.120023
O	-1.653004588	 1.8957443321	-0.1364862785	-0.30817
C	-0.2366974955	 1.7759301192	-0.2220517484	-0.170132
H	 2.0561130803	 0.1505265189	 0.6136134648	 0.1328
H	 1.4470942122	-1.3378109984	-0.1333417148	 0.132245
H	 1.9405131771	 0.0377332367	-1.1375192841	 0.132816
H	-1.2467293138	-1.4185757664	 0.0484633904	 0.109831
H	-3.1288558791	-0.2584810653	 1.8946943668	 0.098889
H	-3.5810967352	 1.4444337987	 1.5481378564	 0.105364
H	-3.3629698855	-0.485998235	-1.6688190962	 0.098888
H	-3.7803303105	 1.2508002919	-1.4847339717	 0.105362
H	 0.1212885607	 2.2223080796	-1.1633593432	 0.106464
H	 0.2373496587	 2.3350255041	 0.6002312898	 0.106469
80.7995	85.8723	157.5971	171.1875	265.3944	298.2385	387.4556	392.915	451.4145	514.2495	614.5192	797.3082	844.8549	863.9241	899.794	916.9489	943.1073	985.8294	997.4307	1012.4265	1031.0882	1051.6246	1070.031	1093.6167	1116.6984	1149.0149	1159.85	1200.8542	1229.2794	1263.0942	1289.8593	1337.8217	1368.6769	1385.7628	1414.8717	1479.7297	1488.9839	1495.7228	1517.655	1525.4532	1730.1227	2974.3163	2992.6288	3006.4337	3018.1615	3021.8742	3067.0413	3067.4067	3068.1934	3118.7601	3211.0382
CC1=CC2(COC2)OC1	CC1=CC2(COC2)OC1	
InChI=1S/C7H10O2/c1-6-2-7(9-3-6)4-8-5-7/h2H,3-5H2,1H3	InChI=1S/C7H10O2/c1-6-2-7(9-3-6)4-8-5-7/h2H,3-5H2,1H3
