19
gdb 3928	4.4019472	1.1448806	1.1000333	1.8965	77.09	-0.23813	0.07121	0.30934	1169.5171	0.156082	-422.443125	-422.435258	-422.434314	-422.474976	31.625	
C	 2.3169917668	-1.1081891729	-1.1415790626	-0.416713
C	 1.8253348272	-0.2325167076	-0.001296781	 0.013323
C	 2.4218070331	 1.2355768575	 0.0881812717	-0.349119
C	 2.5298722327	 0.977640737	 1.5948009894	 0.311442
O	 1.1333459043	 0.9476359251	 2.1923967543	-0.367623
C	 1.8424462695	-0.191927076	 2.7845446721	-0.038511
C	 3.0648794118	 0.8125191977	 3.0584526215	 0.094517
O	 2.8805986494	 1.8045780946	 3.9938401863	-0.433193
C	 2.4522598648	-0.5419547186	 1.4176239008	-0.049024
H	 1.9379120378	-2.1312092916	-1.0417039083	 0.1204
H	 1.9811935148	-0.7186088246	-2.1087764341	 0.118555
H	 3.4117105011	-1.1586999186	-1.1665011403	 0.111931
H	 0.7369639062	-0.2036659868	 0.0278897887	 0.101819
H	 3.4029701739	 1.2987896555	-0.3922263193	 0.111487
H	 1.7970849521	 2.074649913	-0.2255913347	 0.116371
H	 1.3005039422	-0.7902515644	 3.522803148	 0.090917
H	 4.0666189982	 0.3910019962	 3.168796387	 0.096823
H	 1.9810233859	 2.1295865088	 3.8346905573	 0.289978
H	 3.3798495981	-1.1186747743	 1.3979537431	 0.076619
135.8637	200.4293	243.2801	269.9087	300.4673	362.2758	417.1616	502.912	537.3631	608.2201	643.962	699.8431	732.4308	800.3651	826.9804	851.9245	859.314	904.9574	932.6898	942.9911	1024.1725	1067.1775	1078.2096	1094.4271	1119.2534	1141.1926	1149.4	1174.4535	1182.0138	1202.2775	1242.1846	1247.1986	1265.04	1294.5166	1308.1491	1355.0744	1411.7251	1450.8987	1464.2265	1493.7465	1497.2404	3023.6286	3058.1752	3069.6268	3084.7007	3086.0829	3095.8859	3103.8093	3117.5574	3131.0138	3720.7034
CC1CC23OC(C2O)C13	C[C@@H]1C[C@]23O[C@H]([C@@H]2O)[C@@H]13	
InChI=1S/C7H10O2/c1-3-2-7-4(3)5(9-7)6(7)8/h3-6,8H,2H2,1H3	InChI=1S/C7H10O2/c1-3-2-7-4(3)5(9-7)6(7)8/h3-6,8H,2H2,1H3/t3-,4-,5+,6+,7-/m1/s1
