19
gdb 835	3.5310208	1.2339307	1.144211	3.5503	74.33	-0.24298	-0.01332	0.22966	1119.8244	0.158333	-422.559487	-422.551617	-422.550672	-422.592713	29.708	
O	 1.1595213039	-0.4362235445	 0.098298684	-0.255154
C	 0.0328197204	-0.0236279062	 0.0010068911	 0.147496
C	-0.3706268209	 1.4353184234	 0.1385203927	-0.050494
C	-1.0013904593	 1.9002483637	-1.2167063036	-0.260772
C	-2.5234152798	 1.9732724509	-1.1083030457	 0.103046
C	-2.963476769	 2.9580168494	-0.0100076846	-0.242576
C	-2.7904719687	 1.7122265192	 0.877513435	 0.103047
C	-1.3472876714	 1.56216217	 1.3553616946	-0.260772
O	-2.9851312713	 0.8557785844	-0.2892745651	-0.29831
H	-0.8246507055	-0.7028470908	-0.2036338958	 0.095831
H	 0.5492318001	 1.9900122794	 0.3351391462	 0.093145
H	-0.602461852	 2.876961103	-1.5106341423	 0.111142
H	-0.7215931227	 1.1998990898	-2.0124813196	 0.114677
H	-3.0228606941	 2.0050477649	-2.0797901718	 0.081688
H	-2.333315466	 3.8281840895	 0.1891258851	 0.098169
H	-4.0077509224	 3.2568844656	-0.1111460802	 0.11233
H	-3.5259224652	 1.5133097687	 1.6609593472	 0.081688
H	-1.0720059721	 2.4180239119	 1.9808454021	 0.111143
H	-1.2600751541	 0.6735768177	 1.9916324608	 0.114676
48.7696	69.8993	249.3598	290.1885	346.1432	362.7741	399.3038	488.5726	543.0865	686.0943	812.747	827.3889	844.7399	856.5574	905.9049	919.2755	945.5482	953.7544	973.5437	1022.4198	1046.7652	1071.5	1090.7107	1129.4163	1140.1137	1174.0337	1214.6579	1237.939	1270.1007	1272.6723	1298.887	1336.3115	1344.2656	1353.1707	1353.8397	1384.8067	1409.87	1483.0601	1484.0177	1495.8714	1831.549	2893.7589	3032.9202	3033.1825	3065.4491	3072.0041	3073.965	3079.5492	3083.4161	3092.7205	3133.5066
O=CC1CC2CC(C1)O2	O=C[C@H]1C[C@@H]2C[C@H](C1)O2	
InChI=1S/C7H10O2/c8-4-5-1-6-3-7(2-5)9-6/h4-7H,1-3H2	InChI=1S/C7H10O2/c8-4-5-1-6-3-7(2-5)9-6/h4-7H,1-3H2/t5-,6+,7-
