19
gdb 4913	1.7878504	1.2196156	0.8592564	2.1373	81.6	-0.24425	0.02809	0.27233999999999997	1446.4854	0.152994	-422.511124	-422.500196	-422.499252	-422.549149	37.25	
C	 1.5867455217	 0.0038555694	-0.0895118175	-0.505059
C	 0.1332007923	-0.0571682816	-0.0822293552	 0.129277
C	-1.0704417054	-0.104274788	-0.0729285196	 0.040467
C	-2.5115087199	-0.1224783955	-0.1091542425	 0.1193
C	-3.1538991847	 0.5684247406	-1.3077083276	-0.145362
O	-2.7488490079	 0.0150178583	-2.5436316655	-0.401068
O	-3.1960008053	 0.1353643216	 1.1353056712	-0.283669
C	-3.276729549	-1.1836736876	 0.5959595753	 0.03546
C	-2.6323594234	-2.2916157408	 1.3847308619	-0.428694
H	 1.963145902	 0.5388518723	 0.7892916889	 0.154158
H	 2.0294689478	-0.9981961461	-0.0844262732	 0.149918
H	 1.9537164341	 0.52620316	-0.9796054765	 0.155463
H	-4.2450533275	 0.5429066242	-1.1697845111	 0.097275
H	-2.8434575777	 1.6174115516	-1.3297753261	 0.123908
H	-2.9991201219	-0.9147496179	-2.5489217524	 0.283891
H	-4.2593131336	-1.4208892291	 0.1784932638	 0.083618
H	-3.2263836319	-2.514433977	 2.2770586063	 0.130321
H	-2.5745945472	-3.2044136512	 0.7820379756	 0.119746
H	-1.6239970327	-2.0109375131	 1.6945114542	 0.141052
13.9052	65.1885	84.6212	114.5538	174.3385	192.67	231.3479	283.0063	293.7689	350.2352	381.8214	404.6683	495.668	535.7469	581.9559	633.91	797.2013	849.9441	953.7138	991.2191	1035.7977	1050.842	1053.4028	1056.0709	1095.5721	1131.6074	1163.5051	1201.8082	1268.7492	1341.8855	1372.8544	1407.44	1412.1522	1420.0544	1446.8374	1475.791	1476.7383	1486.7026	1494.6448	1503.5268	2367.6454	2997.7393	3028.8582	3039.5247	3067.208	3088.6282	3090.0694	3092.7842	3102.2988	3140.1904	3811.1707
CC#CC1(CO)OC1C	CC#C[C@]1(CO)O[C@@H]1C	
InChI=1S/C7H10O2/c1-3-4-7(5-8)6(2)9-7/h6,8H,5H2,1-2H3	InChI=1S/C7H10O2/c1-3-4-7(5-8)6(2)9-7/h6,8H,5H2,1-2H3/t6-,7-/m1/s1
