19
gdb 4972	2.5399427	1.4843056	1.1908441	1.8816	75.28	-0.22735	0.06888	0.29623	1112.1346	0.15612	-422.496458	-422.487842	-422.486898	-422.529694	32.478	
C	-1.453971841	-3.641973204	 0.5552995973	-0.508563
C	 0.0286280008	-3.5415065005	 0.6756671227	 0.415927
O	 0.8507531646	-4.4021692033	-0.1186984467	-0.331705
C	 1.9751111347	-3.5614298908	 0.2692794697	 0.025567
C	 2.1756783185	-3.896828105	 1.7678415316	-0.234213
C	 0.817940665	-3.222326681	 1.9629790451	-0.224463
C	 0.9915123165	-2.3961808826	 0.6739406567	 0.222553
C	 0.9109742234	-0.9340193654	 0.3990510653	-0.222828
O	 1.9757541875	-0.1950452326	 0.987534517	-0.410234
H	-1.9410062518	-2.887433681	 1.1800404682	 0.125284
H	-1.7745517794	-3.4943827951	-0.4805673432	 0.133313
H	-1.7986942049	-4.6281603877	 0.8839714136	 0.136438
H	 2.7826434863	-3.5461825036	-0.4593416628	 0.090467
H	 2.2851792476	-4.9571875221	 2.0153179414	 0.10087
H	 2.9852983672	-3.3097035239	 2.2090024942	 0.102626
H	 0.3242318469	-2.9307664636	 2.8827871226	 0.086438
H	 0.9816109238	-0.7385915326	-0.676645987	 0.12034
H	-0.0708054948	-0.5575405338	 0.7313957083	 0.090636
H	 1.9608770892	-0.3808906514	 1.9324979058	 0.281548
86.2459	111.1688	184.8335	213.3474	268.6041	287.2694	338.0176	403.7582	470.3499	598.6628	607.5676	658.5021	728.5371	809.5399	864.4119	891.7742	922.5787	927.3321	933.3992	945.6417	994.1072	1038.3044	1068.4242	1084.6116	1103.2169	1118.5989	1153.6082	1172.0207	1217.4148	1234.0541	1273.546	1289.3298	1326.6106	1362.1992	1408.7144	1417.901	1471.4176	1482.0888	1486.3394	1493.933	1509.0686	2966.2888	3036.6302	3049.4019	3064.5492	3102.8748	3112.1608	3114.5917	3148.7017	3183.8761	3807.7678
CC12OC3CC1C23CO	C[C@]12O[C@@H]3C[C@H]1[C@]23CO	
InChI=1S/C7H10O2/c1-6-4-2-5(9-6)7(4,6)3-8/h4-5,8H,2-3H2,1H3	InChI=1S/C7H10O2/c1-6-4-2-5(9-6)7(4,6)3-8/h4-5,8H,2-3H2,1H3/t4-,5-,6+,7+/m1/s1
