19
gdb 1723	2.7914497	1.2616839	1.2214726	2.9844	78.35	-0.23852	-0.03021	0.20831	1134.4857	0.156259	-422.572441	-422.563616	-422.562672	-422.605875	32.726	
C	-0.0692692512	 0.0691198064	 0.0476104724	-0.438301
C	 1.4584588519	-0.0211719212	-0.005756979	 0.117719
C	 2.0176004553	-0.8257652565	 1.1886945375	-0.129759
O	 3.3996642968	-1.0931339449	 1.0459022333	-0.250361
C	 3.6878625361	-1.9399890402	-0.0498661585	-0.122831
C	 2.9322510137	-1.5710859243	-1.2944514591	-0.088074
C	 1.9298813022	-0.6948252102	-1.2805739748	-0.089124
C	 2.0842896631	 1.3771301136	 0.0068677885	 0.139375
O	 1.4839287949	 2.4004822407	-0.1998443566	-0.257886
H	-0.4019815649	 0.5118017607	 0.9918128825	 0.123232
H	-0.4409737508	 0.7055229248	-0.7586108355	 0.137619
H	-0.5193980774	-0.9230930966	-0.0503540281	 0.115061
H	 1.9107645254	-0.2681303995	 2.1246539863	 0.115962
H	 1.443464585	-1.7615534364	 1.2830472728	 0.097785
H	 4.7683966613	-1.8640852361	-0.2176552367	 0.124561
H	 3.4803823603	-2.9939782608	 0.2117103551	 0.105536
H	 3.2282776894	-2.072093344	-2.2122773233	 0.10251
H	 1.4064876796	-0.4267596447	-2.1946536198	 0.102031
H	 3.1765161993	 1.371478299	 0.2082368229	 0.094947
79.6305	111.6217	202.8232	223.9111	248.5366	291.4	317.9975	368.8476	419.3008	477.3564	512.768	626.1468	717.9924	748.1735	827.854	900.6122	909.415	920.5506	991.04	998.3558	1012.9706	1033.0182	1056.8569	1123.967	1168.1946	1198.2446	1200.7178	1251.892	1266.0358	1320.4662	1361.9836	1397.6513	1407.2814	1412.4032	1425.3789	1484.5908	1489.4739	1492.6847	1498.9099	1710.0996	1820.692	2912.9469	2940.738	2976.6687	3042.845	3056.2792	3077.1951	3111.5339	3129.5849	3153.9498	3176.2964
CC1(COCC=C1)C=O	C[C@]1(COCC=C1)C=O	
InChI=1S/C7H10O2/c1-7(5-8)3-2-4-9-6-7/h2-3,5H,4,6H2,1H3	InChI=1S/C7H10O2/c1-7(5-8)3-2-4-9-6-7/h2-3,5H,4,6H2,1H3/t7-/m1/s1
