19
gdb 2993	4.9672121	0.8932927	0.8129153	0.3867	76.25	-0.22468	0.06862	0.2933	1423.3089	0.156181	-422.489543	-422.481093	-422.480149	-422.522825	32.1	
O	 0.5211019731	 0.6236787658	 0.3827003167	-0.424935
C	-0.7517561666	 0.7121033532	 0.9518230914	 0.042968
C	-1.858128481	-0.0479124658	 0.2756774086	 0.043297
O	-3.0748208055	 0.0788408968	 1.0085954315	-0.303893
C	-3.0816475134	 1.5303233006	 0.7740308698	 0.100943
C	-4.2460133126	 1.9507974932	-0.0685717868	 0.027168
C	-5.5564968938	 2.3007643225	 0.5885165696	-0.271741
C	-4.7108756259	 3.3879539478	-0.0205698891	-0.275181
C	-1.7311855167	 1.4443485011	 0.0653349668	-0.156593
H	 0.9033912767	-0.2217997254	 0.6412863061	 0.29175
H	-0.7900001946	 0.8478378741	 2.0354305574	 0.089488
H	-1.7188856321	-0.9029535248	-0.37700571	 0.103127
H	-3.0864653561	 2.0744402599	 1.7289559926	 0.074908
H	-4.2983209549	 1.4508203356	-1.0313348122	 0.087119
H	-6.4709988642	 2.0118408136	 0.0834050168	 0.115629
H	-5.6094156272	 2.2437561995	 1.6706651167	 0.117344
H	-5.040434219	 3.8470811252	-0.9455829247	 0.115257
H	-4.1949434017	 4.0668827582	 0.650811583	 0.114337
H	-1.4072509344	 2.0194249489	-0.7912216343	 0.109008
75.4735	116.3997	154.7603	282.4254	291.0975	315.7718	336.0029	388.9218	480.526	512.022	771.615	809.3432	827.426	843.8873	875.5731	917.6872	924.4213	930.8885	950.3159	958.9371	1013.3107	1041.7133	1052.0698	1062.6515	1080.0376	1089.5953	1135.2114	1139.1601	1186.983	1195.5704	1196.1008	1219.3048	1223.3917	1274.0552	1293.2098	1305.0392	1326.7437	1435.288	1441.3423	1470.2323	1506.2589	3007.6792	3069.5441	3132.3108	3136.9959	3152.3227	3171.016	3210.947	3211.6951	3226.0336	3802.115
OC1C2OC(C3CC3)C12	O[C@@H]1[C@H]2O[C@H](C3CC3)[C@@H]12	
InChI=1S/C7H10O2/c8-5-4-6(3-1-2-3)9-7(4)5/h3-8H,1-2H2	InChI=1S/C7H10O2/c8-5-4-6(3-1-2-3)9-7(4)5/h3-8H,1-2H2/t4-,5+,6-,7+/m1/s1
