19
gdb 1802	2.8375728	1.7954199	1.4297016	2.1944	73.57	-0.24482	0.06567	0.31049000000000004	954.2602	0.159203	-422.533349	-422.526306	-422.525362	-422.564275	29.27	
O	 0.2251081905	 0.1908525985	 0.066025209	-0.487399
C	-0.6443301956	 0.4201001553	 1.1288752086	 0.412235
C	-0.8330780925	 1.8792245782	 1.6078931775	-0.272344
C	-2.1216949643	 1.3008465303	 2.2531491505	-0.060411
C	-2.2132054622	 0.3704418981	 1.0030866359	-0.294651
C	-1.5570081014	 0.3046187915	 3.2825482186	 0.145768
O	-0.5651064957	 0.8185542241	 4.2021612509	-0.302271
C	 0.5009797865	 0.115007692	 3.519544187	-0.109699
C	-0.4629324012	-0.3898029859	 2.4315775164	-0.136828
H	 0.2927675012	-0.7595179338	-0.0761649923	 0.2779
H	-0.0862922123	 2.3291808994	 2.2624924797	 0.113716
H	-1.0553716559	 2.5394512176	 0.767815335	 0.1034
H	-2.9470133992	 1.9419873234	 2.5569529292	 0.070174
H	-2.714472307	-0.5976266858	 1.1099801426	 0.085879
H	-2.5702113612	 0.8915022123	 0.1130245879	 0.106412
H	-2.3194260633	-0.2907246535	 3.7949343426	 0.073642
H	 1.3060401546	 0.7858294013	 3.1966504145	 0.107816
H	 0.9233592232	-0.6750982704	 4.1525094352	 0.099825
H	-0.5077081043	-1.4697101426	 2.2716075311	 0.066836
188.7969	256.6335	278.4242	326.8868	368.3635	449.1031	484.0117	552.0664	580.6427	673.6242	779.2376	826.1617	853.9929	868.8031	905.4185	932.1808	941.265	972.2216	980.041	1001.0597	1012.7958	1035.7295	1060.0289	1070.3741	1108.2316	1128.801	1159.3289	1163.9009	1194.0279	1219.9701	1227.5592	1253.0791	1272.1786	1298.3594	1319.1635	1340.6987	1355.1735	1395.3038	1485.0838	1519.7528	1527.4371	3015.4379	3044.9863	3054.5232	3058.9498	3081.2978	3085.336	3125.6269	3135.262	3145.8441	3804.2839
OC12CC(C1)C1OCC21	O[C@@]12C[C@@H](C1)[C@@H]1OC[C@H]21	
InChI=1S/C7H10O2/c8-7-1-4(2-7)6-5(7)3-9-6/h4-6,8H,1-3H2	InChI=1S/C7H10O2/c8-7-1-4(2-7)6-5(7)3-9-6/h4-6,8H,1-3H2/t4-,5-,6-,7-/m0/s1
