19
gdb 4904	1.9153136	1.5859617	1.0831441	2.1744	78.28	-0.25736	0.02087	0.27823	1197.0756	0.152166	-422.509175	-422.498576	-422.497632	-422.54454	38.263	
C	-0.0991875911	 0.1084225314	 0.1666436958	-0.467258
C	 1.4109116766	-0.0317820086	 0.1502921527	 0.345922
C	 2.0108992723	-0.3623449061	 1.5011130929	-0.459431
O	 2.1223121705	 0.9673111136	-0.5929212687	-0.313253
C	 2.1569370066	-0.3829306137	-1.0981254144	 0.065446
C	 1.4483643597	-0.5902009935	-2.4354742707	-0.149319
O	 1.0423497061	-1.9302820564	-2.6309344657	-0.405326
C	 3.4278441279	-1.0665448295	-1.0075343482	 0.32167
C	 4.480146182	-1.6474879395	-0.987498227	-0.432673
H	-0.3813333994	 0.9026171294	 0.8662165172	 0.135426
H	-0.5126389027	 0.365977359	-0.8086971552	 0.130918
H	-0.5675434314	-0.8174670457	 0.5182606704	 0.121881
H	 1.6110655373	-1.3086861058	 1.8804873551	 0.120631
H	 3.096421	-0.4415430477	 1.4414486901	 0.144891
H	 1.7547053692	 0.4228849698	 2.2204367547	 0.124639
H	 0.6182866909	 0.1219224356	-2.5162428456	 0.103109
H	 2.1512910722	-0.3667784876	-3.2433025885	 0.127682
H	 0.4073482188	-2.1522506737	-1.9422146665	 0.286255
H	 5.4104743343	-2.1593379908	-0.9628408583	 0.19879
58.4639	118.4414	141.8322	147.0988	159.3049	204.411	267.7706	327.5325	353.4636	378.0635	388.7199	402.4515	503.4832	552.0324	590.5498	627.7318	657.5186	662.1885	747.7564	881.9667	918.6037	947.7009	991.5718	999.5411	1074.9532	1120.5046	1152.9186	1183.1337	1218.8543	1261.5264	1360.0312	1407.3124	1410.5824	1420.5466	1421.0223	1474.823	1480.8541	1497.7295	1503.9909	1517.5961	2234.3869	3029.6207	3037.4188	3043.0878	3093.1387	3094.8967	3101.9552	3145.4751	3152.1116	3501.2051	3814.7041
CC1(C)OC1(CO)C#C	CC1(C)O[C@@]1(CO)C#C	
InChI=1S/C7H10O2/c1-4-7(5-8)6(2,3)9-7/h1,8H,5H2,2-3H3	InChI=1S/C7H10O2/c1-4-7(5-8)6(2,3)9-7/h1,8H,5H2,2-3H3/t7-/m1/s1
