19
gdb 4027	3.6889753	1.35201	1.2521973	1.1419	73.24	-0.24078	0.06908	0.30986	1045.7767	0.159154	-422.521716	-422.51462	-422.513676	-422.552924	29.185	
O	 0.2574689657	 0.394360518	 0.2866769163	-0.439531
C	-0.6098440063	 0.9921904364	 1.2220312867	 0.144195
C	-1.596807044	 0.0418996015	 1.976087777	-0.302012
C	-0.9941763574	 0.4833033131	 3.3407031013	-0.013162
C	-1.683695174	 1.5847525511	 4.177417141	 0.064177
C	-1.9548943627	 2.7471355482	 3.1993165004	-0.244774
C	-0.4104191569	 2.7444096528	 3.2475742418	 0.055985
O	-0.5139758788	 2.3344119425	 4.6546114183	-0.298848
C	 0.0163294105	 1.4134487776	 2.5892326224	-0.058721
H	 0.7216300955	-0.3276313517	 0.7239757281	 0.277049
H	-1.0904113226	 1.8094032995	 0.6773913776	 0.088296
H	-2.664151525	 0.2299843706	 1.8282679679	 0.102497
H	-1.4033411422	-1.0071772836	 1.7335006372	 0.099311
H	-0.5984383171	-0.3092247739	 3.9764396182	 0.076035
H	-2.3769864148	 1.2953593366	 4.9669673883	 0.079133
H	-2.4868944882	 2.5738240557	 2.2621130362	 0.102226
H	-2.3596399471	 3.6128393938	 3.7231706429	 0.113905
H	 0.1933772784	 3.6370931238	 3.086577068	 0.08218
H	 1.0865565969	 1.2196316881	 2.6831684004	 0.07206
133.996	249.7488	279.3832	312.6407	361.2981	463.4338	503.9399	557.101	648.5725	743.2642	772.8412	813.7602	843.9908	872.5998	876.2188	910.0143	919.0525	978.1556	993.4633	1001.4092	1023.8413	1038.4823	1052.5703	1075.2215	1120.476	1125.7982	1155.8445	1178.8849	1221.5806	1226.7948	1237.9078	1249.0338	1267.515	1277.8502	1293.2066	1320.2914	1331.8502	1346.4192	1437.0609	1472.2543	1500.2975	3050.6568	3069.7325	3083.6931	3091.4467	3098.7728	3108.7264	3123.4593	3128.1929	3149.8938	3803.0106
OC1CC2C3CC(O3)C12	O[C@H]1C[C@@H]2[C@@H]3C[C@@H](O3)[C@H]12	
InChI=1S/C7H10O2/c8-4-1-3-5-2-6(9-5)7(3)4/h3-8H,1-2H2	InChI=1S/C7H10O2/c8-4-1-3-5-2-6(9-5)7(3)4/h3-8H,1-2H2/t3-,4+,5+,6-,7+/m1/s1
