19
gdb 6057	3.3091751	0.8008556	0.6854634	0.559	78.71	-0.25313	0.03705	0.29018	1627.0366	0.154803	-422.5011	-422.49118	-422.490236	-422.536822	34.986	
O	 1.4988434629	 1.0531452773	 0.0066259812	-0.421817
C	 0.2228863432	 0.4417591579	 0.1243325057	-0.077777
C	-0.7685840404	 1.289039066	-0.6653174143	-0.201865
C	-2.1760592288	 0.7345028729	-0.6084903097	 0.14632
O	-2.301720989	-0.5632088541	-1.239179146	-0.295538
C	-3.4672706534	-0.1493818612	-1.972872064	-0.07832
C	-3.2476207042	 1.3343898181	-1.5684919995	-0.253582
C	-4.3521605568	 2.0786876778	-1.0061046133	 0.320676
C	-5.2715490329	 2.6839739983	-0.5219678766	-0.454992
H	 2.1430323902	 0.4875571274	 0.4420601714	 0.286438
H	 0.225540525	-0.5817693252	-0.2775316425	 0.109414
H	-0.0961694644	 0.3826603565	 1.178244084	 0.08457
H	-0.7702654667	 2.3102618249	-0.2639925395	 0.113682
H	-0.4357731176	 1.3444783249	-1.7079896489	 0.108151
H	-2.5403979905	 0.6926713542	 0.4281472012	 0.081352
H	-3.3916667335	-0.3825959913	-3.0397809837	 0.112442
H	-4.3898831606	-0.5806934129	-1.5656442218	 0.109805
H	-2.7712058891	 1.9010153286	-2.3742939742	 0.111334
H	-6.0829622633	 3.22353261	-0.1000138893	 0.199707
56.3748	88.875	110.6985	124.0698	154.4177	226.8929	261.0966	330.7487	355.4237	442.0433	513.3658	576.301	622.3031	637.1845	675.0227	795.215	875.4315	913.4318	982.9657	1011.6121	1018.7644	1057.3567	1076.6465	1085.2124	1121.4121	1139.5769	1168.854	1205.9864	1221.3038	1252.3173	1277.9898	1313.1665	1316.3772	1340.4148	1370.2188	1409.7873	1462.2268	1478.3879	1525.0637	1529.9778	2237.0012	2964.0345	3000.2896	3013.7869	3024.03	3033.7742	3059.7036	3081.3473	3083.8424	3503.6918	3831.4986
OCCC1OCC1C#C	OCC[C@@H]1OC[C@H]1C#C	
InChI=1S/C7H10O2/c1-2-6-5-9-7(6)3-4-8/h1,6-8H,3-5H2	InChI=1S/C7H10O2/c1-2-6-5-9-7(6)3-4-8/h1,6-8H,3-5H2/t6-,7+/m1/s1
