19
gdb 3683	2.8168467	1.2152424	1.0581711	4.1836	76.09	-0.26757	0.01198	0.27954999999999997	1223.1088	0.155218	-422.57213	-422.562922	-422.561978	-422.606043	33.714	
C	-3.8356660955	-1.1963310522	 1.4793554385	-0.411204
C	-3.2906228628	 0.0270315986	 0.7767309557	-0.079505
C	-3.321310954	 0.1399544139	-0.7475018548	-0.363094
C	-2.0352235871	-0.0348782252	-0.018197902	 0.454456
O	-1.0576137046	 1.0394108483	 0.0379033938	-0.270759
C	-0.0201002228	 0.1458222877	-0.0865184736	 0.449259
O	 1.1430432137	 0.3848763619	-0.1399502777	-0.326829
C	-0.9338086931	-1.086997909	-0.1355641134	-0.291175
C	-0.8459813114	-1.9438896452	-1.3925765647	-0.40957
H	-3.3927448716	-1.3151501855	 2.4740492985	 0.126616
H	-4.9215145353	-1.1266682955	 1.602260409	 0.127586
H	-3.6266160545	-2.1083755109	 0.9101284713	 0.117404
H	-3.4410491021	 0.967955681	 1.2999808122	 0.108147
H	-3.7029145613	-0.7021422553	-1.3176369428	 0.119849
H	-3.5240157516	 1.1131141656	-1.1808283516	 0.132905
H	-0.8226853309	-1.6973900786	 0.7662584345	 0.11574
H	-1.6190558636	-2.7185459948	-1.3928267228	 0.124152
H	-0.9704290119	-1.337228475	-2.2940163496	 0.133771
H	 0.1285565706	-2.4373062097	-1.4448871005	 0.142252
81.0411	129.2064	169.8189	203.532	211.5083	220.3943	254.4074	350.7654	419.0262	505.6244	520.7942	561.7242	695.6416	772.8578	815.2968	836.5377	861.9494	888.2521	946.9185	989.6335	1034.3823	1063.1158	1075.6996	1083.0333	1119.1569	1131.1673	1146.3214	1178.7532	1217.3315	1249.9049	1317.4535	1362.7056	1409.995	1413.9528	1425.0811	1486.7711	1490.9672	1495.944	1498.1153	1510.2144	1938.9919	3030.1036	3042.4115	3065.9603	3095.6389	3097.2333	3112.5875	3122.7085	3126.2125	3147.2596	3218.2271
CC1CC11OC(=O)C1C	C[C@@H]1C[C@]21OC(=O)[C@@H]2C	
InChI=1S/C7H10O2/c1-4-3-7(4)5(2)6(8)9-7/h4-5H,3H2,1-2H3	InChI=1S/C7H10O2/c1-4-3-7(4)5(2)6(8)9-7/h4-5H,3H2,1-2H3/t4-,5+,7-/m1/s1
