19
gdb 5032	2.5930998	1.6970779	1.2890555	1.8581	75.92	-0.22558	0.01546	0.24104	1035.2256	0.156409	-422.517005	-422.508556	-422.507612	-422.549649	32.747	
C	 1.3301132027	-0.0758198844	-0.1173533083	-0.262108
O	-0.0751905132	-0.0813180811	 0.0786508361	-0.318531
C	-0.5477237938	 0.6327292181	 1.1636819507	 0.395105
C	-0.1695516706	 2.1163660307	 1.5272637429	-0.286902
C	-0.9050137904	 1.7260492564	 2.8525573318	-0.133129
C	-2.3068750882	 1.4081535038	 2.3448052359	-0.104731
C	-2.0719803723	 0.6907797975	 1.2416204417	-0.128831
C	-0.248443571	 0.2933489767	 2.6831137694	 0.088971
O	 1.1267431819	 0.1986939405	 2.9691831971	-0.440145
H	 1.8617763935	-0.5268841115	 0.7260534518	 0.135151
H	 1.5161221172	-0.6586804389	-1.0225323925	 0.11958
H	 1.7119394799	 0.9428860291	-0.2700933051	 0.109059
H	 0.9006188962	 2.27174391	 1.674187113	 0.109697
H	-0.6174277992	 2.9061297037	 0.9207697379	 0.093573
H	-0.7787614459	 2.30065931	 3.7686129291	 0.062086
H	-3.2436696789	 1.6692083993	 2.8162468821	 0.101616
H	-2.7378060222	 0.2016112714	 0.5456746423	 0.106601
H	-0.8159766313	-0.5447296568	 3.1066702484	 0.06653
H	 1.2292905857	 0.0539004657	 3.9150498656	 0.286408
84.0392	192.2944	207.9465	235.302	255.8919	311.4299	403.9541	423.5052	456.5208	538.4082	585.6174	632.5914	697.3347	703.2409	852.3396	859.9431	908.8308	931.6881	938.7355	957.3612	1021.433	1032.5029	1073.3884	1087.9762	1103.985	1136.1205	1158.2961	1184.5277	1189.5843	1209.3854	1236.4077	1252.0028	1276.9379	1285.7623	1346.7078	1409.711	1484.4842	1489.8568	1490.7595	1513.6268	1628.2928	3009.4431	3030.146	3072.2795	3085.2237	3123.7665	3131.7431	3143.7771	3221.7282	3250.3504	3815.6833
COC12CC(C=C1)C2O	CO[C@@]12C[C@@H](C=C1)[C@@H]2O	
InChI=1S/C7H10O2/c1-9-7-3-2-5(4-7)6(7)8/h2-3,5-6,8H,4H2,1H3	InChI=1S/C7H10O2/c1-9-7-3-2-5(4-7)6(7)8/h2-3,5-6,8H,4H2,1H3/t5-,6+,7-/m1/s1
