19
gdb 1711	2.0319854	1.4766725	1.3905378	4.1791	76.56	-0.2388	-0.03427	0.20453000000000002	1095.7994	0.154152	-422.56851	-422.559031	-422.558087	-422.603012	33.961	
C	 5.2710404599	 0.3936959133	 1.2855840476	-0.481204
C	 4.0355301848	-0.1174016209	 0.554063588	 0.218285
C	 4.1103343698	-0.2627120411	-1.0130109184	-0.264641
C	 2.6860909598	 0.3421021705	-1.1079515794	-0.253921
C	 2.8375947459	 0.8714557448	 0.3385477644	-0.087842
C	 1.6758948812	 0.8151706427	 1.3099477497	 0.140371
O	 1.7470643234	 1.2355178228	 2.4376288276	-0.269405
C	 3.5899024192	-1.4503231909	 1.1046093263	 0.125008
O	 2.4480609859	-1.7627969701	 1.3362481926	-0.253868
H	 5.0251975702	 0.6654806056	 2.3171842214	 0.148817
H	 6.0635255103	-0.3631922616	 1.3093529922	 0.122056
H	 5.6716681918	 1.2814591552	 0.7873076613	 0.124377
H	 4.8796905354	 0.3991707077	-1.4198051747	 0.11264
H	 4.2657005681	-1.2668100551	-1.4171246673	 0.110796
H	 2.5114274911	 1.0772788973	-1.8952580422	 0.107777
H	 1.9158686197	-0.4317521388	-1.1691943002	 0.12543
H	 3.2280386413	 1.8940745767	 0.3567167268	 0.10375
H	 0.7330769451	 0.3887894825	 0.9049265083	 0.081172
H	 4.4194391972	-2.1805419508	 1.2466791958	 0.090404
59.0651	102.3302	131.6187	187.4377	217.8682	232.3464	304.6734	327.669	354.9067	405.1232	478.8453	595.0725	657.9862	722.39	812.8978	863.5847	902.5673	929.9477	955.828	979.6244	1010.6825	1034.3097	1084.6524	1118.8413	1157.8002	1175.2041	1200.9379	1238.0434	1261.9242	1267.4551	1304.5328	1325.9679	1405.4181	1415.527	1421.2997	1482.8508	1489.4353	1497.1988	1501.7196	1809.0808	1817.8186	2873.7607	2896.332	3029.886	3054.9437	3062.44	3067.5765	3098.9604	3104.6239	3110.5126	3125.9696
CC1(CCC1C=O)C=O	C[C@@]1(CC[C@H]1C=O)C=O	
InChI=1S/C7H10O2/c1-7(5-9)3-2-6(7)4-8/h4-6H,2-3H2,1H3	InChI=1S/C7H10O2/c1-7(5-9)3-2-6(7)4-8/h4-6H,2-3H2,1H3/t6-,7+/m0/s1
