19
gdb 3702	4.1791013	0.961495	0.9067923	2.4424	76.48	-0.23786	0.06724	0.3051	1324.7163	0.154752	-422.497658	-422.488629	-422.487685	-422.532203	33.337	
O	 0.4682806413	 0.5636681902	 0.250950455	-0.424019
C	-0.8041016797	 0.490495722	 0.8261633442	 0.088554
C	-1.9442570862	-0.2597773163	 0.1836224656	-0.397047
C	-1.9624739334	 1.2521027809	 0.2662827857	 0.302773
C	-2.9873881489	 2.1411318957	 0.9948546193	-0.397665
C	-3.0733041884	 2.9703911307	-0.2938844923	 0.465296
C	-4.2478231368	 3.5593439914	-0.936370307	-0.261645
O	-3.2301262416	 4.3739785519	-0.3335958362	-0.267455
C	-1.9012553239	 2.2146137764	-0.9359821702	-0.407591
H	 0.3716783625	 0.6199896739	-0.7051564271	 0.286535
H	-0.7049859813	 0.4320292094	 1.9059833357	 0.108489
H	-1.7720435208	-0.706169594	-0.7928540632	 0.10799
H	-2.6177835338	-0.8271626302	 0.8194044976	 0.115794
H	-3.9128697484	 1.6585166613	 1.322123241	 0.106498
H	-2.5649835094	 2.7082908767	 1.8306635663	 0.118258
H	-4.3035636909	 3.6119152387	-2.0233277446	 0.114481
H	-5.2078291948	 3.5552353073	-0.421038617	 0.115413
H	-2.0826820731	 1.7936331988	-1.9295901215	 0.104326
H	-0.9836974726	 2.8133000752	-0.9607866113	 0.121017
37.6811	77.0457	144.242	196.992	270.7596	315.7746	360.0135	397.8307	416.0775	444.0845	545.7946	669.5957	783.5361	833.2134	838.4718	873.576	874.1796	879.8002	936.8991	958.9013	1001.9644	1022.014	1068.9387	1098.0293	1108.3437	1126.5744	1140.5378	1157.4775	1160.0126	1205.4943	1217.439	1232.1089	1239.5964	1312.2808	1351.3767	1430.485	1436.7855	1465.9695	1486.4764	1488.7023	1538.1632	3035.9232	3046.1812	3076.9379	3088.5493	3096.9871	3107.8816	3159.292	3163.4958	3195.1677	3821.248
OC1CC11CC2(CO2)C1	O[C@@H]1C[C@]21C[C@]1(CO1)C2	
InChI=1S/C7H10O2/c8-5-1-6(5)2-7(3-6)4-9-7/h5,8H,1-4H2	InChI=1S/C7H10O2/c8-5-1-6(5)2-7(3-6)4-9-7/h5,8H,1-4H2/t5-,6-,7+/m1/s1
