19
gdb 5299	2.7857965	1.7603472	1.3111804	1.462	74.45	-0.23898	0.07983	0.31881	1009.0185	0.157866	-422.501506	-422.493852	-422.492907	-422.533707	29.706	
C	 1.5622538445	-0.1794878008	-0.0666719614	-0.262885
O	 0.154589386	-0.217130511	 0.0895560058	-0.303814
C	-0.3326010749	 0.522622123	 1.1529245587	 0.424851
C	-0.026774102	 0.0808080807	 2.5920309986	-0.156069
O	-0.779477915	 1.0508937719	 3.3274836302	-0.280493
C	-1.3636164587	 1.8292718645	 2.2948171286	 0.143273
C	-1.8399539757	 0.9266755157	 1.1231474466	-0.148907
C	-1.5021073171	 2.069091979	 0.1363023823	-0.263648
C	-0.3413154643	 2.1043147503	 1.1582384418	-0.163197
H	 2.0843663808	-0.6584742332	 0.772899139	 0.115244
H	 1.7933342651	-0.7291689555	-0.9815520271	 0.132096
H	 1.9299066994	 0.8509852545	-0.1665905127	 0.115161
H	-0.3866441344	-0.9339119077	 2.8030041158	 0.106629
H	 1.0345410776	 0.1446612382	 2.8608225649	 0.099632
H	-1.9917090101	 2.6184459003	 2.7025805212	 0.091753
H	-2.6887514966	 0.242420946	 1.11419658	 0.076313
H	-1.2412517291	 1.758576586	-0.8758355336	 0.111193
H	-2.1771623445	 2.9290996576	 0.1295537713	 0.091536
H	 0.5171288887	 2.7757332505	 1.1969575199	 0.07133
73.3666	169.3378	201.9516	293.2624	324.9077	399.5967	438.9234	484.4568	625.259	686.1821	718.6263	761.5362	849.1308	895.1809	909.6667	935.7803	959.7056	1001.5849	1027.8483	1041.2044	1082.8138	1084.7464	1091.9734	1102.2615	1151.3081	1172.5673	1177.5557	1180.4758	1196.4623	1212.6982	1234.1003	1251.132	1259.5338	1286.1301	1317.5807	1384.8895	1482.8231	1491.563	1505.5562	1515.2191	1522.5693	2995.715	3018.7663	3049.8653	3059.1513	3063.4948	3107.7393	3114.122	3123.0795	3135.8817	3152.3817
COC12COC3C1CC23	CO[C@]12CO[C@@H]3[C@H]1C[C@H]23	
InChI=1S/C7H10O2/c1-8-7-3-9-6-4(7)2-5(6)7/h4-6H,2-3H2,1H3	InChI=1S/C7H10O2/c1-8-7-3-9-6-4(7)2-5(6)7/h4-6H,2-3H2,1H3/t4-,5+,6-,7-
