19
gdb 5523	3.2100724	1.2320137	1.0862441	2.4074	76.22	-0.23286	-0.00836	0.2245	1173.81	0.15745	-422.553045	-422.544921	-422.543977	-422.585847	30.879	
C	 1.3774856201	 0.1124424629	-0.1555361036	-0.248132
O	-0.0264206027	 0.2477480923	-0.0622232811	-0.256855
C	-0.4724008844	 0.5931054718	 1.2167785562	 0.16424
C	-1.9969012007	 0.869873635	 1.2362498376	-0.064328
C	-1.6588049115	 2.2810720143	 0.6707612813	-0.242269
C	-0.3857705443	 2.1367873178	 1.5745773932	-0.173587
C	-1.0220327187	 2.1036332175	 2.9518102449	 0.430573
O	-0.6716393834	 2.6401523996	 3.9684680566	-0.336271
C	-2.2358884825	 1.1707184551	 2.7269010416	-0.342138
H	 1.7561721448	-0.6392954132	 0.5532260199	 0.111867
H	 1.6009924988	-0.2149093752	-1.1731513217	 0.132505
H	 1.8969627002	 1.0619309333	 0.0357354144	 0.11464
H	-0.0697413524	-0.1060416114	 1.9659151431	 0.069497
H	-2.6847588055	 0.193986451	 0.7300584532	 0.078409
H	-1.4023138911	 2.2561664431	-0.3866267277	 0.127447
H	-2.3465084333	 3.1027624461	 0.8872354637	 0.101155
H	 0.5157950889	 2.7334140794	 1.4553075837	 0.080999
H	-2.1817798952	 0.2959337698	 3.3830061757	 0.124564
H	-3.180502237	 1.6873566909	 2.921740059	 0.127683
97.8987	118.9994	181.135	201.766	306.73	379.8626	428.5676	454.4625	530.5663	590.7861	607.0239	753.1656	817.7129	836.1907	884.934	907.5646	944.137	969.9668	1003.0958	1014.5688	1024.9608	1076.6555	1094.6808	1133.3475	1152.5395	1166.9156	1183.7576	1207.2105	1224.6418	1239.9034	1244.212	1271.2221	1286.4167	1300.7473	1402.6312	1457.0962	1481.3651	1489.0352	1500.7807	1509.7154	1865.7347	2980.513	2988.5427	3038.9271	3054.8871	3070.9246	3101.9265	3123.2541	3126.635	3148.5045	3159.5275
COC1C2CC1C(=O)C2	CO[C@@H]1[C@@H]2C[C@H]1C(=O)C2	
InChI=1S/C7H10O2/c1-9-7-4-2-5(7)6(8)3-4/h4-5,7H,2-3H2,1H3	InChI=1S/C7H10O2/c1-9-7-4-2-5(7)6(8)3-4/h4-5,7H,2-3H2,1H3/t4-,5+,7-/m1/s1
