19
gdb 4942	2.3564458	1.3841441	1.1168087	2.3968	76.9	-0.25606	0.04143	0.29749000000000003	1163.2813	0.156587	-422.528891	-422.519742	-422.518798	-422.562872	34.016	
O	 1.3990847383	 0.821621385	 0.0975775883	-0.421846
C	 0.3954468004	-0.0940630516	 0.4729117827	-0.099339
C	-0.897131439	 0.599470211	 0.9785556055	 0.098985
C	-1.9854605313	-0.4747296998	 1.3005650764	-0.302496
C	-3.0035723955	-0.3188269159	 0.1469563008	-0.07444
O	-2.3342732783	 0.4118815935	-0.8712967508	-0.245443
C	-1.5528803207	 1.3779819436	-0.1981004508	-0.123068
C	-0.5630724518	 1.4640396006	 2.1030103117	 0.257927
C	-0.2328076354	 2.1851317515	 3.0085562378	-0.460573
H	 1.5939695336	 1.3636054097	 0.8721558742	 0.286361
H	 0.1440630595	-0.6679045061	-0.4244629703	 0.1228
H	 0.7487643694	-0.7949084359	 1.2446033533	 0.092527
H	-1.5360688126	-1.4721959544	 1.3122903327	 0.1145
H	-2.4428859903	-0.3064372641	 2.276524016	 0.118693
H	-3.3326809772	-1.2683888191	-0.2814928786	 0.113129
H	-3.8920638923	 0.2333904472	 0.4910213572	 0.096152
H	-0.8080410712	 1.7775216131	-0.8882507828	 0.133552
H	-2.175983859	 2.1998468244	 0.1864302209	 0.093412
H	 0.0283783134	 2.8212482773	 3.8181598359	 0.199167
62.575	122.8364	153.2588	173.8512	239.3173	267.3984	359.7011	403.0981	448.252	494.4232	527.5255	611.685	626.7346	648.6102	688.7296	778.2863	827.7242	917.5899	936.5577	968.6223	974.234	1022.759	1084.2372	1096.7115	1130.7861	1137.0341	1164.3761	1233.3561	1234.5902	1274.8576	1295.8532	1311.5877	1354.256	1378.4964	1397.1592	1424.281	1493.9005	1503.2583	1507.144	1523.8464	2223.9846	2981.4787	2987.4795	2990.1015	3060.8672	3087.4332	3098.4666	3122.5959	3124.7074	3498.4769	3777.093
OCC1(CCOC1)C#C	OC[C@@]1(CCOC1)C#C	
InChI=1S/C7H10O2/c1-2-7(5-8)3-4-9-6-7/h1,8H,3-6H2	InChI=1S/C7H10O2/c1-2-7(5-8)3-4-9-6-7/h1,8H,3-6H2/t7-/m0/s1
