19
gdb 1750	2.375973	1.7378796	1.6932154	2.2012	73.69	-0.23224	0.0736	0.30584	950.5723	0.159102	-422.529626	-422.522244	-422.5213	-422.560895	30.035	
O	 0.4290486784	 0.6937753852	 0.2534783367	-0.461326
C	-0.8475204398	 0.495216837	 0.7423188851	 0.32614
C	-1.5077132561	 0.769472052	 2.1104379254	-0.184926
C	-2.3177919238	-0.5174806951	 1.9767693304	-0.233447
C	-1.7254101253	-0.7565715723	 0.540605175	-0.090099
C	-2.7094607778	-0.6455816582	-0.6377523934	-0.23468
C	-3.0093909345	 0.8359880372	-0.9316788328	-0.070154
O	-3.0367539455	 1.6167055044	 0.2632728729	-0.259528
C	-1.7858978255	 1.6349865457	 0.896565451	 0.064935
H	 1.0031165916	 0.0119769509	 0.6207296617	 0.284414
H	-1.1061162794	 1.1940029997	 3.0225741334	 0.086893
H	-2.0068757343	-1.2919151498	 2.6815546105	 0.096652
H	-3.4037749988	-0.401060473	 2.0240799934	 0.106242
H	-1.1494639473	-1.684290006	 0.4967958978	 0.066482
H	-2.2985315696	-1.1118193804	-1.5403863055	 0.098441
H	-3.6307018442	-1.1857530507	-0.3919362619	 0.103296
H	-2.2479794027	 1.2417743339	-1.6137394783	 0.100976
H	-3.987079107	 0.9650769274	-1.4026725035	 0.104766
H	-1.3197918584	 2.618052192	 0.918891062	 0.094923
176.8938	197.0612	290.9727	300.408	347.963	395.7878	476.118	492.3733	545.8794	608.6088	698.4045	780.3945	811.1775	828.8558	861.8834	898.5857	928.11	942.0657	989.5335	1014.3558	1043.6306	1058.9256	1084.4328	1106.6079	1125.4083	1153.6406	1190.9752	1196.2596	1240.2048	1252.0978	1281.4318	1288.7634	1304.9187	1325.3676	1343.4461	1369.205	1409.8806	1471.9055	1483.4778	1498.1989	1506.0739	2996.1303	3033.2507	3057.8943	3069.4946	3075.7983	3097.5517	3112.7416	3134.1226	3186.906	3788.0666
OC12C3CC1CCOC23	O[C@]12[C@@H]3C[C@H]1CCO[C@H]23	
InChI=1S/C7H10O2/c8-7-4-1-2-9-6(7)5(7)3-4/h4-6,8H,1-3H2	InChI=1S/C7H10O2/c8-7-4-1-2-9-6(7)5(7)3-4/h4-6,8H,1-3H2/t4-,5-,6+,7+/m1/s1
