19
gdb 5520	2.1973183	1.6700443	1.137259	4.0688	76.94	-0.24945	-0.0464	0.20305	1111.3258	0.157467	-422.517189	-422.508967	-422.508023	-422.549979	31.37	
O	 1.5977703963	-0.0956264688	-0.5555305964	-0.428152
C	 0.6224233705	 0.9246981143	-0.6338752044	-0.121447
C	-0.7222617211	 0.3589663181	-1.0673968877	-0.008595
C	-1.9353579103	 1.2358663118	-1.5233821479	-0.076578
C	-2.5107253967	-0.0416356473	-2.2079155538	-0.274147
C	-0.9911573165	-0.0116961265	-2.5649011643	 0.242512
C	-1.1971499435	 1.5188557396	-2.8643705516	-0.267329
C	-0.2143048741	-0.947555214	-3.4174897818	 0.029298
O	 0.9020641125	-1.3375161195	-3.1510282642	-0.254797
H	 1.5939911375	-0.5615516382	-1.4060020982	 0.294596
H	 0.5281860326	 1.3421263771	 0.3759081901	 0.104649
H	 0.9516565334	 1.7489599987	-1.2851707913	 0.081038
H	-0.9962278688	-0.4478550695	-0.3787182956	 0.080055
H	-2.4898872307	 1.9539501302	-0.9192027382	 0.08341
H	-2.8338712601	-0.8526012044	-1.5504849852	 0.105644
H	-3.2119903393	 0.1215104563	-3.0300875609	 0.09922
H	-0.3082262631	 2.1482257076	-2.8416947081	 0.114565
H	-1.8278707207	 1.7541084832	-3.7252103013	 0.102064
H	-0.7081973278	-1.2688198788	-4.3601582193	 0.093993
105.4515	126.1412	175.3071	228.9529	281.3248	326.7705	413.0833	461.5354	564.7364	569.4914	584.9226	705.0664	774.5809	821.8068	849.1905	903.5309	943.3267	981.4968	995.0645	1017.8188	1036.8448	1062.9532	1083.8949	1103.1839	1133.9115	1149.857	1159.9613	1166.3537	1211.1223	1220.3798	1238.265	1254.0244	1294.9389	1360.2551	1416.9582	1429.9321	1464.5857	1495.464	1512.239	1541.4058	1786.5268	2898.9047	2980.9765	3044.6803	3055.4016	3059.0354	3071.4135	3114.1017	3125.9144	3148.3487	3692.659
OCC1C2CC1(C2)C=O	OC[C@H]1[C@@H]2C[C@]1(C2)C=O	
InChI=1S/C7H10O2/c8-3-6-5-1-7(6,2-5)4-9/h4-6,8H,1-3H2	InChI=1S/C7H10O2/c8-3-6-5-1-7(6,2-5)4-9/h4-6,8H,1-3H2/t5-,6-,7+/m0/s1
