19
gdb 3828	2.2485429	1.5685858	1.1180939	3.8336	78.02	-0.24096	-0.0224	0.21856	1136.7852	0.155012	-422.549995	-422.540773	-422.539829	-422.583592	34.209	
C	-3.7899898749	-0.8739020262	 2.061161922	-0.493948
C	-2.4986851675	-0.9640580636	 1.3033555132	 0.300653
C	-2.3240399347	-1.786152717	 0.0823262903	-0.364188
C	-2.1788779432	-0.285273502	-0.0887155737	 0.231995
C	-3.1274837778	 0.4915041429	-0.8888514517	 0.047608
O	-4.2456926584	 0.1238178665	-1.1821180404	-0.286664
C	-0.8405509626	 0.1897465782	 0.4516761153	 0.022045
O	 0.2550462944	-0.2570560257	-0.3160609551	-0.431453
C	-1.1275323659	-0.5140388246	 1.824528149	-0.325864
H	-3.8867070081	-1.711455239	 2.7624638769	 0.125739
H	-3.8503306298	 0.0536916233	 2.6404840129	 0.11754
H	-4.6414386851	-0.9042019898	 1.3752707593	 0.151754
H	-1.4366039279	-2.3959356697	-0.0599120183	 0.127263
H	-3.2353818631	-2.1736983652	-0.3606436419	 0.141095
H	-2.7594736919	 1.4979276672	-1.194500021	 0.068345
H	-0.8250529767	 1.2831701974	 0.566021937	 0.074624
H	 1.0657374254	 0.0382368896	 0.1112936752	 0.285868
H	-0.43659842	-1.3234308	 2.0809435433	 0.103072
H	-1.185618492	 0.1892661676	 2.6587831077	 0.104515
105.8675	127.3624	173.401	206.103	230.6748	248.717	302.2451	338.7098	380.7186	431.417	489.7226	565.0878	675.5387	681.5855	727.2866	818.6689	858.3347	956.5799	973.1064	984.0644	994.4123	1042.4161	1065.2006	1080.4644	1121.1987	1151.0876	1159.5913	1216.6633	1235.014	1267.8256	1287.3105	1346.6201	1384.1139	1417.4572	1425.0024	1445.0852	1470.5549	1487.1436	1494.0167	1501.5708	1781.0388	2865.2501	2996.594	3026.1541	3048.3659	3085.2773	3108.7369	3114.9521	3123.3583	3219.5365	3813.3596
CC12CC1(C=O)C(O)C2	C[C@@]12C[C@]1(C=O)[C@H](O)C2	
InChI=1S/C7H10O2/c1-6-2-5(9)7(6,3-6)4-8/h4-5,9H,2-3H2,1H3	InChI=1S/C7H10O2/c1-6-2-5(9)7(6,3-6)4-8/h4-5,9H,2-3H2,1H3/t5-,6-,7+/m1/s1
