19
gdb 4615	3.6895032	0.7027153	0.6264076	2.8966	83.64	-0.2307	0.04066	0.27136	1747.6471	0.153789	-422.510026	-422.499362	-422.498418	-422.547463	37.229	
C	 0.0192463584	-3.2782799521	 5.2336536125	-0.364687
C	-1.3380931856	-2.6337773485	 4.8975598722	-0.318043
C	-1.2749538987	-1.694038407	 3.7821823113	 0.137056
C	-1.2334193256	-0.9397696296	 2.8391148009	 0.000401
C	-1.1235801036	 0.0002220191	 1.7669451251	-0.319895
C	-0.2058142025	 1.2111463575	 1.9771822443	 0.112653
O	 0.483415518	 1.347535424	 3.1737387907	-0.427941
C	-1.679579433	 1.4263059318	 1.9260130684	 0.04865
O	-2.1766036863	 2.0724507161	 0.7988987562	-0.415673
H	-0.086539659	-3.9754667597	 6.070077511	 0.116876
H	 0.4123748619	-3.8273388791	 4.3738825108	 0.130334
H	 0.7537082804	-2.5172668112	 5.5118686627	 0.12566
H	-2.0680562361	-3.4190812613	 4.6621424613	 0.132866
H	-1.7295757556	-2.1187082044	 5.7843125206	 0.131505
H	-1.1521923445	-0.3933881856	 0.7551547345	 0.114601
H	 0.3565776169	 1.5364311324	 1.1053916085	 0.113452
H	 0.4131688378	 0.5085166555	 3.6492567018	 0.287576
H	-2.1691323597	 1.6423260088	 2.8748713949	 0.104109
H	-3.0555066732	 1.7237557936	 0.6139457323	 0.2905
15.3908	68.1891	90.4333	156.0701	193.4586	218.6893	263.6713	296.4476	312.2196	354.1494	398.6956	422.8047	478.3051	502.7963	623.3012	745.0217	782.7774	844.1188	894.5907	907.0264	984.7935	1050.7032	1077.4507	1083.7882	1102.4798	1118.933	1157.0421	1180.8243	1210.8361	1281.9648	1286.5045	1311.3303	1345.1429	1359.061	1390.043	1409.4169	1471.7476	1476.9931	1494.9276	1504.5698	2343.9464	3019.0134	3043.6295	3046.5768	3116.8134	3117.0526	3122.9376	3141.9623	3154.1931	3735.0551	3797.8445	15.3882	68.189	90.4331	156.0695	193.4572	218.6882	263.6711	296.4473	312.2192	354.1489	398.694	422.8043	478.3043	502.7958	623.3008	745.0216	782.7772	844.1188	894.5907	907.0266	984.7935	1050.7027	1077.4509	1083.7884	1102.4796	1118.933	1157.0419	1180.824	1210.8361	1281.9646	1286.5045	1311.3304	1345.143	1359.0611	1390.043	1409.4172	1471.7476	1476.993	1494.9281	1504.5701	2343.9455	3019.0134	3043.6295	3046.5769	3116.8133	3117.0526	3122.9377	3141.9623	3154.1932	3735.0551	3797.8443
CCC#CC1C(O)C1O	CCC#C[C@@H]1[C@H](O)[C@H]1O	
InChI=1S/C7H10O2/c1-2-3-4-5-6(8)7(5)9/h5-9H,2H2,1H3	InChI=1S/C7H10O2/c1-2-3-4-5-6(8)7(5)9/h5-9H,2H2,1H3/t6-,7-/m0/s1
