19
gdb 4252	2.9539557	1.6265597	1.2097873	1.2818	74.9	-0.24407	0.06121	0.30528	1053.2526	0.157072	-422.495761	-422.487939	-422.486995	-422.527915	30.187	
C	 0.5066455014	-0.5244631132	-0.303018006	-0.400172
C	 0.8230992129	 0.8112161261	 0.3485123869	 0.019098
O	 2.1059530334	 1.3460377374	-0.1028019453	-0.315862
C	 2.7390251699	 1.0986889703	 1.1764196527	 0.077158
C	 2.889118471	 2.3643500927	 2.0584537461	-0.266387
C	 1.5000027598	 2.0475290898	 2.6624457027	 0.071122
O	 1.5537585283	 1.1923461041	 3.8334015447	-0.298163
C	 1.1353489821	 0.025447749	 3.0762802773	-0.193124
C	 1.3449158048	 0.7837242062	 1.7780750951	 0.269631
H	-0.4505950609	-0.9127109253	 0.0623322596	 0.11698
H	 0.4361980584	-0.4036389962	-1.3881405388	 0.130604
H	 1.2862714899	-1.2624742648	-0.0904710516	 0.119591
H	 0.0149757963	 1.5299978635	 0.158113944	 0.081027
H	 3.5709144711	 0.3923897835	 1.0974118683	 0.075511
H	 3.694905059	 2.3305244745	 2.7958854504	 0.113564
H	 2.9515501415	 3.2880592764	 1.4778262316	 0.113653
H	 0.7515817921	 2.8396805441	 2.7639385293	 0.074723
H	 1.7711125853	-0.847041197	 3.2671424664	 0.108324
H	 0.0901688135	-0.2367965811	 3.2941132866	 0.102722
117.6769	156.1375	205.6587	234.1352	306.5608	380.6953	393.4786	470.4432	510.7246	703.9288	729.5894	803.2133	855.9585	869.5298	881.2996	906.6197	974.2911	982.5758	998.8788	1037.7225	1045.962	1052.6951	1085.9486	1127.1721	1135.8811	1161.5378	1172.7135	1190.3312	1248.8878	1259.3316	1266.6187	1298.0365	1314.313	1343.5156	1372.6037	1396.0774	1403.5887	1443.0189	1486.4933	1492.3427	1520.9046	2997.3569	3015.2191	3033.6343	3054.4107	3055.7222	3057.3175	3069.1579	3105.8817	3115.3653	3127.2186
CC1OC2CC3OCC123	C[C@@H]1O[C@H]2C[C@@H]3OC[C@]123	
InChI=1S/C7H10O2/c1-4-7-3-8-5(7)2-6(7)9-4/h4-6H,2-3H2,1H3	InChI=1S/C7H10O2/c1-4-7-3-8-5(7)2-6(7)9-4/h4-6H,2-3H2,1H3/t4-,5-,6-,7+/m0/s1
