19
gdb 3252	2.3255631	1.736269	1.5141471	2.7054	74.26	-0.23285	0.04819	0.28104	992.3354	0.156825	-422.512438	-422.504389	-422.503445	-422.544486	31.43	
C	-2.6872173318	 0.1887529462	 3.8569254094	-0.537184
C	-3.0383526909	 0.0452168223	 2.4052697904	 0.305658
C	-4.3573648615	-0.5328461647	 1.8014728832	 0.058619
C	-4.5845042566	 0.7821408621	 1.0247591302	-0.24927
C	-3.1099597068	 1.1814523811	 1.2931264385	-0.151282
C	-2.1035180759	 0.3679877418	 0.4335397071	 0.12639
O	-0.7733666823	 0.8408542982	 0.5156552748	-0.434848
C	-2.367032154	-0.871706294	 1.3305618706	 0.012155
O	-3.625762219	-1.5003710521	 1.0154892639	-0.303721
H	-2.7376963541	-0.7772271549	 4.3721211276	 0.131265
H	-1.6721348881	 0.5818232691	 3.9908485816	 0.113653
H	-3.3724414843	 0.8762334096	 4.3661737344	 0.125273
H	-5.1827395644	-0.9925240663	 2.3497444766	 0.076353
H	-4.9203263073	 0.6940168296	-0.0120867541	 0.105512
H	-5.2684589171	 1.4384437285	 1.5734315957	 0.103281
H	-2.869936587	 2.2341039817	 1.4531778069	 0.068722
H	-2.3256962944	 0.2487790003	-0.6299514169	 0.091321
H	-0.5727201416	 1.0348916689	 1.4380883603	 0.280839
H	-1.552616213	-1.5861955074	 1.4800944595	 0.077267
138.0399	214.1915	219.3768	237.213	276.6658	328.3866	357.4646	396.4777	461.9803	597.3444	695.235	734.7537	830.6042	841.8445	862.5321	906.7991	918.2437	962.1092	986.5684	998.0504	1027.7363	1047.677	1091.7036	1113.212	1135.9315	1158.9921	1169.0576	1169.7324	1193.9624	1239.4469	1246.2944	1260.6141	1285.308	1315.5939	1326.4934	1364.724	1412.9794	1416.7961	1470.1653	1487.53	1490.4337	3017.6855	3044.1434	3072.4671	3078.3731	3083.9897	3085.7847	3088.5352	3095.4513	3104.5678	3798.8593
CC12C3CC1C(O)C2O3	C[C@@]12[C@H]3C[C@@H]1[C@@H](O)[C@@H]2O3	
InChI=1S/C7H10O2/c1-7-3-2-4(7)9-6(7)5(3)8/h3-6,8H,2H2,1H3	InChI=1S/C7H10O2/c1-7-3-2-4(7)9-6(7)5(3)8/h3-6,8H,2H2,1H3/t3-,4-,5-,6+,7+/m1/s1
