19
gdb 3001	5.7998137	0.7536856	0.7136672	1.7636	76.61	-0.23841	-0.02468	0.21373	1550.1496	0.154914	-422.527469	-422.518152	-422.517208	-422.562594	33.219	
O	-3.4322713169	 4.8507943342	 1.8635163011	-0.441908
C	-2.7160829967	 3.983444608	 1.0323682158	 0.148452
C	-3.1889394478	 2.568653858	 0.8756258152	-0.108321
C	-2.3676110736	 1.8431425639	-0.1934399966	-0.259906
C	-1.0553600453	 2.1659498552	 0.6061299405	-0.001184
C	-0.3224821597	 0.9229727067	 1.1312504564	-0.297596
C	 0.3338188278	 0.1697136606	-0.0022476552	 0.160785
O	-0.0066311016	-0.9173024051	-0.3940150221	-0.238964
C	-1.896468836	 2.8929589164	 1.6628764218	-0.124299
H	-3.812777245	 4.342433075	 2.5877360476	 0.284442
H	-2.33498561	 4.5397589184	 0.177789069	 0.100219
H	-4.1650075245	 2.2671268071	 1.2407744582	 0.085818
H	-2.5596109446	 0.7684491991	-0.2351225929	 0.124675
H	-2.4366517342	 2.2480030981	-1.2086274804	 0.101682
H	-0.3439464192	 2.8140297216	 0.0779195038	 0.07476
H	 0.4566855978	 1.2379973153	 1.839313742	 0.113431
H	-1.0163793288	 0.2529302556	 1.6479896832	 0.120766
H	 1.170806888	 0.7178851288	-0.4960906324	 0.073724
H	-1.7092553696	 2.8847115431	 2.7319986251	 0.083424
43.6833	69.6201	128.6491	155.8247	191.3137	266.3359	281.4337	365.4776	435.3331	481.5635	523.3883	715.2986	786.5018	813.4897	864.9285	884.846	920.0131	945.8531	961.6135	991.7835	1010.9401	1055.2567	1075.563	1093.3345	1117.5069	1130.748	1158.0143	1164.94	1218.7562	1234.7773	1251.8451	1271.2314	1294.7517	1303.6178	1348.9594	1377.0692	1429.5071	1452.0661	1469.7413	1493.5406	1831.0496	2853.5379	3014.6286	3018.4046	3046.6415	3094.3949	3107.4529	3123.9477	3157.1929	3169.2098	3811.4938
OC1C2CC(CC=O)C12	O[C@@H]1[C@H]2C[C@H](CC=O)[C@@H]12	
InChI=1S/C7H10O2/c8-2-1-4-3-5-6(4)7(5)9/h2,4-7,9H,1,3H2	InChI=1S/C7H10O2/c8-2-1-4-3-5-6(4)7(5)9/h2,4-7,9H,1,3H2/t4-,5-,6+,7+/m0/s1
