19
gdb 1566	2.6733411	1.5941802	1.2950852	2.2494	76.75	-0.23823	0.00354	0.24176999999999998	1042.8137	0.15619	-422.528323	-422.5199	-422.518955	-422.56072	32.747	
C	-0.0149066755	 1.5356571768	 0.0247240556	-0.423386
C	-0.0001097063	 0.0078903511	-0.0154714232	 0.331539
O	 0.5844539658	-0.4649897058	-1.22068418	-0.481285
C	-1.4439081047	-0.5900978166	 0.245505287	-0.302461
C	-1.5065994996	-0.7082057116	 1.764468747	-0.212142
C	-0.2634116815	-0.7902337444	 2.225296546	 0.195149
C	 0.7226922181	-0.277321014	 3.2430045066	-0.158576
O	 1.5430501452	 0.2116859552	 2.1340596659	-0.309348
C	 0.7752521309	-0.5992226504	 1.1767738076	 0.089957
H	 1.0008515068	 1.927203867	-0.0659630581	 0.136241
H	-0.6211517644	 1.9271383884	-0.8012674271	 0.098847
H	-0.4419514139	 1.9037496622	 0.9607509443	 0.125827
H	 0.1601007338	-0.0136323872	-1.9575571356	 0.276262
H	-2.2331950012	 0.061020821	-0.1485989836	 0.097324
H	-1.5311260162	-1.553511377	-0.2717819673	 0.115134
H	-2.4208302304	-0.6091474846	 2.3379112763	 0.099836
H	 0.3875989521	 0.5239509689	 3.9102244853	 0.119302
H	 1.2637607789	-1.0370301773	 3.8217298655	 0.11106
H	 1.373134572	-1.4572858118	 0.8460149279	 0.090717
114.6941	204.8265	236.0958	254.6989	272.4938	302.4956	323.775	369.4488	431.8091	509.019	577.6569	645.5267	744.902	786.0463	836.015	891.8552	905.1883	924.6989	947.8744	954.2288	977.3101	1003.3967	1025.7889	1090.3112	1121.8782	1126.3968	1139.7024	1165.3277	1212.3175	1239.2523	1268.9706	1294.7272	1338.281	1344.5318	1379.1019	1404.9431	1478.9823	1489.2078	1491.9769	1509.547	1745.	3014.9748	3024.5067	3030.771	3035.0652	3063.8657	3072.4647	3106.7819	3134.9065	3198.5754	3812.9927
CC1(O)CC=C2COC12	C[C@]1(O)C[CH][C]2CO[C@H]12	
InChI=1S/C7H10O2/c1-7(8)3-2-5-4-9-6(5)7/h2,6,8H,3-4H2,1H3	InChI=1S/C7H10O2/c1-7(8)3-2-5-4-9-6(5)7/h2,6,8H,3-4H2,1H3/t6-,7-/m0/s1
