19
gdb 5519	1.9908648	1.8113106	1.1361078	2.0011	77.63	-0.24841	-0.03251	0.21589999999999998	1123.6423	0.156122	-422.505069	-422.496386	-422.495441	-422.538646	31.84	
C	 1.4882209343	 0.0166473061	-0.1026535441	-0.263074
O	 0.0914919327	-0.1325979069	 0.1031303324	-0.264184
C	-0.3966915445	 0.6113682719	 1.1703499806	 0.154322
C	-1.900668051	 0.424109217	 1.4847289151	-0.098533
C	-1.600850937	 0.9968123515	 2.8993806128	-0.273029
C	-0.4454857895	-0.0141284468	 2.6119069982	 0.196113
C	-1.5557169677	-0.9818025577	 2.0633516847	-0.263762
C	 0.6587580488	-0.3807197425	 3.5394871353	 0.033456
O	 1.8344781973	-0.3669506793	 3.2623777169	-0.251141
H	 2.0584057625	-0.2745763162	 0.7870533376	 0.145587
H	 1.7550919356	-0.6260072247	-0.9444878716	 0.123348
H	 1.7403929256	 1.0573819928	-0.3571682424	 0.104821
H	-0.0356281769	 1.6496476433	 1.1343175167	 0.066192
H	-2.7357529667	 0.6826800999	 0.8341954485	 0.083115
H	-1.3205586888	 2.0518335653	 2.9659204914	 0.102719
H	-2.3012529367	 0.7135368829	 3.6871249862	 0.105088
H	-1.2176190431	-1.7350254169	 1.3536954386	 0.125364
H	-2.2495214228	-1.3852347729	 2.8048027155	 0.095891
H	 0.3200682878	-0.6901950668	 4.5556400678	 0.077707
80.3534	116.5075	149.5479	192.0844	216.542	280.9597	342.2498	428.3165	457.8808	534.4313	585.768	721.9309	802.8387	825.555	893.4278	910.0144	948.4602	974.9196	1010.5449	1023.307	1060.7422	1070.855	1090.2076	1141.515	1155.3463	1158.5109	1183.2321	1191.6906	1217.7618	1235.3809	1246.593	1255.2692	1299.8519	1408.7807	1422.686	1483.1015	1488.9282	1493.1104	1518.2415	1532.2505	1807.423	2861.6596	2988.6393	3000.7921	3058.496	3068.3777	3072.4277	3119.8536	3126.3809	3129.9433	3161.1694
COC1C2CC1(C2)C=O	CO[C@H]1[C@@H]2C[C@]1(C2)C=O	
InChI=1S/C7H10O2/c1-9-6-5-2-7(6,3-5)4-8/h4-6H,2-3H2,1H3	InChI=1S/C7H10O2/c1-9-6-5-2-7(6,3-5)4-8/h4-6H,2-3H2,1H3/t5-,6-,7+/m0/s1
