19
gdb 4421	2.7854003	1.096443	1.0235447	2.9247	77.25	-0.25729	-0.04004	0.21725000000000003	1270.7177	0.154585	-422.53625	-422.527077	-422.526133	-422.570754	33.203	
C	 1.1245513216	 0.9610202473	 0.5568986796	-0.391174
C	 0.8936639623	-0.4583835926	 0.0437746687	-0.094251
C	 1.4804932262	-1.5970599835	 0.9407539514	-0.228775
C	 2.6410689542	-1.815062313	-0.0780343895	-0.31822
C	 1.8912935757	-0.8981157243	-1.0456496244	 0.449861
O	 2.5055906016	-0.0332102931	-1.9703404208	-0.274286
C	 1.6897928443	-1.0951717722	-2.5000874697	-0.158117
C	 0.4186293731	-0.656682578	-3.1428638035	 0.151032
O	-0.1733912647	-1.3046993346	-3.9684173265	-0.250436
H	 0.5003241789	 1.15821878	 1.4341257876	 0.118727
H	 2.1700437143	 1.1157485501	 0.8443562735	 0.121372
H	 0.8821346873	 1.7018787804	-0.2106878181	 0.128452
H	-0.159345581	-0.5932905874	-0.2197752333	 0.083523
H	 1.7810472246	-1.2909626829	 1.9448075513	 0.107577
H	 0.8179099196	-2.4608758324	 1.0215570897	 0.111882
H	 3.5886087758	-1.3727948271	 0.2415609114	 0.124183
H	 2.8275386811	-2.8380531864	-0.4114893349	 0.115557
H	 2.2213587368	-1.9013377158	-3.0034951782	 0.115368
H	 0.0557748783	 0.3334308753	-2.7882972243	 0.087723
54.0094	87.3887	143.0706	193.3734	223.1635	233.0067	335.7523	385.5196	428.0326	456.2811	546.0672	567.7296	729.4109	781.5857	854.4693	878.5781	917.6196	930.2915	949.6972	986.6633	1029.5582	1069.9967	1079.5301	1111.246	1143.1619	1164.9839	1178.675	1222.1609	1241.689	1251.6725	1275.5513	1299.3635	1343.1667	1391.6696	1410.5878	1457.9213	1471.5194	1493.8039	1496.7014	1501.3653	1823.2949	2893.0402	3035.2708	3057.0908	3065.3526	3075.2336	3104.6071	3110.8142	3113.544	3131.7224	3134.2192
CC1CCC11OC1C=O	C[C@@H]1CC[C@@]21O[C@@H]2C=O	
InChI=1S/C7H10O2/c1-5-2-3-7(5)6(4-8)9-7/h4-6H,2-3H2,1H3	InChI=1S/C7H10O2/c1-5-2-3-7(5)6(4-8)9-7/h4-6H,2-3H2,1H3/t5-,6-,7+/m1/s1
