19
gdb 5133	2.5429297	1.5763893	1.2410481	1.1947	76.43	-0.23697	0.01067	0.24764	1072.6348	0.157488	-422.541383	-422.533029	-422.532085	-422.574248	32.032	
O	 1.5628817927	 0.5801791822	-0.4023368641	-0.419795
C	 0.1963143947	 0.4089442829	-0.0665129586	-0.129253
C	-0.6934204162	 0.4267778493	-1.2888008548	 0.392098
C	-2.1776688241	 0.6304408641	-1.1449944702	-0.341291
C	-1.3078996889	 1.692136941	-1.8148272187	-0.129239
C	-1.3303941859	 1.8642129229	-3.2873950768	-0.070613
C	-0.5930051226	 1.0721483529	-4.0618198198	-0.080867
C	 0.2504938101	-0.017796856	-3.4546648635	-0.136202
O	-0.2817367984	-0.5355537599	-2.234850068	-0.315238
H	 1.7941336762	-0.1744234498	-0.9549038285	 0.288426
H	 0.040655229	-0.5361563532	 0.4776701208	 0.092884
H	-0.0723039679	 1.2287778084	 0.6075016015	 0.104945
H	-2.8083132603	 0.0294802106	-1.7896990112	 0.122605
H	-2.5835587857	 0.8441177098	-0.1611622587	 0.110311
H	-1.1360501754	 2.5969230985	-1.2371222431	 0.100008
H	-1.9519815761	 2.650616982	-3.7062857232	 0.094955
H	-0.5656194374	 1.1864223938	-5.1411134027	 0.095603
H	 0.3169456432	-0.8784695834	-4.1278480854	 0.114723
H	 1.276654383	 0.3528564938	-3.2945198851	 0.105942
87.6145	121.3201	170.5136	245.4904	308.6137	342.3436	410.9048	478.8985	498.1083	518.8805	546.7124	712.3614	721.7324	798.3236	828.2636	880.7184	920.7065	939.9635	981.493	991.5845	1022.9434	1040.1272	1052.9318	1065.3133	1080.4466	1109.4948	1124.7693	1183.244	1203.6022	1254.3549	1273.0425	1294.4477	1381.426	1387.7396	1400.5449	1412.4511	1437.7281	1480.9791	1489.3091	1494.059	1716.8526	2965.8688	2980.0823	3070.9324	3077.8631	3129.2459	3137.1215	3159.6748	3184.3358	3227.5005	3810.3509
OCC12CC1C=CCO2	OC[C@@]12C[C@@H]1C=CCO2	
InChI=1S/C7H10O2/c8-5-7-4-6(7)2-1-3-9-7/h1-2,6,8H,3-5H2	InChI=1S/C7H10O2/c8-5-7-4-6(7)2-1-3-9-7/h1-2,6,8H,3-5H2/t6-,7-/m0/s1
