19
gdb 4347	2.5582121	1.3939035	1.0136259	1.4941	79.11	-0.24381	-0.05618	0.18763	1200.4601	0.156946	-422.60131	-422.592269	-422.591325	-422.635033	33.552	
C	 1.2488773307	 0.7621852059	 0.1060561767	-0.475347
C	-0.1223731864	 0.1469079016	 0.0920386596	 0.211337
C	-0.3429431031	-1.1751371121	 0.1857266742	-0.187237
C	-1.7057108989	-1.8200804613	 0.1841136687	 0.096398
O	-2.0416579368	-2.2567339022	 1.5073981306	-0.4354
C	-2.7725501523	-0.9034727766	-0.4250736335	-0.240293
C	-2.6677457196	 0.5222668916	 0.1240412028	-0.325855
C	-1.2678347127	 1.0992565846	-0.03174768	 0.327588
O	-1.0766082047	 2.2863548936	-0.2055613017	-0.315949
H	 1.3469039208	 1.4784711652	 0.9284207456	 0.1397
H	 2.0254163634	-0.0000827053	 0.2039704529	 0.116569
H	 1.4228814153	 1.33160377	-0.8124073817	 0.145735
H	 0.500749336	-1.8499536161	 0.3199782677	 0.103048
H	-1.6626154706	-2.7480641152	-0.3969056137	 0.093382
H	-1.8396890589	-1.5370288558	 2.1146497704	 0.280841
H	-2.6360679432	-0.8855948484	-1.5132504846	 0.107704
H	-3.7603692517	-1.3291678924	-0.2266379313	 0.112426
H	-3.3755145847	 1.2077987964	-0.3477701927	 0.126288
H	-2.9008465126	 0.5264644967	 1.1988288601	 0.119062
72.6962	131.939	161.4681	179.3165	280.3007	295.4878	326.7535	368.9329	434.8724	472.829	486.664	546.9878	665.4967	686.4964	743.2117	824.2372	884.9031	908.2009	961.9037	973.1364	1041.3156	1059.9487	1075.4502	1100.183	1134.3338	1179.4713	1187.3406	1259.5171	1271.0228	1340.028	1365.7086	1377.6436	1388.1452	1413.4551	1419.8639	1466.1869	1470.0137	1481.2779	1484.3787	1698.0793	1774.8008	3013.8689	3034.4287	3041.8609	3050.3993	3091.9087	3098.7903	3104.4349	3126.3434	3144.4511	3811.54
CC1=CC(O)CCC1=O	CC1=C[C@@H](O)CCC1=O	
InChI=1S/C7H10O2/c1-5-4-6(8)2-3-7(5)9/h4,6,8H,2-3H2,1H3	InChI=1S/C7H10O2/c1-5-4-6(8)2-3-7(5)9/h4,6,8H,2-3H2,1H3/t6-/m0/s1
