19
gdb 638	2.3357381	1.7216131	1.0810977	0.7407	78.67	-0.23958	0.03719	0.27676999999999996	1125.4267	0.158318	-422.514548	-422.506125	-422.505181	-422.547313	31.7	
C	 1.0255175336	 0.9154390307	-0.0222865411	-0.06249
C	 2.5400817072	 0.8958464061	 0.2982121119	-0.341971
C	 3.1969957731	 1.7192938299	-0.7065591807	 0.068983
C	 3.3441259811	 2.5154609862	-1.5973276405	 0.068916
C	 3.0208483538	 3.4963092222	-2.6232900101	-0.341963
C	 1.5642670402	 3.9541221605	-2.3668120891	-0.062489
O	 0.6882181707	 2.8331888225	-2.3610257883	-0.231577
C	-0.1192251331	 2.6620205171	-1.2249735429	 0.011298
O	 0.5455676316	 2.2542490674	-0.0572159502	-0.231577
H	 0.8607409261	 0.42083524	-0.9859214169	 0.113719
H	 0.4763716621	 0.3662711115	 0.7548579438	 0.097392
H	 2.7062926898	 1.2950465513	 1.3059644939	 0.132095
H	 2.8904123081	-0.1435080934	 0.3045547349	 0.11984
H	 3.6789442277	 4.3736379421	-2.6080200344	 0.119838
H	 3.095827371	 3.0582478012	-3.6258032211	 0.132097
H	 1.5223495107	 4.4819953239	-1.4076613187	 0.113718
H	 1.2478228473	 4.6423204391	-3.1626426873	 0.097392
H	-0.6120203049	 3.6029132626	-0.9459282787	 0.09839
H	-0.8697370962	 1.9209377892	-1.5307873744	 0.098389
128.3899	146.0281	164.6564	244.0796	262.6334	335.8629	362.1576	372.2716	429.956	533.7133	567.0777	597.4517	736.7124	826.1539	827.9044	902.3523	946.7175	973.2721	990.6757	1035.0086	1077.3684	1089.082	1144.0613	1164.3879	1172.184	1225.7755	1243.6767	1271.943	1277.4152	1327.3077	1350.6045	1352.8582	1399.7787	1412.025	1443.6856	1469.2191	1471.0368	1490.4584	1498.6658	1500.0458	2359.9096	2998.9113	3005.2022	3009.4286	3030.0694	3031.0377	3053.079	3058.9098	3059.2176	3076.0237	3076.8903
C1CC#CCCOCO1	C1CC#CCCOCO1	
InChI=1S/C7H10O2/c1-2-4-6-9-7-8-5-3-1/h3-7H2	InChI=1S/C7H10O2/c1-2-4-6-9-7-8-5-3-1/h3-7H2
