19
gdb 2586	2.8223981	1.0741955	0.8178446	3.883	79.24	-0.23526	-0.01792	0.21734	1392.1534	0.155012	-422.572526	-422.563037	-422.562092	-422.6081	33.069	
C	-0.9657019075	 3.4097419004	 2.9394139023	-0.49983
C	-1.7299754937	 2.8591292248	 1.7790820046	 0.314605
C	-3.0240677839	 2.983869221	 1.4963992519	-0.206997
C	-3.3523867566	 2.2955956405	 0.2052561126	-0.118461
O	-2.1172007338	 1.7295288759	-0.2336639018	-0.280787
C	-1.07010593	 2.0517717693	 0.6812687288	 0.024105
C	-0.3949061815	 0.7532040036	 1.1722225537	-0.288271
C	 0.160752307	-0.0659440194	 0.0262179977	 0.154174
O	 1.3100144351	-0.4189071139	-0.0596586588	-0.243454
H	-0.5195448121	 2.6115407685	 3.5445976533	 0.136374
H	-0.137966011	 4.0453705879	 2.600765562	 0.134046
H	-1.6084889225	 4.0069898037	 3.5905770781	 0.130974
H	-3.760237513	 3.5158923812	 2.0866043254	 0.103341
H	-4.1041562007	 1.4995536242	 0.3201581167	 0.107914
H	-3.7349653158	 2.9921289235	-0.5574977184	 0.108872
H	-0.3099295485	 2.6579251361	 0.1587581424	 0.091204
H	 0.4212516801	 0.9736150682	 1.8663797292	 0.116449
H	-1.1550343382	 0.1530969906	 1.6900657518	 0.118572
H	-0.5839241634	-0.3239487562	-0.7556825818	 0.097171
47.1287	73.6336	87.2671	163.1403	169.4395	241.8463	258.7602	336.373	430.7651	473.6764	566.1778	603.0822	770.9653	802.3502	833.0289	848.2583	927.363	947.2732	999.1635	1037.3485	1045.7138	1055.1888	1085.3118	1094.9554	1116.18	1192.1453	1209.0306	1225.5164	1267.2364	1295.8723	1354.9457	1364.1832	1384.5323	1417.9982	1421.9946	1452.8061	1480.8654	1489.4066	1524.3439	1733.2127	1827.4039	2918.8942	2950.0001	2976.7638	2994.0348	3024.0573	3026.8848	3071.8455	3103.6707	3118.4827	3210.1278
CC1=CCOC1CC=O	CC1=CCO[C@@H]1CC=O	
InChI=1S/C7H10O2/c1-6-3-5-9-7(6)2-4-8/h3-4,7H,2,5H2,1H3	InChI=1S/C7H10O2/c1-6-3-5-9-7(6)2-4-8/h3-4,7H,2,5H2,1H3/t7-/m1/s1
