19
gdb 4430	2.9833096	1.397594	1.2341458	0.7366	75.03	-0.24564	0.06503	0.31067	1086.0277	0.156901	-422.50805	-422.499885	-422.498941	-422.541023	31.324	
O	 0.4198065159	 0.2890836562	 0.0250934191	-0.420208
C	-0.7424811613	-0.1967604615	 0.6392246489	 0.003749
C	-1.0866484487	 0.2577552589	 2.0727616561	-0.119291
O	-2.4126804281	 0.6423455292	 1.6662663762	-0.317541
C	-2.1242908287	 0.4093384051	 0.2695057467	 0.405391
C	-3.1606775931	-0.3782090635	-0.5829010076	-0.318588
C	-3.2028342692	 0.7969908936	-1.5663639333	-0.032752
C	-3.6293817855	 2.0388406693	-0.8432393731	-0.286975
C	-2.20157249	 1.5783593067	-0.7075026488	-0.109702
H	 0.4683553021	 1.2394290713	 0.1754726184	 0.284353
H	-0.7146773725	-1.2823452608	 0.516971515	 0.102183
H	-1.0948130913	-0.505752438	 2.8586962384	 0.107847
H	-0.4872409908	 1.1146805036	 2.4150595394	 0.089304
H	-2.7312002677	-1.2943317633	-0.9977069199	 0.106755
H	-4.1004719776	-0.6185496638	-0.0760314652	 0.105867
H	-3.2299687661	 0.7138689233	-2.6450015505	 0.089283
H	-3.7648650027	 2.9223697789	-1.4586162202	 0.111846
H	-4.3020679785	 1.9765885757	 0.0081857544	 0.122703
H	-1.3704259162	 2.197141629	-1.0251242043	 0.075776
60.4867	120.8289	177.8554	258.0441	319.996	363.7825	406.3717	484.4209	507.7262	556.8905	738.8379	755.1752	792.4272	839.5794	873.1385	913.8581	930.3893	967.5367	976.4804	1016.5638	1020.6474	1039.8392	1058.6647	1083.1828	1105.1608	1115.7183	1130.2749	1154.0105	1158.5353	1200.6741	1228.8117	1246.292	1262.2503	1294.4358	1317.988	1340.9955	1364.4964	1438.6841	1472.2499	1494.9561	1521.3528	2990.415	3047.5977	3057.448	3086.8911	3102.5989	3116.3953	3172.5084	3195.4206	3207.7999	3805.3985
OC1COC11CC2CC12	O[C@H]1CO[C@@]21C[C@H]1C[C@@H]21	
InChI=1S/C7H10O2/c8-6-3-9-7(6)2-4-1-5(4)7/h4-6,8H,1-3H2	InChI=1S/C7H10O2/c8-6-3-9-7(6)2-4-1-5(4)7/h4-6,8H,1-3H2/t4-,5-,6+,7+/m1/s1
