19
gdb 5539	1.9690386	1.5896772	1.0390329	3.269	76.55	-0.25134	-0.02776	0.22358	1185.5168	0.156102	-422.504273	-422.495455	-422.494511	-422.538597	32.061	
O	-2.7849891914	-2.8140610456	-2.5135298388	-0.417524
C	-2.4922627413	-2.004921096	-1.3781569526	-0.136923
C	-3.7552008751	-1.7345910546	-0.570399227	 0.044368
C	-4.2403291772	-2.666189309	 0.5928871766	-0.102129
C	-5.2091556924	-1.5088543485	 0.9786597904	-0.223966
C	-3.834299916	-0.8226652846	 0.7034759152	-0.085155
C	-3.209349189	-1.9667893975	 1.5491019196	-0.035306
C	-1.7317893352	-2.2391859963	 1.5829105634	 0.098364
O	-0.8759835284	-1.4057487345	 1.4138923321	-0.246936
H	-3.0563742025	-3.6806207741	-2.1946104665	 0.280586
H	-1.6851699565	-2.4497503798	-0.7866267779	 0.101576
H	-2.1056788875	-1.0621894281	-1.7801413329	 0.122066
H	-4.5477394095	-1.512567648	-1.294006424	 0.079977
H	-4.476107756	-3.7313666308	 0.549077599	 0.073057
H	-6.0099142894	-1.2942049823	 0.2678071483	 0.100089
H	-5.5673078715	-1.4916616488	 2.0110565356	 0.094086
H	-3.5987644072	 0.2388772284	 0.7700076138	 0.088054
H	-3.5359222136	-1.994922108	 2.6007469415	 0.093728
H	-1.4614731104	-3.2858179919	 1.862457904	 0.071985
50.9522	87.1558	144.587	170.5336	232.5811	284.4176	316.4779	406.5959	477.174	584.0062	693.6634	746.8141	764.9803	807.3845	881.1289	894.0891	912.6147	988.5379	1012.5744	1019.2883	1034.2422	1062.9287	1069.8999	1089.6441	1101.002	1131.5405	1161.3642	1170.6296	1205.0893	1215.8718	1224.8409	1246.0788	1277.4316	1356.1698	1388.8097	1405.1088	1420.8789	1442.993	1497.1018	1522.8526	1814.3739	2842.9938	2987.443	3039.9032	3046.7663	3058.293	3084.6346	3092.6739	3124.7402	3127.2541	3816.7678
OCC1C2CC1C2C=O	OC[C@H]1[C@@H]2C[C@H]1[C@@H]2C=O	
InChI=1S/C7H10O2/c8-2-6-4-1-5(6)7(4)3-9/h2,4-7,9H,1,3H2	InChI=1S/C7H10O2/c8-2-6-4-1-5(6)7(4)3-9/h2,4-7,9H,1,3H2/t4-,5+,6-,7+
