19
gdb 1965	4.0587896	1.1200849	1.0370546	2.5291	75.09	-0.24299	0.07254	0.31553	1188.0574	0.156362	-422.499716	-422.491369	-422.490425	-422.532896	31.743	
O	-2.3193962514	 4.0328354395	 0.3680679594	-0.462598
C	-1.9181724531	 2.7172543237	 0.2277996885	 0.413509
C	-2.5194720651	 1.5941393535	 1.0214394599	-0.349322
C	-1.0447681042	 1.9163621963	 1.180432947	-0.189545
C	-0.2652524428	 1.3328272952	 0.0025628006	 0.322458
C	 1.2725054978	 1.4357481016	-0.0355869389	-0.140107
O	 1.4147035013	 0.0048498681	-0.1231029308	-0.275229
C	-0.0155361215	-0.182116383	-0.1506971392	-0.131243
C	-1.1384292532	 2.1762116437	-0.9782208983	-0.390545
H	-3.2213325506	 4.1129149762	 0.0386795768	 0.286421
H	-3.1348645706	 1.9190000734	 1.8545098901	 0.115935
H	-2.8419879002	 0.6669898815	 0.5510850031	 0.105105
H	-0.6239516936	 2.1934390424	 2.1399309149	 0.095969
H	 1.6850324131	 1.9465413643	-0.9164463843	 0.096869
H	 1.7465901518	 1.8438906388	 0.866887128	 0.10123
H	-0.3512997829	-0.6231118539	-1.099038107	 0.095966
H	-0.3666685238	-0.8082451529	 0.6796226176	 0.100916
H	-0.5484825752	 2.9592141841	-1.4624466132	 0.112989
H	-1.7085278758	 1.6321557675	-1.7401775541	 0.091225
60.4137	103.913	211.1239	249.5278	304.658	369.1296	385.1583	410.0937	436.5528	512.9459	664.3834	765.1559	830.3855	856.7285	878.6717	889.1702	947.1328	950.5507	984.6112	992.5812	1002.8802	1037.5807	1039.455	1072.6203	1101.222	1150.3673	1158.8978	1161.6922	1193.8605	1200.7969	1229.7721	1277.1112	1283.5573	1308.0276	1331.6123	1383.0946	1405.0868	1474.6909	1503.6022	1507.6591	1532.6093	2992.7832	3005.0849	3032.8834	3040.4881	3044.9625	3099.2315	3099.9357	3182.1943	3200.9108	3794.4715
OC12CC1C1(COC1)C2	O[C@]12C[C@H]1C1(COC1)C2	
InChI=1S/C7H10O2/c8-7-1-5(7)6(2-7)3-9-4-6/h5,8H,1-4H2	InChI=1S/C7H10O2/c8-7-1-5(7)6(2-7)3-9-4-6/h5,8H,1-4H2/t5-,7-/m0/s1
