19
gdb 2667	2.7355669	1.5399543	1.246409	0.7741	77.15	-0.23411	-0.00031	0.2338	1061.2971	0.157065	-422.529367	-422.520947	-422.520003	-422.562143	31.97	
C	-0.0407122546	 1.5294156195	 0.0042321598	-0.401705
C	 0.0128557308	 0.0113182015	-0.0292993379	-0.089113
C	-1.2870069807	-0.703427981	 0.5692541382	 0.056534
O	-2.5152476733	-0.0380230802	 0.5942041666	-0.41741
C	-0.4761236922	-0.8297434534	 1.8401237858	 0.166888
C	-0.4125178623	-0.3199073694	 3.0661346346	-0.252218
C	 1.0333837727	 0.0819536626	 3.3195083524	-0.104679
O	 1.6617581966	 0.0850390099	 2.0231009621	-0.276294
C	 0.8362377936	-0.6558999786	 1.1422706483	 0.083894
H	 0.9159799444	 1.955087228	-0.3101786358	 0.130128
H	-0.822025318	 1.9043975797	-0.6639103341	 0.122634
H	-0.2411255692	 1.9037612514	 1.0139370016	 0.111451
H	 0.2836076411	-0.3492218212	-1.0255152339	 0.074598
H	-1.4649094536	-1.6542779309	 0.0596991312	 0.104779
H	-2.4063599721	 0.7569724709	 1.1277980393	 0.28426
H	-1.2233786325	-0.0774097235	 3.7415955665	 0.107757
H	 1.105571838	 1.0894715484	 3.749227882	 0.1118
H	 1.5702744791	-0.6039646184	 3.9943542764	 0.107092
H	 1.3544057225	-1.5632074553	 0.806013377	 0.079604
110.2504	142.0988	188.9374	222.4818	233.1499	272.5808	364.7041	468.0974	495.9397	547.1689	664.0686	712.1856	780.3248	801.8639	806.7156	820.8887	907.0045	943.6382	955.891	1007.0843	1017.9042	1036.5807	1078.2711	1112.8313	1133.7197	1153.8328	1158.8596	1195.7326	1238.904	1246.5126	1279.6733	1295.1784	1338.944	1353.3996	1376.4551	1409.1507	1437.6095	1492.1633	1498.1651	1516.2455	1714.232	2973.8404	3015.2101	3032.4439	3036.8629	3063.1002	3079.2964	3103.0233	3116.0742	3211.5844	3804.2373
CC1C(O)C2=CCOC12	C[C@@H]1[C@H](O)[C]2[CH]CO[C@H]12	
InChI=1S/C7H10O2/c1-4-6(8)5-2-3-9-7(4)5/h2,4,6-8H,3H2,1H3	InChI=1S/C7H10O2/c1-4-6(8)5-2-3-9-7(4)5/h2,4,6-8H,3H2,1H3/t4-,6+,7-/m1/s1
