19
gdb 2772	2.6137572	1.3462594	1.0667795	2.6825	78.08	-0.2393	-0.03338	0.20592000000000002	1199.6962	0.154326	-422.531608	-422.522353	-422.521408	-422.565355	33.875	
C	 2.0648742469	-3.5739542903	 1.8937797381	-0.430314
C	 1.4394931582	-2.5581446828	 0.9645780441	-0.079265
C	 1.7280061837	-1.1010676195	 1.1800303002	-0.17543
C	 0.9670647057	-0.2534065343	 0.1597500175	 0.119307
C	 1.4082761427	 1.1886106846	 0.0250379978	-0.402163
O	 1.4713759069	-1.0702990903	-0.9470260911	-0.334229
C	 2.295111483	-1.8154820879	-0.0497923812	 0.341117
C	 3.6748602998	-2.1151543743	-0.4599787763	 0.062961
O	 4.5266758921	-2.6044919875	 0.246633575	-0.27237
H	 1.4713276106	-3.6639023058	 2.8099215074	 0.119342
H	 2.1052667187	-4.5592355253	 1.4197480373	 0.128362
H	 3.0862564939	-3.2953498383	 2.1579780713	 0.151677
H	 0.4508788624	-2.8113007065	 0.584010771	 0.099815
H	 2.2760056406	-0.7301481744	 2.0371750079	 0.115311
H	-0.1260583108	-0.3273530858	 0.219520182	 0.086698
H	 1.0554878608	 1.7750860161	 0.8805134194	 0.120247
H	 2.4990019882	 1.2595229131	-0.0217909897	 0.125893
H	 0.9925229287	 1.6257739395	-0.8873392956	 0.132812
H	 3.8763652279	-1.8333479805	-1.5171287351	 0.090227
98.2165	146.1933	176.9297	189.7554	214.1907	226.3538	267.2984	343.9272	362.9501	437.6071	467.2365	554.9719	724.2716	756.8341	782.1038	873.9427	908.6795	927.0749	957.5126	1009.5044	1042.0671	1058.2531	1064.6011	1096.9441	1109.5476	1129.5735	1163.6707	1175.4792	1243.5127	1297.0178	1334.8707	1381.9977	1408.653	1412.7784	1418.78	1423.6618	1485.4106	1490.342	1491.1448	1504.1991	1797.3854	2893.1065	3028.556	3037.1892	3041.1531	3101.8673	3109.5765	3114.5824	3121.132	3144.8945	3197.3272
CC1C2C(C)OC12C=O	C[C@H]1[C@@H]2[C@@H](C)O[C@]12C=O	
InChI=1S/C7H10O2/c1-4-6-5(2)9-7(4,6)3-8/h3-6H,1-2H3	InChI=1S/C7H10O2/c1-4-6-5(2)9-7(4,6)3-8/h3-6H,1-2H3/t4-,5+,6+,7+/m0/s1
