19
gdb 3871	3.3875086	1.2465604	1.1171855	2.626	75.46	-0.25551	-0.03824	0.21727000000000002	1150.0712	0.15649	-422.553533	-422.545186	-422.544241	-422.586697	31.484	
C	 2.465593796	-0.2473389338	-1.6883830534	-0.412801
C	 1.9172686753	-0.0496635735	-0.2779713867	 0.031406
C	 2.8153383415	-0.6562313252	 0.8546962734	-0.279127
C	 3.121116082	 0.6609638396	 1.5970344825	 0.331746
C	 1.7211946171	 1.3335056015	 1.7223352526	-0.272849
C	 1.9833179962	 1.4207299232	 0.2059247573	 0.066745
O	 3.4095388928	 1.5881401921	 0.5032360123	-0.333623
C	 4.1025692889	 0.6965471419	 2.7282701524	 0.053935
O	 4.2433598344	-0.2034305913	 3.5172250535	-0.251646
H	 2.5338098044	-1.3105942287	-1.9397288597	 0.117031
H	 1.8235241867	 0.2316183432	-2.4358441376	 0.110994
H	 3.4668493654	 0.1864793527	-1.768009658	 0.133053
H	 0.8905167049	-0.425923247	-0.218281039	 0.073975
H	 2.3082773229	-1.3858261036	 1.4883042255	 0.117046
H	 3.7297986617	-1.1085044597	 0.4645650188	 0.113689
H	 0.8875015248	 0.7358200707	 2.0973125019	 0.108682
H	 1.7769990163	 2.3075813388	 2.2093791007	 0.116529
H	 1.570282974	 2.2042399209	-0.4301717154	 0.082304
H	 4.6792692345	 1.6450399781	 2.799186019	 0.092909
58.3425	145.1864	173.9588	241.5502	251.9383	320.8166	408.9564	436.9891	481.8512	570.2981	664.5535	739.7612	796.9487	832.427	844.9509	882.9435	912.9606	931.1032	961.9639	1010.1607	1022.0481	1034.0316	1050.6832	1113.1931	1135.0251	1156.2137	1201.3451	1212.2909	1225.803	1256.7018	1278.7149	1305.2261	1325.6774	1371.8958	1404.6725	1408.7978	1478.1042	1494.5217	1497.3616	1506.0651	1824.2208	2896.3844	3032.3338	3049.0209	3073.0504	3077.5095	3097.356	3114.8618	3119.5888	3129.7979	3148.5736
CC1CC2(CC1O2)C=O	C[C@H]1C[C@@]2(C[C@H]1O2)C=O	
InChI=1S/C7H10O2/c1-5-2-7(4-8)3-6(5)9-7/h4-6H,2-3H2,1H3	InChI=1S/C7H10O2/c1-5-2-7(4-8)3-6(5)9-7/h4-6H,2-3H2,1H3/t5-,6+,7+/m0/s1
