19
gdb 3309	2.0108012	1.7634699	1.4131366	2.1214	75.65	-0.24025	-0.02151	0.21874	1050.7058	0.155521	-422.565001	-422.555888	-422.554944	-422.598713	33.231	
C	-1.7009890799	-0.6483468823	 2.5591490414	-0.423448
C	-1.9461761233	-1.2612486656	 1.1981953246	-0.080589
C	-2.3277940223	-0.4674827712	-0.0101052151	 0.041538
O	-2.162935789	 0.932497319	 0.0708010801	-0.263078
C	-0.7828190136	 1.2646255375	 0.0525089589	-0.18944
C	 0.0064126513	-0.0480000826	 0.0196637594	 0.321463
O	 1.2054480765	-0.1409966486	-0.0689386279	-0.321512
C	-0.9862648892	-1.1688663719	-0.0087347158	 0.145082
C	-0.6086683363	-2.4082398118	-0.7829527455	-0.477864
H	-0.9246689088	-1.1925320552	 3.1061090982	 0.128708
H	-1.4032473619	 0.399961439	 2.4960760547	 0.133711
H	-2.6192664489	-0.6861539432	 3.1546128451	 0.126854
H	-2.4043602938	-2.2478202354	 1.2379335305	 0.096239
H	-3.1511325013	-0.7574134031	-0.6550965842	 0.106494
H	-0.5434063454	 1.8493971435	-0.8461292638	 0.135682
H	-0.5115361152	 1.8671185115	 0.9280050294	 0.133791
H	 0.2787277775	-2.8731097264	-0.3425158064	 0.141718
H	-1.4203875175	-3.1412082744	-0.77442768	 0.11651
H	-0.3737865191	-2.1709718588	-1.8256333737	 0.128141
99.0805	132.5125	140.5712	163.5164	203.4867	244.3486	262.2158	367.3944	456.6706	559.4646	566.1055	612.4989	644.4642	689.6845	793.8098	854.5559	886.8236	957.7845	990.0515	1009.5782	1046.2178	1061.5883	1077.8261	1100.0907	1122.8592	1152.2954	1161.752	1203.5263	1271.6566	1309.2437	1324.3942	1359.5559	1414.2382	1419.1221	1439.8058	1483.0923	1483.9804	1490.3707	1496.8241	1504.2927	1832.2692	3015.4845	3036.7708	3042.6829	3055.9711	3099.6805	3103.6483	3112.1764	3120.6436	3138.5112	3162.2305
CC1C2OCC(=O)C12C	C[C@H]1[C@H]2OCC(=O)[C@@]12C	
InChI=1S/C7H10O2/c1-4-6-7(4,2)5(8)3-9-6/h4,6H,3H2,1-2H3	InChI=1S/C7H10O2/c1-4-6-7(4,2)5(8)3-9-6/h4,6H,3H2,1-2H3/t4-,6+,7+/m0/s1
