19
gdb 1270	3.1062851	1.2637195	1.173328	1.6147	75.08	-0.24377	0.00188	0.24564999999999998	1140.4391	0.155775	-422.55213	-422.54331	-422.542366	-422.585589	33.318	
C	 1.378536102	 2.4649377909	 2.3237896397	-0.423292
C	 1.7476107345	 2.4375428693	 0.8409878384	 0.025354
O	 2.866706472	 3.270043778	 0.5502149945	-0.426649
C	 1.9787349651	 1.0215333287	 0.3445006188	 0.422953
C	 3.2084971574	 0.2120926836	 0.7664300654	-0.342228
C	 3.3935330144	-0.7620917744	-0.3792968188	-0.076891
C	 2.503327218	-0.5699533312	-1.3558306144	-0.073525
C	 1.562550923	 0.5256547034	-0.9799598887	-0.07883
O	 0.792345102	 0.229164861	 0.2161247103	-0.310182
H	 0.4950851789	 1.8471817939	 2.5072283387	 0.143063
H	 2.1973644056	 2.0717102285	 2.9399158676	 0.108977
H	 1.168394435	 3.4888382569	 2.6448981883	 0.123816
H	 0.9145259381	 2.850594336	 0.2613428553	 0.09459
H	 3.5021673196	 3.1743501007	 1.2668174514	 0.281553
H	 4.0864727998	 0.860298142	 0.8847699005	 0.105445
H	 3.0507199	-0.3016004705	 1.7220960315	 0.122589
H	 4.1542174881	-1.5345368985	-0.363775711	 0.10203
H	 2.4323035561	-1.1316063845	-2.278664832	 0.103093
H	 1.0460540705	 1.1350261863	-1.7156211654	 0.098134
57.4555	137.6147	197.3757	232.1723	261.3792	286.1149	320.8219	372.4623	476.4415	498.1378	541.292	626.6328	719.856	738.8555	810.5243	878.883	890.3	911.7937	943.1651	952.572	980.6127	1007.6824	1013.5922	1051.7985	1082.2367	1118.0526	1137.5228	1185.1188	1236.1804	1254.4312	1296.6883	1320.011	1346.0483	1375.3418	1396.5186	1404.3895	1441.644	1456.8239	1492.0681	1495.6832	1663.4701	3023.7238	3026.3753	3049.5847	3064.4611	3099.774	3126.5236	3160.8819	3191.5412	3221.649	3816.297
CC(O)C12CC=CC1O2	C[C@@H](O)[C@]12CC=C[C@H]1O2	
InChI=1S/C7H10O2/c1-5(8)7-4-2-3-6(7)9-7/h2-3,5-6,8H,4H2,1H3	InChI=1S/C7H10O2/c1-5(8)7-4-2-3-6(7)9-7/h2-3,5-6,8H,4H2,1H3/t5-,6-,7-/m1/s1
