19
gdb 5599	3.0188109	1.3447873	1.2915617	0.5495	74.44	-0.23881	0.00483	0.24364	1069.1661	0.158979	-422.553478	-422.5458	-422.544856	-422.58556	30.271	
O	 1.586021486	 0.6898125667	 0.0906506485	-0.416538
C	 0.5553039222	-0.1715941016	 0.5602640884	-0.104655
C	-0.3601449819	 0.5227885609	 1.5603987098	-0.000563
C	-1.176997465	 1.7383088985	 1.029018792	-0.093998
C	-1.9428265845	 2.0751540371	 2.3447707466	-0.084222
O	-2.2197264705	 0.7921170573	 2.9229021355	-0.280979
C	-1.6561777613	-0.1880151448	 2.0004956919	 0.040521
C	-2.4950945509	-0.1299225193	 0.7328271798	-0.079363
C	-2.2021428148	 1.0391666354	 0.1516823212	-0.080197
H	 2.1420053635	 0.9209923439	 0.841699641	 0.280628
H	-0.0018130312	-0.477903299	-0.3279367676	 0.117841
H	 0.9777034222	-1.0817181475	 1.0155140276	 0.085199
H	 0.2254840092	 0.7936913885	 2.4490602786	 0.066517
H	-0.6192676879	 2.5635116941	 0.5903641507	 0.078912
H	-1.3221865813	 2.6599098144	 3.0356358687	 0.096886
H	-2.8776480782	 2.6170888102	 2.1619884879	 0.098417
H	-1.5856555935	-1.1377862842	 2.5284964028	 0.073281
H	-3.2604962025	-0.8423388298	 0.4545866907	 0.101658
H	-2.6748282895	 1.4852256592	-0.7143236641	 0.100653
92.6813	164.842	248.2654	295.2924	317.0808	371.0291	433.4585	507.8886	560.9033	702.6749	747.2226	764.7247	824.041	864.278	879.8749	897.6698	925.0658	947.4737	954.0007	993.433	1005.0085	1028.7097	1058.7066	1066.7951	1111.0003	1124.4114	1171.3395	1200.0937	1204.6565	1233.6802	1269.2638	1289.7928	1300.8078	1345.2297	1352.947	1383.9441	1402.4377	1420.1978	1509.5615	1520.0844	1633.7714	2976.1332	3014.1539	3021.7022	3059.4787	3105.7797	3133.6211	3139.6018	3201.7218	3227.9395	3812.9582
OCC1C2COC1C=C2	OC[C@H]1[C@@H]2CO[C@H]1C=C2	
InChI=1S/C7H10O2/c8-3-6-5-1-2-7(6)9-4-5/h1-2,5-8H,3-4H2	InChI=1S/C7H10O2/c8-3-6-5-1-2-7(6)9-4-5/h1-2,5-8H,3-4H2/t5-,6-,7-/m0/s1
