19
gdb 1762	2.2203541	1.8438739	1.310679	4.2936	74.2	-0.2641	0.01416	0.27826	1039.9003	0.158138	-422.617705	-422.609733	-422.608789	-422.649924	30.926	
C	-2.8278029394	 0.1803925186	-1.2733209288	-0.465108
C	-2.0370363378	-0.0389451466	-0.0044364737	 0.438102
C	-2.8322234334	-0.1722658387	 1.2952890432	-0.247243
C	-1.8838683877	-0.897449491	 2.2708800882	-0.230502
C	-1.1069040909	-1.8846547015	 1.3740648993	-0.225047
C	-0.9235103677	-1.1244970734	 0.0500426077	-0.262559
C	 0.0148636959	 0.0782686381	 0.1456930439	 0.448394
O	 1.1860422211	 0.2757749654	 0.2253897262	-0.336352
O	-0.9898203304	 1.0085410257	 0.1393432054	-0.29247
H	-3.5167091256	-0.653294364	-1.441798762	 0.124044
H	-3.4167312858	 1.1006937715	-1.2074445169	 0.134759
H	-2.1635832832	 0.263399304	-2.1380997476	 0.130656
H	-3.1773833813	 0.79974	 1.6579389416	 0.116757
H	-3.7187880909	-0.7875556983	 1.098888838	 0.103699
H	-1.193850879	-0.1781681206	 2.7239422221	 0.127288
H	-2.4146000897	-1.3949329925	 3.0858905176	 0.10331
H	-0.1542352686	-2.2028910085	 1.8052780795	 0.124277
H	-1.7037357162	-2.7852939626	 1.1903789706	 0.106446
H	-0.7672182396	-1.7550523657	-0.8258851943	 0.10155
110.4023	179.8618	217.3097	245.3656	293.3007	330.3174	376.2524	500.891	572.8318	589.3392	619.6697	720.2259	793.0128	823.4386	870.1596	874.0404	902.06	927.1741	946.719	994.4456	1023.2222	1052.5887	1095.2874	1112.8874	1114.3598	1195.7266	1225.0466	1244.5059	1255.7463	1280.2428	1284.6902	1336.9519	1348.369	1370.7345	1414.0273	1472.3556	1483.274	1489.9779	1494.5172	1502.4593	1927.3724	3036.2836	3041.4288	3043.7147	3057.5591	3098.3295	3100.7367	3110.034	3111.5108	3114.1004	3118.143
CC12CCCC1C(=O)O2	C[C@@]12CCC[C@@H]1C(=O)O2	
InChI=1S/C7H10O2/c1-7-4-2-3-5(7)6(8)9-7/h5H,2-4H2,1H3	InChI=1S/C7H10O2/c1-7-4-2-3-5(7)6(8)9-7/h5H,2-4H2,1H3/t5-,7-/m1/s1
