19
gdb 4358	2.439991	1.5497181	1.2164852	3.8864	75.17	-0.23249	-0.0085	0.22399	1080.894	0.158255	-422.583016	-422.574895	-422.573951	-422.615642	31.656	
O	-3.5918138355	-0.3843566551	 0.4913780635	-0.435391
C	-2.9464742245	-0.1254043209	-0.7561108903	 0.102805
C	-1.9628841502	-1.2507279176	-1.1137690536	-0.275267
C	-0.8189626257	-1.3424633911	-0.0965329389	-0.289161
C	-0.0939845468	-0.0305400509	 0.1953491309	 0.39011
O	 1.0023114398	-0.0212142019	 0.7103016759	-0.330986
C	-0.8249560865	 1.242427146	-0.09160954	-0.110357
C	-1.164365653	 1.6178753668	-1.5316028141	-0.312145
C	-2.2564151965	 1.2116084167	-0.5939461921	-0.016809
H	-4.1223978057	-1.1813798876	 0.3903868049	 0.283036
H	-3.6997540103	-0.0390070202	-1.5551770186	 0.068834
H	-2.509634931	-2.2011357888	-1.1460941689	 0.093352
H	-1.5775499934	-1.0961437036	-2.1277649848	 0.108571
H	-1.2391772667	-1.6466532719	 0.8711003108	 0.141702
H	-0.0769694786	-2.0967087069	-0.3699537743	 0.121219
H	-0.5115525777	 2.061691849	 0.5454801182	 0.108421
H	-1.0667965254	 2.6667022349	-1.7867741195	 0.125913
H	-0.8670286849	 0.9439184225	-2.32645245	 0.123971
H	-2.9121566375	 1.9926895205	-0.2229145989	 0.102182
65.8627	190.2376	200.6662	287.5777	310.9848	380.8436	424.2146	455.1115	467.8817	519.2919	608.4093	689.3123	730.511	773.0912	838.316	877.3011	901.2938	955.3789	960.9811	997.8298	1027.8629	1058.1692	1069.6131	1088.0812	1119.0453	1128.0587	1185.9356	1197.6498	1222.5059	1247.6301	1256.6713	1334.6217	1356.3485	1363.4862	1387.4461	1400.5017	1440.803	1443.3276	1486.0162	1509.639	1797.3011	2970.6363	3031.4469	3037.079	3069.3064	3104.779	3143.9444	3162.2508	3179.2616	3227.0958	3813.6238
OC1CCC(=O)C2CC12	O[C@@H]1CCC(=O)[C@H]2C[C@@H]12	
InChI=1S/C7H10O2/c8-6-1-2-7(9)5-3-4(5)6/h4-6,8H,1-3H2	InChI=1S/C7H10O2/c8-6-1-2-7(9)5-3-4(5)6/h4-6,8H,1-3H2/t4-,5+,6-/m1/s1
