19
gdb 3280	2.8118196	1.3628735	1.1409852	2.5321	73.99	-0.22729	0.07047	0.29776	1122.7777	0.156766	-422.529837	-422.521455	-422.520511	-422.562268	32.982	
O	 0.3002494376	 0.0498784482	 0.2834695154	-0.440327
C	-0.7580691055	 0.7318498704	 0.8944964302	 0.144418
C	-1.5361946658	 0.0933040734	 2.0103587957	-0.10643
C	-2.9840026023	 0.5257506237	 2.2977800391	-0.256806
C	-2.9261374361	 1.9778510482	 2.7750717562	-0.113529
C	-2.4608562035	 3.0734530195	 1.8281156089	-0.332736
C	-1.4792228122	 2.4447936447	 2.7653369278	 0.429363
O	-0.9408052991	 3.2821902978	 3.7426504357	-0.471432
C	-0.617415539	 1.2824440274	 2.2912895121	-0.207822
H	 0.7623431333	-0.4655495421	 0.9522562418	 0.282102
H	-1.2775783625	 1.3115978976	 0.1397120088	 0.104291
H	-1.2447243752	-0.9166278917	 2.2870960556	 0.07889
H	-3.6336375011	 0.3922416048	 1.424549126	 0.106421
H	-3.3966829533	-0.1014165681	 3.0953073064	 0.103378
H	-3.5905745249	 2.2842538602	 3.5757875741	 0.087306
H	-2.4051872331	 2.8951527115	 0.7602748224	 0.115614
H	-2.7682862863	 4.0794451479	 2.0925618083	 0.119997
H	-0.7947131105	 2.755558636	 4.5367584182	 0.279133
H	 0.3441706294	 1.1720036206	 2.7837746773	 0.078167
140.7838	164.4776	212.4842	259.8734	264.6688	328.53	395.0196	408.3305	432.6183	474.9593	596.4719	677.4537	744.5911	798.0167	831.1011	851.528	905.5552	925.4216	933.5964	963.0861	997.7532	1020.8782	1046.9575	1058.2906	1079.909	1087.9198	1101.1025	1123.2689	1158.5956	1211.6063	1225.0455	1248.0445	1269.4804	1292.5008	1326.1878	1339.2106	1374.4379	1410.4868	1461.7536	1487.5663	1499.6192	3032.2122	3068.2879	3135.4979	3139.1831	3155.4904	3167.3972	3176.3796	3220.9466	3787.7866	3819.4598
OC1C2CC3CC3(O)C12	O[C@H]1[C@@H]2C[C@@H]3C[C@]3(O)[C@H]12	
InChI=1S/C7H10O2/c8-6-4-1-3-2-7(3,9)5(4)6/h3-6,8-9H,1-2H2	InChI=1S/C7H10O2/c8-6-4-1-3-2-7(3,9)5(4)6/h3-6,8-9H,1-2H2/t3-,4-,5+,6+,7-/m1/s1
