19
gdb 6052	3.3102624	0.983868	0.7987869	3.6554	77.91	-0.23806	-0.04805	0.19000999999999998	1416.3579	0.157035	-422.590216	-422.581108	-422.580164	-422.624909	32.823	
O	-0.9602501463	 0.5440202282	 1.1341054832	-0.420428
C	-0.2563005892	-0.0687951794	 0.0624238697	-0.079932
C	-0.5536831576	 0.6088277432	-1.2798038561	-0.209052
C	 0.1245494872	-0.0713071913	-2.4803668592	-0.109063
C	-0.3958281412	 0.3751026571	-3.8661266037	-0.297148
C	 0.8487252538	 0.6703478546	-4.6626749535	-0.049867
C	 1.9700178492	 0.5622266447	-3.941018776	-0.163124
C	 1.646917598	 0.176153755	-2.5494815181	 0.376003
O	 2.4247907473	 0.0792509875	-1.6253740876	-0.339461
H	-0.5367214892	 1.3886584512	 1.3151234939	 0.281417
H	 0.8245947806	-0.0944709061	 0.2409049952	 0.127088
H	-0.6085580582	-1.1069560462	 0.031196003	 0.103405
H	-1.6401007496	 0.6114532423	-1.4275850891	 0.104997
H	-0.2416578765	 1.6618340502	-1.2336601483	 0.090427
H	-0.0029529684	-1.1582443928	-2.3825098298	 0.1061
H	-1.0168481039	-0.3847759985	-4.3545362173	 0.120818
H	-1.0219166571	 1.2745270259	-3.7933458896	 0.124258
H	 0.80362452	 0.9557143681	-5.7087868983	 0.117041
H	 2.9841675209	 0.7464649364	-4.2713145384	 0.116522
50.8468	88.3018	118.2001	174.8911	243.3341	285.0814	309.3025	337.3241	430.0165	490.6396	630.8581	680.9969	754.8533	759.3548	792.6551	829.84	922.2985	953.4607	997.389	1008.1909	1034.9446	1067.7887	1070.8649	1108.6072	1116.9908	1144.5723	1178.4761	1190.9443	1266.8642	1278.5708	1315.8134	1332.2863	1348.576	1366.4942	1402.6651	1418.3208	1474.9768	1487.237	1519.0566	1651.609	1799.9557	3007.1562	3017.5878	3024.0358	3033.6234	3054.1159	3059.1919	3085.4036	3186.7683	3228.0457	3822.5184
OCCC1CC=CC1=O	OCC[C@H]1CC=CC1=O	
InChI=1S/C7H10O2/c8-5-4-6-2-1-3-7(6)9/h1,3,6,8H,2,4-5H2	InChI=1S/C7H10O2/c8-5-4-6-2-1-3-7(6)9/h1,3,6,8H,2,4-5H2/t6-/m1/s1
