19
gdb 5269	3.025434	1.2779466	1.0559076	2.3081	75.68	-0.2455	-0.02781	0.21769	1188.0431	0.155409	-422.545755	-422.536982	-422.536037	-422.579454	32.504	
C	 3.7591057934	 0.9765179534	-0.9475226108	-0.383858
C	 2.2762348514	 0.5856968587	-0.9672010436	-0.270753
C	 2.0731079662	-0.8689217103	-1.3123757286	 0.459799
C	 2.3576168893	-1.3759001154	-2.7564109043	-0.403589
C	 1.0227630037	-2.148022478	-2.6985239268	 0.413565
O	 0.4279225708	-2.8320774496	-3.4791655488	-0.297307
C	 0.7086204139	-1.6460948818	-1.2836138509	-0.283105
C	 1.398494908	-2.4929681943	-0.1897395359	-0.092272
O	 2.6407356107	-1.7737256209	-0.3292035192	-0.327697
H	 4.3079202496	 0.3545568414	-0.235058401	 0.14105
H	 4.2185905996	 0.8463938981	-1.9330912694	 0.119122
H	 3.883125718	 2.0231470809	-0.6557927361	 0.115985
H	 1.8283683376	 0.7778641576	 0.0149078375	 0.10524
H	 1.7284252363	 1.1999578684	-1.6930437016	 0.099774
H	 2.330862746	-0.5919036885	-3.5218068918	 0.131781
H	 3.2632686481	-1.9731398733	-2.8843444344	 0.138949
H	-0.2764634896	-1.2283987475	-1.0783966434	 0.100685
H	 0.96413697	-2.352299449	 0.8070840878	 0.114235
H	 1.5039923771	-3.5659207699	-0.3864107187	 0.118397
71.2614	96.4843	160.9589	206.6355	220.8455	340.6058	353.7459	382.6171	444.6658	525.9633	612.855	646.9101	726.2289	783.2449	837.9089	917.7749	928.2787	946.392	975.0598	986.3646	999.0969	1039.7449	1070.2692	1100.7074	1112.2784	1141.5569	1165.4923	1193.2416	1199.9595	1239.1391	1286.8867	1317.5305	1343.6424	1378.8263	1408.1978	1417.9456	1476.1293	1497.5673	1509.2317	1527.053	1891.0401	3021.3944	3026.3457	3040.509	3050.9491	3063.9741	3067.967	3108.4052	3120.0264	3122.5197	3125.0326
CCC12CC(=O)C1CO2	CC[C@]12CC(=O)[C@H]1CO2	
InChI=1S/C7H10O2/c1-2-7-3-6(8)5(7)4-9-7/h5H,2-4H2,1H3	InChI=1S/C7H10O2/c1-2-7-3-6(8)5(7)4-9-7/h5H,2-4H2,1H3/t5-,7+/m1/s1
