19
gdb 5362	3.4495052	1.218844	1.1655959	1.8704	75.73	-0.24395	0.00419	0.24814	1136.985	0.15923	-422.561642	-422.553858	-422.552914	-422.594135	30.212	
O	 1.819672484	 0.8545035841	 0.05598701	-0.413071
C	 0.822589264	 0.1647949353	 0.805766305	-0.189087
C	-0.508347327	 0.8332141116	 0.7263904239	 0.325705
C	-1.7169192065	 0.3395472443	 0.4429840135	-0.217925
C	-2.688017484	 1.4965430589	 0.6399330411	 0.025213
C	-2.821989137	 1.7286625297	 2.1817549314	-0.212013
C	-1.4144588169	 2.3092039219	 2.5054022869	-0.219181
C	-0.7624207055	 2.2995405695	 1.0843444102	-0.030903
O	-1.8865285282	 2.6225346047	 0.2566242753	-0.250059
H	 1.4986238033	 0.9219723906	-0.8496671485	 0.285433
H	 0.7361948864	-0.8873867771	 0.4952311837	 0.096288
H	 1.1949879449	 0.1664250215	 1.8382360232	 0.117446
H	-1.9905946286	-0.6861286426	 0.2305627312	 0.101076
H	-3.6204315006	 1.4760795684	 0.0770366139	 0.079134
H	-3.6090496925	 2.4588236595	 2.383688178	 0.106777
H	-3.0541815928	 0.8109952699	 2.7264301693	 0.0995
H	-1.483042953	 3.3334962424	 2.8781526773	 0.107238
H	-0.852076539	 1.7178853281	 3.2319275067	 0.100364
H	 0.0582116288	 2.9960312193	 0.9234826281	 0.088067
77.985	126.8749	220.3741	240.6979	338.4006	410.9372	437.6766	570.8222	578.9719	657.5895	739.3017	807.9376	831.0264	838.7714	867.4701	894.3708	895.8738	932.0134	954.2297	974.6659	991.0103	1041.7938	1047.8505	1060.7329	1127.94	1176.6177	1194.1936	1207.3594	1230.814	1248.3532	1256.7891	1292.4507	1321.282	1328.1299	1345.341	1373.2482	1416.1965	1483.0514	1494.7166	1502.6434	1692.3729	2990.2223	3043.1136	3064.5802	3074.0817	3107.5752	3124.2657	3129.2278	3144.3774	3214.7552	3808.5252
OCC1=CC2CCC1O2	OCC1=C[C@H]2CC[C@@H]1O2	
InChI=1S/C7H10O2/c8-4-5-3-6-1-2-7(5)9-6/h3,6-8H,1-2,4H2	InChI=1S/C7H10O2/c8-4-5-3-6-1-2-7(5)9-6/h3,6-8H,1-2,4H2/t6-,7+/m1/s1
