19
gdb 3789	4.5110796	0.7124219	0.6504894	3.412	79.68	-0.2439	-0.01455	0.22935	1681.2884	0.154934	-422.534715	-422.525358	-422.524414	-422.56968	33.997	
O	 2.68327769	 0.661591121	-3.9308573465	-0.423208
C	 2.6300831943	 0.5149826106	-2.5426803791	 0.094227
C	 2.4175879129	-0.8508421936	-1.9391097527	-0.333371
C	 1.2903651394	 0.1667827197	-1.9668113232	-0.017854
C	 0.8009864153	 0.8128621479	-0.7126818618	-0.020773
C	-0.3754660357	 1.7282595908	-0.7133188517	-0.306005
C	-0.5190446506	 0.341248475	-0.0969738382	-0.104382
C	-0.5954194675	 0.2289622672	 1.3731917549	 0.164755
O	-1.2078965909	-0.6161067353	 1.9777019981	-0.270176
H	 3.5353476528	 0.3286854234	-4.2324902355	 0.288505
H	 3.2445673571	 1.2193133025	-1.9800016602	 0.085536
H	 2.3423206165	-1.6889054015	-2.6230203496	 0.118632
H	 2.8889194369	-1.0754194629	-0.9876318266	 0.114501
H	 0.525289663	-0.0179212521	-2.7158649146	 0.099238
H	 1.5804277461	 1.0451210831	 0.0102142519	 0.09037
H	-0.3733553969	 2.5781884551	-0.0384569283	 0.123529
H	-0.9010792977	 1.8960175061	-1.6466547197	 0.13153
H	-1.0867654758	-0.4031506181	-0.6443902884	 0.106909
H	-0.0137841992	 1.0166963411	 1.9133715012	 0.058038
46.1213	80.9646	138.9079	169.3569	255.8693	286.2425	317.7203	339.1263	406.1017	436.1732	464.2603	527.3714	783.7933	816.5571	846.7475	864.537	889.9218	922.2296	959.1692	988.5432	1040.5727	1045.6194	1060.581	1075.9828	1086.4458	1101.5797	1124.8993	1180.2675	1182.1794	1217.9362	1223.1317	1225.5449	1277.722	1304.2121	1334.6669	1411.7785	1438.5292	1452.18	1484.8758	1504.8676	1821.0143	2824.9144	3088.7139	3125.8841	3131.2928	3133.4768	3152.3086	3180.7353	3221.6875	3222.6603	3799.9827
OC1CC1C1CC1C=O	O[C@@H]1C[C@H]1[C@H]1C[C@@H]1C=O	
InChI=1S/C7H10O2/c8-3-4-1-5(4)6-2-7(6)9/h3-7,9H,1-2H2	InChI=1S/C7H10O2/c8-3-4-1-5(4)6-2-7(6)9/h3-7,9H,1-2H2/t4-,5+,6+,7-/m1/s1
