19
gdb 575	3.6731242	1.456955	1.24313	1.3396	73.82	-0.22293	0.08105	0.30398	1044.6998	0.159658	-422.547418	-422.540231	-422.539287	-422.578751	28.628	
C	-1.3073971219	 0.7590441403	-1.4372563381	-0.224362
C	-1.4115188736	 0.0892495783	-0.0398383357	-0.226929
C	 0.0171293634	 0.0031978129	 0.4829032411	-0.173567
C	 0.8562083322	 1.2664958449	 0.40400079	 0.018333
O	 2.1287607151	 1.2240021773	 1.0107792253	-0.272075
C	 2.8198603232	 0.1164744011	 0.4519931439	 0.001915
O	 2.2343930932	-0.1818655145	-0.8007181375	-0.305112
C	 0.9178541382	 0.2868089883	-0.7235157971	 0.43622
C	 0.0952293311	 0.3975798307	-1.9770296024	-0.304555
H	-2.107864576	 0.4403143812	-2.1088740972	 0.1037
H	-1.3910896098	 1.8462955623	-1.3384798207	 0.109218
H	-2.0860493288	 0.6396626919	 0.6251986587	 0.101508
H	-1.811387569	-0.9269809575	-0.133677331	 0.106278
H	 0.2587245182	-0.7325686795	 1.2424742307	 0.092567
H	 0.4468665507	 2.2706971131	 0.378836587	 0.104305
H	 3.8731113308	 0.3776384963	 0.3079985352	 0.119946
H	 2.7373256425	-0.7540731591	 1.1232145035	 0.094604
H	 0.4814957823	 1.1409268957	-2.6812321231	 0.107277
H	 0.0880127579	-0.5723659636	-2.4886135025	 0.11073
176.0892	195.8358	229.3138	257.6519	350.235	402.5834	487.6508	613.6212	665.4667	724.9577	757.3936	833.6049	871.5518	887.2744	922.7497	944.3427	959.4833	965.8301	1010.4078	1027.3018	1038.7938	1085.5414	1107.2375	1134.4667	1156.5329	1170.1623	1182.3107	1219.6157	1237.3489	1251.3034	1274.1951	1288.2176	1327.2784	1337.066	1363.5753	1425.2398	1437.5683	1491.7073	1496.0627	1513.4451	1546.9065	2962.4088	3033.5003	3037.3887	3049.8125	3071.2807	3073.1034	3083.6857	3106.031	3166.2966	3168.7582
C1CC2C3OCOC23C1	C1C[C@@H]2[C@H]3OCO[C@@]23C1	
InChI=1S/C7H10O2/c1-2-5-6-7(5,3-1)9-4-8-6/h5-6H,1-4H2	InChI=1S/C7H10O2/c1-2-5-6-7(5,3-1)9-4-8-6/h5-6H,1-4H2/t5-,6-,7+/m1/s1
