19
gdb 5280	2.7980844	1.5448255	1.2945486	2.3213	73.93	-0.2453	0.05587	0.30117	1043.1084	0.157622	-422.496977	-422.489113	-422.488168	-422.529316	30.841	
O	 1.5744829375	 0.6537422673	-0.2553080105	-0.421115
C	 0.5869792715	 0.1163426441	 0.6072403351	-0.155044
C	-0.3376247004	 1.2103935762	 1.0781383797	 0.441406
O	-1.0260715042	 1.8275148782	-0.0575962036	-0.35383
C	-2.3256837765	 1.5657580366	 0.5424838406	-0.113354
C	-1.6695156063	 1.022634684	 1.8268446398	-0.146819
C	-1.1782049015	 2.0275937054	 2.8956681456	-0.069874
C	-0.764853956	 3.3491799467	 2.310403882	-0.297316
C	 0.1686028896	 2.186778191	 2.1629472221	-0.090744
H	 1.0940475494	 1.1350674027	-0.9403024876	 0.296495
H	-0.0003843711	-0.6718204745	 0.1099726442	 0.085801
H	 1.1125920108	-0.3360244209	 1.4549400284	 0.109146
H	-2.9305652529	 2.4751318102	 0.6285032995	 0.106134
H	-2.8807903487	 0.8142882237	-0.0316240054	 0.10428
H	-1.9865308234	 0.0504606004	 2.2023987291	 0.080836
H	-1.3611118473	 1.9137857821	 3.9570246799	 0.090007
H	-1.2492687264	 3.764877639	 1.433953778	 0.129252
H	-0.4590653258	 4.0888634207	 3.0433588668	 0.113096
H	 1.1784929918	 2.194077897	 2.5546796763	 0.091643
80.1603	148.461	210.6813	300.8172	322.5065	366.0034	455.5927	467.712	543.8403	665.16	690.1018	750.8464	792.0101	866.7161	874.6701	919.87	939.2957	958.1487	969.7776	1002.1082	1031.4146	1054.9867	1058.3411	1065.8863	1081.6019	1087.0139	1125.3939	1140.6642	1163.4054	1185.5105	1239.5711	1246.1278	1300.9901	1314.7924	1336.4307	1360.84	1381.6844	1435.0769	1493.9846	1497.2247	1518.8971	2978.6674	3021.5245	3069.5792	3074.0594	3119.9436	3133.801	3180.468	3189.3894	3216.2393	3785.187
OCC12OCC1C1CC21	OC[C@@]12OC[C@@H]1[C@@H]1C[C@H]21	
InChI=1S/C7H10O2/c8-3-7-5-1-4(5)6(7)2-9-7/h4-6,8H,1-3H2	InChI=1S/C7H10O2/c8-3-7-5-1-4(5)6(7)2-9-7/h4-6,8H,1-3H2/t4-,5+,6-,7+/m1/s1
