19
gdb 5625	2.5277906	1.5684471	1.1681998	2.338	75.82	-0.23266	0.00913	0.24179	1088.7177	0.157248	-422.55325	-422.544861	-422.543916	-422.585818	32.941	
O	 1.7260939325	 0.8933920585	-0.0090874513	-0.432295
C	 0.7415531986	 0.1043018231	 0.6346948433	-0.061146
C	-0.3433316437	 0.9793260241	 1.2740084024	-0.119389
C	-1.4249966229	 0.2821989527	 2.0707521322	-0.113959
C	-2.6513113867	 0.6851189534	 1.7211915788	-0.077763
C	-2.6193227119	 1.6414345753	 0.5777733998	-0.171775
C	-2.0425999919	 1.0567574456	-0.7116101548	-0.309102
C	-1.141916725	 1.7790826584	 0.2375953532	 0.385437
O	-0.5513429422	 2.9400182076	-0.2778229007	-0.474516
H	 1.2654798335	 1.569501199	-0.5216754186	 0.290549
H	 0.2759516335	-0.6111384286	-0.0621019442	 0.087159
H	 1.2635343421	-0.479504782	 1.4012032384	 0.099891
H	 0.1909509675	 1.6919017331	 1.925988068	 0.077602
H	-1.1979615555	-0.4392117048	 2.8474181448	 0.098529
H	-3.5745225488	 0.3472867838	 2.1787622301	 0.10039
H	-3.3184272604	 2.4665272268	 0.5035319586	 0.093661
H	-1.9903435234	-0.0222609397	-0.8094352284	 0.118204
H	-2.2614616585	 1.6002750323	-1.6245679832	 0.123496
H	-0.3595725669	 3.5318126812	 0.4594695916	 0.285026
103.3044	141.0049	216.0257	302.4308	316.2077	336.4891	377.2729	429.3676	467.5004	482.5884	554.9824	619.2771	703.7861	739.304	785.8848	854.0909	899.7475	922.1428	957.339	972.9748	1015.5958	1025.9406	1040.973	1061.9696	1071.4814	1076.5999	1102.8975	1150.4365	1204.3928	1224.7689	1234.7968	1265.0992	1303.0659	1344.6841	1375.2717	1381.6986	1415.8316	1447.7001	1477.165	1512.7259	1657.8382	2954.4907	2978.2963	3059.8758	3129.319	3176.383	3185.6096	3208.2374	3223.9809	3773.8901	3783.9655
OCC1C=CC2CC12O	OC[C@@H]1C=C[C@@H]2C[C@]12O	
InChI=1S/C7H10O2/c8-4-6-2-1-5-3-7(5,6)9/h1-2,5-6,8-9H,3-4H2	InChI=1S/C7H10O2/c8-4-6-2-1-5-3-7(5,6)9/h1-2,5-6,8-9H,3-4H2/t5-,6+,7-/m1/s1
