19
gdb 1124	2.6803066	1.3487454	1.112334	2.0156	75.22	-0.23668	-0.0141	0.22258	1164.0327	0.15472	-422.547004	-422.537719	-422.536775	-422.581628	34.101	
C	-1.0176269949	-2.3476969754	-2.6176014272	-0.477925
C	-1.1606598124	-1.3586726861	-1.4755226165	 0.364355
O	-2.2293006455	-1.1354441179	-0.9486519611	-0.307066
C	 0.0948382681	-0.6321331814	-1.0286071107	-0.176201
C	 1.3691715946	-1.4146124241	-0.5289353823	-0.260497
C	 1.3192622612	-0.6048465	 0.7732295921	-0.110069
C	-0.001007996	-0.8616572646	 1.464289973	-0.33522
C	 0.0502075034	 0.1007503009	 0.3125706125	 0.417009
O	-0.2787460962	 1.4350563269	 0.4407716909	-0.46627
H	-0.3687705375	-3.178911674	-2.3191142302	 0.143036
H	-1.9971222332	-2.7341990221	-2.9020758841	 0.141658
H	-0.5395912949	-1.87017878	-3.48039741	 0.136435
H	 0.3900145318	 0.0544872572	-1.8311111855	 0.105498
H	 1.2527529532	-2.4967651442	-0.4076776301	 0.099899
H	 2.2487722796	-1.2223671741	-1.1457058313	 0.110975
H	 2.1774708268	-0.2060116363	 1.2984690468	 0.097112
H	-0.4978775681	-1.8260402854	 1.3890656684	 0.108376
H	-0.1069773923	-0.3703794992	 2.4260911524	 0.115718
H	-1.2367520577	 1.4855226598	 0.5411259131	 0.293178
38.3128	110.3665	124.511	144.5082	267.0327	294.6282	329.67	389.2956	438.7952	457.9413	510.7715	608.0831	641.1227	720.2331	767.099	850.1537	885.4728	905.6121	944.4457	985.0561	1003.2332	1013.7994	1022.3906	1037.3169	1075.362	1095.0109	1151.5367	1178.963	1206.9977	1228.1675	1238.6033	1296.0043	1313.8799	1340.8083	1381.8065	1414.8747	1462.3586	1474.9052	1482.9385	1509.0912	1795.7606	3035.1575	3043.2787	3046.5585	3095.7953	3109.1907	3113.486	3150.2306	3196.2673	3207.0451	3786.5375
CC(=O)C1CC2CC12O	CC(=O)[C@@H]1C[C@@H]2C[C@]12O	
InChI=1S/C7H10O2/c1-4(8)6-2-5-3-7(5,6)9/h5-6,9H,2-3H2,1H3	InChI=1S/C7H10O2/c1-4(8)6-2-5-3-7(5,6)9/h5-6,9H,2-3H2,1H3/t5-,6+,7-/m1/s1
