19
gdb 3128	2.6782934	1.4002091	1.1514736	3.0314	74.93	-0.24363	-0.01955	0.22408	1143.4851	0.155312	-422.584304	-422.575403	-422.574459	-422.617914	33.234	
C	-0.4527764406	 2.0018226896	-1.3540948455	-0.410527
C	-0.7843067056	 1.3035007985	-0.0263488495	-0.126745
C	-2.1940815493	 0.7616313843	 0.0506897262	-0.022144
O	-2.4629647543	 0.0783225955	 1.2826731914	-0.303802
C	-2.203439973	-0.7155728786	 0.1099921647	 0.403055
C	-3.3335663574	-1.5804927465	-0.3745650521	-0.483781
C	-0.7739303475	-1.2186230365	 0.1000793638	-0.393278
C	 0.0954406728	 0.0483906319	 0.1656211014	 0.394423
O	 1.2897721452	 0.0647317811	 0.3017948577	-0.311449
H	-0.6625120214	 1.3525987887	-2.2112124045	 0.118372
H	-1.0432100408	 2.9154334677	-1.4717740617	 0.122884
H	 0.6068160537	 2.266923169	-1.3807024119	 0.145328
H	-0.584669139	 1.9887759467	 0.8050650658	 0.116273
H	-3.0272810619	 1.3272603721	-0.3622415521	 0.09333
H	-3.422290622	-2.4830310444	 0.2398386372	 0.132076
H	-4.2808809943	-1.0380233931	-0.3205861451	 0.132302
H	-3.1672950898	-1.8953588074	-1.4102203897	 0.123265
H	-0.5471021653	-1.8786470852	 0.9426850475	 0.141194
H	-0.5357224597	-1.7682778636	-0.8192113435	 0.129224
56.5593	135.7696	196.0821	223.8043	238.0523	275.9173	336.192	374.5118	458.8261	476.1084	545.1968	606.1563	646.6814	738.395	748.8472	839.2969	893.6321	923.9775	938.0968	998.4593	1021.9718	1035.0293	1058.8291	1114.1879	1144.3737	1159.6206	1198.1947	1213.4338	1272.4471	1289.3684	1317.6549	1330.2623	1401.7733	1411.8205	1432.8016	1456.2146	1485.463	1495.7526	1498.9176	1500.6343	1848.6939	3034.9349	3036.9013	3042.2794	3052.8224	3094.4267	3098.9141	3104.3101	3121.8595	3127.9268	3131.6822
CC1C2OC2(C)CC1=O	C[C@H]1[C@@H]2O[C@]2(C)CC1=O	
InChI=1S/C7H10O2/c1-4-5(8)3-7(2)6(4)9-7/h4,6H,3H2,1-2H3	InChI=1S/C7H10O2/c1-4-5(8)3-7(2)6(4)9-7/h4,6H,3H2,1-2H3/t4-,6+,7-/m1/s1
