19
gdb 1332	2.6658153	1.236389	1.1032175	2.4057	76.09	-0.23199	-0.02104	0.21095	1193.3009	0.154849	-422.523047	-422.513907	-422.512962	-422.557636	32.996	
C	 1.3794632917	-0.5642845653	 5.1308056699	-0.410307
C	 2.176148033	 0.0856406618	 3.9795616091	-0.180025
C	 2.9755067406	 1.2631233563	 4.5166590667	 0.157754
O	 4.1680269616	 1.2563753586	 4.683369031	-0.255576
C	 1.2484825673	 0.5396630684	 2.8869607718	 0.483153
C	 0.8216970938	-0.2356032654	 1.6784967722	-0.343648
C	 1.4220371404	 1.1487031501	 1.5089677621	-0.199911
C	 0.4081231935	 2.1818041556	 1.9793346926	-0.089278
O	 0.2271985602	 1.4866843006	 3.2467867619	-0.328851
H	 0.8145536366	-1.4238364576	 4.7590560139	 0.129829
H	 2.0525358057	-0.9050297856	 5.9220277305	 0.129717
H	 0.6677777209	 0.1481291679	 5.5575928731	 0.144679
H	 2.8927289639	-0.6326801218	 3.568702515	 0.099342
H	 2.3583570963	 2.1546476855	 4.7661822325	 0.090947
H	 1.4776820262	-1.0490424207	 1.3842949549	 0.119922
H	-0.2368318926	-0.4038448915	 1.4971731461	 0.117996
H	 2.3126333272	 1.3418879842	 0.9267482277	 0.110752
H	 0.8339593529	 3.1770914936	 2.1470928007	 0.114131
H	-0.5302548793	 2.2680512953	 1.4194880282	 0.109376
56.3741	64.0941	146.321	183.1839	216.8264	284.657	305.4622	397.7296	420.948	447.6175	506.3092	711.0021	763.9369	850.6508	864.3752	902.7549	942.9221	955.8111	973.176	979.6875	996.3711	1016.0929	1040.6869	1073.5722	1103.0249	1127.2827	1156.0104	1165.1123	1191.6898	1267.3168	1279.9121	1305.8211	1341.2585	1392.8535	1410.2077	1423.4663	1481.8153	1494.9082	1502.368	1519.9834	1832.9657	2892.1856	3028.0171	3044.414	3068.2242	3078.3153	3112.0779	3119.7329	3125.328	3202.7821	3210.4706
CC(C=O)C12CC1CO2	C[C@H](C=O)[C@]12C[C@H]1CO2	
InChI=1S/C7H10O2/c1-5(3-8)7-2-6(7)4-9-7/h3,5-6H,2,4H2,1H3	InChI=1S/C7H10O2/c1-5(3-8)7-2-6(7)4-9-7/h3,5-6H,2,4H2,1H3/t5-,6+,7-/m1/s1
