19
gdb 5439	2.0570867	1.4784787	0.9634825	4.1576	77.83	-0.23756	-0.01326	0.2243	1270.414	0.155136	-422.531871	-422.522628	-422.521684	-422.566168	33.313	
C	 1.5056060101	-0.0355492558	-0.1626725493	-0.238445
O	 0.1113308886	-0.1727839135	 0.0237248788	-0.235755
C	-0.3719840661	 0.5154785939	 1.1382994893	-0.016682
C	-0.1717918787	-0.0884747717	 2.5431866517	-0.096725
C	-0.8134572557	-1.4282120731	 2.6068398202	-0.004707
C	-0.6410142973	-2.2768470558	 3.8481811521	-0.427897
C	-1.7133952671	-0.1954813077	 2.7339136966	-0.195713
C	-1.9117049701	 0.4101742817	 1.3831865267	 0.387722
O	-2.8575738478	 0.8233022866	 0.7762472034	-0.315329
H	 2.0757247909	-0.4528765144	 0.6802898871	 0.110019
H	 1.7652809083	-0.5838321146	-1.0708907659	 0.133692
H	 1.7914379469	 1.0200942322	-0.2872954657	 0.109648
H	-0.0851391469	 1.579832992	 1.1088339136	 0.090715
H	 0.5334875251	 0.2623932143	 3.2859251621	 0.099217
H	-0.8694752439	-1.9914274274	 1.6790211561	 0.113558
H	-1.4778061059	-2.9719005977	 3.9691212663	 0.130563
H	 0.2790813714	-2.8673479852	 3.7856704699	 0.126881
H	-0.583361857	-1.6598772652	 4.7507785024	 0.119749
H	-2.3184784747	-0.0389765685	 3.6183209445	 0.109487
68.8136	120.4182	159.7461	176.5934	223.9011	226.1642	248.4485	322.9597	361.337	527.8474	555.5811	642.0038	700.7593	762.5251	847.083	866.2261	908.692	958.5189	982.698	1003.6933	1036.6094	1064.3189	1085.4519	1118.1385	1148.6478	1155.2336	1179.4602	1194.8666	1207.9746	1237.6244	1266.7779	1302.9285	1363.9383	1416.6333	1421.614	1480.3616	1488.1145	1493.3968	1501.8054	1506.3625	1887.3371	2973.792	2982.3319	3031.4932	3033.6865	3100.0945	3103.6899	3121.3895	3144.0885	3192.3173	3201.2378
COC1C2C(C)C2C1=O	CO[C@@H]1[C@@H]2[C@@H](C)[C@@H]2C1=O	
InChI=1S/C7H10O2/c1-3-4-5(3)7(9-2)6(4)8/h3-5,7H,1-2H3	InChI=1S/C7H10O2/c1-3-4-5(3)7(9-2)6(4)8/h3-5,7H,1-2H3/t3-,4-,5+,7+/m0/s1
