19
gdb 784	2.3254034	0.9787543	0.7593026	2.1718	77.38	-0.25736	-0.05371	0.20364999999999997	1509.8326	0.153896	-422.556636	-422.54683	-422.545885	-422.592928	33.884	
O	 1.3296262631	-0.2264259372	 0.5510975607	-0.246717
C	 0.1627405772	-0.0327458052	 0.3299107812	 0.139495
C	-0.3862164479	 1.2761249825	-0.2299149621	-0.161623
C	-1.8454332499	 1.1971464808	-0.6833689327	-0.243214
C	-2.0245250277	 0.412763927	-1.9661935822	 0.017314
C	-3.2134578587	 0.6698890461	-2.8536432954	-0.275489
C	-1.8348156523	 1.0926076829	-3.301195148	-0.257024
C	-0.1306306388	 2.3657594764	 0.8174175502	 0.135443
O	-0.9605219471	 3.1511397971	 1.1882170462	-0.229883
H	-0.6092053804	-0.7997695801	 0.5652958265	 0.093596
H	 0.2772726155	 1.5374147297	-1.0684101686	 0.136488
H	-2.4461800935	 0.7531894546	 0.121858061	 0.109342
H	-2.2271529068	 2.2151522325	-0.807605789	 0.121564
H	-1.6916000838	-0.6220169782	-1.9182917249	 0.084986
H	-3.6802293748	-0.1735930281	-3.3497722136	 0.115709
H	-3.9077204263	 1.4479995065	-2.5537003087	 0.116748
H	-1.3604696613	 0.5392864406	-4.1038868662	 0.115865
H	-1.6101190542	 2.1546512061	-3.3016249836	 0.113897
H	 0.9083902578	 2.3726027961	 1.2076009591	 0.113504
43.8148	77.9568	83.1453	111.0392	142.2252	211.1756	285.0867	328.8414	378.7976	403.9372	570.2966	657.8911	777.4604	806.8819	817.5199	840.6547	867.6759	895.2708	938.7859	981.5265	1031.213	1058.9808	1079.6285	1085.141	1127.7855	1138.6099	1170.9236	1198.5307	1220.1298	1229.6834	1244.263	1299.0889	1355.0987	1405.4455	1412.5951	1420.7118	1469.4933	1483.9652	1509.2444	1805.3863	1843.1037	2876.8386	2922.9112	3009.7439	3026.5547	3083.1392	3125.7736	3130.2764	3135.7996	3209.1531	3224.099
O=CC(CC1CC1)C=O	O=CC(CC1CC1)C=O	
InChI=1S/C7H10O2/c8-4-7(5-9)3-6-1-2-6/h4-7H,1-3H2	InChI=1S/C7H10O2/c8-4-7(5-9)3-6-1-2-6/h4-7H,1-3H2
