19
gdb 3979	2.9071977	1.345792	1.1483456	0.8809	77.68	-0.23929	0.00562	0.24491000000000002	1122.1167	0.157579	-422.542072	-422.533843	-422.532899	-422.574671	32.217	
O	-0.0545803049	 1.4118670164	 0.1353910437	-0.421296
C	 0.0188100917	 0.0162349276	 0.0502257759	 0.064436
C	 0.3508817051	-0.7013041697	-1.3214527594	-0.299345
C	-0.6928929485	-1.8042859335	-0.9520635951	-0.060847
C	-1.9451185974	-2.1735272885	-1.8002340449	 0.094136
O	-2.0874495931	-1.3893729828	-2.9724039613	-0.423242
C	-3.1150277326	-1.905623334	-0.7947390912	-0.270458
C	-2.5703222533	-0.7778449373	 0.0807705753	-0.27918
C	-1.2394434202	-0.8229229967	 0.0516794671	 0.250551
H	-0.7574997204	 1.7029983872	-0.4560153667	 0.274706
H	 0.7349648503	-0.2949315044	 0.8180300432	 0.106089
H	 0.0147063091	-0.1014098634	-2.1716395022	 0.102107
H	 1.386971308	-1.0072703529	-1.4797260313	 0.106576
H	-0.2204755217	-2.6944241454	-0.5237151253	 0.078398
H	-1.9252432747	-3.2082684318	-2.1524439599	 0.084453
H	-2.2719873047	-0.4848885042	-2.694319008	 0.274849
H	-4.0286566313	-1.6370008545	-1.3363471911	 0.1072
H	-3.3473227598	-2.8054417363	-0.2088546602	 0.111788
H	-3.1954133418	-0.0435400658	 0.5754110614	 0.099079
87.9627	138.2011	246.2357	252.9024	332.3402	366.8083	389.1204	400.8507	487.7612	544.9084	649.9137	660.6001	738.562	807.9861	817.0407	848.9494	870.6614	925.3961	942.3127	968.0546	982.2998	1037.2012	1039.7233	1090.2899	1101.6136	1145.4534	1153.0806	1172.9862	1213.6712	1224.6541	1248.6196	1274.2918	1285.4444	1299.0598	1321.1146	1341.9266	1428.1697	1431.5565	1477.3452	1479.3803	1715.6255	3015.6773	3048.3	3058.7888	3063.1894	3069.719	3083.0676	3126.3072	3198.2034	3790.6709	3799.9322
OC1CC2C(O)CC=C12	O[C@@H]1C[C@@H]2[C@H](O)C[CH][C]12	
InChI=1S/C7H10O2/c8-6-2-1-4-5(6)3-7(4)9/h1,5-9H,2-3H2	InChI=1S/C7H10O2/c8-6-2-1-4-5(6)3-7(4)9/h1,5-9H,2-3H2/t5-,6+,7+/m0/s1
