19
gdb 4800	1.8926068	1.3422273	0.9340668	3.8172	78.82	-0.26149	-0.07384	0.18764999999999998	1318.3077	0.153729	-422.534767	-422.524347	-422.523403	-422.570631	36.957	
C	 3.317337031	 2.8059009981	 0.593019232	-0.391425
C	 2.2047166452	 1.7524105435	 0.5441698306	-0.209822
C	 2.721231886	 0.3150602855	 0.4033274545	-0.108761
C	 1.6169130938	-0.7445829039	 0.6886564619	-0.057221
O	 2.1317298808	-2.0376546069	 0.8790445543	-0.426892
C	 3.3178923572	-0.0504703783	-0.9498173956	 0.23273
O	 3.939871041	-1.0891233853	-1.1019085801	-0.315013
C	 3.0553334629	 0.805345754	-2.0927921002	 0.29854
C	 2.8472513249	 1.4923168655	-3.0597657828	-0.436624
H	 2.898615483	 3.8091133565	 0.7167605154	 0.118226
H	 3.9955771955	 2.6212618559	 1.4330879196	 0.120195
H	 3.9131476565	 2.8073590668	-0.3245608843	 0.125095
H	 1.6173480646	 1.8093244906	 1.468207179	 0.102084
H	 1.5113029448	 1.9793534363	-0.2737306703	 0.111091
H	 3.5115164059	 0.1263495514	 1.1407083859	 0.115663
H	 1.1055124633	-0.462505181	 1.6153586665	 0.11085
H	 0.8657233717	-0.7135463265	-0.1198806697	 0.090795
H	 2.8015992216	-2.1871943803	 0.1966869061	 0.29773
H	 2.6681154503	 2.0918618382	-3.9195529327	 0.22276
37.2906	109.0431	132.9849	157.5992	184.5292	215.0238	228.9743	263.7447	327.2813	391.7236	419.3166	459.9819	525.65	608.7117	648.173	692.0694	715.5323	750.0826	796.5358	929.8598	949.5489	1006.591	1048.2572	1091.5702	1104.1489	1145.6749	1192.419	1228.5765	1269.0482	1285.6202	1357.5629	1375.5183	1384.4374	1415.7881	1456.1919	1485.3412	1500.8289	1507.0552	1516.7115	1721.6155	2207.0544	2952.0396	3033.1614	3037.221	3040.6883	3061.2696	3071.4636	3105.994	3113.3685	3491.5913	3728.7446
CCC(CO)C(=O)C#C	CC[C@@H](CO)C(=O)C#C	
InChI=1S/C7H10O2/c1-3-6(5-8)7(9)4-2/h2,6,8H,3,5H2,1H3	InChI=1S/C7H10O2/c1-3-6(5-8)7(9)4-2/h2,6,8H,3,5H2,1H3/t6-/m0/s1
