19
gdb 1757	2.2070191	1.9566974	1.6922753	2.307	73.1	-0.23019	0.07408	0.30427	934.4466	0.159394	-422.55693	-422.549635	-422.548691	-422.588193	29.63	
O	 0.6099909541	 0.039976324	 0.4114210532	-0.47327
C	-0.7176249987	 0.3500706108	 0.6700941028	 0.338821
C	-1.438620583	 0.1701243908	 1.9952029105	-0.164079
C	-2.3516286623	 1.3635082622	 2.2596164276	-0.228725
C	-2.0173701487	 2.3723621845	 1.129534844	-0.208805
C	-1.4595154896	 1.5205297516	-0.0313091487	-0.120732
C	-2.5565996103	 0.7635759053	-0.8005367433	-0.080392
O	-2.9072254597	-0.3591813038	 0.0232867864	-0.260868
C	-1.7675799935	-0.6943392387	 0.7720526563	 0.0492
H	 1.1646181979	 0.6520222533	 0.907911655	 0.281806
H	-0.9475577553	-0.3425301751	 2.8159655329	 0.085444
H	-3.4025200741	 1.060351831	 2.2152400676	 0.116839
H	-2.1747826107	 1.7909488299	 3.2502599319	 0.095855
H	-2.8770300169	 2.9816521623	 0.8331048168	 0.09548
H	-1.23583227	 3.0601618217	 1.4726016742	 0.092186
H	-0.8041872368	 2.0792062858	-0.7026815909	 0.076333
H	-3.4657435103	 1.3476091602	-0.9722154373	 0.104435
H	-2.174425766	 0.4099662433	-1.7696501306	 0.097588
H	-1.5333219962	-1.7530306591	 0.7993489318	 0.102885
149.7117	228.7738	254.5983	304.4979	336.5851	398.2939	519.9648	555.2239	571.2936	683.6495	736.0537	752.7498	805.7634	849.7547	882.1074	921.4086	932.4005	964.7262	972.3572	996.3163	1011.8304	1065.4349	1073.0935	1084.1704	1129.6217	1156.9521	1187.5424	1202.15	1233.1573	1247.506	1272.8236	1298.037	1301.8387	1310.9971	1342.6439	1352.0148	1383.3933	1468.8081	1483.8335	1499.362	1515.8067	2993.9615	3033.9833	3051.9259	3077.6749	3084.5469	3094.5626	3098.8707	3164.1293	3175.574	3789.8368
OC12C3CCC1COC23	O[C@@]12[C@H]3CC[C@@H]1CO[C@@H]23	
InChI=1S/C7H10O2/c8-7-4-1-2-5(7)6(7)9-3-4/h4-6,8H,1-3H2	InChI=1S/C7H10O2/c8-7-4-1-2-5(7)6(7)9-3-4/h4-6,8H,1-3H2/t4-,5+,6-,7-/m1/s1
