19
gdb 5948	3.9755802	0.9584045	0.9139554	0.8862	74.87	-0.22776	0.0753	0.30306	1332.661	0.156776	-422.486163	-422.477759	-422.476815	-422.519836	31.309	
O	 1.5316973659	 0.8910422702	-0.1886246151	-0.418841
C	 0.2277362863	 0.4553728433	 0.1627372958	-0.066324
C	-0.7622066618	 1.2002810558	-0.7301343702	-0.352715
C	-2.1862107732	 0.8478742725	-0.4492910451	 0.315525
C	-3.486871127	 1.0180510554	-1.2377202896	-0.183945
C	-4.1750946658	 1.7089253692	-0.062040464	-0.231421
C	-3.1458780962	 0.9509073326	 0.8130455405	 0.018051
O	-3.5257370329	-0.4459935818	 0.6664280502	-0.294471
C	-3.0501364237	-0.3485602436	-0.6749321698	 0.038059
H	 2.164376987	 0.4280801577	 0.3679680306	 0.286713
H	 0.1106619496	-0.629723358	 0.0171586644	 0.093574
H	 0.005632317	 0.6682371334	 1.220772656	 0.089006
H	-0.5993481459	 2.2787454	-0.6074870064	 0.111353
H	-0.5303205125	 0.9719866857	-1.7777540934	 0.113036
H	-3.6001149112	 1.2004467198	-2.2992494916	 0.090015
H	-3.9874417634	 2.7857917922	-0.066556824	 0.103063
H	-5.230396196	 1.5012569556	 0.1413897142	 0.100026
H	-2.9070402563	 1.2302818253	 1.8375574164	 0.084388
H	-2.9214754098	-1.2513585253	-1.2579769588	 0.104908
78.5374	87.2836	106.5159	257.8978	260.9066	328.4462	340.42	476.0141	549.4555	668.2848	746.1292	774.6735	796.2058	828.0222	880.5409	913.7714	929.8903	946.2977	972.907	1007.2108	1022.3397	1026.3007	1040.297	1080.9485	1094.0419	1130.3617	1151.7246	1167.635	1218.7947	1225.9661	1237.4796	1245.4389	1272.6198	1311.3458	1317.9208	1338.2196	1457.2676	1464.9385	1480.1713	1490.2241	1526.4808	2970.0383	2998.5143	3024.1707	3048.0663	3064.5281	3110.8551	3138.83	3192.9269	3206.3904	3831.932
OCCC12C3CC1OC23	OCC[C@]12[C@@H]3C[C@H]1O[C@H]23	
InChI=1S/C7H10O2/c8-2-1-7-4-3-5(7)9-6(4)7/h4-6,8H,1-3H2	InChI=1S/C7H10O2/c8-2-1-7-4-3-5(7)9-6(4)7/h4-6,8H,1-3H2/t4-,5-,6+,7+/m1/s1
