19
gdb 1865	2.7917296	1.220604	1.0766234	3.1871	77.1	-0.24153	-0.01774	0.22379	1199.2832	0.154637	-422.541845	-422.532556	-422.531611	-422.575886	34.316	
C	 3.9835549294	 1.659848062	-3.1347065777	-0.498665
C	 2.6200059386	 1.5103911185	-2.5267842306	 0.30759
C	 1.4211612083	 0.9895805379	-3.2951952545	-0.399039
C	 1.8659925995	 0.2742761715	-2.0494233634	 0.348142
O	 2.3083693519	-1.0360661045	-2.0502804735	-0.4581
C	 1.3494362787	 1.0031612118	-0.7928897775	-0.16007
C	 2.1030763766	 2.2873858561	-1.3088354343	-0.308854
C	 1.9583303916	 0.4686474045	 0.4764732037	 0.172378
O	 1.3330213436	 0.1200166282	 1.4445041716	-0.263273
H	 4.7617096401	 1.6767992557	-2.3633658468	 0.12057
H	 4.2029784929	 0.8283983064	-3.8114462743	 0.129302
H	 4.0635277964	 2.5897951061	-3.7098315298	 0.122432
H	 0.4854759148	 1.5442945611	-3.333120859	 0.105519
H	 1.6760358667	 0.4631908281	-4.2103684344	 0.115849
H	 1.5687273791	-1.6131610827	-2.2723305805	 0.291627
H	 0.2644197465	 1.0691432144	-0.6717495635	 0.081897
H	 1.4635296265	 3.1510372639	-1.5133924162	 0.107055
H	 2.9034390038	 2.5951941573	-0.6286315779	 0.110158
H	 3.0720879351	 0.4208941937	 0.4623908084	 0.075482
74.6626	92.0776	175.0826	191.6631	233.406	290.3428	331.9397	362.918	396.1362	447.9648	464.184	521.0304	598.4913	717.6099	757.3313	842.4269	861.1557	908.2979	949.6934	979.1562	998.8846	1045.4475	1049.7928	1055.4237	1118.6533	1171.0735	1177.505	1223.6679	1236.5718	1249.788	1276.6176	1306.3316	1332.615	1407.4053	1425.4548	1432.43	1478.4782	1487.3941	1496.2011	1515.6668	1831.6572	2861.9536	3025.0942	3045.9027	3071.175	3083.504	3097.2198	3098.373	3105.227	3194.8832	3787.692
CC12CC1(O)C(C2)C=O	C[C@@]12C[C@]1(O)[C@H](C2)C=O	
InChI=1S/C7H10O2/c1-6-2-5(3-8)7(6,9)4-6/h3,5,9H,2,4H2,1H3	InChI=1S/C7H10O2/c1-6-2-5(3-8)7(6,9)4-6/h3,5,9H,2,4H2,1H3/t5-,6-,7+/m1/s1
