19
gdb 5619	3.4170734	1.144896	0.9716491	2.5563	76.44	-0.22931	0.00801	0.23732	1232.6818	0.156828	-422.550442	-422.54181	-422.540865	-422.583455	33.345	
O	 1.6410194598	 0.6953129086	-0.2786581736	-0.415341
C	 0.6784970061	 0.0613282585	 0.5471601692	-0.057999
C	-0.3485083634	 1.0460372841	 1.1262350557	-0.085229
C	-1.3828169016	 0.3843001381	 2.0232709659	-0.089985
C	-2.6324367589	 0.6928948627	 1.6712181617	-0.185142
C	-2.6654278234	 1.5791275539	 0.466294309	 0.386881
O	-3.6521395113	 2.5547064321	 0.344076834	-0.468761
C	-2.142656767	 0.9612924682	-0.7962297431	-0.307728
C	-1.2015849143	 1.7680416678	 0.0824464132	-0.119809
H	 2.139462952	 1.3108281307	 0.2685405185	 0.27954
H	 0.1763613248	-0.672254209	-0.0913151961	 0.114498
H	 1.1593453961	-0.4950143907	 1.3682582743	 0.082654
H	 0.2226874173	 1.7856550899	 1.7126426813	 0.067487
H	-1.1046922142	-0.292996408	 2.823770183	 0.095872
H	-3.5396045385	 0.3439034004	 2.1521716669	 0.10132
H	-3.5537354249	 3.1679678291	 1.0812677123	 0.27919
H	-2.0565343526	-0.1186001779	-0.8538373465	 0.112162
H	-2.4371678299	 1.4491199144	-1.7194078391	 0.120825
H	-0.8610051761	 2.7136510873	-0.3198792568	 0.089565
94.22	131.9852	184.0055	276.2974	291.7362	324.3894	364.6107	392.8401	424.4509	491.2462	552.3064	624.6529	721.3144	745.9693	783.6182	822.2583	909.6908	930.2655	957.0472	959.6739	991.0904	999.1492	1035.2469	1063.6069	1075.2289	1085.4513	1100.396	1137.8225	1191.1478	1230.8465	1255.3031	1286.6523	1308.8483	1350.155	1379.4094	1386.4403	1406.5433	1415.9482	1475.9457	1502.1051	1666.0512	2954.5775	2972.2013	3081.8947	3128.3454	3180.0507	3191.4342	3205.5514	3219.8912	3788.0988	3811.6916
OCC1C=CC2(O)CC12	OC[C@@H]1C=C[C@]2(O)C[C@H]12	
InChI=1S/C7H10O2/c8-4-5-1-2-7(9)3-6(5)7/h1-2,5-6,8-9H,3-4H2	InChI=1S/C7H10O2/c8-4-5-1-2-7(9)3-6(5)7/h1-2,5-6,8-9H,3-4H2/t5-,6+,7-/m0/s1
