19
gdb 4659	2.2133278	0.9784525	0.7585895	1.7394	81.36	-0.24468	0.01016	0.25484	1588.741	0.153303	-422.563497	-422.552133	-422.551189	-422.603422	37.133	
C	-3.5023944036	 0.4394401554	-3.5283470607	-0.240464
O	-3.1144104018	-0.10837291	-2.2617464508	-0.23015
C	-3.1261313987	 0.7576760068	-1.2329584444	 0.451666
O	-3.4696206721	 1.9075013622	-1.3223377291	-0.355396
C	-2.6415537866	 0.0741988917	 0.0535325055	-0.250732
C	-3.1259610362	 0.8465115679	 1.2917670429	-0.383459
C	-1.183726172	-0.0458448655	 0.0090235734	 0.108893
C	 0.0177172973	-0.1178938883	-0.01586641	 0.02169
C	 1.4699968829	-0.2144476553	-0.0475071795	-0.496455
H	-3.4414684422	-0.3847425371	-4.2389430302	 0.133939
H	-4.5212405621	 0.8322708827	-3.4826866711	 0.140861
H	-2.8272844146	 1.2477333084	-3.820592521	 0.142277
H	-3.0727558065	-0.9347903561	 0.053068107	 0.12329
H	-2.7604135727	 0.3621828302	 2.1999616945	 0.121235
H	-2.7579948488	 1.8734253527	 1.2631630502	 0.144942
H	-4.218582297	 0.8758411163	 1.3201702034	 0.120339
H	 1.9105886118	 0.1089614098	 0.9019911082	 0.149242
H	 1.7972534708	-1.2435821945	-0.2319874036	 0.14846
H	 1.8920740921	 0.4147478129	-0.8388740347	 0.149824
9.3564	28.1964	69.7413	116.446	130.5591	162.2649	206.0926	222.8821	275.2487	289.7112	332.0186	414.1963	429.0037	534.0429	623.4777	726.1811	812.3059	862.603	979.1076	1025.3687	1052.243	1053.0896	1072.276	1112.754	1178.5713	1182.1635	1201.3281	1224.9931	1318.895	1334.1345	1407.4829	1414.9721	1472.3084	1478.1135	1478.3587	1481.8939	1489.3063	1492.9776	1497.0786	1825.8896	2371.46	3027.0561	3029.7472	3051.5933	3054.4686	3088.1586	3088.2427	3126.2958	3128.3264	3146.849	3159.423	9.2689	28.1984	69.7414	116.4478	130.5587	162.2655	206.0927	222.8821	275.2501	289.7132	332.02	414.1994	429.0076	534.0443	623.4782	726.1812	812.3067	862.6031	979.1082	1025.3695	1052.2442	1053.0908	1072.2764	1112.7543	1178.5709	1182.164	1201.328	1224.9935	1318.8949	1334.1351	1407.4831	1414.9729	1472.3081	1478.1151	1478.3603	1481.8933	1489.3065	1492.9778	1497.0783	1825.8905	2371.4611	3027.056	3029.7471	3051.5935	3054.4686	3088.1585	3088.2426	3126.296	3128.3264	3146.849	3159.4232
COC(=O)C(C)C#CC	COC(=O)[C@H](C)C#CC	
InChI=1S/C7H10O2/c1-4-5-6(2)7(8)9-3/h6H,1-3H3	InChI=1S/C7H10O2/c1-4-5-6(2)7(8)9-3/h6H,1-3H3/t6-/m1/s1
