19
gdb 4250	2.8256461	1.7334567	1.241582	1.0762	74.66	-0.23124	0.0501	0.28134	1037.1382	0.157071	-422.496634	-422.48885	-422.487906	-422.528698	30.274	
C	 2.6814964164	-0.5043743533	-1.5145336495	-0.39368
C	 1.8593811909	-0.0150597619	-0.3229489861	-0.115115
C	 2.3525877135	-0.5794977078	 1.0629477294	-0.26365
C	 3.0599664346	 0.7750286347	 1.3832072613	 0.034846
O	 2.3744470853	 1.6291083702	 2.3334423879	-0.30593
C	 1.5617735229	 2.174855401	 1.277897785	-0.017966
C	 2.1527189973	 3.3796131587	 0.5055199226	-0.115449
O	 2.6436101335	 2.5080658555	-0.558766405	-0.339583
C	 2.2700468829	 1.3612467822	 0.1832913374	 0.450862
H	 2.4825281968	-1.5630858309	-1.7104020539	 0.115082
H	 2.4389536802	 0.0637648906	-2.4175825169	 0.129879
H	 3.7558584558	-0.3925364028	-1.3314597562	 0.119543
H	 0.7910500927	-0.1340472304	-0.5313139518	 0.072713
H	 1.5558336946	-0.8075474879	 1.773048721	 0.115334
H	 3.0223152399	-1.4388453345	 0.983103142	 0.107592
H	 4.14260089	 0.7714470503	 1.5188584367	 0.087329
H	 0.4942686776	 2.1826950833	 1.5079604144	 0.089739
H	 1.4298406819	 4.1037293666	 0.1149394342	 0.111246
H	 2.962903013	 3.8951700865	 1.0310443177	 0.11721
119.9576	157.3274	208.7041	236.1898	340.6864	367.7569	402.7799	471.3886	525.7136	691.1894	765.3409	796.9229	824.1275	852.7087	893.7401	911.3213	946.0059	964.8889	998.4935	1017.1367	1032.6398	1066.1951	1090.9155	1112.2139	1126.3625	1134.8672	1163.5319	1196.8909	1203.4755	1235.4627	1267.8194	1293.3787	1302.1046	1332.8461	1357.1991	1373.6548	1409.8961	1469.0152	1494.4398	1497.0198	1502.1333	3031.6768	3034.6262	3047.5683	3069.9884	3086.5575	3097.7287	3099.5712	3102.6392	3109.4815	3133.3295
CC1CC2OC3COC123	C[C@H]1C[C@@H]2O[C@H]3CO[C@@]123	
InChI=1S/C7H10O2/c1-4-2-5-7(4)6(9-5)3-8-7/h4-6H,2-3H2,1H3	InChI=1S/C7H10O2/c1-4-2-5-7(4)6(9-5)3-8-7/h4-6H,2-3H2,1H3/t4-,5-,6-,7-/m0/s1
