19
gdb 1550	2.1325156	1.6984455	1.2885098	2.5534	76.68	-0.25596	-0.03899	0.21697000000000002	1073.3156	0.154188	-422.537211	-422.528141	-422.527196	-422.57051	34.01	
C	 0.0466034511	-0.3316762595	 0.0445918317	-0.452649
C	 1.5615905582	-0.1531415416	 0.0226722158	 0.237374
C	 2.2563287534	-0.9740769044	 1.1097864957	-0.445042
C	 2.259177378	-0.328819027	-1.3861942055	-0.298152
C	 2.7037066171	 1.1343551171	-1.3230556903	-0.033707
O	 1.5475717802	 1.9410642094	-1.2038735735	-0.278319
C	 2.0394497508	 1.3210122269	 0.0011825258	 0.304555
C	 2.4300046867	 2.2472883709	 1.0801130105	 0.059172
O	 2.439442886	 1.9696666277	 2.2553778272	-0.264868
H	-0.3631111381	-0.0714018329	 1.0264390461	 0.124685
H	-0.430477515	 0.30125809	-0.7077716996	 0.130706
H	-0.2199629547	-1.3737276731	-0.1632859923	 0.11461
H	 2.0602967908	-2.0406232315	 0.9543398247	 0.112513
H	 3.341144369	-0.8253923621	 1.0961503738	 0.112381
H	 1.8982720814	-0.6919963964	 2.1024100874	 0.142928
H	 3.08978335	-1.0372053547	-1.3548582951	 0.112915
H	 1.6069841108	-0.5615188122	-2.2313710399	 0.115281
H	 3.5992896263	 1.6031373223	-1.716955391	 0.116663
H	 2.7250449181	 3.2513768311	 0.7036183285	 0.088955
90.2735	164.4286	196.3239	211.9257	237.04	264.7945	317.5032	347.4071	384.1311	454.2712	478.4567	548.8981	636.0444	691.1492	826.0087	840.8864	847.9293	929.0191	956.1677	962.9006	977.5365	1003.8972	1040.575	1045.8949	1121.4101	1164.3181	1208.8206	1228.4358	1259.2039	1272.5519	1317.0414	1367.1826	1400.6727	1418.1309	1434.2148	1473.4021	1483.7064	1488.5699	1499.3587	1511.5622	1804.3379	2896.2013	3031.0166	3035.0317	3067.2559	3095.5263	3097.5066	3121.5024	3125.9373	3129.1038	3177.9108
CC1(C)CC2OC12C=O	CC1(C)C[C@H]2O[C@@]12C=O	
InChI=1S/C7H10O2/c1-6(2)3-5-7(6,4-8)9-5/h4-5H,3H2,1-2H3	InChI=1S/C7H10O2/c1-6(2)3-5-7(6,4-8)9-5/h4-5H,3H2,1-2H3/t5-,7-/m1/s1
