19
gdb 3605	3.0931332	1.1523929	0.8997507	3.6804	81.16	-0.25422	-0.06566	0.18856	1305.9288	0.15652	-422.590602	-422.581649	-422.580704	-422.624322	33.173	
C	-1.5135834443	-3.9519016922	 0.930148439	-0.400351
C	-1.2134508407	-2.7547403335	 0.0202023603	-0.023316
C	-1.9986305065	-1.4618073569	 0.3735345983	-0.245058
C	-1.0506214294	-0.285609954	 0.0660735948	 0.0345
O	-1.2116417585	 0.7429121263	 1.0224692917	-0.442767
C	 0.317470514	-0.9498653398	 0.0983843801	 0.20434
C	 1.5527618981	-0.1749154809	 0.1399074126	 0.071976
O	 1.5767965674	 1.0407334466	 0.2014014627	-0.29196
C	 0.2205159465	-2.2854410149	 0.0600481589	-0.157569
H	-0.9283369277	-4.8309579688	 0.6405256475	 0.116084
H	-1.2805021037	-3.7171112062	 1.9739536185	 0.125014
H	-2.5726653372	-4.2222286969	 0.8749185725	 0.124386
H	-1.4405073533	-3.0548755937	-1.0149724226	 0.095858
H	-2.957049553	-1.3896177042	-0.1449922342	 0.104817
H	-2.1957122593	-1.4359463336	 1.4506467859	 0.120755
H	-1.2309987179	 0.1093395286	-0.9488499682	 0.075112
H	-0.4822990109	 1.3605697969	 0.8745655274	 0.294953
H	 2.4965340701	-0.7609637623	 0.1199758156	 0.083187
H	 1.0641710363	-2.9708339104	 0.0414000193	 0.110039
81.5518	103.5188	184.1524	213.5766	239.4112	289.8697	308.1623	411.0755	435.1694	468.0356	513.7748	578.2741	623.0364	741.2259	814.845	852.3279	884.6117	941.617	943.1448	992.4365	1037.0743	1047.0747	1084.9137	1116.676	1143.6301	1191.1203	1227.2316	1276.6834	1292.568	1296.2282	1329.6547	1344.1194	1372.9412	1408.6644	1416.7847	1430.1619	1487.9715	1497.5433	1499.8127	1684.5355	1757.647	2901.9565	2944.8668	2979.181	3032.6347	3055.7559	3102.375	3107.3777	3113.9777	3168.8155	3752.3629
CC1CC(O)C(C=O)=C1	C[C@H]1C[C@@H](O)C(=C1)C=O	
InChI=1S/C7H10O2/c1-5-2-6(4-8)7(9)3-5/h2,4-5,7,9H,3H2,1H3	InChI=1S/C7H10O2/c1-5-2-6(4-8)7(9)3-5/h2,4-5,7,9H,3H2,1H3/t5-,7-/m1/s1
