19
gdb 1471	3.2265208	1.6502544	1.4200744	2.3846	73.53	-0.23569	0.07022	0.30591	967.3004	0.157869	-422.527775	-422.520378	-422.519433	-422.55893	30.537	
C	 0.015738644	 0.127076166	-0.083963779	-0.466036
C	 1.4854054526	-0.2633578801	 0.0453939027	 0.428367
O	 1.6503802958	-1.2516288815	 1.0445246888	-0.481318
C	 2.2161489582	-0.461767689	-1.329760081	-0.169493
C	 3.6311406655	-0.8604031945	-0.8750058581	-0.21397
C	 3.8931313743	 0.5010324891	-0.19848047	 0.059656
O	 3.858356976	 1.3931329552	-1.3563569115	-0.296488
C	 2.4544250226	 1.1289122652	-1.3352815036	 0.100725
C	 2.4247466026	 0.9363199827	 0.1979671474	-0.10948
H	-0.3738746762	 0.4685695677	 0.8799675178	 0.12664
H	-0.1398008618	 0.9201783329	-0.8205855884	 0.125308
H	-0.57985868	-0.7368621454	-0.4052809431	 0.107837
H	 1.0138031334	-1.9562181039	 0.882138712	 0.275589
H	 1.7451500842	-0.9925056718	-2.1564056771	 0.059729
H	 3.6254526797	-1.7119563726	-0.1950463413	 0.111188
H	 4.3373246638	-1.0179507604	-1.6920126575	 0.100884
H	 4.7587075533	 0.6467743914	 0.4450355081	 0.082189
H	 1.8409311667	 1.7930481266	-1.9400081764	 0.085326
H	 2.2908403452	 1.7401668621	 0.9200028202	 0.073348
199.7344	236.2489	249.2692	292.0589	340.3257	381.889	487.0248	543.9878	558.0515	598.0834	722.8252	749.1909	808.195	842.7163	855.776	910.703	919.3177	941.7769	950.3588	975.2807	986.1663	1002.3575	1035.421	1073.1294	1105.4865	1120.6395	1152.4379	1166.4775	1178.3587	1209.6493	1219.1801	1237.0653	1255.1122	1287.8113	1310.2563	1336.7573	1395.3669	1413.6331	1475.6882	1489.3378	1498.7678	3024.6028	3086.0358	3090.5228	3117.0017	3122.1368	3129.6489	3140.3865	3148.315	3150.6863	3802.0393
CC1(O)C2CC3OC2C13	C[C@@]1(O)[C@@H]2C[C@H]3O[C@@H]2[C@@H]13	
InChI=1S/C7H10O2/c1-7(8)3-2-4-5(7)6(3)9-4/h3-6,8H,2H2,1H3	InChI=1S/C7H10O2/c1-7(8)3-2-4-5(7)6(3)9-4/h3-6,8H,2H2,1H3/t3-,4-,5+,6+,7-/m1/s1
