19
gdb 5166	3.471784	1.300645	1.0724304	2.2387	76.24	-0.24571	-0.00311	0.2426	1152.3893	0.158073	-422.558263	-422.550167	-422.549223	-422.5906	31.543	
O	 0.6914633116	-0.5762452479	 0.4779441916	-0.418966
C	 0.7000628249	 0.6762053548	-0.1648519347	-0.148408
C	 0.2801474526	 0.5739952316	-1.622329736	 0.326562
O	-0.732888104	-0.4567381702	-1.8336497092	-0.314464
C	 0.5769947055	-0.6392084276	-2.3998004364	-0.000444
C	 0.697482873	-0.5370175339	-3.9019784324	-0.249848
C	-0.1764520772	 0.5880088849	-4.4933080463	-0.268576
C	-0.1065935984	 1.856529202	-3.6846290683	-0.079097
C	 0.091178321	 1.8458792121	-2.3656072734	-0.093514
H	-0.1224726477	-1.0070633194	 0.1817532141	 0.292144
H	 0.0324971636	 1.3962789321	 0.340116486	 0.09252
H	 1.7184086673	 1.0769300861	-0.0987830731	 0.116993
H	 1.159355215	-1.4212672703	-1.9144181373	 0.101182
H	 1.7549981786	-0.348912654	-4.1300232816	 0.111914
H	 0.44170516	-1.4946904071	-4.3684738445	 0.11039
H	 0.1165614352	 0.7780679022	-5.5309696893	 0.104222
H	-1.2194421908	 0.2487204942	-4.5269579298	 0.133859
H	-0.2561256937	 2.7992358097	-4.2038806537	 0.096886
H	 0.1177569036	 2.7694646207	-1.7936404858	 0.086643
116.0008	162.8914	199.2591	243.2036	300.8348	382.4225	390.7795	488.6831	510.1199	553.5576	638.8314	687.9334	713.5569	720.6373	806.0908	865.1171	906.2119	943.4935	966.7881	990.6127	1027.9515	1055.6758	1073.9626	1098.6108	1123.2731	1189.1959	1198.6555	1222.2924	1229.4534	1269.0437	1309.0045	1350.526	1365.9063	1386.0658	1426.0742	1443.8953	1462.8087	1477.0339	1484.1868	1506.8426	1709.3115	2953.4794	3025.9291	3030.21	3058.0925	3067.6447	3075.2373	3126.9357	3153.9666	3176.3188	3749.682
OCC12OC1CCC=C2	OC[C@]12O[C@H]1CCC=C2	
InChI=1S/C7H10O2/c8-5-7-4-2-1-3-6(7)9-7/h2,4,6,8H,1,3,5H2	InChI=1S/C7H10O2/c8-5-7-4-2-1-3-6(7)9-7/h2,4,6,8H,1,3,5H2/t6-,7-/m0/s1
