19
gdb 797	3.2718237	1.375633	1.1597665	1.7002	75.41	-0.24601	-0.0285	0.21751	1083.7528	0.158192	-422.556097	-422.548364	-422.54742	-422.588303	30.093	
O	 0.9963522556	-0.6991725568	-0.5222976368	-0.250784
C	 0.1831297735	 0.0163103711	 0.0062822497	 0.079059
C	-0.4533650598	 1.2222197094	-0.618227117	 0.219601
C	-0.4683948079	 2.5420961238	 0.2234375529	-0.270923
C	-1.8085704452	 2.8459146987	-0.4956797905	 0.133176
C	-2.0201774783	 1.3091168945	-0.5780628594	-0.301726
O	-1.5648272986	 3.4331830756	-1.7622101693	-0.273886
C	-0.930976087	 2.5516264321	-2.6917630962	-0.082529
C	 0.0486381282	 1.5610910517	-2.0285402603	-0.277463
H	-0.1664770483	-0.1839533924	 1.0479162269	 0.066601
H	-0.6064735446	 2.3482209437	 1.2916264068	 0.10152
H	 0.3534729337	 3.2442137737	 0.0666337183	 0.108943
H	-2.5556739057	 3.4689499714	-0.000781734	 0.081573
H	-2.4169141129	 0.9206608739	 0.363816153	 0.107643
H	-2.5875130688	 0.8895241344	-1.4111007051	 0.113356
H	-1.702981111	 1.9896719224	-3.2357102174	 0.100312
H	-0.4236574063	 3.1890865756	-3.420662428	 0.113396
H	 0.1273639842	 0.6546956345	-2.6365331316	 0.119111
H	 1.0567637291	 1.9825756125	-1.9559876921	 0.113016
81.7408	189.3614	220.1686	251.2277	368.4721	395.0865	437.4148	444.079	531.5308	599.5016	732.5441	805.0826	822.4061	835.2791	864.1689	910.0577	947.4194	958.7078	969.8397	999.2533	1043.5161	1057.2367	1068.6474	1139.0356	1178.7997	1193.0976	1202.2602	1242.527	1246.3524	1260.8323	1272.9838	1295.1841	1361.9165	1369.0113	1410.4269	1428.1436	1465.5254	1488.8369	1498.1367	1526.5702	1821.0686	2843.1857	3000.0915	3047.8857	3051.0991	3066.4714	3085.2868	3096.7942	3097.5103	3120.2725	3124.8595
O=CC12CC(C1)OCC2	O=C[C@]12C[C@H](C1)OCC2	
InChI=1S/C7H10O2/c8-5-7-1-2-9-6(3-7)4-7/h5-6H,1-4H2	InChI=1S/C7H10O2/c8-5-7-1-2-9-6(3-7)4-7/h5-6H,1-4H2/t6-,7-
