19
gdb 2760	2.7058748	1.3841306	1.0627561	2.4944	77.63	-0.21364	0.025	0.23864	1176.4116	0.155917	-422.558702	-422.549881	-422.548937	-422.591449	34.226	
C	 1.2506828047	 0.6611426141	-0.2607844854	-0.496479
C	-0.1339340649	 0.2207270418	 0.0995195809	 0.345664
C	-1.2405540339	 0.9756552696	 0.1407739675	-0.189747
C	-2.4795471299	 0.1924740419	 0.5105551433	-0.330342
C	-1.9401700153	-1.1958921724	 0.8241218802	 0.435099
O	-2.7860291193	-2.2588306774	 0.5487957917	-0.481223
C	-0.9474256683	-1.3427753127	 1.9389449546	 0.006127
O	-0.9668948975	-2.6294017467	 2.4969911539	-0.438442
C	-0.4410131241	-1.1845352738	 0.5023243775	-0.297773
H	 1.9512177726	 0.4970067592	 0.5679544972	 0.122468
H	 1.6377521728	 0.0879448593	-1.1129226625	 0.126124
H	 1.278910798	 1.7214385553	-0.526609383	 0.123703
H	-1.2674151592	 2.0389967752	-0.0707930328	 0.086978
H	-3.0212802463	 0.6233579192	 1.3616116622	 0.109729
H	-3.1957538965	 0.1352201891	-0.3204869057	 0.119557
H	-2.532360533	-2.9686237279	 1.155118913	 0.290806
H	-0.7728745114	-0.5308238589	 2.6459099503	 0.090023
H	-0.0608986185	-2.9386598556	 2.5974625965	 0.294674
H	 0.0608654	-2.0339395294	 0.0478299207	 0.083053
143.2641	178.1521	223.4701	234.0371	268.3929	285.3447	306.2626	391.3148	430.2572	436.8616	491.5305	541.1484	604.7108	703.0553	753.4215	808.3292	836.0129	933.5263	939.6666	965.8473	997.7325	1011.0599	1044.4922	1052.0432	1068.4153	1119.9898	1156.3128	1174.6059	1195.5792	1237.2187	1269.2055	1286.0393	1341.518	1347.7073	1413.5978	1416.4752	1445.7016	1478.6717	1479.5667	1489.652	1700.2901	3016.3501	3017.7565	3049.7192	3062.01	3091.4904	3109.3622	3155.109	3191.8467	3747.6663	3811.7936
CC1=CCC2(O)C(O)C12	CC1=CC[C@]2(O)[C@@H](O)[C@H]12	
InChI=1S/C7H10O2/c1-4-2-3-7(9)5(4)6(7)8/h2,5-6,8-9H,3H2,1H3	InChI=1S/C7H10O2/c1-4-2-3-7(9)5(4)6(7)8/h2,5-6,8-9H,3H2,1H3/t5-,6-,7+/m0/s1
