19
gdb 1562	3.0126591	1.5720807	1.5531792	2.5573	73.37	-0.22021	0.0738	0.29401	967.1529	0.157004	-422.529297	-422.521563	-422.520618	-422.560915	31.314	
C	 0.0157011703	-0.0747371926	-0.1005504158	-0.449706
C	 1.5456426693	-0.0601059266	-0.01445258	 0.396326
O	 2.1029933844	-0.6399138412	-1.1922663039	-0.470041
C	 2.0666567442	-0.7438858077	 1.2978843186	-0.265671
C	 3.1058327414	 0.2314679178	 1.8329730384	 0.08083
O	 4.169256236	 0.3441077537	 0.8314420992	-0.300588
C	 3.566317681	 1.5468128929	 0.3635194297	 0.101452
C	 2.5928348896	 1.6543117087	 1.4940935504	-0.167276
C	 2.0847988698	 1.3651267309	 0.0959677279	-0.100728
H	-0.4357786658	 0.4602127235	 0.7408218209	 0.117651
H	-0.3164065856	 0.3926630092	-1.0323135275	 0.122354
H	-0.3622778117	-1.1046639704	-0.079992607	 0.104835
H	 1.7071818566	-1.5101380819	-1.3091873638	 0.272471
H	 1.2568996985	-0.8769878576	 2.0250708385	 0.091473
H	 2.5053427922	-1.7215218181	 1.0798622742	 0.10534
H	 3.511775277	 0.02938663	 2.8257113133	 0.078858
H	 4.1953662664	 2.268292383	-0.1439315984	 0.103327
H	 2.303859906	 2.457426257	 2.157305453	 0.0946
H	 1.5973877306	 2.1576281094	-0.4619599876	 0.084494
119.37	235.8553	267.4109	273.8723	329.0336	370.6868	417.0216	441.3682	557.5678	630.4365	672.216	761.3254	789.5022	806.5251	848.7195	854.4033	902.5278	944.6072	952.0955	971.9764	993.6695	996.1818	1033.2299	1053.3572	1075.9753	1081.4723	1122.4445	1125.9019	1198.132	1211.6694	1227.6327	1268.1504	1278.7868	1300.7063	1344.3053	1380.5231	1401.8321	1412.3857	1461.6609	1491.2423	1496.0364	3021.8	3037.4672	3089.8078	3097.7336	3100.4526	3114.2492	3171.7741	3186.7587	3210.6013	3805.3226
CC1(O)CC2OC3C2C13	C[C@]1(O)C[C@H]2O[C@@H]3[C@H]2[C@H]13	
InChI=1S/C7H10O2/c1-7(8)2-3-4-5(7)6(4)9-3/h3-6,8H,2H2,1H3	InChI=1S/C7H10O2/c1-7(8)2-3-4-5(7)6(4)9-3/h3-6,8H,2H2,1H3/t3-,4-,5+,6-,7+/m1/s1
