19
gdb 4605	4.197358	0.6606657	0.6494132	2.4367	83.77	-0.22328	0.02812	0.2514	1819.2451	0.15402	-422.509313	-422.498961	-422.498017	-422.545737	37.08	
C	-6.4942306475	-0.5363433024	 2.1177630885	-0.363343
C	-5.447466912	-1.0815683006	 1.1287908881	-0.320453
C	-4.1147917891	-0.523252757	 1.329377786	 0.1025
C	-3.0268754764	-0.036878046	 1.5194611743	 0.011876
C	-1.7120511506	 0.4941755012	 1.724231758	 0.153762
O	-0.9115041414	-0.176015315	 2.6824590431	-0.465677
C	-1.4313867752	 1.9841914858	 1.6661981402	-0.360883
C	-0.8986452459	 1.0891313221	 0.576141814	 0.092225
O	 0.4513866162	 0.7718879063	 0.5166103269	-0.431645
H	-6.207742064	-0.760520034	 3.1486767106	 0.130044
H	-6.5891142595	 0.5486404412	 2.0230553516	 0.129312
H	-7.4723114897	-0.9869730724	 1.9245715876	 0.115424
H	-5.3958718663	-2.1748452636	 1.2131842799	 0.131147
H	-5.7712887995	-0.8782636487	 0.0997919591	 0.132885
H	-1.00545635	-1.1213950453	 2.5151341255	 0.291667
H	-2.2639087787	 2.6443115887	 1.4531094994	 0.125157
H	-0.716203008	 2.3492581827	 2.3960369475	 0.128573
H	-1.3522681065	 1.1367743993	-0.4078627564	 0.112733
H	 0.6578435241	 0.3416963876	 1.3595313159	 0.284696
26.8087	77.5576	93.5349	159.0005	214.4217	253.5374	277.8997	304.9167	344.4552	405.0899	456.0249	492.1254	506.669	545.5362	582.4315	679.0682	782.7423	799.9453	852.5569	895.367	933.8865	1004.371	1030.1796	1059.3341	1082.5776	1099.8468	1102.8354	1147.3182	1222.3439	1273.2433	1287.7934	1326.5429	1351.086	1385.8026	1410.0049	1429.7855	1469.5998	1474.1409	1494.8417	1504.8232	2350.45	3020.0705	3045.2767	3047.3182	3118.805	3125.9171	3135.1528	3174.9255	3233.4103	3723.8478	3793.6458
CCC#CC1(O)CC1O	CCC#C[C@]1(O)C[C@H]1O	
InChI=1S/C7H10O2/c1-2-3-4-7(9)5-6(7)8/h6,8-9H,2,5H2,1H3	InChI=1S/C7H10O2/c1-2-3-4-7(9)5-6(7)8/h6,8-9H,2,5H2,1H3/t6-,7+/m1/s1
