19
gdb 908	3.5440429	0.9867217	0.8491098	3.3775	79.69	-0.24056	-0.03224	0.20832	1372.2798	0.156786	-422.570036	-422.56121	-422.560266	-422.604888	31.683	
O	 0.1061897647	-0.911637984	 0.7309981025	-0.23327
C	 0.3149449882	 0.00814026	-0.0161836978	 0.157786
C	 0.4018895908	 1.4671634847	 0.4102355474	-0.365093
C	-0.879180023	 2.171162882	 0.0223157714	 0.263728
C	-0.9925362449	 2.9562026677	-1.0505055869	-0.15981
C	-2.2837315514	 3.6456005434	-1.4023257216	-0.250928
C	-3.2387018472	 3.6096199228	-0.2068747148	-0.080203
O	-3.3025879973	 2.3086184464	 0.351761372	-0.24154
C	-2.0725141186	 1.9036121621	 0.9126876118	-0.154932
H	 0.4163040571	-0.1486325544	-1.1140698252	 0.082693
H	 0.5619801056	 1.4980711608	 1.4933529298	 0.124115
H	 1.2543407091	 1.9335288418	-0.0955646339	 0.117239
H	-0.1335447795	 3.124402766	-1.696642183	 0.083918
H	-2.0948438701	 4.6861449135	-1.6955364112	 0.105583
H	-2.7470555787	 3.1600672865	-2.2722761127	 0.119302
H	-2.9087142176	 4.3357921013	 0.5547027383	 0.089729
H	-4.2595767268	 3.868156025	-0.5004431267	 0.109189
H	-1.9093587164	 2.3939548631	 1.8915117047	 0.09711
H	-2.1620390542	 0.8295791114	 1.1134458459	 0.135383
36.9397	60.1674	119.869	209.0587	266.9342	299.7493	343.8053	439.3062	499.0074	505.0614	529.9876	644.0502	801.2621	860.1478	863.5113	902.4869	932.0751	956.0997	1012.867	1031.7203	1057.3789	1074.8337	1094.1895	1139.054	1157.2694	1205.578	1229.321	1261.2608	1284.4305	1317.0804	1352.3998	1365.295	1400.9087	1417.2467	1422.1053	1465.3204	1469.7604	1485.9451	1501.4716	1732.358	1829.9105	2877.0019	2924.9539	2968.5572	3013.4583	3036.8368	3049.1886	3059.4854	3091.3055	3096.4719	3146.2924
O=CCC1=CCCOC1	O=CCC1=CCCOC1	
InChI=1S/C7H10O2/c8-4-3-7-2-1-5-9-6-7/h2,4H,1,3,5-6H2	InChI=1S/C7H10O2/c8-4-3-7-2-1-5-9-6-7/h2,4H,1,3,5-6H2
