19
gdb 4731	2.2492632	1.3499252	1.0457438	2.4767	77.19	-0.25671	0.02586	0.28257	1227.9428	0.152832	-422.500714	-422.49032	-422.489376	-422.536059	37.255	
C	 2.8512389579	-2.301877535	-1.2325769299	-0.414731
C	 3.2604395488	-1.4420318383	-0.0364976666	-0.18673
C	 2.6779213678	-0.0064682451	-0.0635625613	 0.155131
O	 3.1070762977	 0.6832960929	-1.2374749761	-0.456205
C	 1.2096402723	-0.0263881398	 0.0174232236	 0.313697
C	 0.0083840441	-0.0436444174	 0.0690325692	-0.496042
C	 3.2142672498	 0.7661713097	 1.1450653786	 0.075061
C	 3.6383484093	 2.1643669846	 1.0606125174	-0.176019
O	 4.5948020941	 1.0953942281	 1.1228068455	-0.244883
H	 3.2921248271	-3.2998216708	-1.1568457448	 0.120476
H	 1.7641272512	-2.4178353641	-1.2888679934	 0.125651
H	 3.2012996859	-1.8608170023	-2.1713219768	 0.116445
H	 2.9504891226	-1.9235930004	 0.8982228174	 0.100839
H	 4.3486186375	-1.3284033365	-0.0030915983	 0.127667
H	 2.5325853933	 0.4146618382	-1.9606528016	 0.290129
H	-1.0529229928	-0.0540140481	 0.1165384876	 0.203821
H	 2.8502319599	 0.3773854013	 2.0966156191	 0.100268
H	 3.582176041	 2.6718663176	 0.1025986251	 0.134008
H	 3.5872840027	 2.7934878953	 1.9477983152	 0.111418
69.1472	99.1905	133.2821	142.5659	169.7474	205.8761	239.9265	281.0546	319.1388	405.2081	419.7736	492.4541	556.2687	608.1664	635.1241	672.9913	717.2031	792.1109	861.2733	898.9891	955.0083	988.6291	996.7592	1037.1357	1088.5051	1106.6404	1147.5041	1162.365	1172.2994	1191.8863	1290.6931	1316.3905	1321.2289	1372.3268	1406.2796	1439.6708	1475.8775	1498.5819	1510.2137	1518.4186	2227.1868	3038.0613	3040.506	3086.6945	3097.5013	3108.6554	3110.9759	3113.7324	3203.9801	3498.2015	3838.1975
CCC(O)(C#C)C1CO1	CC[C@@](O)(C#C)[C@@H]1CO1	
InChI=1S/C7H10O2/c1-3-7(8,4-2)6-5-9-6/h1,6,8H,4-5H2,2H3	InChI=1S/C7H10O2/c1-3-7(8,4-2)6-5-9-6/h1,6,8H,4-5H2,2H3/t6-,7-/m0/s1
