19
gdb 3177	2.775292	1.3372773	1.0121152	2.978	75.28	-0.25218	-0.02506	0.22712000000000002	1182.4573	0.156382	-422.567735	-422.559149	-422.558205	-422.601564	31.654	
C	 0.6912416505	 0.9721109315	-0.2268227727	-0.408634
C	 1.0497745725	-0.5049380838	-0.0577715411	-0.026565
C	 1.8153573119	-1.1105918171	-1.2220406617	 0.03513
O	 3.194373178	-0.7154157365	-1.2644106466	-0.257368
C	 2.8629684467	-2.0029005376	-0.7224923624	 0.045989
C	 2.8197865481	-2.0275226806	 0.7917187933	-0.288451
C	 1.9886155914	-0.772985068	 1.1672431467	-0.067176
C	 1.1743898129	-0.9592779262	 2.4240814633	 0.150316
O	 1.1195726629	-0.1826908976	 3.3418155596	-0.249962
H	 0.2349176049	 1.3724525995	 0.6836268063	 0.132635
H	 1.5905590564	 1.5568916463	-0.4425820536	 0.13703
H	-0.0154181533	 1.1159395287	-1.0504363721	 0.115665
H	 0.1261740283	-1.0923356881	 0.0606244719	 0.078045
H	 1.3344009707	-1.2366955976	-2.18958098	 0.096643
H	 3.2364357812	-2.8558911923	-1.2834138624	 0.099302
H	 2.3170932857	-2.9484415002	 1.1180955147	 0.106536
H	 3.8122791617	-2.0154976764	 1.2511258124	 0.124712
H	 2.6415892031	 0.0894803068	 1.3105274783	 0.108465
H	 0.5742966965	-1.902716711	 2.4355282659	 0.067687
51.5835	84.8834	190.3254	237.1516	257.5435	314.6766	349.1483	376.5071	456.2539	545.3188	644.2186	697.3418	808.7291	842.6398	859.8043	884.7923	941.8649	964.3964	986.4957	1021.4287	1044.8038	1078.435	1088.8205	1102.7717	1133.3573	1146.3728	1213.8933	1250.7471	1259.1886	1300.7482	1312.722	1331.3285	1347.4528	1358.9867	1409.0813	1426.7894	1443.781	1481.0062	1495.441	1502.7228	1832.4511	2828.3873	2990.7431	3022.6837	3037.3295	3087.4629	3104.7672	3108.205	3115.2598	3137.3782	3152.7065
CC1C2OC2CC1C=O	C[C@H]1[C@H]2O[C@H]2C[C@@H]1C=O	
InChI=1S/C7H10O2/c1-4-5(3-8)2-6-7(4)9-6/h3-7H,2H2,1H3	InChI=1S/C7H10O2/c1-4-5(3-8)2-6-7(4)9-6/h3-7H,2H2,1H3/t4-,5-,6+,7-/m1/s1
