19
gdb 6010	5.6306739	0.7933936	0.7868397	2.3571	74.92	-0.23304	0.07152	0.30456	1471.783	0.156317	-422.459168	-422.450934	-422.44999	-422.492633	30.956	
O	 1.4903609793	 0.8342337071	-0.0460357087	-0.417191
C	 0.5174854658	-0.0335467405	 0.5120034028	-0.051691
C	-0.7398762315	 0.7012572769	 0.9847958437	-0.237879
C	-1.8003660596	-0.2381505553	 1.5468245031	-0.035694
C	-3.2275633072	 0.3051445029	 1.7922670489	-0.111625
C	-3.6412272134	 0.125062119	 0.2949317929	 0.090404
O	-4.8520760477	-0.6303448169	 0.5924145753	-0.328904
C	-3.8709796097	-1.0972571393	 1.5648526293	 0.085135
C	-2.6703981508	-1.0698709983	 0.5695291104	-0.095235
H	 1.7641461938	 1.4494473376	 0.641777005	 0.280172
H	 0.2616853263	-0.7392333371	-0.285927468	 0.114564
H	 0.9371433659	-0.6265948468	 1.3416009177	 0.085313
H	-0.4550850384	 1.4287270885	 1.7594525135	 0.086514
H	-1.1412750676	 1.2818220151	 0.1453594178	 0.104829
H	-1.3977060866	-0.8207283251	 2.3852598669	 0.06871
H	-3.5751231128	 1.0797592551	 2.4765000922	 0.082115
H	-3.6671202445	 0.8425391749	-0.5237723833	 0.099545
H	-4.163774483	-1.8586727331	 2.2872158966	 0.096304
H	-2.3925598882	-1.8565017647	-0.1321798961	 0.084615
71.8362	95.5157	125.9462	232.1128	292.0655	344.623	357.258	550.2153	578.4097	742.7174	750.5893	795.5659	797.9871	833.7458	853.5968	886.9605	899.3332	933.4685	967.4059	1028.3071	1031.6311	1056.2614	1080.095	1102.9937	1107.2988	1134.7345	1150.1763	1158.4638	1173.9292	1180.9533	1186.6804	1238.0575	1279.8624	1293.5726	1324.9604	1337.8449	1397.0449	1412.3172	1425.3395	1482.6837	1512.8306	2967.9151	2999.6898	3022.2999	3055.6075	3075.032	3111.7098	3116.3568	3125.1306	3138.6724	3814.1776
OCCC1C2C3OC2C13	OCC[C@H]1[C@H]2[C@@H]3O[C@H]2[C@H]13	
InChI=1S/C7H10O2/c8-2-1-3-4-6-5(3)7(4)9-6/h3-8H,1-2H2	InChI=1S/C7H10O2/c8-2-1-3-4-6-5(3)7(4)9-6/h3-8H,1-2H2/t3-,4-,5+,6-,7+
