19
gdb 3870	2.9168921	1.3230932	1.0999154	3.0077	78.01	-0.24232	-0.03235	0.20997000000000002	1165.2026	0.154144	-422.535728	-422.526419	-422.525474	-422.569458	34.152	
C	 2.6563803852	-1.0995037286	-0.9928236683	-0.4127
C	 1.977969269	-0.1512778391	-0.0274929843	 0.098549
O	 2.7181754215	 1.0912076582	 0.1873959207	-0.342249
C	 2.6144509583	 0.9365238717	 1.5989391545	 0.320372
C	 3.3184033833	-0.3132971093	 2.0593463855	-0.381907
C	 1.9404484208	-0.4471703157	 1.481430219	 0.202139
C	 0.7712310802	-1.0028473591	 2.2373741398	-0.497167
C	 2.2246196324	 2.0607818705	 2.4554954645	 0.064902
O	 2.0980749928	 1.9758239627	 3.6574443668	-0.280295
H	 2.0469324291	-1.9996453219	-1.1259987281	 0.123215
H	 2.7732320711	-0.6206327369	-1.9699160128	 0.134489
H	 3.6460293196	-1.3967818333	-0.6368668347	 0.125409
H	 0.9700048761	 0.1015146035	-0.3830429267	 0.086941
H	 4.2037323346	-0.6169424838	 1.5091078188	 0.122978
H	 3.3679408559	-0.4255628164	 3.1373620631	 0.144732
H	 0.8012771441	-0.6763368524	 3.2812658813	 0.151007
H	-0.1778863632	-0.6666831942	 1.8067390323	 0.123539
H	 0.7782240087	-2.0991141144	 2.2273517195	 0.128243
H	 2.0214450207	 3.0027944884	 1.9017482291	 0.087804
101.8458	136.2644	179.91	190.6386	202.2074	218.5679	287.4983	318.938	363.9923	467.7239	525.5145	554.9415	650.2062	716.6043	735.5266	800.5841	871.7896	910.6411	964.1572	976.9442	1043.1914	1057.3676	1064.6914	1089.2075	1099.3115	1136.6437	1156.4099	1230.9305	1264.3908	1324.9087	1368.1396	1395.4418	1411.0186	1414.7604	1428.9938	1479.7695	1484.647	1490.1536	1494.4514	1495.7929	1787.507	2903.3843	3014.8142	3027.395	3041.5567	3088.8185	3109.8291	3110.3402	3123.947	3127.276	3224.1132
CC1OC2(CC12C)C=O	C[C@@H]1O[C@@]2(C[C@]12C)C=O	
InChI=1S/C7H10O2/c1-5-6(2)3-7(6,4-8)9-5/h4-5H,3H2,1-2H3	InChI=1S/C7H10O2/c1-5-6(2)3-7(6,4-8)9-5/h4-5H,3H2,1-2H3/t5-,6+,7-/m0/s1
