19
gdb 4550	2.3880056	1.5879934	1.0546406	2.9802	76.74	-0.24482	-0.02687	0.21795	1143.6335	0.157908	-422.590547	-422.58215	-422.581206	-422.623549	32.09	
O	 0.1351013617	-2.4746265803	 0.1202727436	-0.437486
C	-0.7888741455	-1.4208406528	 0.0966446242	 0.039699
C	-1.8082440137	-1.600919167	 1.2422475825	-0.199027
C	-2.9434933376	-0.5607756683	 1.2882870064	-0.273043
C	-2.5091527666	 0.7913457536	 1.8048564847	-0.038671
C	-1.5838075793	 1.5602122101	 1.2330251295	-0.068526
C	-0.8426190919	 1.1997953629	-0.0411531716	-0.346953
C	-0.0450950489	-0.0829581741	 0.1296426287	 0.374141
O	 1.1603833766	-0.0824575741	 0.267350073	-0.327838
H	 1.0010601272	-2.0477978088	 0.2284340422	 0.291293
H	-1.3493084341	-1.4372233432	-0.8562258662	 0.085156
H	-2.2295076952	-2.6033739849	 1.1125604392	 0.115077
H	-1.2629249248	-1.6061232182	 2.19210714	 0.111514
H	-3.3792041171	-0.4587389649	 0.2825284455	 0.109394
H	-3.7458065378	-0.9476768429	 1.9227059307	 0.109603
H	-2.9791042338	 1.1419803986	 2.720070887	 0.096696
H	-1.310096942	 2.5049418363	 1.6923492205	 0.103938
H	-1.5537887962	 1.0679578245	-0.8675974602	 0.125378
H	-0.1415759712	 1.9890193635	-0.3173887398	 0.129654
83.3621	103.5764	226.9102	287.6985	301.192	322.3063	369.1404	437.5298	463.4788	514.0222	596.7018	621.2782	693.7399	747.2905	804.9687	858.2203	894.2984	937.3164	981.5522	991.5609	1027.5018	1058.7966	1063.0066	1112.2719	1154.1853	1174.4059	1226.6373	1252.3744	1260.4061	1296.859	1309.4601	1334.0256	1354.2295	1375.5934	1408.1325	1449.6011	1468.1606	1486.528	1489.5335	1715.6716	1791.2465	2938.6626	2993.8556	3021.2172	3043.9038	3081.3229	3090.0459	3119.1128	3155.3975	3182.3625	3669.7004
OC1CCC=CCC1=O	O[C@H]1CCC=CCC1=O	
InChI=1S/C7H10O2/c8-6-4-2-1-3-5-7(6)9/h1-2,7,9H,3-5H2	InChI=1S/C7H10O2/c8-6-4-2-1-3-5-7(6)9/h1-2,7,9H,3-5H2/t7-/m0/s1
