19
gdb 5742	3.7783947	0.8352208	0.7344463	2.8638	78.35	-0.25057	-0.02076	0.22981000000000001	1522.5962	0.155986	-422.535186	-422.526207	-422.525262	-422.5693	32.739	
O	-0.4905763437	-1.8678080565	-0.0013862906	-0.419147
C	 0.3660080126	-0.7395186019	 0.0395657665	-0.085153
C	-0.0083285814	 0.2530555626	 1.1342077697	-0.009743
C	 1.0047091645	 1.4410060295	 1.2724313125	-0.277921
C	 1.3492259014	 0.9561455128	 2.6845335177	-0.054286
C	 0.0872004365	 0.9402530477	 3.5342761623	-0.113676
C	 0.2836468535	 0.6185440566	 4.9646632182	 0.153342
O	-0.3707153139	 1.0717662563	 5.8706811875	-0.270275
C	 0.3721623062	-0.1905795824	 2.5590635334	-0.071135
H	-0.3710858112	-2.3654627327	 0.8135016575	 0.284685
H	 1.4215732102	-1.0379346356	 0.1519091549	 0.086256
H	 0.2681507397	-0.2549681893	-0.9381875593	 0.115183
H	-1.0596928208	 0.5331635927	 1.0128693384	 0.086837
H	 1.8426563572	 1.3409187658	 0.5767586664	 0.113004
H	 0.6010077351	 2.4540329363	 1.1921562792	 0.109835
H	 2.3277285161	 0.9803736501	 3.1494354536	 0.099562
H	-0.7167337601	 1.643509105	 3.3317998238	 0.102159
H	 1.1140046763	-0.1033559943	 5.1583492457	 0.06321
H	 0.4622649918	-1.2123442528	 2.9139642226	 0.087262
82.111	107.8407	145.1626	177.3704	231.5021	271.612	298.3401	379.6605	413.7626	458.6729	528.1296	718.0017	829.945	852.174	868.1752	877.5375	951.3282	982.674	992.9355	1008.3109	1051.9166	1059.582	1067.1004	1089.3759	1120.8076	1128.081	1165.303	1188.3937	1209.4952	1234.3717	1257.0263	1275.76	1279.2347	1346.9439	1373.6344	1392.4541	1416.7399	1444.6192	1488.6204	1500.992	1823.7095	2835.4343	2968.5595	3052.9741	3056.453	3071.5097	3105.4203	3145.3805	3156.2665	3182.313	3820.548
OCC1CC2C(C=O)C12	OC[C@@H]1C[C@H]2[C@H](C=O)[C@@H]12	
InChI=1S/C7H10O2/c8-2-4-1-5-6(3-9)7(4)5/h3-8H,1-2H2	InChI=1S/C7H10O2/c8-2-4-1-5-6(3-9)7(4)5/h3-8H,1-2H2/t4-,5-,6-,7-/m0/s1
