19
gdb 1238	2.4085702	1.1201157	1.067044	2.6218	77.76	-0.24276	-0.02374	0.21902	1279.0577	0.152345	-422.539047	-422.528157	-422.527213	-422.575203	38.435	
C	-0.0200297952	-2.3329545078	-2.7715806765	-0.397002
C	 0.3902263914	-2.0437205141	-1.3112066575	-0.062587
C	 1.8817143756	-1.7279275092	-1.1835075751	-0.393182
C	-0.452360533	-0.9110028852	-0.7437156788	 0.365055
O	-0.0092112264	 0.1661987788	-0.4328927413	-0.305451
C	-1.9792547806	-1.1590020901	-0.5526622552	-0.107145
O	-2.2272605625	-2.5552584914	-0.4565635869	-0.41989
C	-2.7293383441	-0.5354210461	-1.6416201032	 0.312518
C	-3.3733010031	-0.0561076802	-2.5366367349	-0.474183
H	 0.5746566267	-3.1650004146	-3.1605454267	 0.118707
H	-1.0747033901	-2.6044617624	-2.8439751959	 0.133072
H	 0.1607592967	-1.4612031055	-3.4087301532	 0.125327
H	 0.1427606029	-2.9364431993	-0.7245517368	 0.113901
H	 2.163878625	-1.5478606307	-0.1428581436	 0.122101
H	 2.4773356513	-2.5631778399	-1.5641628328	 0.107095
H	 2.1403367258	-0.8303501128	-1.7520387707	 0.129015
H	-2.2325822361	-0.647815272	 0.3878957603	 0.127482
H	-3.1713356306	-2.6974135215	-0.5809006298	 0.295764
H	-3.9335488137	 0.3809781041	-3.3263758413	 0.209401
48.3401	64.8973	132.5718	187.4454	206.806	209.8663	226.5088	254.5643	267.5763	310.8406	369.9204	398.0663	465.456	591.484	603.6885	633.0155	676.4703	682.9705	793.6097	883.5819	936.1155	950.3439	972.9442	1066.1885	1086.3017	1113.2003	1139.939	1198.0701	1238.3656	1312.6461	1321.2103	1364.4175	1370.2538	1398.2169	1419.6568	1485.5581	1488.3437	1502.5967	1509.0396	1816.736	2229.3217	2997.0692	3040.0052	3045.2442	3046.5779	3107.4114	3116.5703	3122.3069	3137.5984	3501.188	3821.2184
CC(C)C(=O)C(O)C#C	CC(C)C(=O)[C@H](O)C#C	
InChI=1S/C7H10O2/c1-4-6(8)7(9)5(2)3/h1,5-6,8H,2-3H3	InChI=1S/C7H10O2/c1-4-6(8)7(9)5(2)3/h1,5-6,8H,2-3H3/t6-/m1/s1
