19
gdb 5384	2.9098166	1.1257156	0.8629486	4.4834	78.69	-0.25067	0.00663	0.25730000000000003	1356.3566	0.156797	-422.602197	-422.593095	-422.592151	-422.637337	32.496	
C	 2.3568044874	-0.0553115902	-2.9248791183	-0.377915
C	 1.8951080852	 0.1715786223	-1.4745661379	-0.275762
C	 2.1952902729	 1.5529495538	-0.9530473904	 0.312375
C	 1.2543178928	 2.4221142937	-0.5949695533	-0.188683
C	 1.5697202714	 3.7886498933	-0.0778563463	-0.112161
O	 2.9075275371	 3.9641535949	 0.4064571038	-0.224557
C	 3.9267588007	 3.1448431893	 0.0684553862	 0.41643
O	 5.0254825552	 3.3705584538	 0.4975134308	-0.327615
C	 3.6408130464	 1.9666019628	-0.8513691154	-0.451885
H	 2.1051952639	-1.067852071	-3.2536076889	 0.120838
H	 1.8723365285	 0.6525024426	-3.6049661504	 0.122166
H	 3.4394817225	 0.0653683747	-3.0293818484	 0.124584
H	 0.8182482064	-0.0140888988	-1.4005193623	 0.105167
H	 2.3865083844	-0.5694529702	-0.8283175731	 0.109795
H	 0.1989222415	 2.1751475555	-0.6719022576	 0.095744
H	 1.3904375312	 4.5538705962	-0.8480293539	 0.126222
H	 0.9215189849	 4.0399617651	 0.7693309216	 0.132083
H	 4.0369345371	 2.2369812017	-1.8407759589	 0.149717
H	 4.2755108405	 1.1444957704	-0.5041946175	 0.143457
34.8144	69.8139	116.1343	165.286	217.1998	288.2618	345.5207	421.6118	468.524	531.0252	544.4525	601.6941	711.2549	782.9225	809.335	835.1829	911.4155	960.7279	967.5082	986.5056	1033.537	1072.6102	1098.1306	1122.9482	1185.3577	1203.1533	1238.7996	1258.6696	1277.284	1315.5022	1354.7346	1384.3212	1408.2334	1428.806	1453.6539	1480.1074	1499.5339	1506.0176	1507.7807	1759.5204	1842.7076	2994.6107	3010.3941	3016.196	3038.9883	3055.9939	3066.0521	3074.1976	3110.8849	3112.0114	3165.9015
CCC1=CCOC(=O)C1	CCC1=CCOC(=O)C1	
InChI=1S/C7H10O2/c1-2-6-3-4-9-7(8)5-6/h3H,2,4-5H2,1H3	InChI=1S/C7H10O2/c1-2-6-3-4-9-7(8)5-6/h3H,2,4-5H2,1H3
