19
gdb 4829	3.5194881	1.2720909	1.1104263	2.6323	74.09	-0.23148	0.05825	0.28973	1127.6142	0.155472	-422.464088	-422.455735	-422.454791	-422.496828	32.225	
C	 2.412332659	-3.0402054595	 0.81816471	-0.478915
C	 2.4242920907	-1.6206598018	 0.2541059581	 0.277047
C	 1.064026755	-0.9397869039	 0.407085993	-0.128679
O	 0.0363493239	-1.5691888741	-0.3486938461	-0.421231
C	 3.65673876	-0.7399307177	 0.6010966146	-0.144586
C	 4.549716349	-1.4441613332	-0.4714463663	 0.075862
O	 4.9903680929	-0.2063726779	-1.0990977799	-0.332948
C	 3.5915607774	 0.0244263084	-0.7609401774	 0.077125
C	 3.126716126	-1.4240967174	-1.1165054296	-0.117101
H	 2.1406970138	-3.0409034986	 1.8807892046	 0.115402
H	 1.6894922495	-3.669675226	 0.2865382984	 0.114092
H	 3.3878100368	-3.5261854025	 0.7263283091	 0.121736
H	 0.79396603	-0.884619932	 1.4744694473	 0.085277
H	 1.1095434058	 0.088696233	 0.0347954578	 0.10808
H	-0.1856597771	-2.3998414901	 0.0816871363	 0.28576
H	 3.9853796966	-0.3388743695	 1.560993827	 0.079019
H	 5.267541208	-2.2563749861	-0.3668743672	 0.097405
H	 3.1530458095	 0.9891700382	-1.0105231573	 0.100887
H	 2.8477891734	-1.7975844293	-2.1014606624	 0.085768
82.0899	183.499	207.9287	217.9754	266.5751	299.5741	349.4049	411.689	530.432	569.3154	668.3994	770.2647	798.7639	804.7552	823.6325	872.5663	883.6772	907.9711	945.5053	958.3142	976.462	1027.5576	1062.2545	1097.8276	1110.6724	1118.863	1146.8425	1154.5485	1161.284	1183.9334	1200.0432	1231.8784	1255.826	1332.3942	1342.4853	1383.1591	1410.4173	1424.2501	1489.3295	1500.8566	1505.3266	2971.008	3023.7995	3075.4926	3082.358	3104.3897	3107.0743	3121.605	3128.002	3140.6352	3832.3834
CC1(CO)C2C3OC2C13	C[C@@]1(CO)[C@H]2[C@@H]3O[C@H]2[C@H]13	
InChI=1S/C7H10O2/c1-7(2-8)3-5-4(7)6(3)9-5/h3-6,8H,2H2,1H3	InChI=1S/C7H10O2/c1-7(2-8)3-5-4(7)6(3)9-5/h3-6,8H,2H2,1H3/t3-,4+,5-,6+,7-
