19
gdb 1514	3.1150719	1.2978696	1.2875934	1.1748	76.26	-0.23471	0.07251	0.30722	1094.011	0.154927	-422.466031	-422.457497	-422.456553	-422.498747	33.109	
C	-0.0962548922	-0.1909447501	-0.0338401986	-0.453759
C	 1.4130876583	-0.1386213376	 0.0283647879	 0.289815
O	 1.9926058371	-1.0420140085	 0.938368656	-0.463997
C	 2.2242667747	 0.0437815641	-1.2459198315	-0.436672
C	 2.1495685492	 1.1291125953	-0.2154644712	 0.417176
C	 1.7601194496	 2.6141468096	-0.1655976568	-0.055745
C	 3.2401754145	 2.9903766253	-0.429124078	-0.219046
C	 3.1852882588	 1.8670768363	 0.6371408077	-0.045282
O	 2.0619529914	 2.5941863146	 1.2916197274	-0.320699
H	-0.5345235395	 0.1034124111	 0.9271229137	 0.118601
H	-0.486388298	 0.4875207478	-0.7982114029	 0.113963
H	-0.4327031246	-1.2062740143	-0.2665902735	 0.126415
H	 1.7991420936	-0.7183128608	 1.8258486287	 0.286061
H	 3.1468067887	-0.5232579278	-1.3155279068	 0.125703
H	 1.6865964512	 0.1608375678	-2.18190544	 0.113624
H	 0.8447260975	 3.1126534769	-0.4844359059	 0.096197
H	 3.6652587689	 2.7500466702	-1.406296927	 0.102015
H	 3.5396445831	 3.9685972949	-0.0506332645	 0.106147
H	 3.9720494978	 1.467561575	 1.2762911653	 0.099482
131.4799	140.6113	145.3959	224.3504	309.1156	333.0213	385.3203	416.0414	440.8232	533.7407	571.9807	650.4695	733.3956	782.2909	800.6318	869.6399	874.4411	908.8849	916.6928	963.5439	979.7446	1027.2303	1045.3164	1059.5322	1084.8741	1103.2594	1118.2279	1126.4395	1169.2007	1190.0315	1208.8914	1255.3085	1263.6934	1267.1272	1340.6882	1410.9152	1429.774	1476.4051	1485.0987	1488.175	1524.7422	3028.115	3066.7591	3093.0412	3112.1115	3120.0075	3123.9978	3129.0976	3149.7885	3213.8401	3789.5052
CC1(O)CC11C2CC1O2	C[C@@]1(O)C[C@]21[C@@H]1C[C@H]2O1	
InChI=1S/C7H10O2/c1-6(8)3-7(6)4-2-5(7)9-4/h4-5,8H,2-3H2,1H3	InChI=1S/C7H10O2/c1-6(8)3-7(6)4-2-5(7)9-4/h4-5,8H,2-3H2,1H3/t4-,5+,6-,7-/m1/s1
