19
gdb 5191	3.2870986	1.5164377	1.3066393	1.2161	73.77	-0.22965	0.08412	0.31377	1026.7017	0.157544	-422.510338	-422.502596	-422.501652	-422.54239	30.209	
C	 1.268263699	-0.2195529352	-0.1667335096	-0.265205
O	-0.0494451362	 0.2286102736	 0.0880225995	-0.307666
C	-0.2487021932	 0.7491259626	 1.3636751088	 0.403201
C	-0.1645397399	-0.2187301072	 2.5972314762	-0.293004
C	-1.491017219	 0.368323972	 3.0837488521	-0.106817
C	-1.4520777627	 1.8764111658	 2.9339130077	 0.114652
O	-0.1962550539	 2.5268861669	 2.8835135798	-0.269756
C	 0.4612876302	 2.073891577	 1.6978357455	-0.130325
C	-1.7264668043	 1.0515401495	 1.7304605003	-0.194322
H	 1.5924527355	-0.9717857063	 0.5663867602	 0.114633
H	 1.2607990637	-0.6757362859	-1.1589892274	 0.131212
H	 1.9950874968	 0.6048486633	-0.1643401162	 0.114038
H	-0.2870326048	-1.2537285984	 2.2680888666	 0.109198
H	 0.7055601973	-0.1344131008	 3.2570257008	 0.095311
H	-2.2098390279	-0.1243344352	 3.7287354562	 0.085821
H	-2.2222067299	 2.4676283944	 3.4140473803	 0.104362
H	 0.3376299619	 2.7947686784	 0.8748237148	 0.094906
H	 1.5266735202	 1.9619618261	 1.9227796199	 0.103659
H	-2.5713152029	 1.0906886594	 1.0568344244	 0.096101
98.4773	182.7591	204.9117	232.8112	345.6449	378.3484	428.4797	490.737	597.5788	647.7846	720.0848	757.1551	790.4276	844.622	901.2476	926.7399	953.3484	976.6431	1013.849	1020.9697	1033.2636	1068.1886	1080.3045	1108.4713	1130.2793	1153.8195	1181.755	1196.7527	1200.3487	1219.391	1238.0647	1260.8244	1281.9833	1310.5933	1373.9822	1403.9532	1479.1003	1487.7486	1493.0302	1507.1803	1514.3407	2985.9556	2991.7558	3039.5945	3044.1328	3075.6125	3106.8677	3121.4591	3171.5253	3193.8763	3211.8503
COC12CC3C(OC1)C23	CO[C@@]12C[C@H]3[C@@H](OC1)[C@@H]23	
InChI=1S/C7H10O2/c1-8-7-2-4-5(7)6(4)9-3-7/h4-6H,2-3H2,1H3	InChI=1S/C7H10O2/c1-8-7-2-4-5(7)6(4)9-3-7/h4-6H,2-3H2,1H3/t4-,5+,6-,7+/m1/s1
