19
gdb 4880	2.3175298	1.2846269	1.1236109	2.0805	77.15	-0.25006	0.03273	0.28279	1192.7169	0.154518	-422.511241	-422.501572	-422.500628	-422.545591	35.673	
C	 2.6411676735	-3.0173590011	 0.7673124302	-0.447824
C	 2.6171287698	-1.6098375261	 0.2050456938	 0.399373
C	 1.2414157585	-0.9484902522	 0.328557079	-0.103779
O	 0.3109677323	-1.6234239675	-0.4954249759	-0.423093
O	 2.988901971	-1.5937822022	-1.2108706979	-0.333078
C	 3.9733403595	-0.5652004536	-0.9944738716	-0.085467
C	 3.841513389	-0.6943302746	 0.5455269691	-0.305602
C	 3.654123665	 0.5021472774	 1.3377450133	 0.336487
C	 3.5055264785	 1.500407417	 1.9917886051	-0.458542
H	 2.5271077718	-2.9900813258	 1.8564736413	 0.122902
H	 1.8136571385	-3.596493018	 0.3494315776	 0.142895
H	 3.5831796852	-3.5158532599	 0.5240678416	 0.117831
H	 0.8722806895	-1.0091536262	 1.3572573254	 0.112484
H	 1.3169404261	 0.1162957055	 0.0643955231	 0.093591
H	 0.7204348484	-1.6570577494	-1.3700332649	 0.290502
H	 4.9453879114	-0.8308416902	-1.4213722136	 0.1148
H	 3.6552615591	 0.4080850972	-1.3853807596	 0.112869
H	 4.6554088223	-1.2948194519	 0.9623073481	 0.111994
H	 3.3725148806	 2.3805850016	 2.5710070957	 0.201656
77.8219	112.8397	128.5793	186.854	223.6396	249.2496	300.3054	342.7603	370.4037	472.4474	499.426	513.1767	583.9539	626.9445	644.2125	674.274	755.0361	870.2766	912.9942	931.029	977.0549	1009.1372	1046.1479	1074.887	1089.8045	1127.8153	1167.556	1174.1046	1198.7897	1247.6394	1282.9394	1332.4271	1365.1624	1381.3762	1406.5923	1431.2483	1477.5526	1494.5014	1499.0775	1523.7124	2234.5968	3000.2793	3030.11	3039.5303	3060.7203	3082.2477	3086.6976	3112.7422	3129.6221	3502.0568	3768.1525
CC1(CO)OCC1C#C	C[C@]1(CO)OC[C@H]1C#C	
InChI=1S/C7H10O2/c1-3-6-4-9-7(6,2)5-8/h1,6,8H,4-5H2,2H3	InChI=1S/C7H10O2/c1-3-6-4-9-7(6,2)5-8/h1,6,8H,4-5H2,2H3/t6-,7-/m1/s1
