19
gdb 4330	2.5205797	1.498037	1.1226152	2.378	76.83	-0.23099	0.0075	0.23849	1121.8684	0.157153	-422.557416	-422.548996	-422.548052	-422.589924	33.236	
O	 0.0793308295	 0.1566416939	 0.0141736153	-0.440138
C	-0.9078252425	-0.0412446775	 1.0191036349	 0.108869
C	-0.9482729342	 1.1241952323	 2.0253474569	-0.292756
C	-2.173352342	 1.0502232757	 2.9088136616	-0.064561
C	-3.3367813736	 0.5666725053	 2.4690800382	-0.155944
C	-3.5081046619	 0.0987436039	 1.0692648084	 0.394865
O	-4.6103032935	 0.6447008651	 0.3878393515	-0.467265
C	-3.195818537	-1.3188961588	 0.6819346956	-0.331359
C	-2.2434010592	-0.2018126033	 0.3008507946	-0.108436
H	 0.9358995555	 0.2207901842	 0.4490731408	 0.279811
H	-0.6928760204	-0.9633259776	 1.5835543176	 0.068908
H	-0.0373720431	 1.1195929776	 2.6371618345	 0.090914
H	-0.9361505084	 2.0683388721	 1.4624709468	 0.115523
H	-2.0821621006	 1.4016021101	 3.933251368	 0.092405
H	-4.2135971774	 0.5293974444	 3.1108974897	 0.094087
H	-4.4765508476	 1.5980654304	 0.3390226748	 0.278341
H	-2.889760516	-2.0105185188	 1.460385178	 0.112168
H	-3.8103465856	-1.7444872515	-0.1036236379	 0.121784
H	-2.2223971021	 0.0915841025	-0.7428402392	 0.102784
98.946	173.9009	259.4107	286.2854	309.6278	342.8679	393.159	411.4312	440.5874	461.5671	517.0104	548.0262	665.4476	738.3633	779.5777	848.1918	920.5471	931.2767	945.7254	984.2518	989.8854	1006.5172	1041.9619	1061.2379	1072.3482	1102.7449	1117.5589	1185.8733	1202.8555	1227.5226	1272.6942	1281.3558	1306.1705	1317.7645	1370.2277	1395.2314	1417.9358	1446.8286	1476.9643	1484.8359	1703.9109	2957.0513	3008.285	3047.0198	3127.4043	3149.3101	3171.6261	3177.4618	3222.2195	3792.002	3813.2909
OC1CC=CC2(O)CC12	O[C@H]1CC=C[C@]2(O)C[C@H]12	
InChI=1S/C7H10O2/c8-6-2-1-3-7(9)4-5(6)7/h1,3,5-6,8-9H,2,4H2	InChI=1S/C7H10O2/c8-6-2-1-3-7(9)4-5(6)7/h1,3,5-6,8-9H,2,4H2/t5-,6+,7+/m1/s1
