19
gdb 5678	1.8497392	1.2162161	0.8694411	2.3574	81.	-0.25152	0.02663	0.27815	1426.2772	0.153233	-422.512797	-422.50198	-422.501036	-422.550446	37.085	
C	 1.4979325021	 0.019767364	 0.1170658392	-0.504496
C	 0.0422459036	 0.0297504466	 0.1187895101	 0.127191
C	-1.1631853312	 0.0337500474	 0.1002795294	 0.003604
C	-2.6096001618	 0.003147354	 0.1326524515	 0.199527
C	-3.2199674463	-1.1746046395	 0.8650160102	-0.470009
O	-3.2834323339	 0.3661978775	-1.0933230164	-0.283501
C	-3.3642109351	 1.2723261493	 0.0064221192	-0.010409
C	-2.6549415472	 2.6020684858	-0.1418836137	-0.110585
O	-2.2391823716	 3.1051320433	 1.1174740312	-0.418986
H	 1.894937106	-0.036071744	 1.136521763	 0.153023
H	 1.8859887235	-0.8409227578	-0.4383202187	 0.156771
H	 1.9001788892	 0.9260247266	-0.3481192648	 0.155876
H	-2.8820222516	-1.1985036744	 1.9053715438	 0.129627
H	-4.3102256772	-1.1052872972	 0.8452280158	 0.130376
H	-2.9207340645	-2.1129762767	 0.3888473086	 0.13593
H	-4.3378925183	 1.3109264852	 0.4982925654	 0.09498
H	-1.8185507868	 2.4797414809	-0.8418634022	 0.109474
H	-3.3392999455	 3.3471056734	-0.5604427517	 0.113584
H	-1.5482270834	 2.5138497056	 1.4369743701	 0.288024
25.0399	40.8564	95.3907	118.5861	159.2148	200.795	236.0199	305.7111	336.9067	352.6524	405.3836	431.7814	489.214	539.3817	583.7358	608.6988	778.8963	863.9125	933.1385	1038.963	1046.2755	1052.373	1053.8326	1072.6338	1083.2635	1099.2906	1123.9274	1217.0931	1263.1125	1328.952	1374.1668	1408.9533	1412.8954	1420.6281	1453.9158	1475.8595	1477.2973	1480.6026	1494.5483	1500.1439	2361.4175	3026.0645	3030.3737	3044.0295	3080.066	3092.3173	3094.4147	3100.8362	3115.019	3129.7436	3799.558
CC#CC1(C)OC1CO	CC#C[C@]1(C)O[C@@H]1CO	
InChI=1S/C7H10O2/c1-3-4-7(2)6(5-8)9-7/h6,8H,5H2,1-2H3	InChI=1S/C7H10O2/c1-3-4-7(2)6(5-8)9-7/h6,8H,5H2,1-2H3/t6-,7+/m1/s1
