19
gdb 567	3.338083	1.7243642	1.7060034	2.571	72.51	-0.24515	0.08461	0.32976	895.6	0.161691	-422.586028	-422.579745	-422.5788	-422.616321	26.478	
C	 1.6223586585	-0.0932483935	-0.0637426528	-0.217742
C	 0.9549662759	 0.4350146026	-1.3715110304	-0.235454
C	 1.1007979161	 1.9642277446	-1.2534156404	-0.062491
C	 0.2261208445	 2.567691941	-0.138316919	 0.21424
O	 0.7566883332	 3.8556406709	 0.0748929186	-0.260034
C	 2.1852999734	 3.654581796	 0.0890648165	-0.099078
C	 2.3560944195	 2.2002696571	-0.3702259464	-0.085301
C	 1.843665798	 1.2124767089	 0.7030493026	 0.105645
O	 0.5211928142	 1.7428917906	 0.990351154	-0.295367
H	 0.9811798791	-0.7729773444	 0.501201868	 0.109607
H	 2.5695218085	-0.6049080843	-0.2661662548	 0.093619
H	 1.4639603805	 0.0649561821	-2.2655631992	 0.101642
H	-0.0939443181	 0.1352719186	-1.4505109443	 0.107768
H	 1.0447416284	 2.5246310396	-2.1866719915	 0.075257
H	-0.8528898959	 2.6434868734	-0.2682723588	 0.088289
H	 2.6540060675	 4.3708723544	-0.5951924112	 0.10345
H	 2.577030714	 3.8283983342	 1.0988951325	 0.105136
H	 3.3276660879	 1.9532046801	-0.7987417685	 0.076623
H	 2.4094871247	 1.1465242782	 1.634137195	 0.074191
221.4077	241.9512	338.2644	354.1552	520.5553	535.1191	646.6725	743.3361	774.1691	799.4053	842.7588	887.6887	897.7622	907.9309	934.3357	944.2565	958.5598	961.2459	983.4822	1004.3922	1036.8764	1039.1252	1087.694	1101.551	1141.8076	1171.5608	1206.3799	1225.028	1250.3302	1270.0814	1273.3498	1293.0466	1299.7206	1316.8044	1328.5409	1353.0961	1359.9018	1395.8217	1479.8631	1503.8252	1521.1186	3022.1528	3047.143	3059.4881	3061.4264	3092.7929	3101.2491	3114.0609	3115.1176	3121.0266	3138.1709
C1CC2C3OCC2C1O3	C1C[C@H]2[C@@H]3OC[C@H]2[C@H]1O3	
InChI=1S/C7H10O2/c1-2-6-5-3-8-7(9-6)4(1)5/h4-7H,1-3H2	InChI=1S/C7H10O2/c1-2-6-5-3-8-7(9-6)4(1)5/h4-7H,1-3H2/t4-,5-,6+,7-/m1/s1
