19
gdb 1053	6.2126878	0.5139037	0.480295	1.8017	82.17	-0.25004	0.01636	0.26639999999999997	2233.0704	0.153212	-422.568812	-422.557445	-422.556501	-422.609167	36.624	
C	 1.4103245921	-6.9882537446	-0.2665841757	-0.496782
C	 0.6606953388	-5.7410179859	-0.2188145053	 0.085467
C	 0.0313406105	-4.7156231219	-0.1798518761	 0.031192
C	-0.6976358428	-3.4538519385	-0.1308202088	-0.356796
C	 0.2502115343	-2.2563557146	-0.0451294143	-0.05128
O	-0.5716448923	-1.0777042181	-0.0026865464	-0.238684
C	 0.0897830373	 0.0981956444	 0.0750920951	 0.425233
C	-0.8816110555	 1.2534994969	 0.112562407	-0.478699
O	 1.2904901583	 0.1854412347	 0.1084569653	-0.346066
H	 1.1579177694	-7.6378282149	 0.5787869474	 0.148272
H	 1.2003232498	-7.5447252641	-1.1866642297	 0.148272
H	 2.4896538116	-6.8037608085	-0.2309293764	 0.149798
H	-1.3308334525	-3.3415957374	-1.0196061184	 0.135288
H	-1.3727000788	-3.4339161891	 0.7336865864	 0.135289
H	 0.8735153808	-2.3036124222	 0.8520510654	 0.131005
H	 0.9156275911	-2.2107414213	-0.9116260638	 0.130999
H	-0.3287358606	 2.1897824784	 0.1759589774	 0.148622
H	-1.5060672276	 1.248119258	-0.7853196162	 0.149446
H	-1.5495927539	 1.1546480386	 0.972894857	 0.149423
13.9087	44.0651	47.994	63.2197	63.6288	172.8644	176.6063	230.3574	277.8781	324.3004	392.0414	417.3839	509.0862	606.3693	648.4971	770.2571	785.2059	920.2938	981.0932	1050.6908	1052.7443	1064.213	1068.2326	1077.2006	1086.1078	1169.1875	1230.0955	1265.4804	1296.1306	1314.2065	1389.716	1413.3859	1415.5196	1469.6358	1476.1588	1478.3806	1479.0157	1479.3302	1514.5479	1826.9631	2377.4802	3025.6434	3027.0168	3056.7585	3056.9513	3063.3124	3087.6091	3088.1957	3113.4655	3121.3699	3169.1608	13.8852	44.0633	47.9937	63.2169	63.6285	172.8643	176.6063	230.3573	277.8777	324.3001	392.0391	417.3834	509.0855	606.369	648.4971	770.257	785.2058	920.2936	981.0932	1050.691	1052.7446	1064.213	1068.2324	1077.2005	1086.1075	1169.1873	1230.0951	1265.4802	1296.13	1314.2062	1389.7161	1413.3857	1415.52	1469.6362	1476.1591	1478.3814	1479.0165	1479.3296	1514.5473	1826.963	2377.48	3025.6435	3027.0168	3056.7585	3056.9513	3063.3123	3087.6091	3088.1957	3113.4654	3121.3698	3169.1607
CC#CCCOC(C)=O	CC#CCCOC(=O)C	
InChI=1S/C7H10O2/c1-3-4-5-6-9-7(2)8/h5-6H2,1-2H3	InChI=1S/C7H10O2/c1-3-4-5-6-9-7(2)8/h5-6H2,1-2H3
