19
gdb 2578	2.7559415	1.3127634	1.0017338	4.3469	78.19	-0.25479	-0.0032	0.25159000000000004	1220.4451	0.157254	-422.592059	-422.583318	-422.582373	-422.625822	32.368	
C	 1.3057138021	-0.200734953	-1.5520506	-0.486753
C	 0.0894073772	-0.4615307416	-0.7102623693	 0.31465
C	-0.1832922587	-1.6281949199	-0.122464523	-0.148656
C	-1.453705905	-1.8352503671	 0.6588273936	-0.288521
C	-2.7128134187	-1.7326213057	-0.2209150008	-0.302657
C	-3.0328410327	-0.4732016162	-1.035969272	 0.382207
O	-4.1077882745	-0.3737434493	-1.5647988517	-0.313373
O	-2.1328977604	 0.5169702205	-1.2497181963	-0.221217
C	-0.8926937177	 0.6713234826	-0.5271455336	-0.168485
H	 1.9028657879	 0.6255711493	-1.1454389789	 0.127938
H	 1.947300959	-1.0834331424	-1.6151721808	 0.125578
H	 1.0218555578	 0.0909518044	-2.571133376	 0.138239
H	 0.4921988883	-2.471647139	-0.2424641233	 0.091561
H	-1.4554570209	-2.8239704428	 1.127086941	 0.108985
H	-1.5199398741	-1.1125833693	 1.4832230224	 0.11641
H	-2.6883859479	-2.5332232057	-0.9703757331	 0.144488
H	-3.6120324964	-1.9165828317	 0.3749040646	 0.137591
H	-0.4894348245	 1.607171808	-0.9191311902	 0.122252
H	-1.1183669107	 0.8292723788	 0.5342810775	 0.119762
50.9515	124.9749	168.7207	197.5229	288.361	322.8308	357.4265	369.1892	486.0162	507.5037	524.8629	632.7379	673.6493	732.4514	822.9547	862.1959	908.8741	916.2923	977.5058	1028.3584	1048.2453	1060.7483	1076.6823	1112.5853	1167.9423	1208.5063	1245.5631	1269.3451	1288.6117	1345.0105	1353.2827	1378.4171	1413.184	1417.6981	1453.9472	1478.4998	1486.3958	1490.1808	1514.3403	1736.8045	1825.1117	3015.5658	3017.3404	3030.9532	3043.9113	3065.2377	3079.9969	3091.0343	3107.9644	3115.193	3157.675
CC1=CCCC(=O)OC1	CC1=CCCC(=O)OC1	
InChI=1S/C7H10O2/c1-6-3-2-4-7(8)9-5-6/h3H,2,4-5H2,1H3	InChI=1S/C7H10O2/c1-6-3-2-4-7(8)9-5-6/h3H,2,4-5H2,1H3
