19
gdb 4105	3.2237162	1.2720752	1.1162344	4.1659	74.36	-0.26769	0.0125	0.28019	1152.3967	0.158543	-422.611437	-422.603529	-422.602584	-422.64388	30.342	
C	-2.9955124073	-1.9191566261	 3.0057912651	-0.412954
C	-2.0965301431	-1.1079204243	 2.0760105206	 0.026236
C	-2.8526734122	-0.1079211387	 1.1706523074	-0.22965
C	-1.8897544095	 0.2003155261	 0.033828279	 0.115297
O	-0.7938964936	 1.0955037998	 0.4495763986	-0.264301
C	 0.1313752642	 0.0843438303	 0.3651961353	 0.452642
O	 1.2991311632	 0.1501153225	 0.5798476549	-0.330445
C	-0.8894979606	-0.9803561816	-0.0466028007	-0.228034
C	-1.2856493231	-1.9592207363	 1.0703257678	-0.231381
H	-3.5490643369	-1.2681857558	 3.6902796985	 0.11903
H	-3.727309184	-2.50289389	 2.4349473275	 0.113254
H	-2.4112917081	-2.618219758	 3.6129561856	 0.119719
H	-1.3872845566	-0.5374642518	 2.6889280962	 0.099819
H	-3.7454056736	-0.5878343866	 0.7474672781	 0.102998
H	-3.1791086268	 0.7948645535	 1.6943390378	 0.118674
H	-2.341293768	 0.5786520512	-0.8835534128	 0.095341
H	-0.6908531329	-1.4414966393	-1.0141504794	 0.106982
H	-1.9219971131	-2.7475038184	 0.6492930591	 0.103589
H	-0.4182919282	-2.4456278564	 1.5249987016	 0.123184
99.7535	145.954	211.3206	236.8557	291.1348	349.6995	422.326	481.8399	561.9425	622.3285	718.5302	790.4557	832.2725	835.1627	862.8437	866.7061	926.1373	951.4712	962.9374	1020.1686	1042.8549	1074.9865	1108.142	1116.7942	1142.674	1158.2979	1202.5577	1252.0704	1266.7553	1294.7671	1303.6097	1336.3556	1340.3564	1361.6574	1391.1556	1414.7039	1470.0036	1487.4004	1496.5113	1500.8112	1932.3192	3021.6755	3025.9999	3028.2331	3039.151	3092.0762	3096.1326	3100.8105	3101.929	3110.9009	3121.8067
CC1CC2OC(=O)C2C1	C[C@@H]1C[C@H]2OC(=O)[C@H]2C1	
InChI=1S/C7H10O2/c1-4-2-5-6(3-4)9-7(5)8/h4-6H,2-3H2,1H3	InChI=1S/C7H10O2/c1-4-2-5-6(3-4)9-7(5)8/h4-6H,2-3H2,1H3/t4-,5-,6+/m0/s1
