19
gdb 867	2.9298877	1.3908035	1.2507443	2.2279	74.05	-0.24218	-0.02577	0.21641	1074.0568	0.157988	-422.565142	-422.557145	-422.556201	-422.598298	29.717	
O	-0.7963487123	-1.0349673998	-0.4676519952	-0.248694
C	-0.2067545298	-0.0372960362	-0.1338062985	 0.145534
C	-0.4356615462	 0.7180654096	 1.1558432216	-0.113688
C	-1.1079799494	 2.0890868268	 0.8583696634	-0.24303
C	-2.6133919909	 1.7545602107	 0.7874532581	-0.227138
C	-2.8257299216	 0.6525195985	 1.8358505091	-0.05709
C	-2.7204933129	 1.0854715851	 3.3123370895	-0.084537
O	-1.3797526375	 0.5591134406	 3.425399869	-0.307979
C	-1.4293847203	 0.0181131327	 2.0837779064	 0.139013
H	 0.5608607742	 0.4204858239	-0.8011560737	 0.080527
H	 0.5378610493	 0.8593649029	 1.6414813648	 0.102446
H	-0.8990123513	 2.7674055465	 1.6902923427	 0.122943
H	-0.7310724829	 2.5643095714	-0.0525013437	 0.103017
H	-3.2443610585	 2.6319715216	 0.9605452506	 0.101832
H	-2.8643492768	 1.3643220358	-0.205066415	 0.114444
H	-3.6518817596	-0.0176974974	 1.6001420448	 0.083914
H	-2.7582552116	 2.1652734597	 3.5074615331	 0.097125
H	-3.4123242664	 0.5775864079	 3.9959015514	 0.102018
H	-1.3415331554	-1.0709198503	 2.0745621115	 0.089342
57.2724	110.2986	177.4819	191.6452	292.5094	354.5626	396.9758	566.081	600.9963	737.2206	780.5285	814.8581	857.6432	870.1812	903.2484	919.5852	935.1931	980.9481	1000.6365	1022.6292	1035.8779	1060.867	1081.2126	1124.2791	1160.6718	1173.2281	1191.4731	1210.2877	1260.9415	1278.1695	1301.9737	1315.8877	1326.1323	1350.1078	1367.5106	1376.58	1425.0503	1483.3509	1494.4557	1525.2688	1819.0797	2856.6923	3006.7282	3042.3809	3042.824	3048.5005	3058.772	3082.7965	3085.1203	3103.2438	3116.4707
O=CC1CCC2COC12	O=C[C@H]1CC[C@@H]2CO[C@H]12	
InChI=1S/C7H10O2/c8-3-5-1-2-6-4-9-7(5)6/h3,5-7H,1-2,4H2	InChI=1S/C7H10O2/c8-3-5-1-2-6-4-9-7(5)6/h3,5-7H,1-2,4H2/t5-,6-,7-/m1/s1
