19
gdb 4682	2.6839919	1.0061885	0.8325197	1.0528	78.56	-0.25125	-0.04424	0.20700999999999997	1426.52	0.154649	-422.577651	-422.567747	-422.566803	-422.613767	34.179	
C	 1.4901060716	-0.8561838579	-0.3108472294	-0.387235
C	 0.666003668	 0.410967778	-0.0165611184	-0.279929
C	 1.5253269338	 1.6635765264	-0.0423923295	 0.378748
O	 1.8225093532	 2.2666346503	 0.9678167652	-0.331195
C	 2.0022309962	 2.1218648236	-1.3871601583	-0.108134
C	 2.158351977	 3.5976120379	-1.6094269672	-0.274163
C	 3.4004444072	 2.7599300698	-1.4420747165	-0.102024
C	 4.2179747515	 2.4732481595	-2.6468875799	 0.132215
O	 3.7600098733	 2.3150769269	-3.7546689869	-0.268064
H	 2.2762704878	-0.9912448911	 0.4378627958	 0.134788
H	 0.8473303797	-1.7403517116	-0.2902426665	 0.128535
H	 1.9645441202	-0.8113890574	-1.29586757	 0.130435
H	-0.1308296909	 0.5099427263	-0.7644489628	 0.11601
H	 0.2052144013	 0.3469501141	 0.9721746694	 0.123232
H	 1.7421946519	 1.5255337677	-2.2540725732	 0.114174
H	 1.9577032197	 3.9670971431	-2.6081344519	 0.142967
H	 1.8974996064	 4.2418652663	-0.7781831478	 0.14523
H	 3.9164069882	 2.8313966635	-0.4915649201	 0.119085
H	 5.313354874	 2.4122518346	-2.468226332	 0.085325
47.3862	61.81	90.2839	148.3631	178.7563	220.9764	235.6998	249.0746	344.6685	398.3483	569.4104	692.4737	720.8447	771.1273	804.1442	824.0587	845.7273	918.101	944.0542	992.3903	1027.1273	1053.2544	1069.4687	1082.5558	1100.78	1130.809	1141.3794	1192.2828	1220.7835	1276.8364	1329.3949	1337.8597	1409.4915	1415.0216	1429.3729	1453.5483	1475.8398	1500.4912	1506.4911	1785.7776	1807.386	2898.3758	3033.5163	3043.6504	3100.3996	3118.396	3121.6729	3144.9959	3185.8156	3189.6308	3248.839
CCC(=O)C1CC1C=O	CCC(=O)[C@H]1C[C@@H]1C=O	
InChI=1S/C7H10O2/c1-2-7(9)6-3-5(6)4-8/h4-6H,2-3H2,1H3	InChI=1S/C7H10O2/c1-2-7(9)6-3-5(6)4-8/h4-6H,2-3H2,1H3/t5-,6+/m1/s1
