19
gdb 2279	2.5575609	1.9583688	1.4989367	1.8615	74.32	-0.24095	0.00884	0.24979	952.8841	0.15869	-422.579458	-422.572004	-422.57106	-422.610815	30.035	
C	 0.0845450402	 0.3335532684	 0.011146956	-0.467287
C	 1.5765815916	 0.0732318415	 0.1079043591	 0.338618
C	 2.4633186295	 1.2309059801	-0.4574318465	-0.127405
O	 3.4271096685	 0.5821530657	-1.2879137726	-0.261697
C	 3.3044533491	-0.7991163992	-0.9632291919	 0.130091
O	 1.9214207321	-1.0006589902	-0.784791705	-0.27158
C	 4.0473690547	-1.1090213606	 0.3237651684	-0.056786
C	 3.4374928145	-0.8831292383	 1.4853957455	-0.08003
C	 2.030802201	-0.3343976661	 1.5239451355	-0.28739
H	-0.2006359301	 1.1768326352	 0.6485881914	 0.118473
H	-0.1942163916	 0.5651983236	-1.0203225191	 0.12902
H	-0.4812953279	-0.5451424053	 0.3336964408	 0.127744
H	 1.8865416103	 1.9231510234	-1.0789479637	 0.10637
H	 2.9537098604	 1.7968438836	 0.3437697462	 0.100537
H	 3.6464994112	-1.3870992564	-1.8175434944	 0.090091
H	 5.0675200451	-1.472333761	 0.2594655845	 0.095824
H	 3.9297584947	-1.0893413635	 2.4320491376	 0.096056
H	 1.3417791482	-1.084560855	 1.9367457583	 0.111885
H	 1.9779044086	 0.5320633442	 2.1962852199	 0.107465
149.3893	219.402	267.3342	292.4358	328.8136	389.1106	487.5577	494.1677	535.0738	617.6196	704.3224	732.3874	821.3857	864.9696	876.2117	898.6971	940.2092	953.8488	961.1118	986.2378	987.932	1018.7986	1027.3601	1093.8106	1133.9122	1190.8991	1194.1939	1210.	1256.1644	1262.7875	1316.6907	1355.8759	1365.2908	1386.1889	1401.6856	1411.9213	1466.1089	1484.4576	1497.0488	1518.1969	1709.6963	3009.3777	3025.0994	3040.7651	3043.4765	3075.1494	3100.3489	3112.644	3122.3513	3158.6107	3191.9056
CC12COC(O1)C=CC2	C[C@]12CO[C@H](O1)C=CC2	
InChI=1S/C7H10O2/c1-7-4-2-3-6(9-7)8-5-7/h2-3,6H,4-5H2,1H3	InChI=1S/C7H10O2/c1-7-4-2-3-6(9-7)8-5-7/h2-3,6H,4-5H2,1H3/t6-,7+/m1/s1
