19
gdb 4094	2.3736962	1.8089724	1.4961761	1.8536	74.48	-0.23238	0.02403	0.25641	968.491	0.158828	-422.575969	-422.568168	-422.567223	-422.60762	31.448	
O	-1.9336361013	-2.6230474868	 2.8594943271	-0.444119
C	-1.0243755995	-1.7955629074	 2.1506039994	 0.149863
C	-0.4298893053	-0.6094817193	 2.9738250435	-0.241546
C	-0.9171936179	 0.6476972456	 2.1827707266	-0.11215
C	-2.4240749603	 0.711502373	 2.3195345644	-0.085368
C	-2.9381836561	-0.3125124292	 1.6284150697	-0.060424
C	-1.7862528372	-1.0715819909	 0.9991864067	-0.101669
C	-0.8276296561	 0.1069629601	 0.7229791149	 0.13646
O	 0.4438148764	-0.3503291027	 0.3082873982	-0.444947
H	-1.4348445583	-3.1027448198	 3.5273803162	 0.279373
H	-0.2155946687	-2.397834406	 1.7206738652	 0.079328
H	-0.8050266059	-0.6155553014	 3.9999546328	 0.093307
H	 0.661884688	-0.65449999	 2.9938670628	 0.093901
H	-0.3705682418	 1.5671541405	 2.4030515138	 0.049853
H	-2.9586807021	 1.4191867093	 2.94106215	 0.09179
H	-3.9744636769	-0.6175711773	 1.5740856884	 0.099336
H	-2.0266304038	-1.7182138126	 0.1556626727	 0.065767
H	-1.2558065524	 0.8140919964	 0.0013810272	 0.067544
H	 1.0057114292	 0.4165032885	 0.1608106003	 0.283702
148.1146	239.3947	255.2014	272.0553	291.7446	334.6438	406.4095	486.2905	522.7164	572.8961	676.548	739.8539	753.4742	819.6998	843.0703	850.7358	899.0621	944.8194	960.5815	976.4827	992.5451	1014.5603	1036.8229	1086.84	1106.351	1123.8958	1165.6981	1179.7968	1190.4856	1220.3428	1245.0043	1284.1434	1290.669	1314.8681	1317.6479	1347.8804	1367.377	1411.3985	1427.9432	1471.2545	1643.5549	3027.7241	3028.7583	3061.5633	3088.9943	3114.362	3120.6102	3198.7536	3228.8069	3823.0119	3825.0945
OC1CC2C=CC1C2O	O[C@@H]1C[C@@H]2C=C[C@H]1[C@@H]2O	
InChI=1S/C7H10O2/c8-6-3-4-1-2-5(6)7(4)9/h1-2,4-9H,3H2	InChI=1S/C7H10O2/c8-6-3-4-1-2-5(6)7(4)9/h1-2,4-9H,3H2/t4-,5+,6+,7+/m0/s1
