19
gdb 5865	4.2113211	0.5454653	0.5076945	2.6401	84.24	-0.24581	-0.0287	0.21711	2173.7556	0.152687	-422.516465	-422.505286	-422.504342	-422.55578	36.609	
C	 5.6026103203	-1.2383359811	 4.1287923635	-0.219953
O	 4.6693330462	-0.805871856	 3.1655639264	-0.228333
C	 3.70104252	-1.7972011476	 2.8841910181	-0.200373
C	 2.7581558841	-1.3100041822	 1.8861350783	-0.019822
C	 1.95608514	-0.924113971	 1.07514806	 0.150724
C	 1.0247289635	-0.4653948375	 0.0508519658	-0.219051
C	 1.1227686063	 1.0634206265	-0.1724485957	-0.39712
C	 1.327316724	-1.1750354618	-1.2727908863	 0.17193
O	 0.4973753398	-1.7060780443	-1.9590494514	-0.241994
H	 6.1567954633	-2.1288885675	 3.7916766492	 0.106342
H	 6.3087252437	-0.4198268652	 4.283750953	 0.132708
H	 5.1189195799	-1.4790836099	 5.0889627528	 0.106292
H	 4.1879444166	-2.7183015013	 2.517930724	 0.116986
H	 3.1568559452	-2.0771760762	 3.8034863503	 0.117513
H	-0.004163216	-0.7271038189	 0.3218491931	 0.124754
H	 0.9338789381	 1.5909215373	 0.7651473049	 0.141104
H	 2.1215033532	 1.3412780358	-0.5217406224	 0.135933
H	 0.3868053586	 1.3832110592	-0.9151563797	 0.133469
H	 2.4008940232	-1.1393754583	-1.5643920739	 0.088892
13.7656	47.8072	70.7193	78.6498	125.8254	192.921	223.34	230.7705	282.6677	315.7591	353.6516	419.1073	453.0556	505.4475	592.6714	801.2589	888.2498	932.1942	977.6309	1026.1014	1049.4498	1084.5528	1123.461	1144.9141	1182.4322	1184.6196	1219.8804	1254.2845	1269.1291	1324.2664	1398.5743	1411.015	1416.8276	1477.0467	1484.5421	1491.7858	1494.7373	1497.1662	1515.9939	1839.6442	2367.1131	2886.5091	2943.7615	2961.2161	2969.8301	3013.0008	3046.152	3052.9462	3122.4962	3123.403	3132.7333
COCC#CC(C)C=O	COCC#C[C@@H](C)C=O	
InChI=1S/C7H10O2/c1-7(6-8)4-3-5-9-2/h6-7H,5H2,1-2H3	InChI=1S/C7H10O2/c1-7(6-8)4-3-5-9-2/h6-7H,5H2,1-2H3/t7-/m1/s1
