19
gdb 4303	2.3490853	1.4141117	1.1087204	1.4959	78.16	-0.23267	-0.01989	0.21278	1178.0481	0.156286	-422.595794	-422.586721	-422.585777	-422.629634	33.676	
C	 1.2564060223	 0.8905124829	 0.3878606022	-0.473974
C	-0.0433575678	 0.1378630507	 0.316547636	 0.316532
C	-0.1069191863	-1.1749223907	 0.0865784091	-0.139776
C	-1.3798763922	-1.9766853729	 0.010604363	-0.272602
C	-2.5863360104	-1.2408334995	 0.5981246248	 0.016539
O	-2.4709988103	-1.3040912519	 2.0210833536	-0.4322
C	-2.5677561932	 0.2272712837	 0.1657997767	 0.357227
O	-3.4990082258	 0.7480854611	-0.4021057104	-0.31786
C	-1.2930750053	 0.9675673539	 0.5321386162	-0.383746
H	 1.3727567256	 1.3857371133	 1.3607915227	 0.124715
H	 2.1137646133	 0.2291995042	 0.2381551939	 0.122661
H	 1.2982506189	 1.6829235692	-0.3704713341	 0.125213
H	 0.8170749239	-1.7280555819	-0.0664241525	 0.081726
H	-1.5976007786	-2.2456839564	-1.0324989613	 0.119673
H	-1.2703583087	-2.92319306	 0.5540652304	 0.121301
H	-3.5250583139	-1.6926095744	 0.2542632325	 0.083174
H	-3.2769068802	-0.9347080077	 2.3977594081	 0.292278
H	-1.2631043408	 1.9014212274	-0.0394095614	 0.123944
H	-1.3588692005	 1.2527879789	 1.5929794606	 0.135174
74.8613	85.8954	183.8318	224.3962	257.7801	310.6885	333.3916	358.0103	419.5163	466.3076	494.0836	525.6815	622.6891	680.9237	796.2268	832.6291	897.8727	913.3936	942.5888	962.9116	1017.6624	1061.7648	1068.1626	1087.8081	1155.8876	1176.904	1209.8961	1220.17	1256.9764	1309.1361	1338.9647	1367.4946	1376.7487	1407.047	1415.1452	1439.6962	1464.1407	1478.4333	1491.2134	1746.803	1821.1943	3003.6071	3010.9797	3015.1283	3034.0009	3052.5672	3060.6596	3072.2048	3112.9	3150.3693	3810.7982
CC1=CCC(O)C(=O)C1	CC1=CC[C@@H](O)C(=O)C1	
InChI=1S/C7H10O2/c1-5-2-3-6(8)7(9)4-5/h2,6,8H,3-4H2,1H3	InChI=1S/C7H10O2/c1-5-2-3-6(8)7(9)4-5/h2,6,8H,3-4H2,1H3/t6-/m1/s1
