19
gdb 4713	2.2453146	1.3253494	1.0458036	1.8871	78.06	-0.24637	0.03349	0.27986	1241.3157	0.153212	-422.492083	-422.481964	-422.481019	-422.527056	36.884	
C	 1.4472757758	 0.0198275914	-0.1308200221	-0.238045
O	 0.0425439964	 0.1320882509	-0.0157921808	-0.251208
C	-0.4101034589	 0.7468682312	 1.1865204388	-0.154263
C	 0.0490372034	 2.1374387247	 1.3054834588	 0.363506
C	 0.4369835503	 3.269850563	 1.4125831701	-0.471591
C	-1.9268699835	 0.6453696034	 1.1372398935	 0.451962
O	-2.4780593246	 1.2366459703	 0.0005421065	-0.473189
C	-2.7291713014	 0.7656556818	 2.3885896166	-0.311826
C	-2.5920131459	-0.5842397698	 1.7063427481	-0.336263
H	 1.8678125844	-0.5843071974	 0.687369869	 0.107146
H	 1.6474418452	-0.4814522278	-1.0802938398	 0.129998
H	 1.9354784076	 1.0026247146	-0.1285985299	 0.125979
H	-0.0399247624	 0.178256884	 2.0554792179	 0.091273
H	 0.7652260597	 4.2757525018	 1.5060477229	 0.200072
H	-1.9950797272	 0.8693950113	-0.7507221419	 0.289883
H	-2.2110022688	 0.9333253676	 3.3265338315	 0.117005
H	-3.6781350566	 1.2805539618	 2.2948997318	 0.128664
H	-1.9806778305	-1.3461756255	 2.1780003675	 0.110587
H	-3.4532501129	-0.9560748075	 1.1638570115	 0.120313
67.6256	99.4207	128.8439	169.5953	177.6033	241.1659	308.1189	319.0482	344.2619	390.4834	426.7886	505.1846	543.2737	594.598	632.0689	674.2137	765.3371	837.2593	880.6123	905.491	953.4781	975.1066	994.7492	1022.2653	1050.1218	1076.8427	1132.9892	1184.1874	1186.3454	1208.1492	1234.7151	1316.313	1323.4294	1342.698	1424.2146	1452.2879	1478.4258	1484.7162	1508.7955	1511.2459	2231.7588	2968.5452	2989.396	3055.3447	3123.4399	3133.7079	3139.1624	3220.9328	3234.4099	3501.0682	3778.9933
COC(C#C)C1(O)CC1	CO[C@@H](C#C)C1(O)CC1	
InChI=1S/C7H10O2/c1-3-6(9-2)7(8)4-5-7/h1,6,8H,4-5H2,2H3	InChI=1S/C7H10O2/c1-3-6(9-2)7(8)4-5-7/h1,6,8H,4-5H2,2H3/t6-/m0/s1
