19
gdb 6087	10.3229921	0.4072305	0.395635	4.039	86.24	-0.26742	-0.06164	0.20578	2674.3428	0.153064	-422.5139	-422.502854	-422.50191	-422.552311	35.861	
C	 0.9336964392	-0.7720986744	-0.676057595	-0.384441
C	 1.0285059156	 0.2360037936	 0.4718609077	-0.186039
C	 1.7536457048	 1.5097290677	 0.0629546803	-0.023141
O	 1.7963977268	 2.3831552361	 1.1784898034	-0.245242
C	 2.4535865173	 3.5949741471	 0.8903228419	-0.211479
C	 2.4710153622	 4.4545601699	 2.0635190799	 0.048168
C	 2.50659985	 5.1974754762	 3.0145335977	 0.086879
C	 2.5239449911	 6.0482235415	 4.1754942173	 0.020773
O	 3.0239673715	 7.1491588588	 4.2114426709	-0.229581
H	 0.4094232605	-1.6776794467	-0.3586730392	 0.121723
H	 0.38885394	-0.3554707818	-1.5303569974	 0.118354
H	 1.9268370549	-1.0703498103	-1.029577683	 0.118354
H	 0.0276400398	 0.5052962356	 0.8273416759	 0.112028
H	 1.5560422971	-0.2050724165	 1.3249580676	 0.112027
H	 2.7776098644	 1.2788120425	-0.2786219715	 0.088806
H	 1.2344110158	 1.9960724736	-0.7810619962	 0.088808
H	 3.4930571052	 3.4155786465	 0.56216029	 0.130313
H	 1.9562771418	 4.1299729825	 0.0615678959	 0.130311
H	 2.028960602	 5.6056874381	 5.063703564	 0.103377
35.2799	53.5115	57.6823	95.5723	139.0056	147.0274	189.1651	203.4798	228.4456	366.9577	378.0206	399.2547	532.8006	628.0796	764.898	840.6201	900.4854	917.0672	1010.3193	1012.0349	1021.6209	1054.7423	1135.9499	1149.6687	1168.3859	1190.7888	1249.9766	1268.211	1315.4098	1330.5334	1385.2875	1413.5531	1420.7127	1446.5512	1483.9218	1492.4701	1499.865	1507.1784	1527.6238	1768.6308	2333.5041	2921.4055	2942.2797	2951.7504	2961.6714	2975.8546	3032.9773	3042.9449	3075.6467	3102.1861	3111.5942
CCCOCC#CC=O	CCCOCC#CC=O	
InChI=1S/C7H10O2/c1-2-6-9-7-4-3-5-8/h5H,2,6-7H2,1H3	InChI=1S/C7H10O2/c1-2-6-9-7-4-3-5-8/h5H,2,6-7H2,1H3
