19
gdb 1591	2.2627663	1.5611762	1.1677914	1.0407	76.69	-0.24607	0.02762	0.27369	1120.3358	0.154902	-422.53331	-422.5238	-422.522856	-422.567719	35.328	
C	-1.4906213137	 1.7778213385	 2.4226892352	-0.441655
C	-1.022277408	 1.5045350764	 0.9941475347	 0.368082
O	 0.1596926799	 2.2235928879	 0.6884164212	-0.475798
C	-2.1008025447	 1.8500493389	-0.0521733425	-0.284525
C	-2.8485754233	 0.5172182319	-0.2891843506	-0.077035
O	-2.186729274	-0.4835839157	 0.4943038705	-0.261127
C	-0.8610463549	-0.0236872609	 0.7079366633	-0.084241
C	-0.2011110303	-0.7923417921	 1.7515751957	 0.285779
C	 0.3962349153	-1.3877180466	 2.6079607493	-0.427723
H	-2.4001076344	 1.2133087622	 2.6470515802	 0.133668
H	-0.7282063563	 1.4775212436	 3.1486999219	 0.119189
H	-1.6946471812	 2.8449168223	 2.5472672959	 0.119949
H	 0.8042779059	 2.0354971479	 1.3799865799	 0.281879
H	-2.7623979243	 2.64722771	 0.2931134281	 0.110201
H	-1.6003440066	 2.1965007318	-0.9592367577	 0.121626
H	-3.8922748295	 0.5429485291	 0.0357349615	 0.1126
H	-2.8296532558	 0.2340835697	-1.3505647436	 0.10166
H	-0.2645419911	-0.1031464548	-0.2178366365	 0.098054
H	 0.910285567	-1.9322970202	 3.3612629635	 0.199419
44.2218	108.1052	138.9038	219.571	257.0888	291.5493	324.7077	340.5995	383.8125	431.135	505.8963	555.2625	605.8248	618.6508	675.5405	686.6702	777.0515	813.7591	931.88	960.6319	972.3879	998.8968	1014.8393	1040.9914	1106.3796	1115.9557	1175.9209	1189.061	1238.4211	1257.4161	1293.8411	1325.3903	1354.4212	1377.4496	1403.4711	1409.8112	1484.9676	1496.4972	1499.445	1527.1352	2238.2065	2949.6025	3007.3919	3039.4908	3073.7881	3081.5845	3110.5585	3123.0494	3123.5606	3501.9023	3798.8968
CC1(O)CCOC1C#C	C[C@]1(O)CCO[C@@H]1C#C	
InChI=1S/C7H10O2/c1-3-6-7(2,8)4-5-9-6/h1,6,8H,4-5H2,2H3	InChI=1S/C7H10O2/c1-3-6-7(2,8)4-5-9-6/h1,6,8H,4-5H2,2H3/t6-,7+/m1/s1
