19
gdb 4675	2.9301278	1.2496577	1.0547342	2.5635	75.96	-0.23617	-0.01882	0.21735	1205.9714	0.155549	-422.500618	-422.491802	-422.490858	-422.535771	31.986	
C	 0.2132596648	-0.4257105733	-0.1807277119	-0.3905
C	 0.7251105211	 0.9094426455	 0.3941042735	-0.278002
C	 2.2234185573	 1.0501735879	 0.1974424227	 0.352702
O	 3.0113266362	 0.8211304927	 1.0892215684	-0.31547
C	 2.7846702963	 1.4515634179	-1.1624687196	-0.071321
C	 1.9029182911	 1.8650447686	-2.374068149	 0.02092
C	 3.0927567753	 2.6656254459	-2.9554855703	-0.224868
C	 2.9517697517	 2.9766562085	-1.4484276467	 0.054183
O	 1.4856762514	 3.088482424	-1.6410023048	-0.311063
H	 0.6998261427	-1.2738272697	 0.310315506	 0.133262
H	-0.8652763092	-0.5164918671	-0.0251442163	 0.126434
H	 0.4008095469	-0.5067591157	-1.256204023	 0.118394
H	 0.2204560283	 1.7493870946	-0.0893955958	 0.135807
H	 0.5346002296	 0.9458871745	 1.4700732577	 0.115387
H	 3.6690171867	 0.8469458304	-1.3797824405	 0.099205
H	 1.1262171818	 1.304815538	-2.8944136359	 0.102582
H	 3.9749230213	 2.1171905077	-3.2929376669	 0.104863
H	 2.8102132288	 3.4839563385	-3.6180381318	 0.115867
H	 3.4424463179	 3.7315009513	-0.8349472559	 0.111617
18.1564	74.1178	153.3637	188.9748	220.5951	249.8936	370.2497	431.3477	548.7582	624.3688	688.2148	762.1614	778.8609	797.857	836.141	878.008	885.8019	917.7219	954.378	987.82	1026.8375	1036.1505	1056.5139	1096.6651	1115.0458	1127.6866	1140.76	1187.4184	1206.3567	1230.9222	1249.0547	1279.3326	1291.6646	1330.8657	1356.8636	1405.4731	1484.4682	1488.2155	1497.4801	1507.0023	1792.6506	3040.1332	3064.4143	3070.1937	3084.8828	3102.5645	3115.2652	3120.9346	3129.4969	3131.7394	3155.9332
CCC(=O)C1C2CC1O2	CCC(=O)[C@H]1[C@@H]2C[C@H]1O2	
InChI=1S/C7H10O2/c1-2-4(8)7-5-3-6(7)9-5/h5-7H,2-3H2,1H3	InChI=1S/C7H10O2/c1-2-4(8)7-5-3-6(7)9-5/h5-7H,2-3H2,1H3/t5-,6+,7-
