19
gdb 3088	3.4836466	1.5579716	1.4974664	1.6318	73.16	-0.2519	0.06489	0.31679	952.4329	0.160604	-422.505197	-422.498729	-422.497785	-422.535526	28.064	
O	 0.2908561077	 0.1035500303	 0.1865409729	-0.465789
C	-0.8907329332	 0.8315773346	 0.3846446072	 0.18981
C	-0.7392583794	 2.0020325482	 1.3995062697	 0.027869
O	-0.053445661	 2.7174373052	 0.309121721	-0.317687
C	-1.0361639163	 2.0551215525	-0.566481417	 0.027869
C	-2.4196695266	 2.786049831	-0.384150334	-0.054105
C	-2.172101163	 3.9188080097	 0.6615255876	-0.192432
C	-2.1090860716	 2.7305167767	 1.6723975606	-0.054105
C	-3.2032385688	 2.0840485432	 0.7677057558	-0.226711
H	 0.9938769438	 0.7606874305	 0.0981116239	 0.285788
H	-1.6859380518	 0.0972516317	 0.4849072158	 0.083839
H	-0.1016948647	 1.8776815188	 2.2772843283	 0.081311
H	-0.687036398	 1.9823465876	-1.5985951589	 0.081311
H	-2.9162298191	 3.0023335724	-1.331372319	 0.064241
H	-1.3010270306	 4.5579486505	 0.5472331543	 0.116386
H	-3.0747032114	 4.5137282591	 0.8139027647	 0.092483
H	-2.3022693813	 2.8925565225	 2.7340018481	 0.064241
H	-3.3515685498	 1.004946289	 0.7609682293	 0.099492
H	-4.1727668449	 2.5623476564	 0.9270407698	 0.09619
260.9553	270.553	320.2399	454.7715	502.7059	543.2315	544.163	546.6801	611.6303	800.7873	827.606	832.6777	855.0823	856.0944	880.6495	896.1629	896.2384	935.0253	935.471	1000.0972	1017.1151	1049.1682	1058.7872	1093.4554	1102.5234	1105.4323	1153.5217	1186.7404	1209.0584	1233.9459	1236.7795	1242.9686	1255.2614	1298.8434	1312.7315	1313.2972	1317.6007	1345.2852	1453.6401	1489.9529	1542.5906	3071.377	3082.2524	3088.394	3091.5527	3101.1177	3106.4712	3119.9436	3152.5436	3170.5755	3767.8843
OC1C2OC1C1CC2C1	O[C@H]1[C@H]2O[C@@H]1[C@@H]1C[C@H]2C1	
InChI=1S/C7H10O2/c8-5-6-3-1-4(2-3)7(5)9-6/h3-8H,1-2H2	InChI=1S/C7H10O2/c8-5-6-3-1-4(2-3)7(5)9-6/h3-8H,1-2H2/t3-,4+,5-,6-,7+
