19
gdb 6000	3.2507971	0.988175	0.7723084	2.4098	80.29	-0.23712	-0.03772	0.1994	1481.0663	0.156126	-422.580238	-422.570889	-422.569945	-422.615437	32.664	
C	 1.5908700104	 0.4855123933	-0.1002530987	-0.22435
O	 0.2065525438	 0.7386525358	-0.0527838179	-0.238111
C	-0.4290955363	 0.0916941874	 1.0239433365	-0.156807
C	-1.8880688837	 0.4022636464	 1.0133532856	 0.168453
C	-2.5771239381	 1.1655114512	 0.1556143625	-0.141908
C	-4.0499155415	 1.2419258175	 0.4736599339	-0.268125
C	-4.2105875455	 0.3660892941	 1.7319627186	-0.329165
C	-2.7995314269	-0.1529918757	 2.0425174902	 0.327264
O	-2.4847503879	-0.8794855597	 2.9591735649	-0.336622
H	 1.8054934405	-0.5879996269	-0.2205096909	 0.107959
H	 1.9918999803	 1.0252034112	-0.9613468309	 0.128001
H	 2.1013677224	 0.8367316645	 0.8102355844	 0.107964
H	-0.2849549823	-1.0020207034	 0.9726547958	 0.110869
H	 0.0068814653	 0.4035428482	 1.9894963887	 0.110906
H	-2.1355269077	 1.6833940896	-0.6875816992	 0.124119
H	-4.3608687384	 2.2803844531	 0.641251131	 0.120717
H	-4.6518000411	 0.8816031079	-0.3695930992	 0.120698
H	-4.5909403899	 0.9193998163	 2.595616186	 0.134113
H	-4.8836097535	-0.4831758408	 1.5819845389	 0.134025
60.1653	78.9374	101.4146	124.2087	220.7265	233.5691	297.4731	342.3942	350.0084	541.7496	596.8112	627.8286	726.5086	811.5348	818.96	879.569	922.6121	980.3697	1026.5754	1027.5466	1046.9878	1052.1129	1151.9745	1164.5032	1184.9653	1210.1123	1229.3469	1230.0928	1247.3933	1271.7995	1316.4225	1331.3094	1428.5745	1451.785	1480.5484	1484.8977	1485.1015	1496.0708	1517.4151	1703.246	1802.0382	2949.4514	2965.0426	2974.0436	3018.1169	3029.9639	3053.7382	3066.3347	3106.0406	3116.5591	3211.8984
COCC1=CCCC1=O	COCC1=CCCC1=O	
InChI=1S/C7H10O2/c1-9-5-6-3-2-4-7(6)8/h3H,2,4-5H2,1H3	InChI=1S/C7H10O2/c1-9-5-6-3-2-4-7(6)8/h3H,2,4-5H2,1H3
