19
gdb 4254	2.8375931	1.6208763	1.1949277	1.6792	74.53	-0.2424	0.05111	0.29351	1051.4555	0.157455	-422.499157	-422.491299	-422.490355	-422.531463	30.546	
O	 0.7573684515	 0.0325809267	 0.9368612502	-0.428906
C	-0.5989053297	 0.4343058704	 0.8761586568	 0.016658
C	-1.4319261281	 0.1605516318	 2.1723465586	-0.268473
C	-1.447305473	 1.6861212194	 2.518325824	-0.088946
C	-2.7411527726	 2.4606798929	 2.1456725476	-0.252302
C	-2.1733233672	 2.6603529872	 0.7208500507	 0.071936
O	-1.4367020665	 3.8948868124	 0.5567364821	-0.295932
C	-0.157923547	 3.2125116104	 0.6574344548	-0.185713
C	-0.8513794877	 1.928488145	 1.0852087914	 0.296858
H	 1.1402568825	 0.3793945853	 1.7503526667	 0.279484
H	-0.9806369694	 0.0049595253	-0.0547752874	 0.087346
H	-2.420376762	-0.2744190658	 1.9991060183	 0.105395
H	-0.8990415637	-0.4715402712	 2.887866188	 0.104775
H	-0.9255729599	 1.9667688778	 3.4354790908	 0.065285
H	-3.6672977411	 1.8813390172	 2.2150323912	 0.09757
H	-2.8760619593	 3.4117459939	 2.6659649468	 0.1142
H	-2.7968364309	 2.4330082498	-0.150423422	 0.072383
H	 0.3434531284	 3.1541920643	-0.3187048006	 0.107822
H	 0.5141817355	 3.6943259071	 1.3779010923	 0.100558
89.3086	146.299	220.1774	295.5522	301.9192	373.9328	396.0774	452.0299	529.3154	682.3631	747.3812	785.0014	825.8339	841.0961	866.0744	911.1278	927.3931	987.13	1000.9728	1011.6466	1023.4135	1050.8861	1100.6412	1104.6979	1132.3296	1146.1238	1168.3828	1197.6903	1223.3695	1238.3611	1257.5886	1268.263	1290.3362	1295.155	1299.0258	1325.6815	1368.8068	1431.0316	1458.2787	1470.6751	1518.5991	3001.4646	3043.6479	3050.9459	3052.8328	3055.2817	3069.0379	3081.8881	3109.9624	3115.5413	3798.0667
OC1CC2CC3OCC123	O[C@H]1C[C@@H]2C[C@H]3OC[C@@]123	
InChI=1S/C7H10O2/c8-5-1-4-2-6-7(4,5)3-9-6/h4-6,8H,1-3H2	InChI=1S/C7H10O2/c8-5-1-4-2-6-7(4,5)3-9-6/h4-6,8H,1-3H2/t4-,5+,6-,7+/m1/s1
