19
gdb 2098	2.4751191	1.8953188	1.3913186	0.9745	74.53	-0.22617	0.0713	0.29747	988.3737	0.157014	-422.531077	-422.523036	-422.522092	-422.563013	31.596	
C	-0.0451665095	 0.1166357096	 0.1832960027	-0.520968
C	 1.4538707101	 0.0421664005	 0.1103648263	 0.300656
C	 2.3651295477	-1.217466873	 0.119065364	-0.33544
C	 3.3404172817	-0.0381821904	 0.0302800819	 0.381625
O	 4.7147300439	-0.1504279223	-0.0309702704	-0.477478
C	 2.3781080766	 0.6825833696	-0.9876377975	-0.159809
C	 2.4590755042	 2.170139976	-0.6789316651	-0.126309
O	 2.5334666003	 2.1458858017	 0.7611866341	-0.289885
C	 2.4764676357	 0.7557065463	 1.0463972136	 0.017672
H	-0.4202744785	-0.3690658486	 1.0905955446	 0.122716
H	-0.3828408655	 1.158455559	 0.2008000102	 0.128445
H	-0.5121673695	-0.3755194324	-0.6767004108	 0.120734
H	 2.384748664	-1.8062825813	 1.0414027428	 0.092973
H	 2.3021285838	-1.8631165174	-0.7604069584	 0.098446
H	 5.0962281082	 0.7052167508	 0.1962265902	 0.290482
H	 2.3182284148	 0.3429711401	-2.0218540184	 0.072544
H	 3.3527228428	 2.6541760105	-1.0953349332	 0.096965
H	 1.5774513619	 2.7397294804	-0.9986909382	 0.103504
H	 2.5127437272	 0.5734360109	 2.1203852516	 0.083126
190.9223	197.1931	213.5556	229.3441	244.8633	279.3354	410.2684	456.0273	517.3209	597.7227	663.7516	697.9463	736.4313	773.8401	832.8391	913.4965	947.9167	977.4601	986.3227	1002.3436	1015.8364	1036.3009	1077.6986	1082.0131	1099.7418	1125.7477	1144.9961	1175.1973	1191.6918	1197.4324	1269.7515	1271.8176	1313.0229	1345.5242	1371.6519	1410.5315	1426.4777	1490.0426	1492.318	1524.343	1528.7934	3008.442	3028.2733	3043.6495	3047.9266	3093.524	3097.3927	3110.7941	3120.6551	3131.1029	3800.5264
CC12CC3(O)C1COC23	C[C@@]12C[C@@]3(O)[C@@H]1CO[C@@H]23	
InChI=1S/C7H10O2/c1-6-3-7(8)4(6)2-9-5(6)7/h4-5,8H,2-3H2,1H3	InChI=1S/C7H10O2/c1-6-3-7(8)4(6)2-9-5(6)7/h4-5,8H,2-3H2,1H3/t4-,5+,6-,7-/m1/s1
