19
gdb 4847	3.1394561	1.5084374	1.3156037	2.5804	75.36	-0.23139	-0.00215	0.22924	1039.0369	0.155333	-422.495633	-422.487131	-422.486187	-422.528558	32.544	
C	 1.4921733613	-0.0332041868	-0.0176994105	-0.25068
O	 0.0927153648	-0.0712175351	 0.1652989591	-0.278107
C	-0.4069840276	 0.5282283404	 1.3332076641	 0.451917
C	 0.0784657545	-0.2029659072	 2.5788239294	-0.485683
C	-1.9322478407	 0.8615806799	 1.0861683756	-0.035094
O	-1.4934996318	 1.9635911032	 0.2363220912	-0.275353
C	-0.4614154965	 2.1234013172	 1.2526900338	-0.053487
C	-1.2949681566	 2.4613935551	 2.4925941421	-0.085051
C	-2.3089854939	 1.597293332	 2.3762665811	-0.092422
H	 2.0306580295	-0.6770408543	 0.6915818979	 0.108191
H	 1.6837752771	-0.3972639714	-1.0297897256	 0.132288
H	 1.8912018573	 0.9877949235	 0.0661812715	 0.106065
H	-0.1122359013	-1.2749428112	 2.4646691164	 0.126605
H	 1.1565442811	-0.0702690954	 2.7135698266	 0.119735
H	-0.4147588312	 0.1501425142	 3.4829092953	 0.128213
H	-2.6134841382	 0.1575547922	 0.6109264513	 0.082583
H	 0.3789742651	 2.7512883146	 0.9590554522	 0.078815
H	-1.0672357609	 3.1868986333	 3.259740597	 0.109864
H	-3.1570831617	 1.4088207254	 3.0176769015	 0.111603
70.0644	156.2533	177.914	209.4601	278.017	324.8519	402.8538	411.5464	500.7865	570.8158	611.7172	634.6983	731.7596	759.2908	845.3498	854.7615	885.459	914.7172	918.0075	920.3592	953.6634	998.2682	1082.0918	1120.0441	1135.8773	1144.4725	1170.6089	1180.497	1195.3918	1226.7851	1242.4313	1259.9497	1300.8624	1308.175	1400.9441	1477.2721	1485.8473	1490.8553	1506.1854	1510.7623	1606.6667	2990.7531	3040.0717	3048.6652	3105.3344	3116.0572	3130.8048	3141.5718	3158.2428	3229.5208	3256.2422
COC1(C)C2OC1C=C2	CO[C@]1(C)[C@@H]2O[C@H]1C=C2	
InChI=1S/C7H10O2/c1-7(8-2)5-3-4-6(7)9-5/h3-6H,1-2H3	InChI=1S/C7H10O2/c1-7(8-2)5-3-4-6(7)9-5/h3-6H,1-2H3/t5-,6+,7-
