19
gdb 4143	3.07134	1.6944222	1.3788893	2.0967	74.43	-0.24059	0.07847	0.31906	980.8831	0.158818	-422.511015	-422.503911	-422.502967	-422.542037	29.575	
O	 0.2974620496	-0.0488058635	-0.0794332666	-0.439828
C	-0.7299793967	 0.4010573104	 0.7718999599	 0.065055
C	-2.1904872343	 0.0518705593	 0.2576745571	-0.267231
C	-2.6788195282	 1.4939788542	-0.0669782055	 0.052641
O	-1.4613276053	 2.0640799569	-0.6409334259	-0.357514
C	-0.947635507	 1.9117269508	 0.7497258351	 0.403721
C	-0.4128708918	 3.2569643429	 1.2251967823	-0.33898
C	-1.9151366192	 3.7222372323	 1.3006290229	-0.251991
C	-2.3763890216	 2.2214497384	 1.2490641169	-0.051711
H	 0.1522891991	 0.4099247871	-0.9176642335	 0.282217
H	-0.517474574	 0.0003630755	 1.7655186405	 0.08737
H	-2.1326773566	-0.5721142921	-0.6368521541	 0.109234
H	-2.8048272606	-0.4563253021	 1.0061827421	 0.10139
H	-3.5683799245	 1.6176632082	-0.6882627381	 0.078616
H	 0.0447818146	 3.1912005519	 2.2164652398	 0.111119
H	 0.2583052772	 3.7855282842	 0.5456203515	 0.115365
H	-2.1939163921	 4.2371945134	 2.2212635976	 0.103022
H	-2.2284338616	 4.318766195	 0.4446248361	 0.122427
H	-2.762641477	 1.8098780073	 2.1830753319	 0.075078
162.2611	248.553	278.7099	299.8661	458.087	462.4681	500.2931	506.3773	623.8385	707.1615	736.2863	761.9401	815.6988	827.8717	860.5111	898.3206	906.0932	909.969	953.1501	971.0182	1006.2777	1047.0081	1071.8596	1085.9085	1120.0733	1139.6761	1160.06	1204.5457	1213.5948	1230.2177	1246.7789	1262.6907	1275.4836	1292.9481	1307.3236	1322.0661	1343.1503	1443.6197	1462.684	1477.9961	1482.0211	3063.3717	3063.7523	3085.4732	3092.0834	3093.2887	3101.2996	3123.1159	3123.6552	3151.1342	3764.1988
OC1CC2OC11CCC21	O[C@@H]1C[C@@H]2O[C@@]31CC[C@@H]23	
InChI=1S/C7H10O2/c8-6-3-5-4-1-2-7(4,6)9-5/h4-6,8H,1-3H2	InChI=1S/C7H10O2/c8-6-3-5-4-1-2-7(4,6)9-5/h4-6,8H,1-3H2/t4-,5-,6+,7-/m0/s1
