19
gdb 4362	2.9657538	1.2811228	0.9464304	3.5614	79.86	-0.23562	-0.0533	0.18231999999999998	1244.8945	0.156968	-422.577781	-422.569133	-422.568189	-422.611314	32.295	
C	-3.464120565	 1.3977541007	 2.5324606589	-0.394345
C	-2.5761268441	 0.6427054583	 1.548960725	 0.105457
C	-2.3984301044	-0.823410624	 1.9460349723	-0.246362
C	-1.4809475443	-1.6440047383	 1.0917860846	-0.045572
C	-0.6143163856	-1.2818866851	 0.1353278262	-0.138567
C	-0.2642601693	 0.0511936503	-0.4049731471	 0.320288
O	 0.4139480613	 0.1324471815	-1.4120729537	-0.323349
C	-0.7051827204	 1.3610330205	 0.2582163635	-0.188794
O	-1.309006236	 1.2891576801	 1.5228515496	-0.248865
H	-4.449169418	 0.927787595	 2.6126404686	 0.114746
H	-3.0028328152	 1.4094091675	 3.5249160208	 0.128251
H	-3.5972022218	 2.4323797212	 2.2066597161	 0.124538
H	-3.0275449349	 0.6876546386	 0.5449945497	 0.075269
H	-2.0277751219	-0.8649282465	 2.9816501075	 0.128815
H	-3.3804592772	-1.3159662598	 1.9707819442	 0.113268
H	-1.5450548662	-2.7128814509	 1.2942714506	 0.10829
H	-0.0672505382	-2.0645695611	-0.3846364939	 0.108092
H	 0.1962344543	 1.9707164104	 0.3715099011	 0.140577
H	-1.3522024631	 1.8798011417	-0.4688973538	 0.118261
55.992	119.0088	212.918	217.422	316.1538	318.9398	353.2896	355.9947	446.3482	497.8209	549.1935	630.2776	670.4815	751.0067	819.3853	851.1386	897.3647	918.4222	989.4262	1014.9482	1038.19	1070.1394	1123.3192	1148.375	1161.7841	1216.4267	1249.9463	1292.4691	1297.9913	1338.8959	1370.2871	1400.6352	1403.7748	1411.2778	1423.5622	1447.2792	1456.1698	1485.5282	1497.0517	1695.9458	1753.3898	2971.1676	2979.2475	3001.9142	3034.7111	3042.1055	3090.4455	3114.5875	3124.2254	3128.9799	3166.4269
CC1CC=CC(=O)CO1	C[C@@H]1CC=CC(=O)CO1	
InChI=1S/C7H10O2/c1-6-3-2-4-7(8)5-9-6/h2,4,6H,3,5H2,1H3	InChI=1S/C7H10O2/c1-6-3-2-4-7(8)5-9-6/h2,4,6H,3,5H2,1H3/t6-/m1/s1
