19
gdb 3486	2.6301519	1.8137905	1.5034549	2.7053	74.9	-0.23965	0.01009	0.24974	952.8181	0.160419	-422.581232	-422.574084	-422.573139	-422.612392	29.261	
O	 0.3263725918	-0.0752145324	 0.5906458706	-0.443165
C	-0.3914240455	 0.9534945981	 1.2572005781	 0.106176
C	-1.4365375755	 0.3738806092	 2.1902519676	-0.08966
C	-2.7280628652	 0.6973639418	 2.1072957361	-0.072748
C	-3.2073826619	 1.6893208755	 1.0671613299	-0.086422
C	-3.1683713517	 1.0463802903	-0.333246379	-0.066484
O	-1.7827247203	 1.0637138378	-0.7088136636	-0.292243
C	-1.0534292634	 1.8868758342	 0.2256066611	 0.066819
C	-2.1178294616	 2.766609389	 0.879698192	-0.2498
H	-0.2742323916	-0.3848541735	-0.1018614907	 0.283993
H	 0.3605529536	 1.5123933629	 1.8307285639	 0.083555
H	-1.0790950397	-0.350978207	 2.9164686924	 0.096569
H	-3.4631797679	 0.2405903682	 2.7642200458	 0.091183
H	-4.1929184087	 2.0932051043	 1.3072161473	 0.072744
H	-3.526775444	 0.0124912874	-0.3450966782	 0.106738
H	-3.7527975977	 1.6309519589	-1.057780663	 0.096482
H	-0.2908327923	 2.4269016501	-0.341731059	 0.08247
H	-1.7903255982	 3.2089505804	 1.8226400227	 0.110648
H	-2.4425858402	 3.5633483848	 0.2031479863	 0.103144
135.2332	239.7445	269.4094	361.2636	402.0252	429.1094	486.6904	497.6539	610.0323	679.8637	720.9843	783.4593	816.7854	850.769	885.3978	898.579	943.6137	959.4877	996.7751	998.8303	1022.234	1034.6007	1068.6385	1090.5036	1113.4797	1159.9144	1177.0968	1213.5234	1227.6937	1265.3416	1307.0729	1312.8711	1332.2705	1345.4794	1360.3363	1388.7346	1404.0975	1437.1658	1487.4567	1519.8632	1700.5924	3002.3105	3017.0226	3054.0539	3076.7316	3080.8864	3093.1776	3118.6708	3155.2856	3179.0889	3747.1321
OC1C=CC2COC1C2	O[C@@H]1C=C[C@@H]2CO[C@H]1C2	
InChI=1S/C7H10O2/c8-6-2-1-5-3-7(6)9-4-5/h1-2,5-8H,3-4H2	InChI=1S/C7H10O2/c8-6-2-1-5-3-7(6)9-4-5/h1-2,5-8H,3-4H2/t5-,6+,7-/m0/s1
