19
gdb 1451	3.1747933	1.49003	1.1757428	2.5894	75.61	-0.25028	0.06963	0.31991	1070.5441	0.155646	-422.483884	-422.475613	-422.474669	-422.515954	32.886	
C	 0.2198657395	-0.4815156702	 0.2475535947	-0.482908
C	 1.4741157967	 0.3606575618	 0.4364851224	 0.477667
O	 2.4267729712	-0.3750207744	 1.1806405729	-0.483342
C	 1.346764487	 1.8968919308	 0.7797846956	-0.240542
C	 2.8206744232	 2.042852046	 0.2678830623	-0.240287
C	 2.1277827078	 1.097064106	-0.775726088	-0.212511
C	 0.9569522755	 2.0876069812	-0.6917645841	 0.553404
C	-0.2428412775	 2.3943016097	-1.4549899489	-0.326252
O	 0.8689221723	 3.3168288065	-1.3712398111	-0.304452
H	-0.2287949557	-0.7150551384	 1.2217410237	 0.107222
H	-0.5422859801	 0.0170939855	-0.3528297492	 0.128772
H	 0.4793731442	-1.4299123797	-0.2326982331	 0.129318
H	 2.003199962	-0.6684775389	 1.9938085225	 0.277526
H	 0.8913626583	 2.3518733877	 1.660268626	 0.071384
H	 3.0973650271	 3.030592325	-0.1006336684	 0.112657
H	 3.5904952061	 1.5888211519	 0.8854838793	 0.117881
H	 2.5648634371	 0.641676078	-1.6642166277	 0.079142
H	-0.39937755	 1.9492210553	-2.437121679	 0.118308
H	-1.1504910845	 2.7196666762	-0.9473898098	 0.117013
179.7379	181.5796	208.462	266.8295	292.6702	334.8048	353.6431	429.5397	462.4374	478.3728	585.7472	651.467	702.0993	740.556	800.7725	881.163	883.7095	895.2097	958.7317	989.0268	1013.6355	1046.6504	1058.3453	1093.7879	1104.4527	1112.0308	1127.7478	1147.6717	1153.9757	1175.2949	1203.343	1220.6621	1226.6642	1253.2536	1373.2752	1411.67	1455.4869	1491.5237	1493.443	1506.113	1558.8708	3026.5685	3077.6108	3092.6345	3099.0834	3110.0632	3121.8898	3140.3261	3161.0538	3187.2027	3812.1368
CC1(O)C2CC1C21CO1	C[C@]1(O)[C@H]2C[C@@H]1[C@]12CO1	
InChI=1S/C7H10O2/c1-6(8)4-2-5(6)7(4)3-9-7/h4-5,8H,2-3H2,1H3	InChI=1S/C7H10O2/c1-6(8)4-2-5(6)7(4)3-9-7/h4-5,8H,2-3H2,1H3/t4-,5+,6+,7-
