19
gdb 5044	2.3750717	1.4966442	1.1261664	2.0041	74.92	-0.2286	0.06043	0.28903	1139.8357	0.155044	-422.479283	-422.470422	-422.469478	-422.512704	33.519	
C	-3.1256506594	-0.9930411587	 0.677572032	-0.49514
C	-2.1124519569	-0.6847034668	 1.7417642298	 0.2334
C	-1.1555636643	-1.6774168949	 2.3476003331	-0.388035
C	-0.6029182334	-0.4527787621	 1.6455984538	 0.231665
C	 0.3193774848	-0.4914815816	 0.4673901458	-0.168293
O	 1.6890946742	-0.5572128226	 0.848649756	-0.414411
C	-0.7694706303	 0.8106392136	 2.5523182204	-0.032465
O	-1.3703464	 0.4450547419	 3.8029324358	-0.239822
C	-2.2071200541	 0.5932142769	 2.648172345	-0.033704
H	-2.7667993154	-1.7744898634	 0.0008851737	 0.12342
H	-4.0650786655	-1.345887826	 1.120561492	 0.125872
H	-3.3573264802	-0.1089882228	 0.0719272491	 0.120143
H	-1.0702619471	-1.781099144	 3.422063221	 0.136061
H	-1.0553445819	-2.6006788922	 1.7825405069	 0.107099
H	 0.043206452	-1.3298555129	-0.19225006	 0.086344
H	 0.2319705865	 0.4264693016	-0.1260516752	 0.107761
H	 1.7785162605	-1.2981666948	 1.4576504661	 0.282852
H	-0.1692883282	 1.7119194927	 2.5219084613	 0.111943
H	-3.0433551813	 1.2797865863	 2.7138536034	 0.105313
79.6494	116.7245	196.8777	217.183	258.1971	284.0175	335.3859	383.583	435.4683	505.8771	544.6319	593.6305	752.9966	788.0707	814.0552	828.5645	863.1042	883.5151	949.8977	967.2259	971.5455	982.3307	1038.2891	1044.838	1086.5703	1104.0468	1128.8402	1189.0553	1195.5209	1231.9645	1281.1158	1322.022	1350.0081	1368.8745	1400.9763	1417.6666	1430.0991	1480.1926	1485.6343	1500.3397	1503.0114	2972.3139	3019.9818	3052.1424	3075.2223	3100.4301	3125.8744	3179.7472	3197.7223	3222.8158	3806.9686
CC12CC1(CO)C1OC21	C[C@@]12C[C@]1(CO)[C@@H]1O[C@H]21	
InChI=1S/C7H10O2/c1-6-2-7(6,3-8)5-4(6)9-5/h4-5,8H,2-3H2,1H3	InChI=1S/C7H10O2/c1-6-2-7(6,3-8)5-4(6)9-5/h4-5,8H,2-3H2,1H3/t4-,5+,6-,7-/m0/s1
