19
gdb 3183	2.3330249	1.6833287	1.3567564	4.3464	74.6	-0.25822	0.01353	0.27175	1038.1913	0.158273	-422.589276	-422.581089	-422.580144	-422.621979	31.146	
C	 0.2335496757	-2.1164561022	 0.7480805229	-0.405553
C	-0.8470434592	-1.3816883791	-0.0728207065	-0.127947
C	-2.1584748976	-1.2845196783	 0.685542485	-0.022126
C	-3.1981274246	-0.2587004433	 0.2966814437	-0.322708
C	-2.3589412714	-0.060660479	 1.5331669476	-0.037375
C	-1.2343452899	 0.9465842979	 1.5227940673	-0.096991
O	-0.5793549368	 1.0642867295	 0.2508737027	-0.229318
C	-0.3030033186	-0.0241275441	-0.5141770491	 0.399555
O	 0.3588761842	 0.1194620333	-1.5058154275	-0.333564
H	 0.4462592971	-1.5994710031	 1.6893767734	 0.122642
H	-0.1036556475	-3.1284176003	 0.9926035505	 0.120994
H	 1.1626861306	-2.1902677953	 0.1774196068	 0.141937
H	-0.9917327763	-1.9336879987	-1.0073041036	 0.110998
H	-2.5248063118	-2.2336934516	 1.0662408812	 0.089447
H	-3.0045709297	 0.374627613	-0.5629769702	 0.135365
H	-4.2413223778	-0.5203577491	 0.4313286131	 0.11718
H	-2.8406517407	-0.1659339559	 2.5003988624	 0.094807
H	-1.59603221	 1.9560165364	 1.7405210721	 0.127451
H	-0.4853224156	 0.69052006	 2.2843977183	 0.115205
76.7158	157.8176	221.084	230.3956	252.9889	313.5096	408.4556	444.5722	523.2596	557.7879	711.2626	743.1251	752.0824	780.0466	835.9015	857.8556	920.5633	981.2434	1014.9675	1050.7693	1064.0179	1073.6513	1081.1078	1097.2094	1127.7276	1133.7263	1147.6873	1211.7758	1235.2387	1283.2807	1324.8237	1335.8556	1372.4603	1401.3745	1418.9592	1428.3668	1495.9659	1498.2317	1500.2782	1515.2283	1841.7947	3011.9766	3038.6806	3056.1547	3079.1868	3107.5958	3125.2291	3135.8507	3143.954	3159.3921	3221.9781
CC1C2CC2COC1=O	C[C@H]1[C@@H]2C[C@@H]2COC1=O	
InChI=1S/C7H10O2/c1-4-6-2-5(6)3-9-7(4)8/h4-6H,2-3H2,1H3	InChI=1S/C7H10O2/c1-4-6-2-5(6)3-9-7(4)8/h4-6H,2-3H2,1H3/t4-,5+,6-/m0/s1
