19
gdb 3567	2.6780628	1.1597532	0.8510919	1.7054	76.94	-0.24571	-0.03096	0.21475	1326.393	0.155278	-422.60675	-422.597585	-422.59664	-422.641411	33.146	
C	-2.4868209449	-1.4585577131	-2.1099392065	-0.410693
C	-2.0225659693	-0.7068526105	-0.8646112102	 0.00326
C	-0.6808010846	-1.1767179804	-0.2816555079	-0.335361
C	-0.1158744808	 0.0257796843	 0.4772818346	 0.398544
O	 0.8123762409	 0.0154355382	 1.2406286656	-0.303408
C	-0.9395968609	 1.2631767176	 0.0931126924	-0.35925
C	-1.8023591551	 0.8224599186	-1.1012343893	-0.073255
C	-3.1176633581	 1.5579670628	-1.179289456	 0.156597
O	-3.5688727188	 2.0850203204	-2.1620719017	-0.249922
H	-2.6572635119	-2.517000109	-1.8900145041	 0.121945
H	-3.4193123601	-1.0414634572	-2.502925185	 0.133664
H	-1.734494006	-1.3977563762	-2.9043088346	 0.122536
H	-2.7890178152	-0.8098901221	-0.0821535673	 0.084059
H	-0.7416189498	-2.0575754524	 0.3619094205	 0.133106
H	 0.0262918631	-1.415635627	-1.0887159369	 0.133764
H	-1.5689258669	 1.518252281	 0.9582915692	 0.134398
H	-0.2969531445	 2.1252095706	-0.0977672161	 0.142667
H	-1.2722517448	 0.9724472807	-2.0476286438	 0.096814
H	-3.6804592124	 1.5638127738	-0.2130113328	 0.070538
57.7723	75.9552	105.3204	223.963	252.8519	281.5736	300.3975	412.0971	447.161	470.0096	505.1974	545.9158	619.9005	748.4036	807.6915	863.4718	919.4757	942.847	973.2844	1006.7777	1056.574	1073.0168	1100.3232	1144.1427	1158.3257	1198.4821	1211.7101	1250.3386	1268.6892	1281.5224	1325.3177	1354.8985	1372.0971	1417.4415	1426.8732	1447.1253	1452.1185	1495.5983	1497.6128	1833.9267	1852.4431	2828.2238	2995.6852	3018.1506	3023.5918	3032.8437	3062.6991	3100.6316	3106.7005	3108.3434	3113.7012
CC1CC(=O)CC1C=O	C[C@H]1CC(=O)C[C@@H]1C=O	
InChI=1S/C7H10O2/c1-5-2-7(9)3-6(5)4-8/h4-6H,2-3H2,1H3	InChI=1S/C7H10O2/c1-5-2-7(9)3-6(5)4-8/h4-6H,2-3H2,1H3/t5-,6+/m0/s1
