19
gdb 1441	3.1550622	1.4756172	1.3484012	2.6429	76.57	-0.24017	0.05949	0.29966	1024.6625	0.155949	-422.426501	-422.418531	-422.417587	-422.458205	32.192	
C	 0.0027112835	-0.1438895042	 0.068142541	-0.485641
C	 1.5200093394	-0.0683485584	-0.0300762766	 0.338819
O	 2.0855183337	-0.5345265596	 1.1707004561	-0.469522
C	 2.2909968947	-0.54824129	-1.4112517287	-0.178592
C	 3.4905741351	 0.2605030977	-0.8977960058	-0.245039
C	 2.2399357404	 1.1806302821	-0.6326324982	 0.185265
C	 2.3912434618	 2.5922185953	-1.2365033509	-0.194899
O	 2.4324752583	 1.9567726676	-2.5635409152	-0.308419
C	 1.7370652843	 0.777734166	-2.0066341246	 0.111003
H	-0.3344104713	 0.4168956838	 0.9454916003	 0.134262
H	-0.5166397368	 0.2421183745	-0.8085926315	 0.131213
H	-0.308115276	-1.188350307	 0.1979971437	 0.115596
H	 1.5935472859	-1.3120985054	 1.4534576412	 0.281717
H	 2.2851677197	-1.5645834347	-1.8192536623	 0.063599
H	 4.0000655396	-0.118731529	-0.0161225548	 0.112704
H	 4.1742359575	 0.6256751738	-1.6613037912	 0.112076
H	 1.5182943845	 3.2504546436	-1.1481588099	 0.105758
H	 3.3126641669	 3.1384204321	-1.0157314208	 0.116452
H	 0.6878015389	 0.8270102117	-2.2980274619	 0.073648
186.6621	199.7168	252.4852	262.9993	287.4095	357.7385	416.198	441.2644	498.0148	540.2978	599.5308	636.4217	722.8717	814.5294	833.1291	862.485	889.8307	914.8273	947.8787	956.5022	1012.0546	1041.9292	1042.819	1059.3789	1100.3824	1131.3023	1146.6342	1158.7516	1186.8085	1193.2509	1216.7067	1227.0324	1245.6025	1291.9294	1354.6681	1373.3305	1412.9705	1490.4916	1494.8593	1502.8438	1506.255	3023.6688	3029.6212	3048.154	3092.7562	3097.7131	3098.2226	3115.4373	3149.4503	3188.2736	3813.9869
CC1(O)C2CC11COC21	C[C@@]1(O)[C@@H]2C[C@@]31CO[C@@H]23	
InChI=1S/C7H10O2/c1-6(8)4-2-7(6)3-9-5(4)7/h4-5,8H,2-3H2,1H3	InChI=1S/C7H10O2/c1-6(8)4-2-7(6)3-9-5(4)7/h4-5,8H,2-3H2,1H3/t4-,5+,6-,7-/m1/s1
