19
gdb 4378	3.4428012	1.0900705	1.0630853	1.706	77.53	-0.24827	0.03829	0.28656	1228.3419	0.15524	-422.534031	-422.524787	-422.523843	-422.567935	35.048	
C	 0.5459209247	-0.9868951208	 0.1811894398	-0.404403
C	 0.9353740064	 0.4805953378	 0.2051281056	 0.134099
C	 0.2303954175	 1.3443572136	 1.2886795881	-0.303072
C	 1.4128873179	 1.9513150233	 2.1009330638	 0.179348
O	 1.74125249	 1.1163797024	 3.2097099101	-0.472707
C	 2.5422305247	 1.8662543534	 1.0504121964	-0.137873
O	 2.3424458912	 0.5802127468	 0.4903342081	-0.275792
C	 1.1676014317	 3.2997353036	 2.5936925579	 0.31732
C	 0.9686699036	 4.4280144762	 2.954540878	-0.427504
H	 0.6839186627	-1.4398749937	 1.1683487916	 0.119039
H	-0.5049472385	-1.0971863365	-0.1030661984	 0.122531
H	 1.1581540612	-1.535044282	-0.5403222814	 0.130013
H	 0.7574280088	 0.9249023104	-0.7861370437	 0.076319
H	-0.3837207165	 2.127440538	 0.8402103076	 0.116003
H	-0.3960356663	 0.7547574305	 1.9610141531	 0.122591
H	 2.1217859267	 0.314465693	 2.8281307408	 0.284964
H	 2.4421727214	 2.6617465987	 0.2964118666	 0.09874
H	 3.5346762883	 1.9084932849	 1.5028685185	 0.124424
H	 0.7935349847	 5.4207306804	 3.2889053274	 0.195958
50.0174	134.2368	164.1943	219.0121	244.7912	320.9304	383.2048	407.1622	421.8847	444.5331	512.4026	532.6327	581.0863	625.5292	665.5009	673.9187	808.319	822.8969	891.9059	901.4925	955.7446	1011.095	1042.4796	1061.3462	1102.5571	1124.8712	1147.3166	1167.5903	1234.6239	1252.8928	1276.9387	1328.317	1366.653	1389.3828	1409.7291	1418.0817	1480.829	1486.425	1495.505	1504.9158	2245.1815	2980.1628	2994.1668	3039.4062	3077.0217	3112.2265	3119.9371	3120.1786	3130.1391	3501.8477	3768.7992
CC1CC(O)(CO1)C#C	C[C@H]1C[C@@](O)(CO1)C#C	
InChI=1S/C7H10O2/c1-3-7(8)4-6(2)9-5-7/h1,6,8H,4-5H2,2H3	InChI=1S/C7H10O2/c1-3-7(8)4-6(2)9-5-7/h1,6,8H,4-5H2,2H3/t6-,7+/m0/s1
