19
gdb 4212	2.2932797	1.6648587	1.2815197	3.6998	74.15	-0.24014	-0.01458	0.22555999999999998	1060.0405	0.157558	-422.574723	-422.566439	-422.565495	-422.607765	31.314	
C	-1.4787974544	-1.3980598183	 1.4031090785	-0.411082
C	-0.8210245186	-1.2840369941	 0.012404014	-0.077851
C	-1.8748584509	-1.3814259093	-1.1161701466	-0.252969
C	-2.5815101627	-0.0721509885	-1.4199191125	 0.040146
O	-1.8652650014	 0.8335183697	-2.2701681523	-0.250968
C	-2.0865779899	 1.2220471476	-0.9137245593	 0.05468
C	-0.8445138911	 1.3036913209	-0.0563066351	-0.34283
C	-0.0229316324	 0.0155607861	-0.0768732695	 0.392841
O	 1.1835171881	 0.03280764	-0.1126766656	-0.316149
H	-1.9360834665	-2.3856276992	 1.5187207219	 0.125549
H	-0.7429170352	-1.2717407393	 2.2029975741	 0.131866
H	-2.2669130938	-0.6510162488	 1.542904893	 0.123061
H	-0.0938491307	-2.0931110828	-0.0972124755	 0.097884
H	-1.402334119	-1.7219481746	-2.0437756882	 0.129521
H	-2.6168880031	-2.140203748	-0.8434320783	 0.103245
H	-3.6408009791	-0.1479342035	-1.6660016385	 0.096447
H	-2.7971958984	 2.0410593838	-0.7938105718	 0.093534
H	-0.2016755001	 2.128524386	-0.3769314277	 0.136406
H	-1.1357877308	 1.5049841925	 0.9836811797	 0.126671
75.7136	92.6298	219.5908	248.6997	288.4447	336.9452	387.3105	470.8587	501.0377	544.6662	598.2223	692.1422	782.62	807.2711	839.6531	874.5862	902.3529	946.7617	992.9435	1000.8121	1024.6846	1075.8867	1078.8672	1116.1595	1156.9262	1208.3654	1225.6618	1255.6394	1292.7374	1293.2873	1328.9887	1342.4033	1373.0761	1391.5118	1411.8428	1451.7412	1470.8639	1480.7369	1502.0531	1502.3174	1822.6317	3027.6464	3035.6319	3038.5897	3071.4151	3080.6064	3094.1813	3096.8374	3107.2208	3110.7564	3111.9484
CC1CC2OC2CC1=O	C[C@H]1C[C@@H]2O[C@@H]2CC1=O	
InChI=1S/C7H10O2/c1-4-2-6-7(9-6)3-5(4)8/h4,6-7H,2-3H2,1H3	InChI=1S/C7H10O2/c1-4-2-6-7(9-6)3-5(4)8/h4,6-7H,2-3H2,1H3/t4-,6-,7+/m0/s1
