19
gdb 4503	2.5645447	1.5470727	1.3160093	3.3362	74.98	-0.22388	-0.01993	0.20395	1055.4918	0.158021	-422.556187	-422.548231	-422.547287	-422.588402	30.818	
C	-2.8871385134	-2.2561647465	-1.4788479825	-0.415011
C	-1.7162511825	-1.2724411177	-1.39932654	-0.002785
C	-2.1248192297	 0.1148555223	-1.9488542973	-0.075669
O	-1.3269685895	 1.19269692	-1.4596934105	-0.280322
C	-0.9189455592	 1.0410370139	-0.1002844496	 0.010067
C	-1.8972258605	 0.1430767772	 0.7152837783	-0.284022
C	-1.192296935	-1.0868154105	 0.0533278662	-0.153195
C	 0.0431165201	-0.1728097255	-0.0355403753	 0.423737
O	 1.2260018399	-0.3328982057	 0.0239226738	-0.316858
H	-3.7156094252	-1.9383509819	-0.8358334562	 0.120544
H	-3.2692328466	-2.3318523931	-2.5026841152	 0.121548
H	-2.5788753602	-3.2571474739	-1.1626305915	 0.123254
H	-0.8889361782	-1.6678223416	-2.00091664	 0.099498
H	-2.036308541	 0.1464562302	-3.0383842731	 0.117662
H	-3.1812568854	 0.3000432824	-1.7048779216	 0.096328
H	-0.6148139591	 2.0221422663	 0.2659715072	 0.096747
H	-1.6892645801	 0.2101426169	 1.7855309247	 0.119002
H	-2.9654007475	 0.2803657671	 0.5424935754	 0.114774
H	-1.1114156568	-2.0332257399	 0.5916830372	 0.084702
129.5123	140.2001	237.7758	247.4733	276.3843	377.0293	432.1457	441.3879	510.2187	526.9657	646.3958	760.6093	805.9283	826.0005	891.2066	902.3309	929.0783	945.1038	1007.3032	1019.8781	1034.4193	1058.2143	1107.8993	1110.7979	1147.5754	1161.617	1166.6264	1231.0065	1237.7136	1259.4082	1290.2036	1331.1145	1351.4664	1356.8372	1406.7374	1416.9663	1482.1367	1495.8019	1497.6022	1523.3868	1897.9785	2992.4825	3029.6819	3032.8751	3077.3197	3085.8197	3096.2664	3097.6142	3108.3344	3115.3525	3136.713
CC1COC2CC1C2=O	C[C@H]1CO[C@H]2C[C@@H]1C2=O	
InChI=1S/C7H10O2/c1-4-3-9-6-2-5(4)7(6)8/h4-6H,2-3H2,1H3	InChI=1S/C7H10O2/c1-4-3-9-6-2-5(4)7(6)8/h4-6H,2-3H2,1H3/t4-,5-,6-/m0/s1
