19
gdb 422	2.8158509	1.5997215	1.2155776	1.3734	74.95	-0.24418	0.08279	0.32697	1053.3262	0.15813	-422.522508	-422.514917	-422.513972	-422.554444	30.13	
C	 0.4101439479	 0.7816409019	-0.6883563287	-0.24137
O	 0.0937674191	-0.1726530509	 0.3300844262	-0.284097
C	 1.4737294646	 0.2058846425	 0.1428409574	 0.408475
C	 2.0685745217	 0.9812802168	 1.3037719137	-0.290344
C	 2.7577292213	 0.0024451574	 2.2560733239	-0.076851
O	 3.849944319	-0.6398933105	 1.6082438659	-0.26379
C	 3.5069112079	-1.3612654961	 0.4581685502	 0.096568
C	 3.7495675979	-0.6923902186	-0.8668044567	-0.328005
C	 2.3298921887	-0.9110174995	-0.3763778913	-0.106092
H	 0.278131358	 0.4341256669	-1.7127228272	 0.110047
H	 0.066312027	 1.7988068477	-0.4995502652	 0.10818
H	 2.8082151352	 1.7088989813	 0.9494048847	 0.108966
H	 1.2680073067	 1.5267419426	 1.812258813	 0.111815
H	 3.1883254893	 0.5197184245	 3.1173056772	 0.108762
H	 2.0313058585	-0.7371794207	 2.6251902719	 0.104868
H	 3.6970708431	-2.4278609666	 0.5539847718	 0.09612
H	 4.1599799938	 0.3103878395	-0.8232315192	 0.121471
H	 4.0883749888	-1.2873068805	-1.7077065697	 0.114605
H	 1.7565637915	-1.6846158377	-0.8763548379	 0.100671
88.6924	194.05	246.1962	308.8048	361.9451	398.59	442.5021	489.7465	519.408	650.1756	705.7933	779.2532	808.2584	830.5779	856.5529	896.1652	961.251	976.9502	988.5782	1021.1304	1048.2454	1060.7459	1073.7326	1103.2008	1126.2397	1131.1846	1160.5165	1176.5491	1221.593	1231.8207	1280.0757	1287.0333	1323.0996	1368.6052	1371.0104	1415.1029	1439.2539	1465.3227	1480.792	1504.6475	1530.6858	2996.4191	3039.9974	3072.8063	3096.2615	3097.6645	3126.6406	3137.0333	3157.4874	3164.3962	3226.7227
C1OC11CCOC2CC12	C1O[C@@]21CCO[C@@H]1C[C@H]21	
InChI=1S/C7H10O2/c1-2-8-6-3-5(6)7(1)4-9-7/h5-6H,1-4H2	InChI=1S/C7H10O2/c1-2-8-6-3-5(6)7(1)4-9-7/h5-6H,1-4H2/t5-,6+,7+/m0/s1
