19
gdb 5437	2.3578098	1.2283406	0.8668483	2.9892	77.54	-0.23695	-0.01037	0.22658	1349.0045	0.155755	-422.547408	-422.538179	-422.537235	-422.581586	33.677	
C	-2.9169268342	 2.0570995782	 1.5284164186	-0.424192
C	-1.8910164229	 0.9965628808	 1.188840438	-0.024702
C	-2.168353195	 0.0375858406	 0.0907128135	-0.046517
C	-1.1343794571	 1.18233545	-0.1304590336	-0.183408
C	-0.0684617918	 0.1451063835	-0.2592587763	 0.407122
O	 1.0672148786	 0.1569905521	-0.6470119411	-0.330023
C	-1.0594643832	-1.0254612173	 0.0195268952	-0.179311
C	-1.1399278239	-1.9827448548	-1.1694272821	-0.077731
O	-2.2626561532	-2.8482043461	-1.099105816	-0.420383
H	-3.6489367614	 1.6702201994	 2.2449945585	 0.127125
H	-2.442833367	 2.9375187279	 1.9736656167	 0.128983
H	-3.4613471709	 2.3830429868	 0.6364306252	 0.122452
H	-1.3232110994	 0.6350944377	 2.045109706	 0.093122
H	-3.1347415583	-0.0580436122	-0.3867614392	 0.1131
H	-1.2096485691	 2.1122527089	-0.6813064223	 0.105949
H	-0.8948233103	-1.5875012403	 0.9481075548	 0.079423
H	-1.2643021707	-1.4148338985	-2.0976840704	 0.116307
H	-0.1954581198	-2.5384954463	-1.2519079434	 0.109922
H	-2.1417300104	-3.4291920406	-0.3410517223	 0.282764
88.4675	120.9854	137.6654	171.4878	229.321	242.7681	306.4816	309.4006	410.3111	446.1525	521.2597	630.1019	719.7635	760.3638	864.4686	874.329	897.0204	916.4799	966.0685	989.2454	1020.6936	1059.2929	1065.3102	1085.875	1111.587	1121.3431	1150.8211	1183.6745	1199.3034	1212.3178	1259.5938	1282.9434	1348.8474	1382.0175	1415.0091	1419.3541	1423.3413	1493.3808	1501.2263	1502.4946	1868.3273	3009.9097	3021.3392	3034.5746	3077.5718	3098.3788	3102.1196	3116.562	3190.1	3208.9415	3813.0932
CC1C2C1C(=O)C2CO	C[C@H]1[C@H]2[C@@H]1C(=O)[C@@H]2CO	
InChI=1S/C7H10O2/c1-3-5-4(2-8)7(9)6(3)5/h3-6,8H,2H2,1H3	InChI=1S/C7H10O2/c1-3-5-4(2-8)7(9)6(3)5/h3-6,8H,2H2,1H3/t3-,4+,5+,6+/m0/s1
