19
gdb 2948	2.3351511	1.4984406	0.9789794	1.9569	77.18	-0.23565	0.01737	0.25302	1197.4357	0.157458	-422.555461	-422.547016	-422.546072	-422.588124	32.891	
O	-2.7071032613	 2.6690266934	-1.7939695292	-0.430967
C	-2.5880170359	 1.8273591348	-0.6872376211	 0.081796
C	-2.5959347241	 2.5045347144	 0.6602794843	-0.097893
C	-3.2432005254	 1.8716182112	 1.8337290761	-0.076377
C	-2.5822145008	 1.0185567169	 2.6194909829	-0.068845
C	-1.1414888482	 0.6444531195	 2.3591250406	-0.283465
C	-0.8446318484	 0.5911779605	 0.847917933	 0.107281
O	 0.5471643279	 0.478522079	 0.574622359	-0.44519
C	-1.3285464844	 1.8508619371	 0.1424712658	-0.091127
H	-2.1400157788	 2.3233251299	-2.4917251046	 0.287366
H	-3.1099643287	 0.8713605718	-0.7644006868	 0.083824
H	-2.6441580163	 3.5885492965	 0.5982172747	 0.102819
H	-4.278771179	 2.1276434264	 2.0440482966	 0.090468
H	-3.0784310242	 0.5675640587	 3.4743612289	 0.088182
H	-0.4611023862	 1.3752426715	 2.8174834547	 0.119255
H	-0.9098816341	-0.3259843445	 2.8163474168	 0.087184
H	-1.3815610144	-0.279908002	 0.4368908582	 0.065852
H	 0.8718990981	-0.3121485532	 1.017838795	 0.279537
H	-0.5325483757	 2.5053353383	-0.195965605	 0.100298
105.5351	199.8322	224.8684	244.1464	296.2423	312.2072	371.0801	408.9823	460.4811	469.4047	501.1905	549.3171	726.2045	760.4925	839.5945	900.398	926.0038	941.977	979.9605	989.5806	1018.0235	1069.3195	1072.8239	1081.1692	1088.4129	1103.6482	1156.7404	1186.2497	1195.4715	1213.5909	1270.2527	1295.2957	1303.6737	1313.7679	1340.4577	1372.9472	1413.0843	1435.7653	1467.1643	1485.4703	1704.4986	2952.949	3011.5841	3047.5124	3080.1853	3142.7283	3149.7238	3172.5166	3174.9757	3800.474	3812.0851
OC1C2C=CCC(O)C12	O[C@@H]1[C@H]2C=CC[C@H](O)[C@@H]12	
InChI=1S/C7H10O2/c8-5-3-1-2-4-6(5)7(4)9/h1-2,4-9H,3H2	InChI=1S/C7H10O2/c8-5-3-1-2-4-6(5)7(4)9/h1-2,4-9H,3H2/t4-,5-,6-,7+/m0/s1
