19
gdb 5308	3.2864179	1.4408699	1.2577175	2.5445	74.15	-0.2325	0.0847	0.31720000000000004	1053.2419	0.15849	-422.528335	-422.520674	-422.51973	-422.560468	30.106	
O	 1.5624374593	 0.5235241429	 0.3792101419	-0.418718
C	 0.2205188472	 0.1004760965	 0.2089955265	-0.154759
C	-0.5728417498	 0.2352188271	 1.476957035	 0.451055
O	-0.6185032595	 1.5863818713	 1.9210644629	-0.327891
C	-1.8717962164	 1.7673222666	 2.5950280052	-0.086957
C	-2.2864238536	 0.3525327559	 2.9900577871	-0.07747
C	-1.1492575991	-0.3148614036	 3.8321890637	-0.238864
C	-0.5546617968	-0.8546579661	 2.5323041887	-0.122557
C	-1.836407393	-0.4949545304	 1.763422385	-0.173928
H	 1.5195385669	 1.407222319	 0.7620099928	 0.293222
H	-0.2781215927	 0.6735790639	-0.5886059168	 0.090899
H	 0.2550041265	-0.948608925	-0.1018525297	 0.107485
H	-1.7078692495	 2.4274690325	 3.4532944654	 0.107688
H	-2.6044243235	 2.236058087	 1.920234541	 0.092155
H	-3.307011073	 0.2550303959	 3.3574591403	 0.077574
H	-0.526283789	 0.3517549614	 4.43833652	 0.099284
H	-1.5364024277	-1.1201902219	 4.4609693172	 0.104256
H	 0.0773020101	-1.7293991969	 2.425867719	 0.088846
H	-2.4462834663	-1.0521050961	 1.063821825	 0.088679
84.7319	145.5295	224.5936	312.6182	368.4397	382.1906	408.9824	499.9805	636.2403	673.2351	716.7925	810.1972	837.4145	848.3191	869.9328	876.47	944.363	974.142	996.5215	1008.242	1033.4607	1042.595	1055.9224	1070.9151	1102.1565	1118.593	1152.7544	1174.9626	1208.4376	1230.4188	1254.904	1269.9747	1275.0457	1313.8594	1376.9299	1379.9535	1404.7846	1454.5052	1492.9658	1495.3338	1513.9166	2980.3749	2986.8002	3042.2133	3071.9841	3078.9161	3102.581	3126.6446	3171.8432	3193.1169	3804.0466
OCC12OCC3CC1C23	OC[C@]12OC[C@@H]3C[C@H]1[C@H]23	
InChI=1S/C7H10O2/c8-3-7-5-1-4(2-9-7)6(5)7/h4-6,8H,1-3H2	InChI=1S/C7H10O2/c8-3-7-5-1-4(2-9-7)6(5)7/h4-6,8H,1-3H2/t4-,5-,6+,7-/m0/s1
