19
gdb 2161	2.1083907	1.980242	1.7001378	1.5073	74.47	-0.22672	0.07521	0.30193000000000003	946.4904	0.157162	-422.529154	-422.521198	-422.520253	-422.560946	31.521	
C	-0.1291894826	 0.1309028133	 0.282466266	-0.510072
C	 1.3729174702	 0.0119859637	 0.1768903131	 0.268177
C	 2.1933101168	 1.3021584549	 0.2358106602	-0.143066
O	 3.5344234472	 0.8071842224	 0.1100055971	-0.281572
C	 3.3241380657	-0.5809326738	-0.0131145651	 0.064613
C	 2.2132048619	-1.069451957	 0.9591838114	-0.138701
C	 1.8014946348	-2.1490176137	-0.0686502365	-0.333815
C	 2.0765022876	-0.8750080141	-0.9063544953	 0.33935
O	 1.9011036941	-0.6509092594	-2.2583172369	-0.478687
H	-0.4172825305	 0.6191107844	 1.220187978	 0.118875
H	-0.5264798805	 0.7334939247	-0.5415714945	 0.130285
H	-0.6246769004	-0.8429953994	 0.2487434107	 0.12371
H	 1.9632666912	 1.9845949776	-0.5921650427	 0.107507
H	 2.0774301943	 1.8423828026	 1.1841946789	 0.096668
H	 4.2648189197	-1.1195340376	-0.1274656048	 0.080359
H	 2.295064412	-1.1726217964	 2.038818864	 0.08014
H	 2.4952464587	-2.9855828743	-0.1978157146	 0.087669
H	 0.7704083142	-2.503400822	-0.0300657787	 0.103066
H	 2.5585625556	-1.1571777861	-2.7473644004	 0.285495
180.0487	191.1421	220.9774	243.4723	276.9941	314.4658	417.4469	462.1378	480.7818	631.421	661.0288	707.1698	726.0803	768.7732	840.1329	913.2334	944.163	957.1894	976.2322	985.8447	1016.2878	1022.395	1074.2311	1082.2195	1101.786	1130.6555	1164.5259	1191.9613	1202.8845	1231.6639	1241.3884	1254.5602	1288.3384	1330.2889	1354.7859	1408.5354	1417.2824	1491.6448	1496.1434	1516.7925	1525.5406	3013.5223	3033.3545	3053.1697	3054.2104	3092.1128	3111.1418	3123.8349	3127.7398	3146.7955	3809.6893
CC12COC3C1CC23O	C[C@@]12CO[C@H]3[C@@H]1C[C@@]23O	
InChI=1S/C7H10O2/c1-6-3-9-5-4(6)2-7(5,6)8/h4-5,8H,2-3H2,1H3	InChI=1S/C7H10O2/c1-6-3-9-5-4(6)2-7(5,6)8/h4-5,8H,2-3H2,1H3/t4-,5-,6+,7-/m0/s1
