19
gdb 1718	3.177857	1.2702333	1.1509301	2.8536	76.66	-0.25054	-0.02433	0.22621	1130.7566	0.155657	-422.574819	-422.565966	-422.565021	-422.608182	33.007	
C	-0.1476930566	-0.1722141091	 0.2463824709	-0.441347
C	 1.362706376	-0.0948228224	 0.0066322591	 0.266557
C	 2.1624924353	-0.9009020779	 1.0611910423	-0.280767
C	 2.1632952694	-2.3680389879	 0.7234624105	-0.074246
C	 1.8463574876	-2.8105617404	-0.4898625344	-0.060402
C	 1.4821363837	-1.8741594244	-1.6041467216	-0.123033
O	 1.739511454	-0.5133701231	-1.3050737925	-0.30232
C	 1.8460612562	 1.3529629928	 0.0785602654	 0.135045
O	 1.4233701341	 2.1737883823	 0.8490636402	-0.261622
H	-0.4019080443	 0.4246447074	 1.1252899162	 0.142742
H	-0.6846358273	 0.236746137	-0.6142109401	 0.126138
H	-0.4731049794	-1.2023838192	 0.4107217338	 0.122658
H	 3.1973252065	-0.5324709794	 1.112368012	 0.116157
H	 1.729555532	-0.7242664849	 2.0520106139	 0.123044
H	 2.4390441101	-3.0619178145	 1.512849418	 0.095875
H	 1.8298958084	-3.8721715249	-0.72029197	 0.095625
H	 2.0749170237	-2.095609353	-2.4999630094	 0.121998
H	 0.4244964388	-2.0188833694	-1.8866901162	 0.104805
H	 2.6665940417	 1.5725864611	-0.6392838681	 0.093093
77.7876	131.0005	184.4697	222.9554	241.2292	284.1014	347.7144	386.2533	426.4294	431.3441	533.5235	634.6969	666.9024	742.0231	839.0638	888.1913	903.4319	930.4927	963.9971	990.0725	996.3283	1005.006	1042.2388	1117.5694	1124.295	1179.4783	1191.1903	1218.4659	1268.7424	1290.2639	1353.7404	1381.505	1394.2357	1405.2515	1411.9419	1469.2198	1485.4071	1493.07	1501.091	1729.5815	1839.3783	2900.2734	2951.8827	3004.4862	3047.0506	3049.8068	3066.0282	3124.7112	3136.0879	3155.4757	3178.5497
CC1(CC=CCO1)C=O	C[C@]1(CC=CCO1)C=O	
InChI=1S/C7H10O2/c1-7(6-8)4-2-3-5-9-7/h2-3,6H,4-5H2,1H3	InChI=1S/C7H10O2/c1-7(6-8)4-2-3-5-9-7/h2-3,6H,4-5H2,1H3/t7-/m0/s1
