19
gdb 899	3.4102096	1.3117409	1.2282736	1.8332	74.99	-0.2742	0.00823	0.28243	1083.3414	0.158836	-422.582793	-422.575167	-422.574223	-422.615014	29.708	
O	 0.5615759704	 0.1025740377	 0.783347668	-0.305574
C	 0.1978958458	-0.1166000265	-0.3397371876	 0.15315
O	-0.601973245	 0.6555459119	-1.087715816	-0.27646
C	-1.0791579303	 1.8695395345	-0.51585973	 0.474142
C	-1.7033929529	 2.9017059621	-1.4779414625	-0.281952
C	-1.4254871148	 3.8504322649	-0.2726488752	-0.029726
C	-0.1409790115	 3.0036031076	-0.0254437609	-0.269195
C	-2.3901317124	 3.2964801521	 0.7994636273	-0.211098
C	-2.1214494833	 1.7668133088	 0.6138352563	-0.272829
H	 0.4801281041	-1.0017741622	-0.9312959007	 0.107914
H	-1.0609239622	 3.1073727814	-2.3362825156	 0.104613
H	-2.7385495665	 2.74918216	-1.7957765313	 0.094154
H	-1.3773286272	 4.9299926315	-0.4024325646	 0.069344
H	 0.6523745348	 3.2221217303	-0.7433094828	 0.101587
H	 0.2576314084	 2.9335001496	 0.9874406409	 0.111813
H	-2.1365072922	 3.6452402197	 1.8041298047	 0.103282
H	-3.4305707535	 3.567290447	 0.5998684295	 0.099564
H	-1.7079401848	 1.2899792246	 1.5030258226	 0.126951
H	-3.0070991468	 1.210211405	 0.2953131381	 0.100323
75.9131	158.9255	222.5471	270.3556	363.5903	412.5161	448.0794	522.6403	544.835	653.722	794.7153	834.5571	837.7979	841.2751	881.3981	930.4718	939.1786	977.584	979.8668	1014.784	1022.3411	1045.2904	1083.4183	1118.8659	1131.7918	1144.0254	1199.8911	1215.0388	1225.6864	1242.9109	1251.3707	1264.1388	1277.0568	1323.809	1329.7809	1414.223	1487.0053	1497.0346	1503.6435	1535.4424	1816.4269	3024.9316	3056.3682	3058.9052	3069.4804	3076.8441	3099.6265	3126.4091	3132.005	3133.6052	3141.807
O=COC12CC(C1)CC2	O=CO[C@]12C[C@H](C1)CC2	
InChI=1S/C7H10O2/c8-5-9-7-2-1-6(3-7)4-7/h5-6H,1-4H2	InChI=1S/C7H10O2/c8-5-9-7-2-1-6(3-7)4-7/h5-6H,1-4H2/t6-,7-
