19
gdb 5248	3.2093293	1.4964497	1.3045541	1.8093	74.25	-0.23757	0.0716	0.30917	1026.649	0.158468	-422.520749	-422.513236	-422.512292	-422.552637	29.782	
O	 0.9664902698	 0.7834312923	-0.5471259085	-0.424452
C	-0.1280844919	 0.3650495201	 0.2597351329	-0.214802
C	-1.3832228062	 0.5179988277	-0.5477776895	 0.348926
C	-1.79851981	 1.7803416122	-1.3228388983	-0.300807
C	-2.7860913348	 0.8266985544	-2.0468772849	-0.095992
C	-3.7659823062	 0.4789830223	-0.9064762474	-0.209757
C	-2.6897324922	-0.2516031374	-0.0812944283	 0.00528
O	-2.3643280799	-1.3669227597	-0.9662067156	-0.298918
C	-1.7409711044	-0.3582601963	-1.7706033697	 0.077312
H	 1.7743849142	 0.6709568302	-0.0380323179	 0.288963
H	-0.0241656381	-0.6885816505	 0.563256606	 0.099448
H	-0.1972362302	 0.9705975552	 1.1792080008	 0.084892
H	-2.2210851825	 2.6331353814	-0.7823036793	 0.088363
H	-0.9744499083	 2.112926114	-1.9581440997	 0.1173
H	-3.1830490122	 1.0446280066	-3.0362330392	 0.068113
H	-4.1882248581	 1.3664607492	-0.4272103942	 0.094694
H	-4.5657591385	-0.2113744055	-1.1817370324	 0.106841
H	-2.8840648694	-0.5490384316	 0.9491864286	 0.074755
H	-1.0634273109	-0.7107159646	-2.5457080333	 0.089842
96.4324	168.7041	222.9376	278.0451	341.9383	446.927	463.3851	543.1286	642.1082	704.2275	740.0671	793.6117	851.7279	858.0157	881.7932	922.2356	925.5675	954.7937	972.1644	998.8451	1016.6655	1045.9985	1071.3874	1084.4227	1119.3625	1141.8699	1160.5994	1183.5876	1197.9087	1225.9836	1236.0411	1242.9783	1263.9485	1282.7812	1310.2083	1329.1143	1364.2542	1464.4455	1478.5951	1505.2273	1513.5628	2957.4885	2995.2795	3050.0058	3064.2303	3116.8498	3121.7765	3122.6499	3135.8403	3147.8701	3832.5936
OCC12CC3CC1OC23	OC[C@]12C[C@@H]3C[C@H]1O[C@H]23	
InChI=1S/C7H10O2/c8-3-7-2-4-1-5(7)9-6(4)7/h4-6,8H,1-3H2	InChI=1S/C7H10O2/c8-3-7-2-4-1-5(7)9-6(4)7/h4-6,8H,1-3H2/t4-,5+,6-,7+/m0/s1
