19
gdb 1321	3.6997237	0.7678403	0.6709999	2.1112	80.44	-0.27761	-0.03981	0.2378	1690.2874	0.153336	-422.552889	-422.542344	-422.5414	-422.589523	36.727	
C	 3.2453402591	-2.2534474724	-0.6210535022	-0.394931
C	 1.7365162766	-2.4444893359	-0.417049344	 0.009474
C	 1.4363911169	-3.6427335284	 0.4922323508	-0.384942
C	 1.1321792296	-1.1570392862	 0.132426429	-0.054289
O	-0.3027962748	-1.3183994864	 0.183736158	-0.237333
C	-0.9872365662	-0.2808212327	 0.6897384181	 0.298246
O	-0.4945464641	 0.7453671702	 1.0882900998	-0.354214
C	-2.4090651459	-0.5554664584	 0.6954660014	 0.221643
C	-3.5973198769	-0.7300673226	 0.7249172405	-0.3595
H	 3.7488359916	-2.0459727207	 0.330451238	 0.118834
H	 3.6946672392	-3.1578662706	-1.0416616901	 0.119246
H	 3.4604727562	-1.4235432688	-1.3021917556	 0.116703
H	 1.2737187977	-2.6272276147	-1.3959169406	 0.088129
H	 1.8973073637	-3.508537885	 1.4783741629	 0.112461
H	 0.3606908105	-3.7693235492	 0.6363282749	 0.130957
H	 1.8355196533	-4.5663265648	 0.0617401745	 0.113669
H	 1.4992532508	-0.9355580675	 1.1409880194	 0.122679
H	 1.3640861658	-0.295159966	-0.5016997479	 0.121222
H	-4.6486110732	-0.8842132899	 0.7508215031	 0.211947
36.5465	59.4412	97.9153	163.4238	196.5477	214.4744	246.8615	266.9648	299.789	341.8597	421.3292	426.2932	566.7145	609.6701	656.8703	697.0713	775.0557	823.81	911.6504	927.0095	933.6188	957.9965	978.5127	1022.5618	1153.9018	1187.7798	1200.1937	1254.3872	1274.2471	1329.882	1373.3873	1399.7918	1405.4754	1427.6869	1488.2974	1490.4223	1502.7479	1506.0351	1514.1083	1790.7369	2237.1624	3020.5352	3028.3317	3032.3419	3043.3056	3087.437	3094.0858	3100.4218	3107.6834	3123.4527	3498.2188
CC(C)COC(=O)C#C	CC(C)COC(=O)C#C	
InChI=1S/C7H10O2/c1-4-7(8)9-5-6(2)3/h1,6H,5H2,2-3H3	InChI=1S/C7H10O2/c1-4-7(8)9-5-6(2)3/h1,6H,5H2,2-3H3
