19
gdb 871	3.1032674	1.2565235	0.9900325	2.5405	76.96	-0.24724	-0.02922	0.21802	1204.0872	0.15695	-422.56241	-422.553906	-422.552962	-422.595986	31.523	
O	 0.5810704911	 0.2360040328	-0.8242760492	-0.243283
C	 0.0291070952	-0.2329242952	 0.1358477728	 0.147314
C	-0.5343906477	 0.5867357005	 1.2953972041	 0.021973
C	-1.0394966325	 1.9674002573	 0.8482002738	-0.241334
C	-2.5132587271	 1.9656317462	 0.4084050082	-0.245525
C	-3.4882806489	 1.8762905953	 1.5600935959	-0.050738
C	-3.3229650391	 1.1888218748	 2.6891597248	-0.046956
C	-2.1739947039	 0.2691095244	 3.0173910936	-0.133232
O	-1.5090044158	-0.2519951931	 1.8799409028	-0.253142
H	-0.1029829864	-1.327870518	 0.2713620163	 0.097008
H	 0.3115779136	 0.725463167	 1.9972766162	 0.092727
H	-0.9137053495	 2.6917989346	 1.6589842823	 0.102243
H	-0.3927662593	 2.2863017894	 0.0239988042	 0.129331
H	-2.7110966461	 2.8932237383	-0.1395098073	 0.104436
H	-2.6924660442	 1.1545976387	-0.3105281207	 0.122087
H	-4.4020784214	 2.4561266864	 1.4502829714	 0.089718
H	-4.0881570433	 1.2471086339	 3.4608714159	 0.087424
H	-1.4521950861	 0.758330401	 3.6950566006	 0.10111
H	-2.5610028685	-0.6033211345	 3.5573556942	 0.11884
55.2219	108.2438	173.1487	238.3983	270.6514	318.308	336.1549	412.6777	491.51	590.146	616.3661	676.9739	756.6373	773.926	855.5167	907.0474	932.0972	963.3944	981.655	999.0518	1039.593	1050.7807	1090.0624	1107.5992	1176.5785	1194.9762	1230.0007	1256.8445	1291.6329	1320.4275	1352.4177	1374.7376	1378.1871	1399.5619	1411.0394	1419.2315	1475.87	1482.0759	1490.4866	1731.312	1839.9201	2908.669	2914.9517	2950.3371	3019.6792	3047.1397	3048.6165	3065.1825	3092.4538	3136.2753	3160.1339
O=CC1CCC=CCO1	O=C[C@H]1CCC=CCO1	
InChI=1S/C7H10O2/c8-6-7-4-2-1-3-5-9-7/h1,3,6-7H,2,4-5H2	InChI=1S/C7H10O2/c8-6-7-4-2-1-3-5-9-7/h1,3,6-7H,2,4-5H2/t7-/m1/s1
