19
gdb 3022	2.8355556	1.4278497	1.1713175	1.8227	76.82	-0.21965	0.01858	0.23823	1114.8233	0.155704	-422.541197	-422.532322	-422.531377	-422.574072	34.165	
C	 1.2835333509	 0.7727832225	-0.0293197855	-0.516215
C	-0.0684225717	 0.166501858	 0.1234564897	 0.354967
C	-0.4599920753	-1.0942212789	 0.3516750735	-0.300205
C	-1.9900955216	-0.9951575818	 0.3279862056	 0.328237
O	-2.7909996799	-2.1330346879	 0.4090097122	-0.497652
C	-2.2247546694	 0.3063205229	 1.1720507901	-0.286006
C	-1.4026561421	 0.9180740974	-0.0102685416	-0.155269
C	-2.1674502864	-0.0935959088	-0.9399222536	 0.149139
O	-3.4889063116	 0.2842145026	-1.2279307618	-0.456982
H	 1.4519421313	 1.5673836732	 0.7089396268	 0.127376
H	 2.0722944517	 0.0246090394	 0.0907821559	 0.125039
H	 1.4028769582	 1.2370976628	-1.0166272771	 0.130076
H	 0.1213579434	-1.9995918844	 0.4632737178	 0.096924
H	-2.7628922172	-2.4695463424	 1.3107112545	 0.283241
H	-3.2672282641	 0.6276611196	 1.1736440702	 0.108887
H	-1.7768237365	 0.3476401606	 2.1676354577	 0.083304
H	-1.3915898524	 1.9860835258	-0.2203046405	 0.070215
H	-1.628214762	-0.423451372	-1.8378750421	 0.063184
H	-4.0165116152	-0.5231906088	-1.237585602	 0.291739
143.5675	159.7461	176.03	212.3846	252.2126	284.8114	305.4275	408.055	440.1619	498.6985	522.4428	569.0241	621.0607	668.4286	773.1819	794.4772	861.8378	888.7555	946.2416	965.7725	1000.2013	1016.6385	1056.6174	1079.2672	1092.639	1110.5889	1135.9676	1160.3668	1199.5545	1207.2646	1229.6762	1278.5595	1295.2726	1336.0315	1363.3068	1385.5331	1413.131	1477.3484	1482.5665	1486.6631	1686.8234	3014.9074	3018.5497	3060.029	3067.383	3106.7954	3136.162	3143.9795	3220.6921	3791.2246	3812.8466
CC1=CC2(O)CC1C2O	CC1=C[C@@]2(O)C[C@@H]1[C@@H]2O	
InChI=1S/C7H10O2/c1-4-2-7(9)3-5(4)6(7)8/h2,5-6,8-9H,3H2,1H3	InChI=1S/C7H10O2/c1-4-2-7(9)3-5(4)6(7)8/h2,5-6,8-9H,3H2,1H3/t5-,6-,7+/m0/s1
