19
gdb 5460	2.8305201	1.3145665	1.1115494	0.9303	74.6	-0.2268	0.06721	0.29401	1170.1354	0.156124	-422.486699	-422.478351	-422.477407	-422.519584	32.157	
C	 1.6404635922	-0.0639977749	 1.2141413759	-0.380094
C	 1.0962031802	 0.2718164219	-0.1783783007	-0.19674
C	 1.819438765	-0.462859249	-1.3040728307	 0.017546
C	 1.4757577559	-1.949863296	-1.4293379428	-0.154444
C	 1.5929559869	-2.242659671	-2.9600289483	-0.028736
O	 2.0155113108	-1.0417741802	-3.5968686091	-0.285657
C	 1.1357575007	-0.3233199212	-2.6930649157	-0.036389
C	 0.3368295876	-1.6807791229	-2.3846838321	 0.313502
O	-0.9737366634	-2.0584144863	-2.3052954306	-0.450975
H	 1.5187743611	-1.1275796574	 1.4441417958	 0.118234
H	 2.7079665289	 0.1712703173	 1.2882404253	 0.115401
H	 1.1190376074	 0.5050673445	 1.9899274981	 0.112681
H	 0.0245805806	 0.037803982	-0.2216818623	 0.107103
H	 1.1859263141	 1.352603482	-0.3522108066	 0.092552
H	 2.8858107739	-0.2061268097	-1.3198356622	 0.070617
H	 1.5609756819	-2.7459567952	-0.700421282	 0.0945
H	 1.8695594706	-3.2004323909	-3.3803185084	 0.111773
H	 0.7814071088	 0.6286208609	-3.0861453374	 0.084022
H	-1.3326842432	-2.1117430839	-3.1992612462	 0.295103
84.2352	142.8803	179.7341	239.4084	313.9322	339.1529	371.7877	403.8307	500.6464	569.7359	615.1054	734.1558	764.9709	815.0458	842.4624	870.3053	895.5203	933.789	947.3329	967.549	991.4379	1042.5891	1044.3891	1065.8466	1096.6972	1105.2422	1146.6307	1151.4694	1200.7403	1223.2756	1255.0009	1276.5892	1298.1825	1318.6982	1355.9729	1392.1956	1411.7113	1485.5348	1488.6881	1499.0299	1506.4484	3012.5933	3030.3791	3033.0276	3052.6758	3100.0551	3104.616	3133.3357	3199.1972	3213.2439	3778.5956
CCC1C2C3OC1C23O	CC[C@H]1[C@@H]2[C@@H]3O[C@H]1[C@]23O	
InChI=1S/C7H10O2/c1-2-3-4-6-7(4,8)5(3)9-6/h3-6,8H,2H2,1H3	InChI=1S/C7H10O2/c1-2-3-4-6-7(4,8)5(3)9-6/h3-6,8H,2H2,1H3/t3-,4+,5+,6-,7+/m0/s1
