19
gdb 6063	7.8952381	0.4287754	0.4200072	2.8279	83.75	-0.24653	0.02924	0.27577	2476.1657	0.154583	-422.494953	-422.484464	-422.48352	-422.53372	35.224	
O	-5.3023816959	-2.5738224225	 3.8955901402	-0.420956
C	-5.0232208688	-2.2844475955	 2.5359752044	-0.074294
C	-3.6611817894	-1.6053933682	 2.4765523399	-0.156583
C	-3.2599479735	-1.2350918168	 1.0359644763	-0.363106
C	-1.9563139915	-0.5884458903	 0.9536508754	 0.04887
C	-0.8742222494	-0.0612696409	 0.899868358	 0.142755
C	 0.413525198	 0.5760888843	 0.865271011	-0.116237
C	 1.008104369	 1.0704408966	-0.3927007857	-0.160325
O	 1.4890884591	-0.1222428137	 0.2118977214	-0.216494
H	-6.157686947	-3.0106073446	 3.942202865	 0.286825
H	-5.0079811239	-3.2029020723	 1.9255295422	 0.08598
H	-5.7897259753	-1.620286808	 2.1022126351	 0.084646
H	-3.6844962526	-0.7046601617	 3.098392907	 0.118981
H	-2.9094224262	-2.2720119787	 2.9108327699	 0.122135
H	-3.2505361394	-2.1390695414	 0.4118461874	 0.13379
H	-4.0224504842	-0.57594061	 0.5986493579	 0.129456
H	 0.7156392616	 1.0696510733	 1.7886521569	 0.115278
H	 0.456334992	 0.9380205666	-1.3214494217	 0.12205
H	 1.6838782672	 1.9245477039	-0.3611439004	 0.117229
8.1445	60.9034	67.7618	113.2783	141.8871	160.2066	247.7951	258.5087	330.4184	389.3123	492.213	517.9583	542.5446	735.1494	754.7629	832.0168	864.3426	906.0644	991.8809	1018.9767	1032.1532	1083.8827	1087.7029	1115.6666	1149.2544	1160.1542	1187.426	1212.4231	1231.0787	1283.4913	1298.6179	1304.8914	1311.8401	1373.9474	1409.0825	1465.202	1472.5089	1499.1057	1519.2522	1528.33	2366.4433	2953.1183	2978.1377	3008.6492	3036.52	3054.9078	3082.553	3101.1148	3110.9519	3175.7583	3831.1102	8.1406	60.9033	67.762	113.2784	141.8868	160.2066	247.7953	258.5098	330.4195	389.3124	492.2132	517.9583	542.5452	735.1494	754.7629	832.0166	864.3427	906.0643	991.8809	1018.9768	1032.1532	1083.8828	1087.703	1115.6668	1149.2545	1160.1543	1187.4261	1212.4231	1231.0787	1283.4914	1298.618	1304.8914	1311.8401	1373.9474	1409.0824	1465.2019	1472.5091	1499.1058	1519.2523	1528.3299	2366.4437	2953.1183	2978.1377	3008.6491	3036.5199	3054.9078	3082.553	3101.1148	3110.9519	3175.7582	3831.1105
OCCCC#CC1CO1	OCCCC#C[C@@H]1CO1	
InChI=1S/C7H10O2/c8-5-3-1-2-4-7-6-9-7/h7-8H,1,3,5-6H2	InChI=1S/C7H10O2/c8-5-3-1-2-4-7-6-9-7/h7-8H,1,3,5-6H2/t7-/m1/s1
