19
gdb 4205	2.6383223	1.5269312	1.2160993	3.0486	74.37	-0.25354	-0.03524	0.2183	1072.1286	0.158033	-422.569322	-422.561288	-422.560344	-422.60183	31.168	
O	-0.7148598168	-0.8372167256	-1.0692413348	-0.447873
C	 0.3776336715	-1.1594041422	-1.8926723375	 0.118393
C	 0.4989991549	-0.3180054948	-3.1903681548	-0.250299
C	 1.9597661273	-0.4134175783	-3.5947453581	-0.023134
C	 2.6031119842	-1.7791931418	-3.5788741519	-0.307698
C	 2.7558600388	-0.8673100096	-2.3849809933	-0.036854
C	 1.7806199046	-1.0457664974	-1.2188769465	-0.148834
C	 1.9332277646	 0.1525313026	-0.3077030151	 0.161344
O	 1.1103333444	 1.0222161262	-0.1340767235	-0.266447
H	-0.536496568	 0.0448969388	-0.7141597298	 0.292292
H	 0.225306667	-2.2093311828	-2.1622348761	 0.093117
H	-0.1977172393	-0.6669244444	-3.9587379389	 0.104141
H	 0.2457118803	 0.7237322703	-2.9621026565	 0.111312
H	 2.3624517559	 0.3315646486	-4.2716570805	 0.088105
H	 1.9817036376	-2.6654638434	-3.5032983712	 0.118329
H	 3.4863441393	-1.9164764952	-4.1932562586	 0.115628
H	 3.7415111893	-0.4658104275	-2.1724694932	 0.0884
H	 2.0189047511	-1.9346105149	-0.6179836091	 0.09698
H	 2.9179451532	 0.2103389014	 0.2093408295	 0.093098
91.2421	130.7246	228.2022	250.122	318.2468	357.8987	396.8836	466.9054	581.1791	590.0114	632.7301	742.2147	761.0532	814.5735	825.846	875.2184	916.9376	949.2399	983.6324	1011.7395	1033.1511	1054.5001	1073.774	1093.9587	1116.5548	1136.4019	1140.7406	1180.4346	1207.6856	1235.5481	1266.1623	1298.4189	1339.5278	1348.3141	1366.2966	1393.9192	1429.6691	1473.4716	1489.4158	1502.425	1803.8214	2876.8652	3014.1444	3041.8532	3053.0773	3089.389	3132.561	3155.2358	3172.5639	3214.9484	3736.6306
OC1CC2CC2C1C=O	O[C@H]1C[C@@H]2C[C@@H]2[C@H]1C=O	
InChI=1S/C7H10O2/c8-3-6-5-1-4(5)2-7(6)9/h3-7,9H,1-2H2	InChI=1S/C7H10O2/c8-3-6-5-1-4(5)2-7(6)9/h3-7,9H,1-2H2/t4-,5-,6+,7-/m0/s1
