19
gdb 2032	2.7203611	1.8106315	1.5152671	0.5207	73.5	-0.23413	0.07464	0.30877	945.463	0.158814	-422.539321	-422.53205	-422.531106	-422.570358	30.116	
O	 0.3465201915	-0.4170569503	 0.4155116265	-0.474738
C	-0.9901993453	-0.0137917884	 0.5100121566	 0.394486
C	-1.6239779687	 0.2394663924	 1.8501927208	-0.358508
C	-1.9739135099	-1.0125205147	 1.0542420787	-0.075767
C	-3.3048387631	-1.1376383994	 0.3045399879	-0.239646
C	-3.3156563203	-0.1922523287	-0.9001756605	 0.102372
C	-2.0257711003	-0.2931436832	-1.7468446968	-0.24741
C	-1.5253945391	 0.7299643038	-0.7076390412	 0.017028
O	-2.8961237059	 1.135027474	-0.4496736517	-0.295167
H	 0.9005489616	 0.3551831447	 0.5771298615	 0.281937
H	-0.9926918475	 0.0948266875	 2.7203876296	 0.106084
H	-2.367168711	 1.0241987903	 1.925006672	 0.128891
H	-1.5462369301	-1.9323715585	 1.4375956859	 0.094898
H	-3.4417880772	-2.1674896011	-0.0463460238	 0.101846
H	-4.1529961653	-0.9070720254	 0.9600699301	 0.107231
H	-4.2805662093	-0.1626422006	-1.4129238994	 0.074668
H	-1.5067467825	-1.2516812578	-1.8048419503	 0.110161
H	-2.1550546675	 0.1415870693	-2.739060127	 0.105225
H	-0.8901921803	 1.5662386862	-1.0180143487	 0.066407
198.6574	221.6432	304.3912	347.0884	370.3715	405.9137	416.5604	499.8197	528.4475	620.0927	701.9307	789.4823	848.8781	851.8912	879.5193	913.5886	926.31	939.54	959.8157	971.5079	1015.8641	1039.2855	1060.9529	1092.0621	1101.3498	1113.4861	1126.1685	1195.2581	1226.4973	1242.8457	1248.7562	1260.4178	1310.1487	1329.5086	1340.6191	1354.5936	1376.9282	1403.6161	1468.8287	1483.6543	1489.3383	3028.002	3052.2755	3066.9458	3073.2707	3082.5548	3134.9579	3140.4015	3170.3442	3232.8017	3787.0225
OC12CC1CC1CC2O1	O[C@]12C[C@H]1C[C@@H]1C[C@H]2O1	
InChI=1S/C7H10O2/c8-7-3-4(7)1-5-2-6(7)9-5/h4-6,8H,1-3H2	InChI=1S/C7H10O2/c8-7-3-4(7)1-5-2-6(7)9-5/h4-6,8H,1-3H2/t4-,5-,6-,7-/m1/s1
