19
gdb 1084	3.825868	1.0774408	0.9802224	1.9948	76.87	-0.24194	-0.01677	0.22516999999999998	1245.8321	0.155136	-422.537948	-422.528813	-422.527869	-422.572587	33.728	
C	 2.8986783087	 0.6954001438	-0.6808166091	-0.492723
C	 1.4170122292	 0.8118715353	-0.3714565104	 0.249574
O	 1.0052147258	 1.0214806857	 0.7479105199	-0.295959
C	 0.4750127364	 0.6497397881	-1.5262296679	 0.266124
C	 0.4984309724	 1.3912111394	-2.9073113861	-0.303164
C	-0.7072875422	 0.4265000363	-2.951416903	 0.391192
O	-1.5395543851	 0.3246683787	-4.0468859855	-0.466799
C	-1.059876488	 0.8699643283	-1.4972269557	-0.327521
C	 0.2190783494	-0.670127779	-2.3342898972	-0.32863
H	 3.4731754744	 0.7509419456	 0.2445004984	 0.141932
H	 3.1145444665	-0.2450219543	-1.19906171	 0.138624
H	 3.2064292455	 1.5052804304	-1.3519725662	 0.144082
H	 0.2711293649	 2.4598207525	-2.8827310548	 0.10393
H	 1.331933197	 1.1633321459	-3.5763204571	 0.098417
H	-2.2792544033	-0.2488436106	-3.8188960302	 0.284502
H	-1.398775225	 1.8997465382	-1.3643994461	 0.102592
H	-1.6349711291	 0.169314103	-0.8867898624	 0.096932
H	-0.2630046181	-1.4807710577	-1.7809893583	 0.098417
H	 1.0379050207	-1.0303025298	-2.9620882782	 0.098478
30.0704	109.5233	140.1818	150.3906	243.6319	329.4359	369.7913	382.1354	473.8001	538.5695	555.43	595.5551	612.87	647.3031	775.2884	799.8936	922.2186	949.3474	956.3912	983.7277	997.5984	1046.8454	1057.8253	1065.614	1106.0834	1124.802	1135.2936	1149.5191	1161.5656	1171.2034	1195.5286	1291.967	1337.2094	1377.7861	1388.8032	1462.9491	1473.0821	1491.6089	1497.6377	1560.412	1797.9514	3038.5896	3049.5811	3055.6137	3064.6482	3099.619	3120.7402	3127.0266	3131.2596	3152.4325	3809.3522
CC(=O)C12CC(O)(C1)C2	CC(=O)[C@]12C[C@](O)(C1)C2	
InChI=1S/C7H10O2/c1-5(8)6-2-7(9,3-6)4-6/h9H,2-4H2,1H3	InChI=1S/C7H10O2/c1-5(8)6-2-7(9,3-6)4-6/h9H,2-4H2,1H3/t6-,7+
