19
gdb 5935	1.8795014	1.1049867	0.753599	2.4675	82.42	-0.24366	0.03411	0.27776999999999996	1571.4132	0.153105	-422.486517	-422.475799	-422.474855	-422.524349	35.934	
C	-3.2715595763	-3.4436815693	 1.2589795578	-0.222126
O	-2.7501196326	-2.1401361888	 1.1654639814	-0.225445
C	-3.1888233558	-1.4593800204	 0.0168912236	-0.126333
C	-2.5533738733	-0.0854993379	-0.0186310875	 0.194452
C	-3.3038112944	 1.017812601	-0.6552933443	-0.217978
O	-3.2374323439	 0.9175938029	 0.7600493087	-0.258722
C	-1.1119178496	-0.0429636972	 0.0146641551	 0.031844
C	 0.09170246	-0.0226418939	 0.0270752186	 0.117225
C	 1.5457893666	 0.0056308253	 0.0576516649	-0.503351
H	-2.87067158	-3.8895784492	 2.1720696863	 0.130684
H	-4.3717026961	-3.4416620272	 1.3176843147	 0.105066
H	-2.9754758067	-4.0651732583	 0.3985100116	 0.103008
H	-2.9090839514	-2.0133151518	-0.8961864214	 0.091617
H	-4.284509731	-1.3413022464	 0.0206881831	 0.091833
H	-2.7460235773	 1.8394797577	-1.1003609793	 0.120706
H	-4.2786079538	 0.8157971319	-1.0997285782	 0.11143
H	 1.9079704328	 0.7914649639	 0.7295171894	 0.154937
H	 1.9528409033	-0.9476660742	 0.4117453733	 0.152897
H	 1.9637837493	 0.1996738518	-0.9363626978	 0.148256
23.4834	56.6546	90.1644	102.184	129.2319	188.1193	234.9825	293.9204	320.6852	343.4108	373.2933	425.2211	533.2054	563.9755	676.4245	795.5247	916.7285	945.6578	1014.921	1027.2905	1051.0386	1054.0564	1062.4389	1134.0232	1159.0234	1172.8849	1184.0809	1228.9053	1258.7238	1300.8802	1370.8568	1413.5913	1427.1826	1475.9026	1476.9809	1477.443	1486.1887	1494.6628	1517.8639	1521.5111	2373.4851	2951.0581	2969.4336	2993.8389	3011.7713	3028.3298	3078.5181	3089.0401	3092.2341	3118.1788	3171.7679
COCC1(CO1)C#CC	COC[C@]1(CO1)C#CC	
InChI=1S/C7H10O2/c1-3-4-7(5-8-2)6-9-7/h5-6H2,1-2H3	InChI=1S/C7H10O2/c1-3-4-7(5-8-2)6-9-7/h5-6H2,1-2H3/t7-/m0/s1
