19
gdb 5075	2.7822959	1.1825424	1.1652381	2.4861	75.53	-0.23803	-0.01201	0.22602	1168.9931	0.157524	-422.581487	-422.573018	-422.572074	-422.614612	32.265	
O	 0.0188236645	-1.1959008065	 0.0266247579	-0.410785
C	 0.093515	 0.2205588866	 0.0448188566	-0.155182
C	-0.5587738384	 0.859516062	-1.158428321	 0.311791
C	-0.0854914321	 2.1846958343	-1.6501775174	-0.34374
C	 0.1709856109	 0.9436517715	-2.5013347551	-0.193616
C	-0.8280957667	 0.6631632603	-3.5761640539	 0.423259
O	-0.5781348723	 0.3555935609	-4.7153573062	-0.331327
C	-2.2327327591	 0.7516773754	-2.9562853584	-0.348772
C	-2.0268351383	 0.5218673022	-1.4456076089	-0.278679
H	 0.4720086597	-1.5007648096	-0.7669893907	 0.285243
H	-0.4270744422	 0.5279039534	 0.9593573978	 0.11687
H	 1.1348379133	 0.5694843864	 0.1303135039	 0.087857
H	-0.8041692466	 2.9207995289	-1.9954564745	 0.122254
H	 0.796978876	 2.6120223602	-1.1850156003	 0.124125
H	 1.1955816141	 0.6252143346	-2.6541135924	 0.100229
H	-2.6474781157	 1.7434966221	-3.1728842672	 0.129279
H	-2.8940242329	 0.0248699411	-3.4313707834	 0.132129
H	-2.7071250941	 1.1159897501	-0.8263980396	 0.103329
H	-2.18701355	-0.5304912439	-1.1935149971	 0.125736
81.7541	138.3502	144.4638	253.9407	276.6058	355.6458	371.2055	457.5604	502.9719	514.4391	579.6288	651.0758	692.3395	777.5205	810.1148	872.7073	923.766	938.9874	962.3734	999.3062	1003.2352	1052.3667	1055.6378	1070.1881	1085.0635	1159.8477	1182.0564	1201.9928	1227.6405	1244.2534	1285.0776	1313.1918	1320.4762	1376.7493	1401.9987	1425.507	1460.128	1488.3949	1498.6749	1506.7156	1832.278	2978.2483	3043.2164	3049.6956	3060.8565	3092.8761	3119.3382	3127.0351	3185.1268	3210.9274	3806.1883
OCC12CC1C(=O)CC2	OC[C@@]12C[C@@H]1C(=O)CC2	
InChI=1S/C7H10O2/c8-4-7-2-1-6(9)5(7)3-7/h5,8H,1-4H2	InChI=1S/C7H10O2/c8-4-7-2-1-6(9)5(7)3-7/h5,8H,1-4H2/t5-,7-/m1/s1
