19
gdb 4082	3.1363696	1.6983937	1.4457608	2.5296	73.12	-0.21998	0.08165	0.30163	966.3906	0.158977	-422.5451	-422.537878	-422.536934	-422.576607	28.806	
C	 0.1490682607	-0.3383256334	-0.0784058591	-0.404816
C	 1.4974867996	 0.3339506006	 0.1631366291	 0.138175
O	 2.1943431059	-0.3158804027	 1.2419409045	-0.264915
C	 3.1256213427	-1.2112864323	 0.7018949718	 0.06112
C	 4.3704021999	-0.6367442051	 0.0451949063	 0.064792
O	 4.512052408	 0.7576440738	 0.0190506128	-0.253656
C	 3.5991722274	 1.2758645746	-0.9514141677	-0.085121
C	 2.4575884122	 0.2495944645	-1.0452479317	-0.083273
C	 3.2010977255	-1.0807398587	-0.7974622591	-0.181122
H	-0.4281124351	-0.3634043164	 0.8497788023	 0.126804
H	-0.4299882246	 0.2065823594	-0.8319346659	 0.110137
H	 0.2844235111	-1.368125466	-0.4251289254	 0.120795
H	 1.3431282551	 1.3727481524	 0.4762966932	 0.08404
H	 3.1764314265	-2.165970439	 1.2155284161	 0.096478
H	 5.3081755512	-1.1812886911	 0.0873687457	 0.097075
H	 3.2728401714	 2.2642869423	-0.6137782847	 0.108932
H	 4.102855863	 1.3852181269	-1.9240165013	 0.091123
H	 1.9325120939	 0.291698724	-2.00131634	 0.080602
H	 3.2031593855	-1.8956357539	-1.5092381071	 0.09283
100.2348	213.694	241.4481	269.9387	337.3306	435.3594	582.0505	641.5324	728.0281	734.3064	766.8062	784.523	796.1008	819.4698	885.662	933.5338	957.3177	993.3555	1003.8441	1013.2501	1047.9554	1058.4583	1073.7995	1098.7939	1116.2273	1131.9596	1137.4182	1183.8152	1213.6913	1242.7953	1267.9868	1295.7469	1309.4227	1339.8511	1365.3899	1396.0796	1402.1324	1412.6833	1487.008	1494.4584	1515.9935	2986.8358	3033.4855	3044.8269	3082.6715	3099.3822	3105.1215	3119.2005	3157.258	3165.1632	3193.2082
CC1OC2C3OCC1C23	C[C@H]1O[C@@H]2[C@@H]3OC[C@H]1[C@H]23	
InChI=1S/C7H10O2/c1-3-4-2-8-6-5(4)7(6)9-3/h3-7H,2H2,1H3	InChI=1S/C7H10O2/c1-3-4-2-8-6-5(4)7(6)9-3/h3-7H,2H2,1H3/t3-,4-,5+,6-,7+/m1/s1
