19
gdb 4585	2.4539589	1.3950575	0.9470541	0.8339	77.57	-0.25057	0.04995	0.30052	1227.7282	0.156944	-422.534063	-422.525202	-422.524258	-422.567301	33.775	
O	-1.6809785069	-1.993138967	 3.3086787162	-0.42972
C	-1.1830100849	-0.8454921084	 2.6489655597	 0.133739
C	-0.3520463724	 0.0487756035	 3.5760982153	-0.237078
C	 0.1280998779	 1.3034089108	 2.8425741796	-0.086837
O	-0.9597570742	 2.0260807129	 2.2912935316	-0.238474
C	-1.6782521685	 1.2651477223	 1.3465082659	-0.094921
C	-2.3011220896	-0.0037820016	 1.9835293664	-0.225629
C	-3.0554097745	-0.7579637212	 0.9924343569	 0.316573
C	-3.6567639401	-1.3495474372	 0.1361207262	-0.436677
H	-2.2598430545	-1.7008209578	 4.0216964036	 0.277806
H	-0.5396353253	-1.2391811654	 1.8525024964	 0.099501
H	-0.9699451675	 0.3524627501	 4.4322714296	 0.09485
H	 0.4987610556	-0.5186431902	 3.9673526523	 0.10807
H	 0.6399221193	 1.9885403925	 3.5236357119	 0.112185
H	 0.8389880304	 1.0253515627	 2.0456301531	 0.092062
H	-2.4642524582	 1.9108416509	 0.948532715	 0.12265
H	-1.0280361474	 0.9620106057	 0.5092470746	 0.099789
H	-2.9807373035	 0.3349523388	 2.7799023121	 0.097639
H	-4.1958690958	-1.8854844413	-0.6052336062	 0.194471
98.3936	134.4289	181.0258	243.6124	272.8664	329.7425	361.4218	392.2716	437.163	464.6844	521.0405	526.6056	619.735	636.3468	639.763	800.8276	892.2981	895.9061	968.8791	1004.7582	1036.7721	1049.7289	1092.6121	1101.6517	1122.426	1171.4767	1199.3524	1240.8957	1261.1264	1294.1255	1315.8494	1335.3453	1356.7047	1375.8827	1395.0272	1411.2743	1432.7529	1477.1824	1493.7931	1506.1382	2236.8687	2963.162	2974.6459	2997.4067	3018.7324	3044.4409	3084.6697	3091.1944	3104.7352	3505.0712	3798.4674
OC1CCOCC1C#C	O[C@@H]1CCOC[C@H]1C#C	
InChI=1S/C7H10O2/c1-2-6-5-9-4-3-7(6)8/h1,6-8H,3-5H2	InChI=1S/C7H10O2/c1-2-6-5-9-4-3-7(6)8/h1,6-8H,3-5H2/t6-,7-/m1/s1
