19
gdb 5942	2.3682894	1.3246151	1.0101947	1.0272	77.72	-0.24139	0.01956	0.26095	1245.2209	0.153935	-422.482562	-422.4725	-422.471556	-422.518811	35.062	
C	 1.0115168526	 0.7987249975	-0.3349556962	-0.240647
O	 0.4878084376	 0.8309638079	 0.979801909	-0.238751
C	-0.4547487226	-0.1727055545	 1.2818316066	-0.126667
C	-1.907350523	 0.3258302431	 1.1605318531	 0.211721
C	-2.276410755	 1.4539463257	 2.1650732814	-0.320483
C	-3.1732870719	 0.3885921686	 2.8217496307	-0.071388
O	-2.7937655494	-0.6078678557	 1.8437775827	-0.3131
C	-2.3236989178	 0.5488481257	-0.2188155748	 0.324258
C	-2.6943775997	 0.7277132221	-1.3489878992	-0.46518
H	 0.2425535576	 0.9850673547	-1.0935991225	 0.126554
H	 1.7671748388	 1.58635547	-0.3912108129	 0.125338
H	 1.4922969177	-0.1675082993	-0.5494633776	 0.106747
H	-0.3176918087	-1.0675954078	 0.6595549967	 0.104016
H	-0.3051785789	-0.4614471267	 2.3285608317	 0.106847
H	-1.4324050318	 1.8115725276	 2.7551867978	 0.128572
H	-2.8004202006	 2.3010923418	 1.7247288973	 0.123451
H	-2.8952079412	 0.0849534979	 3.8375372438	 0.106645
H	-4.2497699304	 0.5912953087	 2.7929859396	 0.110921
H	-3.0210781631	 0.8801291026	-2.3481995773	 0.201146
35.6188	59.2625	98.6255	135.7293	168.813	187.6392	244.826	322.4369	392.465	451.6488	524.1068	552.7745	617.3848	663.0717	666.248	784.83	853.9167	925.4683	941.6779	969.4855	981.2074	1011.4252	1032.1633	1124.0744	1156.8512	1180.0028	1189.9868	1202.386	1219.0979	1244.3799	1260.2234	1326.2757	1347.5131	1385.5906	1475.5697	1485.7273	1489.4642	1496.8689	1512.7106	1529.2736	2227.0131	2990.6267	3011.164	3026.2424	3065.3742	3067.065	3068.6687	3096.564	3116.2872	3156.3326	3498.8227
COCC1(CCO1)C#C	COC[C@@]1(CCO1)C#C	
InChI=1S/C7H10O2/c1-3-7(6-8-2)4-5-9-7/h1H,4-6H2,2H3	InChI=1S/C7H10O2/c1-3-7(6-8-2)4-5-9-7/h1H,4-6H2,2H3/t7-/m0/s1
