19
gdb 3893	2.8686699	1.0946146	0.9187705	4.1428	78.27	-0.23435	-0.0137	0.22065	1325.5894	0.154706	-422.535939	-422.526846	-422.525902	-422.57052	33.202	
C	 1.9587302585	 1.3847468929	-0.4563145801	-0.398476
C	 1.4986408672	 0.023270331	 0.0192032938	 0.156804
C	 2.2421916714	-0.6213790299	 1.2165127351	-0.381948
C	 2.6242932135	-1.6903292692	 0.2032920801	 0.450407
C	 2.6997088414	-3.1591082475	 0.3160945958	-0.376182
C	 3.9765020838	-2.3538696128	 0.0029010352	-0.189818
C	 4.5354928505	-2.4414056259	-1.3638418468	 0.173164
O	 5.7102458318	-2.3467880351	-1.6265123426	-0.274842
O	 1.9397816669	-1.0502524732	-0.8655504532	-0.316643
H	 1.6354086026	 2.1612604266	 0.2456536057	 0.119678
H	 3.0491139799	 1.4207825929	-0.540335612	 0.128148
H	 1.5301090835	 1.610692566	-1.4374373546	 0.132722
H	 0.4065784333	-0.00519545	 0.1154752636	 0.085938
H	 3.0739439345	-0.032075163	 1.608387666	 0.120391
H	 1.6114372081	-0.9595668325	 2.0404791309	 0.118403
H	 2.6350958357	-3.6295033823	 1.291180254	 0.129656
H	 2.2836663645	-3.7367962097	-0.5041076191	 0.135504
H	 4.7133621058	-2.2352767266	 0.790888274	 0.106262
H	 3.7757928671	-2.6020880814	-2.1605781258	 0.080832
38.4754	103.3219	143.5412	185.9697	233.7362	308.9294	342.1537	387.8086	401.7018	451.537	536.9187	573.1479	779.3053	819.3456	843.4405	878.4239	899.037	922.5995	928.9908	975.7638	1038.7345	1048.2763	1063.4431	1078.8838	1101.0532	1128.0481	1167.3949	1193.9803	1210.1944	1246.0567	1274.3548	1321.7631	1372.5013	1399.6757	1413.3935	1444.1224	1476.0115	1482.5936	1493.6627	1498.2583	1812.4657	2887.8188	3029.7977	3035.4667	3073.4507	3108.1149	3116.9259	3126.5989	3129.2232	3168.8391	3218.9137
CC1CC2(CC2C=O)O1	C[C@@H]1C[C@@]2(C[C@H]2C=O)O1	
InChI=1S/C7H10O2/c1-5-2-7(9-5)3-6(7)4-8/h4-6H,2-3H2,1H3	InChI=1S/C7H10O2/c1-5-2-7(9-5)3-6(7)4-8/h4-6H,2-3H2,1H3/t5-,6+,7+/m1/s1
