19
gdb 2448	2.8332842	1.8466526	1.5828388	1.1865	73.74	-0.21673	0.08302	0.29975	934.3823	0.158955	-422.553295	-422.546039	-422.545095	-422.584515	29.273	
C	 0.0723357336	-0.1531609038	 0.0513179039	-0.461979
C	 1.5599785617	 0.0576686562	 0.1071218417	 0.415352
O	 2.0654772437	-0.3680461035	 1.352873721	-0.316879
C	 3.4882287247	-0.4588854647	 1.4378146426	-0.061782
C	 4.1386631697	 0.2333107064	 0.2446920925	 0.025024
C	 3.5321824587	 1.6419300319	 0.0639163531	-0.236139
C	 2.1840042208	 1.2846839493	-0.5415794404	-0.182997
C	 2.4026685017	-0.1030704958	-1.1330629481	 0.01964
O	 3.7412587239	-0.490390531	-0.9280181318	-0.261563
H	-0.4249789143	 0.4183675278	 0.8418779901	 0.126942
H	-0.3286182822	 0.1740368757	-0.9123219953	 0.11636
H	-0.1713923545	-1.211214913	 0.1885181652	 0.127611
H	 3.798144392	 0.0033923815	 2.3841228212	 0.09795
H	 3.790600685	-1.5148243951	 1.4487982018	 0.103538
H	 5.2279097721	 0.2040673176	 0.3099766592	 0.086487
H	 3.4586777639	 2.1724542841	 1.0178991767	 0.11009
H	 4.126084199	 2.2453258984	-0.6291548278	 0.108061
H	 1.5723506684	 2.0417511293	-1.0187668985	 0.084917
H	 2.0018046922	-0.4526497112	-2.077411017	 0.099365
157.9462	200.0164	241.5933	303.9528	356.1959	415.5087	512.3113	556.2175	602.6613	686.8481	705.351	812.2232	835.4468	853.0375	863.0711	908.7356	914.7105	986.7873	1004.7687	1016.0852	1037.3258	1067.2463	1089.7729	1109.1451	1120.3437	1140.4244	1185.5043	1211.0569	1243.6924	1251.9749	1263.1093	1303.8636	1340.9989	1359.1693	1406.6287	1413.5922	1436.7007	1476.7303	1489.2588	1505.1305	1509.7771	3004.4512	3036.2923	3043.7281	3052.4153	3098.0531	3103.1562	3104.1418	3115.637	3171.5623	3182.571
CC12OCC3CC1C2O3	C[C@]12OC[C@@H]3C[C@H]1[C@H]2O3	
InChI=1S/C7H10O2/c1-7-5-2-4(3-8-7)9-6(5)7/h4-6H,2-3H2,1H3	InChI=1S/C7H10O2/c1-7-5-2-4(3-8-7)9-6(5)7/h4-6H,2-3H2,1H3/t4-,5-,6+,7-/m0/s1
