19
gdb 3765	2.5103982	1.1699188	0.9794721	2.0545	77.83	-0.25572	0.03093	0.28665	1301.5071	0.152168	-422.508415	-422.497906	-422.496962	-422.543686	38.044	
C	 3.397964904	 2.1251928214	-3.2809119074	-0.425186
C	 3.6164848716	 1.658627522	-1.8660783503	 0.082913
O	 4.5107383891	 0.5422773815	-1.6868773075	-0.27316
C	 3.1332942278	 0.361861588	-1.3840564222	 0.056153
C	 2.786780945	 0.0862474465	 0.0817469303	 0.136851
C	 3.3751854077	-1.2756313436	 0.4954088646	-0.419127
O	 3.3652437813	 1.1319307198	 0.8586631304	-0.44503
C	 1.3214340983	 0.0854903713	 0.2253091353	 0.322268
C	 0.1270210478	 0.0822402138	 0.361848834	-0.496423
H	 3.2562019734	 1.2772465293	-3.9565637546	 0.124245
H	 2.514993465	 2.7708010347	-3.3380004595	 0.124841
H	 4.2593326313	 2.7029246421	-3.6320037408	 0.129446
H	 3.7527551188	 2.4351562041	-1.1168269028	 0.114387
H	 2.5938993629	-0.2876308364	-2.0750062875	 0.095151
H	 3.1437192707	-1.4875933456	 1.5437320215	 0.113006
H	 2.960712476	-2.0845810983	-0.1128061091	 0.125719
H	 4.4586340958	-1.2406891898	 0.3617747896	 0.147147
H	 3.1055164966	 0.9911930902	 1.7749677268	 0.285194
H	-0.9286356231	 0.0861816389	 0.4803732095	 0.201604
55.2828	112.1959	170.5303	186.3793	196.9307	212.6078	226.9096	261.2014	298.5925	387.0262	404.2777	434.0856	503.4438	568.8039	591.9132	635.2867	671.1811	775.0174	796.6825	867.38	926.003	969.3278	1004.1414	1033.8526	1068.1631	1112.4591	1157.0609	1170.4821	1176.374	1194.9749	1288.5217	1334.5538	1378.3349	1396.4765	1410.8934	1472.4613	1485.7409	1488.0032	1492.7352	1512.9402	2229.4598	3036.2421	3042.4259	3101.3232	3101.7417	3115.4373	3115.8338	3139.6559	3150.8891	3499.6648	3821.5967
CC1OC1C(C)(O)C#C	C[C@@H]1O[C@H]1[C@@](C)(O)C#C	
InChI=1S/C7H10O2/c1-4-7(3,8)6-5(2)9-6/h1,5-6,8H,2-3H3	InChI=1S/C7H10O2/c1-4-7(3,8)6-5(2)9-6/h1,5-6,8H,2-3H3/t5-,6+,7-/m0/s1
