19
gdb 1942	2.323774	1.6621335	1.3194953	1.4445	75.3	-0.20192	0.06112	0.26304	1044.7349	0.154389	-422.484538	-422.475461	-422.474517	-422.517452	35.217	
C	-0.0434068795	-0.3184897331	-0.1305628939	-0.490146
C	 1.4313080337	-0.1088507602	 0.0590803963	 0.28433
C	 2.3035024381	 0.6621995457	-0.8989780924	-0.358031
C	 2.6003797703	-0.7945914721	-0.6292242091	-0.174115
C	 3.263002723	-1.0784135752	 0.7546412696	 0.299363
O	 3.8415985666	-2.2993394424	 1.042682328	-0.45645
C	 3.510212593	 0.1723325563	 1.5735842827	-0.413727
C	 2.1134223493	-0.3766073158	 1.4482774709	 0.287473
O	 1.389929585	-0.6575916955	 2.5910286211	-0.443784
H	-0.6265377934	 0.4878889297	 0.3292726468	 0.127919
H	-0.2964992892	-0.3502207364	-1.195004376	 0.118909
H	-0.3822490404	-1.2617903043	 0.3152066243	 0.10444
H	 1.8421675451	 0.8539314563	-1.8651205312	 0.107866
H	 2.9682519223	 1.4584093113	-0.5836193611	 0.111791
H	 2.5572117806	-1.5566245805	-1.3984210276	 0.088918
H	 4.7842867482	-2.2445652416	 0.8477678839	 0.28639
H	 3.9274957441	-0.070436879	 2.5473499619	 0.120894
H	 3.840634135	 1.1250188371	 1.1718928744	 0.107061
H	 0.9377590383	-1.4991813803	 2.4650523014	 0.290899
132.0539	150.0673	191.6621	238.9584	263.7822	298.988	322.2761	363.1746	414.5649	467.0874	468.8013	525.173	572.0927	668.3839	719.974	799.1947	822.7091	851.6956	884.7823	914.7605	961.8349	982.8045	1006.4794	1044.7661	1051.6467	1091.412	1104.2647	1118.8745	1156.2239	1214.9055	1257.7264	1275.7882	1293.9014	1355.2007	1374.287	1413.1858	1423.043	1484.4651	1493.7169	1501.1913	1526.2134	3017.9814	3072.5174	3097.2149	3110.1951	3123.2019	3181.0142	3194.7015	3203.1424	3776.5097	3794.6263	132.054	150.0684	191.6617	238.9584	263.788	298.9902	322.2762	363.1749	414.5649	467.0874	468.8014	525.173	572.0925	668.3841	719.9738	799.1948	822.7093	851.6956	884.7823	914.7611	961.8349	982.8048	1006.4799	1044.7664	1051.647	1091.4119	1104.265	1118.8746	1156.2246	1214.9059	1257.7265	1275.788	1293.9017	1355.2008	1374.2869	1413.1861	1423.0433	1484.4654	1493.7169	1501.1912	1526.2138	3017.9815	3072.5174	3097.2148	3110.1951	3123.2019	3181.0143	3194.7015	3203.1424	3776.5115	3794.627
CC12CC1C1(O)CC21O	C[C@]12C[C@H]1[C@@]1(O)C[C@@]21O	
InChI=1S/C7H10O2/c1-5-2-4(5)6(8)3-7(5,6)9/h4,8-9H,2-3H2,1H3	InChI=1S/C7H10O2/c1-5-2-4(5)6(8)3-7(5,6)9/h4,8-9H,2-3H2,1H3/t4-,5+,6+,7-/m1/s1
