19
gdb 1343	3.6173305	0.799553	0.6932975	1.4452	79.28	-0.25125	-0.03598	0.21526999999999996	1582.4504	0.153652	-422.566406	-422.556405	-422.555461	-422.60265	34.626	
C	-2.2522250439	 2.8590033084	 2.2749892822	-0.414314
C	-0.8032236233	 2.7253234566	 1.7770512187	-0.089525
C	-0.5627953769	 3.6831358602	 0.6206544644	 0.169348
O	 0.2498123397	 4.5695872669	 0.6153729869	-0.244032
C	-0.4978921272	 1.308962466	 1.3111791679	-0.015953
C	 0.8954787882	 0.7808078225	 1.2827485759	-0.307014
C	-0.0726449626	 0.2671839777	 2.3420714079	-0.109228
C	-0.6034569563	-1.1070396376	 2.2050311731	 0.164196
O	-0.8864416218	-1.8340897744	 3.1237416551	-0.264292
H	-2.4450284913	 2.1443201467	 3.0799533197	 0.137924
H	-2.4486621067	 3.8661342931	 2.6535118979	 0.13368
H	-2.9662682411	 2.6550024623	 1.4690469991	 0.124445
H	-0.1029286195	 3.0070584454	 2.5704880192	 0.098672
H	-1.2203566597	 3.4989628803	-0.2630886182	 0.071853
H	-1.1642650775	 0.9399568039	 0.533222224	 0.099327
H	 1.1758328626	 0.0992945449	 0.4864024322	 0.128981
H	 1.6990164379	 1.4179633309	 1.6347985355	 0.140736
H	 0.070102932	 0.6003090277	 3.3644262	 0.111197
H	-0.7315003427	-1.4372602517	 1.1452260085	 0.064001
41.803	57.6111	87.9519	158.2444	199.5716	220.2834	274.6988	301.6373	324.7343	389.0309	442.7005	526.0818	539.7111	804.4981	858.3877	865.0233	897.2226	935.5199	957.9336	1000.5665	1038.624	1054.9216	1076.259	1106.0698	1127.1313	1155.6546	1182.9689	1197.0675	1218.3055	1262.3526	1310.9466	1329.0414	1404.7572	1416.5978	1428.8949	1444.9867	1486.8381	1497.4854	1498.1812	1823.356	1838.2578	2834.2003	2843.4858	3036.0412	3060.2208	3105.6168	3119.8795	3124.4604	3135.9492	3178.8769	3224.2697
CC(C=O)C1CC1C=O	C[C@H](C=O)[C@H]1C[C@@H]1C=O	
InChI=1S/C7H10O2/c1-5(3-8)7-2-6(7)4-9/h3-7H,2H2,1H3	InChI=1S/C7H10O2/c1-5(3-8)7-2-6(7)4-9/h3-7H,2H2,1H3/t5-,6-,7-/m1/s1
