19
gdb 5483	3.0543465	1.2967296	1.1167144	1.4372	75.29	-0.22098	0.06388	0.28486	1159.1149	0.154547	-422.458209	-422.449434	-422.448489	-422.491371	32.996	
C	 1.410802551	-0.0320335267	 0.0355639042	-0.240899
O	 0.0039800905	-0.0480544231	 0.1890583818	-0.255861
C	-0.4276997321	 0.7150683721	 1.2717766902	 0.077693
C	-1.9070248538	 0.9753695074	 1.2596503083	-0.211048
C	-2.354840231	 1.7475683755	 2.5333750225	 0.018825
O	-1.2210393566	 1.9709595815	 3.3887998201	-0.245949
C	-1.4152058725	 2.828439344	 2.2508901892	-0.045131
C	-0.9274113652	 2.1147206217	 0.946391704	 0.259151
C	-0.680445402	 2.8293468211	-0.347028095	-0.504045
H	 1.9154017198	-0.4123804174	 0.9358859926	 0.112896
H	 1.648133805	-0.6849183592	-0.8074869533	 0.1276
H	 1.7898933354	 0.9780206168	-0.173778866	 0.111076
H	 0.092154815	 0.5143835416	 2.2056607614	 0.109003
H	-2.5683040369	 0.4517281779	 0.5819524509	 0.099477
H	-3.3343558659	 1.7404630999	 2.9960076659	 0.110893
H	-1.4574420565	 3.896690641	 2.4324711919	 0.105569
H	-0.497882164	 2.1059243623	-1.1461743489	 0.13774
H	-1.5395981858	 3.4442553941	-0.6403004725	 0.116863
H	 0.1914584757	 3.4922008195	-0.2790258173	 0.116147
98.3571	165.2386	171.5449	214.6891	225.74	259.7892	318.9283	410.5949	414.176	456.0775	609.3378	679.1112	759.9163	795.5824	816.5995	861.2545	873.5644	909.7374	932.1185	978.5499	1032.0135	1040.2312	1063.5715	1106.9352	1116.719	1165.2594	1180.8705	1183.3241	1189.9287	1236.0826	1246.3023	1262.9297	1337.0619	1364.827	1410.5049	1433.9821	1482.3812	1485.7104	1492.1911	1498.6238	1508.5382	2988.5937	3017.2477	3040.7991	3068.9508	3114.5495	3120.1416	3130.4617	3174.3472	3192.0214	3207.3856
COC1C2C3OC3C12C	CO[C@@H]1[C@H]2[C@H]3O[C@H]3[C@@]12C	
InChI=1S/C7H10O2/c1-7-3(5(7)8-2)4-6(7)9-4/h3-6H,1-2H3	InChI=1S/C7H10O2/c1-7-3(5(7)8-2)4-6(7)9-4/h3-6H,1-2H3/t3-,4-,5-,6-,7-/m1/s1
