19
gdb 3724	3.8868457	1.2464148	1.101901	2.9026	75.47	-0.22953	0.0588	0.28833000000000003	1140.3904	0.156652	-422.499265	-422.491202	-422.490258	-422.531869	31.36	
O	 0.4665434978	 0.3347384343	 0.9950342506	-0.43572
C	-0.8691209032	 0.6631700137	 0.7856910966	 0.047531
C	-1.8174263392	 0.7590639359	 1.9786490965	-0.39193
C	-1.8738954223	-0.4119686688	 1.0469888517	 0.42195
O	-1.334953212	-1.6887086264	 1.4389809567	-0.339134
C	-2.2543053092	-2.3701225676	 0.5412355039	 0.120397
C	-3.525632023	-2.8579536373	 1.2648684417	-0.229031
C	-4.2184638074	-1.4929530457	 0.9516976663	-0.231501
C	-2.9522186612	-1.0259104125	 0.1762428218	-0.193972
H	 0.4867940459	-0.6255570703	 1.1223048465	 0.293233
H	-1.0200567462	 1.348976785	-0.0449002638	 0.096763
H	-1.384391726	 0.5848088376	 2.9583908217	 0.127346
H	-2.6219417173	 1.4877858732	 1.9462957466	 0.114547
H	-1.7312311487	-3.0336067722	-0.1505655164	 0.08272
H	-4.0025161237	-3.7086880375	 0.7706899398	 0.105165
H	-3.3676998373	-3.1010215393	 2.3174819413	 0.115603
H	-5.1038016683	-1.5893537521	 0.3199478009	 0.10444
H	-4.4752994481	-0.8757649148	 1.8159051955	 0.109378
H	-3.0720081405	-0.6359986952	-0.8338508977	 0.082212
79.3909	140.355	175.7559	267.2092	312.5255	381.3008	424.2109	449.9885	554.6915	620.6129	727.2965	753.7307	804.6089	826.689	836.2568	870.3871	917.9086	927.8081	953.6106	975.1124	1000.8861	1014.536	1033.6578	1063.4719	1091.1861	1133.8498	1159.265	1170.6102	1184.9871	1209.2917	1241.1749	1262.1518	1276.0203	1284.6118	1317.8512	1332.2662	1391.9922	1416.8381	1462.1467	1481.7475	1490.612	3061.9447	3068.2138	3087.7412	3110.0657	3118.8756	3121.6207	3130.712	3131.8069	3217.4527	3713.9745
OC1CC11OC2CCC12	O[C@@H]1C[C@@]21O[C@H]1CC[C@@H]21	
InChI=1S/C7H10O2/c8-6-3-7(6)4-1-2-5(4)9-7/h4-6,8H,1-3H2	InChI=1S/C7H10O2/c8-6-3-7(6)4-1-2-5(4)9-7/h4-6,8H,1-3H2/t4-,5+,6-,7-/m1/s1
