19
gdb 4311	3.5319324	1.2511837	0.9788327	2.7739	77.79	-0.23846	0.0133	0.25176	1194.3538	0.158303	-422.542039	-422.534098	-422.533153	-422.574246	30.955	
O	-0.0191488178	 1.4371182647	 0.0950682703	-0.436336
C	 0.0090849102	 0.0183226515	 0.0273664318	 0.121293
C	 0.8547954172	-0.4674186324	-1.1765250876	-0.272181
C	 0.5032722269	-1.8594849484	-1.6531002207	-0.211746
C	-0.4612706241	-2.5274346336	-1.041277351	 0.240532
C	-1.5119570445	-3.5738926372	-1.3173382632	-0.162774
O	-2.4516017061	-2.7997856752	-0.515349023	-0.310265
C	-1.3686192703	-1.9871573612	 0.0257325347	 0.095894
C	-1.4488422021	-0.4709951401	-0.035278567	-0.24931
H	 0.8878398921	 1.7504602594	 0.1739556471	 0.280407
H	 0.4551606864	-0.3893353656	 0.9505887643	 0.069628
H	 0.6805408992	 0.2344275865	-2.0044836331	 0.120787
H	 1.9236153409	-0.3839097565	-0.9321168193	 0.098817
H	 0.9863563006	-2.2282411064	-2.5544890432	 0.092747
H	-1.8435433678	-3.6930268033	-2.3549219597	 0.118589
H	-1.334611472	-4.5654203399	-0.8770052865	 0.105223
H	-1.1364114618	-2.3243940661	 1.0478375947	 0.078614
H	-2.0164754473	-0.0301211957	 0.7888949444	 0.10827
H	-1.9087253297	-0.1621856704	-0.979741993	 0.111812
115.5713	172.198	256.5453	287.9492	309.2019	324.7613	399.7756	414.7587	468.866	536.7343	646.8076	751.7809	806.1759	834.505	865.2416	931.6969	951.7013	972.4713	980.5401	1017.2713	1057.5705	1083.0298	1095.7338	1108.8467	1130.2962	1141.1337	1160.4165	1228.4306	1238.8082	1285.3822	1303.4456	1310.8487	1318.7968	1359.0669	1388.9383	1389.877	1441.6366	1479.2306	1498.0677	1512.154	1791.1535	2948.7495	2977.2318	2999.5226	3000.1954	3031.5028	3054.027	3061.8319	3106.7801	3157.9522	3811.4034
OC1CC=C2COC2C1	O[C@@H]1C[CH][C]2CO[C@@H]2C1	
InChI=1S/C7H10O2/c8-6-2-1-5-4-9-7(5)3-6/h1,6-8H,2-4H2	InChI=1S/C7H10O2/c8-6-2-1-5-4-9-7(5)3-6/h1,6-8H,2-4H2/t6-,7-/m1/s1
