19
gdb 1892	2.8937677	1.4303445	1.1478187	1.8497	76.21	-0.24206	0.06271	0.30477	1125.5644	0.155452	-422.501861	-422.493252	-422.492308	-422.535076	32.317	
C	-0.2709660724	-3.0655138508	 0.1978711146	-0.503073
C	-1.0055165507	-2.1044223662	-0.6775552185	 0.339948
C	-2.4966723384	-2.0842327246	-1.0632330298	-0.279933
C	-2.38622121	-0.5311466257	-1.252437433	-0.305026
C	-0.8988464642	-0.6391849777	-0.8724695632	 0.36868
O	-0.3029157908	-1.5461709956	-1.8067697753	-0.3246
C	-0.0372693929	 0.3921813549	-0.2420586839	-0.063846
C	 1.2438136411	 0.8004606302	-0.8392732125	-0.175224
O	 1.2048442283	-0.050121905	 0.3082447559	-0.23096
H	-0.1837393199	-4.0425295708	-0.2916397072	 0.126249
H	 0.7299371706	-2.6848540611	 0.4085788481	 0.156848
H	-0.8029727483	-3.2108724378	 1.1436600465	 0.120698
H	-2.7499367688	-2.6713309524	-1.9492015542	 0.109102
H	-3.1600592286	-2.3608653717	-0.2400696508	 0.105134
H	-2.5779019643	-0.1398994671	-2.2542529044	 0.10957
H	-2.9812069473	 0.0238397246	-0.5225182381	 0.105498
H	-0.5744500522	 1.1112269707	 0.3778136968	 0.093229
H	 1.5626763762	 0.3167429053	-1.7592746307	 0.1336
H	 1.6260913325	 1.8046719109	-0.6628715503	 0.114106
75.3539	147.646	176.0114	202.6237	237.0192	301.4646	348.0388	373.6472	509.4485	538.16	650.8078	689.2266	734.4492	775.8262	858.7965	884.2763	889.9479	924.1562	937.1167	996.3383	1010.6191	1069.0959	1083.7514	1111.852	1151.4724	1162.7755	1167.7303	1188.1646	1214.7634	1223.128	1224.1912	1282.6488	1302.0689	1402.7564	1427.0397	1463.7736	1469.2174	1484.8039	1489.1973	1511.6556	1525.2824	3034.2438	3060.671	3068.2016	3092.0162	3094.3207	3104.862	3112.4491	3128.6835	3142.6937	3191.9024
CC12CCC1(O2)C1CO1	C[C@@]12CC[C@@]1(O2)[C@@H]1CO1	
InChI=1S/C7H10O2/c1-6-2-3-7(6,9-6)5-4-8-5/h5H,2-4H2,1H3	InChI=1S/C7H10O2/c1-6-2-3-7(6,9-6)5-4-8-5/h5H,2-4H2,1H3/t5-,6+,7+/m0/s1
