19
gdb 2512	2.3830559	1.7872327	1.347131	2.0992	76.35	-0.22676	0.01531	0.24206999999999998	1037.5165	0.157323	-422.562491	-422.554231	-422.553287	-422.595043	31.26	
C	-0.1084186832	-2.59921829	-0.1652438678	-0.512473
C	-0.6539163946	-1.2279349043	 0.0502432944	 0.216638
C	-0.1272515571	-0.0180024086	-0.1869886851	 0.24221
C	 1.1875566014	 0.3985878258	-0.750758976	-0.515023
C	-1.2842692004	 0.9447474877	 0.0867372856	 0.070719
O	-2.1974257878	 0.8307546963	-1.036335088	-0.277709
C	-2.8247364516	-0.43929282	-0.8245721382	-0.082557
C	-2.0961102237	-0.9393827058	 0.4640123522	-0.079046
O	-1.9793380588	 0.3250152243	 1.142160826	-0.228461
H	-0.1438902599	-3.1928097708	 0.7570896581	 0.13056
H	-0.6921122784	-3.150642024	-0.9142036686	 0.129621
H	 0.9288782669	-2.5734920057	-0.5095562752	 0.129305
H	 1.7087797657	 1.0956212985	-0.0825305749	 0.12984
H	 1.847106267	-0.4557200279	-0.9258058549	 0.125695
H	 1.0517450478	 0.9197124695	-1.7070329014	 0.139721
H	-1.0812298894	 1.9971303236	 0.2792266926	 0.086576
H	-3.8959027553	-0.295931013	-0.6468902031	 0.107406
H	-2.67600286	-1.0957886043	-1.6883742209	 0.100418
H	-2.6232381889	-1.6741671012	 1.0707089851	 0.086558
147.9699	159.2867	172.0554	175.3783	244.9221	280.1735	363.5429	482.4973	578.8492	599.2071	609.2638	695.9969	801.643	831.7329	859.1945	882.4663	908.7152	951.9488	980.838	1008.0835	1028.1754	1054.6767	1070.4967	1078.5128	1155.6923	1190.3656	1199.4544	1225.007	1243.307	1281.1748	1333.6389	1345.3003	1355.4164	1411.3887	1419.5676	1478.6787	1479.9965	1486.5405	1490.9458	1513.6893	1733.5952	3014.5928	3018.1328	3033.899	3058.4174	3064.4676	3081.7393	3108.1434	3111.0114	3136.4016	3143.6796
CC1=C(C)C2OCC1O2	CC1=C(C)[C@H]2OC[C@@H]1O2	
InChI=1S/C7H10O2/c1-4-5(2)7-8-3-6(4)9-7/h6-7H,3H2,1-2H3	InChI=1S/C7H10O2/c1-4-5(2)7-8-3-6(4)9-7/h6-7H,3H2,1-2H3/t6-,7-/m0/s1
