19
gdb 823	3.0722924	1.1366152	1.0140911	3.9098	77.44	-0.23383	-0.01256	0.22127000000000002	1240.0047	0.156867	-422.557901	-422.549343	-422.548399	-422.592158	31.419	
O	 0.572188448	-1.0113296535	-0.0421254035	-0.278722
C	-0.0894115402	-0.027792526	 0.1939864607	 0.16586
C	-1.0096889858	 0.6061070791	-0.7724194799	-0.182846
C	-1.2155903715	 2.1278147214	-0.6918086638	-0.38127
C	-2.3186750295	 1.2437879837	-0.2746728309	 0.443371
C	-3.6270311585	 1.0210043609	-1.0435021587	-0.310214
C	-4.6350676076	 0.6684883296	 0.0773170493	-0.21105
C	-3.716686433	 0.3271730765	 1.2585287082	-0.095402
O	-2.5960755407	 1.1954051437	 1.1000794911	-0.275318
H	-0.0472861417	 0.4725370613	 1.1858638451	 0.080085
H	-1.0238199947	 0.1442496114	-1.7543796429	 0.102058
H	-0.6756207861	 2.6448842467	 0.0953345153	 0.13534
H	-1.2922718637	 2.6680708748	-1.6286762956	 0.128678
H	-3.9277139759	 1.9160363081	-1.5942934675	 0.116986
H	-3.5229870273	 0.2073302742	-1.7655509401	 0.119371
H	-5.2513941507	 1.5367451692	 0.3251886548	 0.115679
H	-5.3013822839	-0.1540328543	-0.1915911327	 0.109757
H	-4.1532031037	 0.5262812296	 2.2394116251	 0.114925
H	-3.3953201934	-0.7249375662	 1.2213084361	 0.102713
33.6641	97.1761	140.0158	202.3127	248.2008	344.8643	374.8362	452.247	524.5301	566.2301	628.8155	760.1773	804.3186	853.7406	871.3352	889.3045	916.0726	930.4047	967.1958	1016.0225	1042.0622	1060.4166	1070.2817	1075.426	1120.9633	1173.0949	1196.7288	1216.512	1226.3056	1264.1808	1275.8024	1308.996	1339.0895	1382.477	1393.7618	1442.5779	1479.7083	1486.4915	1501.895	1520.1813	1807.6116	2896.5904	2991.2894	3060.5905	3068.6482	3099.5999	3109.1099	3122.8054	3131.269	3168.0456	3223.0559
O=CC1CC11CCCO1	O=C[C@@H]1C[C@]21CCCO2	
InChI=1S/C7H10O2/c8-5-6-4-7(6)2-1-3-9-7/h5-6H,1-4H2	InChI=1S/C7H10O2/c8-5-6-4-7(6)2-1-3-9-7/h5-6H,1-4H2/t6-,7-/m0/s1
