19
gdb 5232	2.6659362	1.614962	1.2524669	3.0827	74.75	-0.23625	0.06424	0.30049	1048.8205	0.157165	-422.508644	-422.500401	-422.499457	-422.541236	32.321	
O	 1.4562498563	 0.8613049617	 0.1756594008	-0.426355
C	 0.3649252468	-0.0468545903	 0.2468568587	-0.186176
C	-0.9199853227	 0.6238463151	 0.6394605931	 0.290481
C	-1.9332225463	 1.3850096416	-0.2153694556	-0.280391
C	-2.8642283437	 1.3154593087	 1.0269090279	-0.070416
C	-2.1540109197	 2.2228919401	 2.0776703824	-0.292781
C	-1.0733418895	 1.1510482421	 2.0727606695	 0.34552
O	 0.0294381951	 1.0389168047	 2.9023966701	-0.473006
C	-2.0164910112	 0.0866106719	 1.5540067976	-0.22809
H	 1.5694559198	 1.2111164976	 1.0670255692	 0.293251
H	 0.2725848003	-0.4900838788	-0.7506539522	 0.10519
H	 0.5772085065	-0.8660092544	 0.950610675	 0.088697
H	-1.6693695796	 2.3787590778	-0.5944591337	 0.094622
H	-2.298976704	 0.7623001151	-1.0375834232	 0.096349
H	-3.9467619408	 1.337149005	 0.9294257344	 0.075381
H	-1.8949387829	 3.2445237392	 1.77686051	 0.094573
H	-2.6991323806	 2.2400774704	 3.0274582472	 0.089574
H	-0.2705589928	 0.8984180052	 3.8069770789	 0.290214
H	-2.259344101	-0.9164487926	 1.8740941101	 0.093364
75.1647	141.0601	236.5128	280.0017	323.9809	386.3252	431.8904	433.9307	448.565	459.6951	643.8889	683.1202	716.3047	801.9915	807.0943	874.4077	879.5189	895.5014	936.4429	981.4925	1000.7964	1039.7005	1065.7853	1076.0309	1099.2836	1108.0097	1134.7145	1153.849	1207.685	1222.7057	1251.8335	1264.6859	1278.1509	1292.3476	1363.0876	1392.7979	1426.4615	1437.749	1491.5263	1495.5449	1513.2547	2987.4889	3028.4055	3035.3049	3067.192	3084.3446	3090.7293	3144.8886	3220.749	3797.9804	3799.6263
OCC12CC3CC1(O)C23	OC[C@]12C[C@@H]3C[C@@]1(O)[C@H]23	
InChI=1S/C7H10O2/c8-3-6-1-4-2-7(6,9)5(4)6/h4-5,8-9H,1-3H2	InChI=1S/C7H10O2/c8-3-6-1-4-2-7(6,9)5(4)6/h4-5,8-9H,1-3H2/t4-,5+,6+,7-/m1/s1
