19
gdb 3942	3.440985	1.4433799	1.2490581	2.2854	74.21	-0.24972	0.0791	0.32882	1053.367	0.158306	-422.531732	-422.524099	-422.523155	-422.563448	30.58	
O	 0.390564352	-0.1244723522	 0.3907183956	-0.431637
C	-0.43873071	 0.7321052219	 1.1201930638	 0.06685
C	-1.5102442992	 0.1010412191	 2.1066288589	-0.353407
C	-2.5942305525	 0.7800304178	 1.2594632639	 0.333865
C	-3.7634989993	 1.7106989739	 1.4516940046	-0.316493
C	-3.6016930444	 2.7070507903	 0.258002747	-0.206727
C	-2.0783208888	 2.7488556564	-0.095564997	-0.32836
C	-1.6115168769	 1.391423245	 0.3576490685	 0.296567
O	-2.4357166738	 0.2972363835	-0.0881469887	-0.325056
H	-0.1987195927	-0.6627733887	-0.1531202824	 0.288284
H	 0.2058292354	 1.4554715657	 1.625444985	 0.096693
H	-1.5443756973	-0.9904046317	 2.1465756864	 0.106513
H	-1.4281857	 0.502609151	 3.1197854981	 0.108469
H	-4.74279917	 1.2227718001	 1.4506522669	 0.111511
H	-3.6526926191	 2.223223699	 2.4148689737	 0.106653
H	-4.1587520282	 2.3303904845	-0.6020539982	 0.124475
H	-3.9952245057	 3.6986643349	 0.4952620562	 0.10153
H	-1.9076132157	 2.9639309983	-1.1545006685	 0.113077
H	-1.555941204	 3.5184955714	 0.4853168961	 0.107195
121.0603	197.6175	247.3203	270.3601	322.4517	441.3156	478.7725	484.2485	541.2368	641.0652	676.9827	725.0814	749.8248	829.5974	846.5024	868.1037	887.0879	912.6995	955.7043	977.1362	988.2587	1042.1091	1101.283	1126.7713	1162.1851	1173.3763	1201.623	1204.4542	1221.9434	1245.0088	1264.9218	1304.5728	1324.9184	1343.4584	1350.5877	1409.0708	1443.8478	1473.9949	1482.7407	1484.816	1498.6747	3039.0693	3040.5285	3062.5159	3072.431	3084.7607	3085.982	3088.7215	3121.9761	3123.1999	3775.8199
OC1CC23CCCC12O3	O[C@@H]1C[C@@]23CCC[C@@]12O3	
InChI=1S/C7H10O2/c8-5-4-6-2-1-3-7(5,6)9-6/h5,8H,1-4H2	InChI=1S/C7H10O2/c8-5-4-6-2-1-3-7(5,6)9-6/h5,8H,1-4H2/t5-,6+,7-/m1/s1
