19
gdb 3042	2.5707999	1.5606746	1.223288	1.6198	76.12	-0.27778	0.00532	0.2831	1078.7666	0.156744	-422.540382	-422.532	-422.531056	-422.57353	31.547	
C	-2.0835619385	 1.4175062422	 1.9699766987	-0.433162
C	-2.1880719922	 1.933408368	 0.5450037014	 0.002852
C	-1.7493995017	 3.3880069667	 0.1572173949	-0.074804
C	-1.7286143068	 2.9113607304	-1.3264896153	-0.28031
C	-1.0288302315	 1.8189438652	-0.4977902976	 0.437867
C	-0.2578332824	 2.9389877332	 0.2469790353	-0.280407
O	-0.5097321885	 0.6527215025	-1.1114125507	-0.264073
C	 0.2258773503	-0.1861836194	-0.365084808	 0.14927
O	 0.4820318111	-0.0748207017	 0.8014883248	-0.297408
H	-2.2026215355	 0.330120351	 1.9924206479	 0.125661
H	-1.1294986983	 1.645864972	 2.4464665851	 0.133482
H	-2.8838115979	 1.8513880723	 2.5801626988	 0.109828
H	-3.1592446373	 1.6606173193	 0.1157689592	 0.067854
H	-2.173825631	 4.3148506206	 0.534939183	 0.086095
H	-2.6902608695	 2.6486002652	-1.7738850865	 0.09712
H	-1.095345125	 3.478643832	-2.0120190462	 0.096988
H	 0.1499630498	 2.7040460194	 1.2270730583	 0.118566
H	 0.4495601065	 3.512676525	-0.3568297099	 0.095898
H	 0.5666567483	-1.0126011038	-1.0084719531	 0.108684
61.4536	155.0634	173.6791	204.8205	258.5802	325.5701	368.5826	440.0489	550.0815	571.3775	591.9143	747.4728	776.6937	810.9612	841.5483	913.0541	945.881	967.0127	998.2479	1008.787	1039.0976	1045.8915	1101.6539	1119.4343	1139.0015	1145.8496	1165.2763	1184.4572	1191.3304	1212.6372	1234.2807	1242.0746	1255.7888	1409.2986	1415.4317	1427.9709	1486.0753	1489.9076	1510.7067	1546.0373	1820.6074	3025.7248	3034.2049	3042.4854	3061.0105	3076.9083	3099.8499	3130.3837	3139.7626	3148.3625	3169.9555
CC1C2CC1(C2)OC=O	C[C@H]1[C@@H]2C[C@]1(C2)OC=O	
InChI=1S/C7H10O2/c1-5-6-2-7(5,3-6)9-4-8/h4-6H,2-3H2,1H3	InChI=1S/C7H10O2/c1-5-6-2-7(5,3-6)9-4-8/h4-6H,2-3H2,1H3/t5-,6-,7-/m0/s1
