19
gdb 778	2.4192456	1.6821711	1.1727764	3.5765	78.	-0.26503	-0.05035	0.21467999999999998	1084.4648	0.158842	-422.586681	-422.578548	-422.577604	-422.619522	30.944	
O	-1.1939159456	-0.0828920981	 0.8851195264	-0.325931
C	-0.7624207973	 0.4850241835	-0.0840654944	 0.379742
O	-1.5072018744	 1.4042545127	-0.7893315772	-0.252722
C	-1.6989967693	 2.6643385308	-0.1298319583	-0.084915
C	-0.3602355569	 3.3720541731	 0.0840034775	-0.215069
C	 0.4687668683	 3.6019164814	-1.1924012179	-0.191124
C	 0.7051517915	 2.3746160866	-2.1166536963	-0.245464
C	 1.2397346793	 1.1311471819	-1.4450742196	-0.053444
C	 0.5992554415	 0.2902568217	-0.6179441005	-0.132097
H	-2.3561384024	 3.2350852333	-0.7921697021	 0.112209
H	-2.2162505611	 2.5082479264	 0.8244103167	 0.123497
H	-0.5536663397	 4.3399730282	 0.562018736	 0.103317
H	 0.2279831127	 2.7944813378	 0.8067723859	 0.119275
H	-0.0138368668	 4.3733166748	-1.8054281734	 0.103546
H	 1.4393084144	 4.0148569647	-0.8928971854	 0.1034
H	-0.231063819	 2.1276681797	-2.6203724684	 0.139621
H	 1.4163525668	 2.6812042328	-2.8906647257	 0.095283
H	 2.2800629964	 0.8913451354	-1.6596843855	 0.108803
H	 1.1204822116	-0.5634614466	-0.1966997376	 0.112072
57.6866	168.3737	221.1399	258.6619	299.953	322.8407	337.7038	477.9491	529.8156	563.9229	689.3175	721.8201	778.9945	805.4535	829.4877	863.6967	875.7169	935.8734	976.4298	994.4559	1025.656	1067.8574	1094.7301	1117.6545	1176.8536	1231.826	1233.9799	1266.4807	1288.938	1309.8174	1352.3712	1382.4277	1398.4698	1403.3565	1424.1188	1481.126	1489.2339	1494.7555	1502.9356	1679.0344	1807.7887	3023.267	3032.5095	3039.932	3051.8641	3058.476	3072.3245	3098.8108	3111.3728	3140.5704	3188.8042
O=C1OCCCCC=C1	O=C1OCCCCC=C1	
InChI=1S/C7H10O2/c8-7-5-3-1-2-4-6-9-7/h3,5H,1-2,4,6H2/b5-3-	InChI=1S/C7H10O2/c8-7-5-3-1-2-4-6-9-7/h3,5H,1-2,4,6H2/b5-3-
