19
gdb 4777	3.6936631	0.589265	0.546884	2.881	84.25	-0.26252	-0.05697	0.20554999999999998	1994.9738	0.153602	-422.535047	-422.524148	-422.523204	-422.572964	36.754	
C	 2.9716099622	-2.0694488545	 1.6946593961	-0.403802
C	 1.9530676043	-1.9610261597	 0.5562664386	 0.005206
C	 2.6447513098	-2.0400633605	-0.8113124653	-0.07126
O	 1.7417272188	-1.9681099279	-1.9043064082	-0.417024
C	 1.117123061	-0.6616712513	 0.6409589028	-0.359392
C	 0.2450225935	-0.5950791576	 1.8009489552	 0.08035
C	-0.4774654707	-0.5786315503	 2.7703483866	 0.043318
C	-1.3451655624	-0.5078133659	 3.9151020304	 0.02059
O	-1.623710301	-1.4456381646	 4.6281571877	-0.233771
H	 3.5269256487	-3.011112704	 1.6393604229	 0.119062
H	 3.6981523996	-1.2493825691	 1.6501770331	 0.117037
H	 2.476430003	-2.0269776495	 2.6684419652	 0.139495
H	 1.2553214961	-2.8073870762	 0.6296356276	 0.0839
H	 3.3245926884	-1.1881747844	-0.9336454915	 0.11183
H	 3.2577155737	-2.9527910205	-0.8582979066	 0.093497
H	 1.2084279082	-2.7697504604	-1.9013271408	 0.285869
H	 1.7904353399	 0.2073076666	 0.6421542106	 0.134591
H	 0.5145957333	-0.5756130587	-0.2713343719	 0.154375
H	-1.7577203464	 0.5039028384	 4.1081628674	 0.096128
26.2703	56.7155	66.5514	140.3788	179.8133	188.232	212.278	234.6629	317.8526	334.2294	399.0934	407.5406	450.6931	496.1855	640.4912	812.7512	844.2915	879.4566	910.4196	951.8061	1023.101	1060.2499	1091.932	1110.2751	1144.2019	1160.3792	1200.1035	1250.5951	1315.263	1336.7367	1375.3316	1397.0419	1405.5402	1419.4308	1423.6364	1460.3027	1494.6294	1500.3838	1504.0358	1765.4737	2324.3888	2913.3864	2991.1642	3004.9827	3017.2648	3031.2338	3060.7011	3063.1387	3097.4651	3116.9043	3813.4657
CC(CO)CC#CC=O	C[C@H](CO)CC#CC=O	
InChI=1S/C7H10O2/c1-7(6-9)4-2-3-5-8/h5,7,9H,4,6H2,1H3	InChI=1S/C7H10O2/c1-7(6-9)4-2-3-5-8/h5,7,9H,4,6H2,1H3/t7-/m0/s1
