19
gdb 700	3.5793373	1.2144493	1.0389066	2.8383	75.28	-0.23825	-0.01452	0.22372999999999998	1169.698	0.15783	-422.577875	-422.569798	-422.568854	-422.610633	30.98	
O	 1.1254425682	 0.0092577874	-0.2907221315	-0.304857
C	-0.0677229809	 0.0114305941	-0.0972551747	 0.38667
C	-0.8822744464	-1.270577855	 0.0332011204	-0.298341
C	-1.7820538366	-1.2544523062	 1.287909018	-0.285224
C	-2.6044881984	 0.0179297716	 1.3361196663	 0.436776
C	-3.9591620263	 0.0210264546	 1.8982103067	-0.249557
O	-3.7625273515	 0.0181193156	 0.4802854969	-0.282729
C	-1.778182715	 1.2876151828	 1.2832339359	-0.285224
C	-0.87836532	 1.2963851106	 0.0284803253	-0.298341
H	-1.5282328373	-1.3455041847	-0.8519012395	 0.133231
H	-0.2004328686	-2.1234965478	 0.0301818001	 0.11901
H	-2.4427104942	-2.1259707873	 1.287918378	 0.111974
H	-1.1597777574	-1.3144682258	 2.1897925433	 0.112294
H	-4.3747442279	-0.8964026984	 2.3137112921	 0.113904
H	-4.3719457883	 0.9412391482	 2.31033171	 0.113904
H	-2.4361820171	 2.1611358513	 1.2800339068	 0.111974
H	-1.1557217669	 1.349052515	 2.1848941509	 0.112294
H	-1.5240974024	 1.3700224928	-0.8568953029	 0.133231
H	-0.1939291828	 2.1472062862	 0.0223277479	 0.11901
75.4807	142.8855	151.121	303.0243	364.6901	382.0106	397.7498	463.6876	497.3922	523.9311	678.2523	706.2454	758.3677	763.1438	848.2456	879.7492	941.0401	941.9386	984.0332	1005.3456	1007.3124	1102.2815	1103.1861	1134.4768	1148.755	1164.8915	1219.237	1237.6501	1239.4345	1286.1144	1330.3018	1334.6052	1346.2898	1370.3405	1437.8742	1461.7358	1475.3295	1475.7724	1491.1534	1533.0686	1819.2796	3024.5142	3030.7637	3031.6462	3037.9465	3078.9397	3089.2805	3092.3909	3113.7357	3115.2484	3163.9145
O=C1CCC2(CO2)CC1	O=C1CCC2(CO2)CC1	
InChI=1S/C7H10O2/c8-6-1-3-7(4-2-6)5-9-7/h1-5H2	InChI=1S/C7H10O2/c8-6-1-3-7(4-2-6)5-9-7/h1-5H2
