19
gdb 1088	2.4488397	1.519079	1.1914119	2.2234	77.49	-0.23757	-0.01978	0.21779	1121.7505	0.154257	-422.54021	-422.530827	-422.529883	-422.574496	34.099	
C	 2.1350204266	 0.4677692074	 3.7751893568	-0.480399
C	 2.6894641406	 0.021835248	 2.4405558535	 0.294655
O	 3.6526057803	-0.7116444832	 2.3269061155	-0.329898
C	 2.0100016379	 0.5480276145	 1.2365025996	 0.315905
C	 2.0227936995	-0.1157501558	-0.1174009475	-0.371279
C	 2.6222511325	 1.2550205901	 0.0156765059	 0.21516
C	 4.054130223	 1.5794104782	-0.2861229112	-0.494388
C	 1.48917676	 2.2594890113	 0.2343710814	-0.13514
O	 0.9297212165	 1.4805737164	 1.3278146688	-0.329302
H	 2.721048215	 0.0260193596	 4.5815114712	 0.136723
H	 2.1504039516	 1.5603393778	 3.8443461215	 0.145905
H	 1.0838446717	 0.1715946066	 3.8633027663	 0.149856
H	 2.7419172572	-0.922132238	-0.2108326806	 0.143895
H	 1.0655460708	-0.2644871912	-0.6098233782	 0.118321
H	 4.3734605259	 2.4919370584	 0.2284849417	 0.120844
H	 4.7037051382	 0.7627344581	 0.0419717031	 0.152415
H	 4.2099758593	 1.7258663211	-1.3613255716	 0.126104
H	 1.8383066805	 3.2336643133	 0.596214163	 0.110753
H	 0.771175143	 2.4019216771	-0.5816551394	 0.109869
67.5017	107.0061	126.2443	171.1959	195.2558	261.0688	331.5815	367.6366	405.3669	445.1667	508.1311	601.2067	609.7685	679.6829	779.3305	809.5077	922.6812	936.8007	963.1098	966.0012	994.1827	1033.9198	1045.7461	1064.2929	1099.3791	1133.3574	1153.7823	1162.7995	1271.7517	1286.581	1359.1232	1380.8429	1398.7172	1426.3992	1454.7704	1466.7825	1476.3038	1489.3894	1496.9542	1516.7185	1774.882	3021.9326	3028.5207	3042.9311	3073.6156	3088.4975	3103.7253	3113.116	3118.0519	3158.1158	3224.8689
CC(=O)C12CC1(C)CO2	CC(=O)[C@]12C[C@@]1(C)CO2	
InChI=1S/C7H10O2/c1-5(8)7-3-6(7,2)4-9-7/h3-4H2,1-2H3	InChI=1S/C7H10O2/c1-5(8)7-3-6(7,2)4-9-7/h3-4H2,1-2H3/t6-,7+/m0/s1
