19
gdb 5852	2.2633674	1.3110127	0.9134699	1.303	77.41	-0.25934	0.02821	0.28755000000000003	1309.8315	0.155585	-422.523409	-422.514004	-422.51306	-422.558455	33.743	
C	 1.931646648	-0.7825481123	 1.3900483149	-0.386954
C	 1.5838191063	 0.0257038044	 0.1374019959	-0.20544
C	 1.8651101447	-0.7272016727	-1.1515926962	 0.102217
O	 1.0351466301	-1.8791542205	-1.2460611402	-0.248362
C	 0.992382343	-2.1717363078	-2.6154136502	 0.017587
O	 0.8856577439	-0.9337849982	-3.2927368674	-0.257338
C	 1.5105593341	 0.0499841064	-2.4599987998	-0.086111
C	 2.6725951194	 0.6609946104	-3.0961176547	 0.330686
C	 3.6382600538	 1.1717960586	-3.5968869108	-0.461793
H	 1.3606411046	-1.7142683788	 1.4197072504	 0.138025
H	 2.9963491083	-1.0393223278	 1.4119497699	 0.116933
H	 1.706308004	-0.213752665	 2.2967562271	 0.114996
H	 0.5228874915	 0.3034134624	 0.1482193588	 0.108842
H	 2.1602756193	 0.9586726875	 0.1149970481	 0.110399
H	 2.9234076626	-1.0291922564	-1.197188522	 0.082355
H	 1.9072595412	-2.7038297521	-2.932943942	 0.089705
H	 0.1071284683	-2.776827382	-2.8292018503	 0.121908
H	 0.7619229618	 0.8241099832	-2.2466570013	 0.109573
H	 4.4854566252	 1.6252561708	-4.0494528802	 0.202772
39.4184	87.3765	153.3525	164.186	200.8617	251.2145	258.8814	359.258	435.9037	522.596	540.3079	622.4942	646.0083	672.3452	740.992	776.2383	911.8866	932.2396	962.4108	988.7895	1022.1011	1052.7312	1089.7066	1116.3214	1126.828	1157.3446	1187.4744	1237.5984	1265.437	1303.7611	1336.5094	1355.8611	1370.3984	1409.6849	1413.8355	1430.1476	1474.7083	1497.7596	1507.9468	1540.2092	2237.3462	2941.8479	2980.576	3018.8276	3030.8435	3039.4787	3069.3986	3093.1884	3106.3817	3123.7673	3501.2075
CCC1OCOC1C#C	CC[C@H]1OCO[C@@H]1C#C	
InChI=1S/C7H10O2/c1-3-6-7(4-2)9-5-8-6/h1,6-7H,4-5H2,2H3	InChI=1S/C7H10O2/c1-3-6-7(4-2)9-5-8-6/h1,6-7H,4-5H2,2H3/t6-,7-/m1/s1
