19
gdb 4088	4.4526476	1.2120115	1.0725302	2.4874	74.66	-0.23296	0.06595	0.29891	1155.2842	0.157579	-422.502718	-422.495034	-422.49409	-422.534888	29.5	
C	 0.3259696027	-0.4716375109	-0.1321926753	-0.405662
C	 1.0017611805	 0.8677857803	 0.0879685914	 0.144951
O	 2.4483878682	 0.7297158424	 0.1753429691	-0.309744
C	 2.4664580395	 1.1920213257	 1.5351695734	 0.090523
C	 2.7240630496	 2.7062448026	 1.6237283412	 0.089184
O	 2.7905465384	 3.1495691213	 2.9915142028	-0.290218
C	 1.3909728636	 3.5162821666	 2.994276284	-0.089932
C	 1.1825308153	 2.9766849668	 1.5698614413	-0.100358
C	 0.9242427539	 1.4558038747	 1.5128519796	-0.100024
H	 0.5607426124	-1.165729097	 0.6808415517	 0.122155
H	-0.7616171278	-0.3481780074	-0.1834287157	 0.114657
H	 0.6672059425	-0.9164721093	-1.0719728952	 0.12893
H	 0.7275310627	 1.5695482258	-0.7120041889	 0.07582
H	 3.0138078925	 0.5381231184	 2.2185676836	 0.085272
H	 3.4913900112	 3.142877459	 0.9796991888	 0.085084
H	 0.8304716274	 3.0215082885	 3.7975729584	 0.10135
H	 1.2673950466	 4.6026532561	 3.0892646524	 0.103885
H	 0.6725928937	 3.6150461983	 0.848132655	 0.078896
H	 0.1920026174	 1.023695508	 2.1963687224	 0.075231
96.487	181.6697	202.6089	240.5678	292.3151	341.5983	404.9761	475.1307	678.4619	787.886	799.4161	840.2894	872.6138	899.6553	921.9267	941.1692	981.7068	999.3378	1018.7452	1025.9709	1051.625	1062.259	1081.989	1104.9492	1133.7757	1151.7441	1169.535	1200.9762	1221.2743	1231.0651	1235.9494	1264.75	1292.6471	1316.8235	1330.7857	1359.9824	1387.7191	1405.6322	1483.1731	1492.4658	1522.3111	3004.7114	3008.0659	3032.558	3051.2335	3080.4385	3084.6359	3099.5374	3105.3889	3109.3306	3114.1805
CC1OC2C3OCC3C12	C[C@@H]1O[C@H]2[C@@H]3OC[C@@H]3[C@@H]12	
InChI=1S/C7H10O2/c1-3-5-4-2-8-6(4)7(5)9-3/h3-7H,2H2,1H3	InChI=1S/C7H10O2/c1-3-5-4-2-8-6(4)7(5)9-3/h3-7H,2H2,1H3/t3-,4+,5+,6+,7+/m0/s1
