19
gdb 1564	3.3166787	1.305741	1.150861	2.1266	78.3	-0.22818	0.00035	0.22852999999999998	1128.6936	0.15602	-422.529074	-422.52057	-422.519626	-422.561733	32.77	
C	 0.1519109884	 1.5063782756	 0.1012119706	-0.450678
C	 0.0315054304	-0.0034618096	-0.0149010215	 0.290931
O	 0.3504100905	-0.453504043	-1.326153445	-0.479606
C	-1.2801051098	-0.7109238557	 0.5313443054	-0.313598
C	-0.3679408906	-1.8706033203	 1.080740943	 0.088613
O	-0.412615783	-2.3207267355	 2.4212618469	-0.280924
C	 0.7960387445	-1.8824744089	 3.0703452114	-0.105796
C	 1.3731940119	-0.8004428075	 2.1681611327	-0.260319
C	 0.7456962863	-0.8793581786	 1.0018129632	 0.253934
H	 1.1570741454	 1.8289212661	-0.1864573062	 0.130434
H	-0.5662086042	 1.9993836815	-0.5657496844	 0.109046
H	-0.0501744357	 1.8432691218	 1.1212046983	 0.121829
H	-0.2736524373	-0.0405098551	-1.9334890071	 0.277796
H	-1.7414042746	-0.1511263996	 1.3472623599	 0.110801
H	-2.0207692554	-0.974666297	-0.2289391338	 0.094902
H	-0.3384395474	-2.718196369	 0.3861000737	 0.090962
H	 0.5425235043	-1.4843159483	 4.0620178035	 0.110341
H	 1.4724602989	-2.7388828701	 3.2236278801	 0.105757
H	 2.0560588074	-0.0386001467	 2.5223159294	 0.105575
121.528	132.5038	218.8948	254.3461	288.5479	313.0626	348.1111	363.3751	419.7186	489.9766	599.054	712.2517	728.385	777.3263	817.8608	855.2002	902.7263	924.2607	940.449	958.6003	973.6608	1020.4671	1035.6843	1085.3613	1112.6499	1127.5303	1174.1765	1181.9232	1197.2725	1229.7039	1239.3901	1297.2565	1340.7763	1370.5936	1389.5913	1404.7605	1454.6307	1484.5513	1492.7229	1517.3572	1725.2129	2971.8506	3025.7605	3027.3462	3034.6384	3055.7933	3095.688	3122.4515	3134.3386	3212.7057	3797.5609
CC1(O)CC2OCC=C12	C[C@]1(O)C[C@@H]2OC[CH][C]12	
InChI=1S/C7H10O2/c1-7(8)4-6-5(7)2-3-9-6/h2,6,8H,3-4H2,1H3	InChI=1S/C7H10O2/c1-7(8)4-6-5(7)2-3-9-6/h2,6,8H,3-4H2,1H3/t6-,7-/m0/s1
