19
gdb 4370	3.5416737	1.0233705	0.840768	1.327	80.71	-0.2431	-0.05516	0.18794	1392.3105	0.15489	-422.581767	-422.572229	-422.571285	-422.616889	33.719	
C	 1.0752368411	-4.6287021576	 0.7560308855	-0.390007
C	 0.6172071236	-3.6270873452	-0.3057429258	 0.100779
O	-0.8038326946	-3.4505476342	-0.2328318072	-0.283136
C	-1.1350051921	-2.0703592144	-0.1329517115	-0.177559
C	 0.1901961582	-1.3497465649	-0.0341813564	 0.195788
C	 1.1743773675	-2.2449296826	-0.144004532	-0.182089
C	 0.3908965977	 0.1136671802	 0.1389576349	 0.296168
C	-0.8578270091	 0.9706665394	 0.2286370813	-0.492195
O	 1.5039970241	 0.5945823881	 0.205336507	-0.306297
H	 0.543947657	-5.5751317617	 0.6247750199	 0.131423
H	 2.1495373789	-4.8197467076	 0.6672266198	 0.117555
H	 0.8663813155	-4.2472155516	 1.7594839797	 0.123077
H	 0.8770095109	-4.029512412	-1.3007036972	 0.090464
H	-1.7146771662	-1.7551209908	-1.0160586035	 0.106569
H	-1.7776191167	-1.909890981	 0.7458039275	 0.109901
H	 2.2313580285	-2.0126516654	-0.1227962733	 0.133664
H	-1.4758190624	 0.6583690907	 1.0787205873	 0.141306
H	-0.5776510047	 2.0178627149	 0.3440988708	 0.143865
H	-1.4724194073	 0.8494426458	-0.6711699369	 0.140724
49.1864	88.3001	128.2443	145.889	170.0525	231.7353	302.1468	366.8112	371.2215	465.3258	511.1292	602.7056	617.8914	729.718	842.3836	873.3847	898.6283	914.3955	978.0562	1003.9744	1025.6525	1054.6664	1058.8992	1095.1632	1121.514	1134.0618	1204.3544	1264.5726	1276.827	1338.144	1363.7872	1381.1202	1389.3531	1399.6401	1461.8109	1475.1196	1485.0768	1494.8388	1523.0566	1681.2665	1779.9943	2944.9507	2966.7944	2995.5027	3031.9705	3040.6508	3090.6088	3116.1847	3125.4304	3155.6286	3228.4822
CC1OCC(=C1)C(C)=O	C[C@H]1OCC(=C1)C(=O)C	
InChI=1S/C7H10O2/c1-5-3-7(4-9-5)6(2)8/h3,5H,4H2,1-2H3	InChI=1S/C7H10O2/c1-5-3-7(4-9-5)6(2)8/h3,5H,4H2,1-2H3/t5-/m1/s1
