19
gdb 1043	3.0839215	0.8508229	0.7804806	2.6017	80.5	-0.22851	0.04121	0.26971999999999996	1551.2248	0.153889	-422.514935	-422.5046	-422.503655	-422.551251	36.905	
C	 1.5069893308	-0.01502221	 0.1903345653	-0.499049
C	 0.0547780388	-0.0288063399	 0.0778337168	 0.101065
C	-1.144310608	-0.0726017673	-0.0365634546	 0.013739
C	-2.6036174294	-0.045533174	-0.1301124292	-0.418281
C	-3.1395125341	 1.3738618921	-0.0167110775	 0.3723
O	-2.6860757433	 2.0726802585	 1.1182274526	-0.472444
C	-4.5492112059	 1.7055711206	-0.4235938237	-0.382477
C	-3.3736563433	 2.2441738771	-1.2261022834	 0.093659
O	-3.0308161145	 3.5890419493	-1.1394051216	-0.436696
H	 1.8286563162	-0.0993431049	 1.2340555894	 0.150296
H	 1.9509671587	-0.8505294506	-0.3617031938	 0.154125
H	 1.9294794968	 0.9106345078	-0.2152512329	 0.152365
H	-2.9357560668	-0.4822710241	-1.0794194682	 0.130185
H	-3.0384502734	-0.6614051309	 0.6688031019	 0.135132
H	-1.7309549071	 1.9201620979	 1.164519126	 0.287923
H	-5.1653679218	 0.9180076196	-0.8456570138	 0.110514
H	-5.075611648	 2.4193838841	 0.2009857359	 0.12495
H	-3.1940558029	 1.840907916	-2.2185360602	 0.099364
H	-2.7616986127	 3.7281966986	-0.2195838891	 0.283331
40.7415	54.0712	79.099	187.2866	221.9867	242.4912	276.7586	330.3964	357.1287	386.7917	411.9012	451.121	519.8518	548.3444	605.0877	732.921	763.2451	826.6594	876.4016	918.311	1000.3004	1009.4698	1039.0448	1052.5294	1055.4399	1086.9016	1140.7812	1159.7892	1198.1411	1240.0558	1302.6789	1319.4605	1333.2596	1409.5771	1416.7391	1432.1266	1463.5078	1477.7858	1479.2357	1496.424	2364.9355	3015.8386	3029.6319	3057.6848	3091.0947	3092.1565	3127.0173	3152.0268	3221.9536	3721.1569	3733.162
CC#CCC1(O)CC1O	CC#CC[C@]1(O)C[C@H]1O	
InChI=1S/C7H10O2/c1-2-3-4-7(9)5-6(7)8/h6,8-9H,4-5H2,1H3	InChI=1S/C7H10O2/c1-2-3-4-7(9)5-6(7)8/h6,8-9H,4-5H2,1H3/t6-,7+/m1/s1
