19
gdb 4310	2.2885088	1.6461144	1.5291015	2.6184	77.29	-0.24192	-0.00294	0.23898	1005.6143	0.156675	-422.541589	-422.533113	-422.532169	-422.574105	33.09	
O	 0.1130864343	 1.4335838682	-0.0308477196	-0.430568
C	 0.065305559	 0.0186959595	 0.0129500524	 0.070546
C	 0.5408185104	-0.6065050448	-1.3394840484	-0.281045
C	-0.7539007204	-0.6858325076	-2.1539314114	-0.26071
C	-1.7860268528	-0.7171708493	-1.313674116	 0.241417
C	-3.2117794009	-0.2707621306	-1.0580316445	-0.33992
C	-2.674334731	 0.3017807873	 0.3131242786	-0.296837
C	-1.3720960295	-0.5503185951	 0.1280240887	 0.373806
O	-1.2942646541	-1.7200952596	 0.9308446836	-0.492617
H	-0.3059024966	 1.711292987	-0.8540216335	 0.277526
H	 0.6787187996	-0.2784611077	 0.8662939707	 0.095141
H	 1.297240573	 0.0333641596	-1.8058424996	 0.105856
H	 0.9989997422	-1.5916462814	-1.1888455011	 0.119991
H	-0.7797787282	-0.6343574182	-3.2372959721	 0.097422
H	-3.6496649228	 0.431026131	-1.7722074336	 0.114527
H	-3.9225000464	-1.0909408779	-0.9083399827	 0.10926
H	-2.4792367062	 1.3752913453	 0.2797161994	 0.114125
H	-3.2596807754	 0.0629434243	 1.2040390272	 0.104201
H	-2.0038265041	-2.3183398399	 0.6740281719	 0.277879
102.6569	181.0897	220.8882	231.3034	264.6032	324.0016	362.7666	412.9638	457.7073	514.8105	592.6509	665.9499	716.0568	763.2338	803.4534	818.9808	866.1617	902.1981	915.2749	926.806	982.2219	992.4227	1060.0319	1075.9367	1116.998	1122.3723	1151.207	1174.1187	1204.6821	1211.5338	1224.7712	1246.3747	1289.1438	1299.5537	1332.6881	1362.6891	1421.8069	1466.3821	1474.7079	1484.6854	1716.7785	3033.3684	3042.4549	3070.834	3079.58	3098.0004	3099.2534	3136.5047	3185.4276	3784.2549	3806.8392
OC1CC=C2CCC12O	O[C@@H]1C[CH][C]2CC[C@]12O	
InChI=1S/C7H10O2/c8-6-2-1-5-3-4-7(5,6)9/h1,6,8-9H,2-4H2	InChI=1S/C7H10O2/c8-6-2-1-5-3-4-7(5,6)9/h1,6,8-9H,2-4H2/t6-,7-/m1/s1
