19
gdb 4172	2.7460772	1.4208074	1.242594	3.0328	74.86	-0.2511	-0.0284	0.22269999999999998	1072.8439	0.157708	-422.560195	-422.552114	-422.55117	-422.592873	31.005	
O	 1.0461367918	 2.0874253782	-3.9536221463	-0.447723
C	 1.2552845352	 1.2812534788	-2.8117783907	 0.164013
C	 1.6282376137	-0.2140830505	-3.0912720444	-0.259103
C	 0.5051684579	-0.9087942189	-2.2931566408	-0.033546
C	-0.7402160124	-0.0764116765	-2.7156875649	-0.243437
C	-0.0067151859	 1.0608496411	-1.9451211401	-0.076515
C	 0.4604087972	-0.083446359	-0.9730563353	-0.079082
C	 1.660342061	 0.1105971192	-0.0899935892	 0.126337
O	 2.7311026471	-0.4279772349	-0.2292142238	-0.246234
H	 0.4022177251	 1.6506132169	-4.520548978	 0.276391
H	 2.0395698197	 1.7981422388	-2.2522736713	 0.093538
H	 1.5663999899	-0.4311919245	-4.1625846926	 0.090909
H	 2.6242484241	-0.4790784939	-2.7374721541	 0.132918
H	 0.4922393506	-1.9978142786	-2.2792759183	 0.072156
H	-0.9266020767	 0.0558730013	-3.7870107631	 0.080404
H	-1.661745288	-0.3919483544	-2.222004034	 0.104443
H	-0.5197535162	 1.9516684902	-1.5838357343	 0.073481
H	-0.3813384847	-0.3724993492	-0.3308912829	 0.095314
H	 1.4876854507	 0.8164728061	 0.7572186941	 0.075736
76.8818	163.3824	188.2793	248.6666	259.2556	342.2515	417.5737	464.9421	531.1474	632.7774	715.2267	753.557	831.6104	837.6221	847.229	899.5388	941.3346	953.344	971.2493	1011.5102	1016.1633	1050.252	1061.2345	1087.8282	1104.2768	1123.5268	1159.2144	1186.4989	1215.0306	1229.4881	1256.7345	1285.2938	1307.7742	1311.7189	1334.6355	1374.7067	1424.5923	1445.4318	1490.6391	1511.827	1817.8832	2847.962	3033.9386	3040.9256	3056.9264	3075.73	3111.0789	3123.6798	3126.5502	3139.4518	3813.0639
OC1CC2CC1C2C=O	O[C@@H]1C[C@@H]2C[C@H]1[C@@H]2C=O	
InChI=1S/C7H10O2/c8-3-6-4-1-5(6)7(9)2-4/h3-7,9H,1-2H2	InChI=1S/C7H10O2/c8-3-6-4-1-5(6)7(9)2-4/h3-7,9H,1-2H2/t4-,5-,6+,7+/m0/s1
