19
gdb 4412	2.9208189	1.6203991	1.2429658	0.5824	75.3	-0.24373	0.06372	0.30745	1039.6495	0.157674	-422.491316	-422.483549	-422.482605	-422.523599	30.387	
O	 0.4851323926	-0.02104441	 0.333346636	-0.423011
C	-0.7795543812	 0.4415608152	 0.7289086684	-0.033348
C	-1.2540506607	 0.2232897192	 2.1825574442	-0.123393
O	-1.5770477565	 1.6218874854	 2.318101821	-0.339961
C	-0.9770258962	 1.9390056386	 1.0516440246	 0.502868
C	-1.5868801869	 3.0390560958	 0.1567145238	-0.130786
C	-1.0090301734	 4.0650812287	 1.1810643619	-0.2348
C	 0.1322763739	 3.0251224629	 0.9599893937	-0.136677
C	-0.2030241942	 3.0857935737	-0.5590652404	-0.229562
H	 1.1412690848	 0.3431961216	 0.9379691154	 0.285321
H	-1.4842055944	 0.0635358015	-0.0158498196	 0.105982
H	-2.1270581701	-0.4187486633	 2.3392055718	 0.109423
H	-0.4484427618	-0.0869920354	 2.8632932174	 0.092646
H	-2.5753302766	 3.0399689414	-0.3040561614	 0.073155
H	-0.8169023292	 5.0700797108	 0.7958710682	 0.090064
H	-1.4705235878	 4.086159136	 2.1685401154	 0.11802
H	 1.1201187963	 3.0200645227	 1.424511536	 0.066264
H	 0.0340601959	 4.0293085937	-1.055680288	 0.095013
H	 0.0844535154	 2.2243857514	-1.1645566083	 0.11278
76.4913	160.9706	197.8675	289.0966	340.8889	380.9945	462.2745	474.2341	583.4095	614.8404	753.2944	795.5224	807.3903	887.6278	897.0756	902.0809	959.6767	990.9187	1012.5935	1021.3001	1038.515	1043.6913	1078.1463	1083.9273	1112.7243	1120.5525	1143.0071	1157.1457	1187.3548	1195.794	1204.9621	1233.5693	1246.2686	1261.4238	1302.4384	1320.5637	1340.393	1440.8801	1495.7991	1517.9423	1532.7495	3000.3082	3061.9014	3066.1202	3067.9545	3090.108	3093.7528	3110.0834	3135.8863	3142.7859	3801.2345
OC1COC11C2CC1C2	O[C@H]1CO[C@@]21[C@H]1C[C@@H]2C1	
InChI=1S/C7H10O2/c8-6-3-9-7(6)4-1-5(7)2-4/h4-6,8H,1-3H2	InChI=1S/C7H10O2/c8-6-3-9-7(6)4-1-5(7)2-4/h4-6,8H,1-3H2/t4-,5+,6-,7-/m0/s1
