19
gdb 4230	2.2404515	2.0505097	1.4914992	2.6084	73.22	-0.22307	0.066	0.28907	961.8702	0.157295	-422.526444	-422.518646	-422.517702	-422.558148	31.309	
C	 0.7430072458	 0.757858343	-0.1876644166	-0.402628
C	 0.9091589396	-0.7232556014	 0.1665375738	-0.037674
C	 1.3436398292	-1.6300299821	-1.0255025011	-0.231664
C	 2.788856442	-1.9950338446	-0.6931132379	 0.081536
O	 3.5589530242	-0.7420917335	-0.6217114937	-0.309304
C	 3.4404486762	-0.7794186054	 0.7978664591	 0.066972
C	 2.8668430596	-2.1667221362	 0.8392536331	-0.249651
C	 2.0001624444	-0.970596442	 1.2168618518	 0.370872
O	 1.7544409394	-0.6727511656	 2.5527958913	-0.482901
H	 0.5536447058	 1.348862044	 0.7141770211	 0.119013
H	 1.650675248	 1.1365825129	-0.6651916485	 0.13661
H	-0.0965613278	 0.9105659847	-0.8739613868	 0.10495
H	-0.0368175695	-1.091656066	 0.5859829086	 0.057259
H	 0.7329763167	-2.5383332658	-1.0839585872	 0.095267
H	 1.2764947939	-1.115947144	-1.9886799457	 0.109222
H	 3.2751024629	-2.7227709988	-1.3450884066	 0.081305
H	 4.1831944839	-0.2739294089	 1.4038473933	 0.110188
H	 3.0952845853	-3.0386013979	 1.4364027748	 0.0977
H	 1.0880424704	-1.2873677522	 2.8816855773	 0.282928
122.7804	227.4169	248.0075	295.3273	322.4982	371.512	394.5262	425.2897	539.2365	580.4611	670.3961	724.3487	780.8429	823.2368	839.6261	872.6517	903.4623	930.6581	941.204	988.2866	1003.399	1032.1842	1041.5488	1081.9696	1099.4646	1115.2485	1166.5198	1201.9894	1208.8707	1219.5872	1260.0757	1281.472	1315.847	1334.7569	1338.3821	1367.3423	1404.0716	1442.3492	1476.9008	1496.5207	1508.1193	3002.7399	3034.8377	3041.4208	3093.519	3098.703	3100.8058	3121.7816	3186.2141	3210.0558	3779.1612
CC1CC2OC3C2C13O	C[C@H]1C[C@H]2O[C@@H]3[C@H]2[C@]13O	
InChI=1S/C7H10O2/c1-3-2-4-5-6(9-4)7(3,5)8/h3-6,8H,2H2,1H3	InChI=1S/C7H10O2/c1-3-2-4-5-6(9-4)7(3,5)8/h3-6,8H,2H2,1H3/t3-,4+,5-,6+,7+/m0/s1
