19
gdb 1767	2.7850169	1.5347403	1.185044	2.1624	75.41	-0.23712	-0.00805	0.22907	1077.6697	0.15638	-422.583159	-422.574707	-422.573763	-422.615567	33.115	
C	 0.0106456533	 2.5494591204	-0.0147438446	-0.496862
C	-0.6428718906	 1.1924549632	 0.0109474755	 0.206432
C	-1.7398754567	 0.7667514661	 1.0541776294	-0.335316
C	-2.0288000072	-0.3505914739	 0.0040703679	 0.420042
O	-3.2587633263	-0.9926486491	-0.1046079139	-0.482582
C	-1.6619794608	 0.6891820907	-1.0771577636	-0.303623
C	-0.7458842366	-1.204058826	 0.0837974603	-0.407084
C	 0.2621293554	-0.0340807607	 0.0894975039	 0.413715
O	 1.4616306482	-0.0737632477	 0.1438136574	-0.338183
H	 0.6187366651	 2.7031865708	 0.8823432187	 0.130908
H	 0.6772994982	 2.6420463358	-0.8780624115	 0.13121
H	-0.7333799521	 3.3498016228	-0.0675221965	 0.113899
H	-1.4163781476	 0.4794036199	 2.0593963252	 0.096364
H	-2.5473580656	 1.5008863358	 1.1033644092	 0.110723
H	-3.3143855806	-1.6697507821	 0.5783589046	 0.280613
H	-1.2717740312	 0.3305779113	-2.0338309108	 0.103658
H	-2.4625673828	 1.4152038548	-1.2360048701	 0.112884
H	-0.6657191791	-1.8041814406	 0.9971373975	 0.114727
H	-0.6036793228	-1.8601446817	-0.7803921684	 0.128476
128.6588	176.2473	230.5723	245.2037	259.0093	317.5363	363.0103	451.5457	497.9557	502.8044	551.8032	604.6812	628.5827	691.7932	763.6719	795.2906	856.3429	918.7527	956.2921	988.6672	998.9236	1025.5272	1060.6432	1066.6843	1110.4249	1117.9481	1158.376	1192.942	1195.2497	1214.1321	1241.1312	1321.556	1346.0996	1386.8626	1419.7654	1462.	1484.1112	1488.5229	1489.7233	1528.8715	1864.8865	3038.205	3045.2722	3050.1134	3058.4712	3098.2609	3106.1735	3110.2029	3119.8332	3124.5671	3806.1545
CC12CC(O)(C1)CC2=O	C[C@@]12C[C@@](O)(C1)CC2=O	
InChI=1S/C7H10O2/c1-6-3-7(9,4-6)2-5(6)8/h9H,2-4H2,1H3	InChI=1S/C7H10O2/c1-6-3-7(9,4-6)2-5(6)8/h9H,2-4H2,1H3/t6-,7-
