19
gdb 1034	4.479126	0.8117594	0.7206199	0.6179	81.96	-0.23191	0.03854	0.27045	1572.3992	0.156681	-422.521192	-422.511915	-422.510971	-422.557348	32.838	
C	 1.4979929018	-0.017790725	-0.0222122271	-0.502314
C	 0.0444477621	 0.0374318737	 0.0190296345	 0.159549
C	-1.1569608466	 0.0999612319	 0.0532737763	-0.004164
C	-2.612104491	 0.1133606085	 0.0884847751	-0.073784
C	-3.1806801925	-1.2357555824	 0.5646170976	-0.088608
O	-4.593651146	-1.1846758955	 0.6308113618	-0.250494
C	-5.029496757	-0.145315517	 1.4941900073	-0.078888
C	-4.4743980793	 1.195260459	 1.0287522911	-0.072763
O	-3.0563354912	 1.1542020755	 0.9628176332	-0.263098
H	 1.9363194367	 0.7229636873	 0.6553645089	 0.154996
H	 1.8685451853	-1.0035067638	 0.2795395783	 0.149897
H	 1.8767178457	 0.1879168293	-1.0292907071	 0.150589
H	-3.0104862087	 0.3053918462	-0.9233275846	 0.094966
H	-2.9203987676	-2.0305190003	-0.1389913938	 0.116428
H	-2.7482854614	-1.4712557731	 1.54960334	 0.100501
H	-6.1233758896	-0.1496970343	 1.4684025457	 0.108023
H	-4.6979455387	-0.3432483335	 2.5265531715	 0.095604
H	-4.8958860547	 1.4434430169	 0.0406465184	 0.094423
H	-4.7310095672	 1.9945578567	 1.7304857929	 0.109137
12.071	82.1133	87.5634	202.3956	261.6129	294.8836	330.6988	373.8529	411.042	451.1191	513.8017	530.295	586.792	827.3891	859.4641	889.0305	930.0315	1004.807	1045.9818	1052.4807	1055.9559	1082.9355	1119.3225	1138.1624	1144.7846	1182.5939	1248.12	1285.9214	1308.3758	1325.7979	1369.453	1378.9399	1409.3598	1413.9044	1419.0974	1476.2272	1477.9873	1478.3034	1483.8455	1492.3915	2376.7608	2947.7908	2970.8782	2981.3196	2991.6637	3028.747	3086.7637	3087.0521	3090.0799	3091.8947	3102.1304	12.0398	82.1137	87.564	202.3958	261.6135	294.8826	330.6976	373.853	411.0411	451.1188	513.801	530.2942	586.7921	827.3891	859.4641	889.0307	930.0315	1004.8069	1045.9819	1052.4809	1055.9561	1082.9354	1119.3227	1138.1622	1144.7848	1182.5935	1248.1195	1285.9212	1308.3752	1325.7974	1369.4523	1378.9395	1409.3595	1413.9049	1419.0969	1476.2282	1477.9879	1478.3032	1483.8453	1492.3908	2376.7604	2947.7908	2970.8783	2981.3197	2991.6639	3028.747	3086.7637	3087.0522	3090.0798	3091.8947	3102.1305
CC#CC1COCCO1	CC#C[C@H]1COCCO1	
InChI=1S/C7H10O2/c1-2-3-7-6-8-4-5-9-7/h7H,4-6H2,1H3	InChI=1S/C7H10O2/c1-2-3-7-6-8-4-5-9-7/h7H,4-6H2,1H3/t7-/m0/s1
