19
gdb 2386	2.7687386	1.4603147	1.2470454	3.3153	74.47	-0.23933	-0.01861	0.22071999999999997	1077.6305	0.15651	-422.581239	-422.572949	-422.572005	-422.614295	31.551	
C	-3.1757417293	-1.4417872005	 0.9479617123	-0.456143
C	-2.179964311	-0.7455752521	 0.0417019432	 0.42614
C	-0.7335939562	-1.2193510357	 0.1584085526	-0.362705
C	 0.127163023	-0.0040663372	-0.202525038	 0.388342
O	 1.2612869815	-0.0306291719	-0.5991590146	-0.300401
C	-0.7026950414	 1.2653994015	 0.050410929	-0.341309
C	-2.1661983181	 0.8248873006	 0.0078197415	-0.121755
C	-2.7669331977	 0.6503900511	-1.3990091783	-0.085583
O	-2.6118081011	-0.7824175259	-1.3494606266	-0.324822
H	-2.890888302	-1.3318311549	 1.9999113869	 0.114588
H	-4.177904263	-1.023765114	 0.8141807982	 0.121468
H	-3.220863325	-2.5108016348	 0.7154492892	 0.130685
H	-0.488898049	-1.5126447105	 1.1882198984	 0.122389
H	-0.515956618	-2.0678284328	-0.4937401555	 0.140978
H	-0.4285346912	 1.6391893474	 1.0456074386	 0.130082
H	-0.4399699553	 2.0464620518	-0.6677562551	 0.131491
H	-2.8007271578	 1.334904637	 0.7332933523	 0.079224
H	-3.8200173855	 0.944312847	-1.4941435939	 0.101529
H	-2.1992220827	 1.097216194	-2.22471421	 0.105802
70.7264	88.7938	226.3207	252.2513	322.0202	350.8224	386.4689	441.2391	477.0502	574.9923	607.3819	679.0939	765.0399	796.6347	844.6718	878.2108	889.1622	929.6377	957.7482	1014.4498	1027.6299	1078.3815	1098.1023	1115.9711	1166.1626	1167.8921	1171.9886	1218.289	1232.2415	1246.0925	1285.4457	1313.9468	1343.721	1363.8589	1407.6359	1430.6531	1448.4746	1481.9466	1491.3061	1528.7575	1852.4287	3009.5891	3028.7969	3032.7922	3035.2713	3051.452	3100.1224	3102.9874	3104.2289	3110.6186	3118.4447
CC12CC(=O)CC1CO2	C[C@]12CC(=O)C[C@H]1CO2	
InChI=1S/C7H10O2/c1-7-3-6(8)2-5(7)4-9-7/h5H,2-4H2,1H3	InChI=1S/C7H10O2/c1-7-3-6(8)2-5(7)4-9-7/h5H,2-4H2,1H3/t5-,7-/m0/s1
