19
gdb 2345	2.9325896	1.5310159	1.2225654	1.3393	75.86	-0.23031	0.06099	0.2913	1080.8551	0.155525	-422.499669	-422.491352	-422.490408	-422.53239	31.921	
C	-2.9214962782	-0.1877147512	 0.4909616233	-0.483549
C	-1.6615420824	-0.9690174646	 0.2470520212	 0.395119
C	-1.6928601235	-2.4958492994	 0.0214313288	-0.121254
O	-0.7962552769	-2.3880519409	-1.1138236434	-0.29061
C	-0.7203266615	-0.9576043946	-0.9838939928	-0.102666
C	 0.3315594158	-0.4856291575	 0.0018257067	 0.451726
C	 1.3316464501	 0.617857283	-0.1196090589	-0.342498
C	 1.7764928799	-0.8236025691	 0.0972233895	-0.332209
O	-0.5690971049	-0.5767901032	 1.1183506404	-0.354402
H	-3.3050901032	-0.3975609223	 1.4958444121	 0.134024
H	-2.7299814243	 0.8864572371	 0.4207296812	 0.131606
H	-3.695300902	-0.4580568652	-0.2337977407	 0.124461
H	-1.2720725554	-3.0859269566	 0.842272917	 0.112205
H	-2.664127744	-2.9078010589	-0.2805859981	 0.099562
H	-0.8541508588	-0.4308428873	-1.930925851	 0.08558
H	 1.4862553461	 1.0731928707	-1.0927903237	 0.115833
H	 1.416564122	 1.2973674337	 0.7216492058	 0.12471
H	 2.2321612875	-1.3664154721	-0.7239522965	 0.125861
H	 2.1547135237	-1.0817310814	 1.0804427989	 0.126499
77.3723	190.4297	193.8659	226.588	252.2155	305.9764	378.5477	426.2083	500.0586	553.9017	668.1914	754.1116	787.3057	838.8662	871.6298	882.9875	912.8572	943.3479	962.8379	974.3326	993.8739	1021.3606	1027.4513	1049.752	1065.6833	1131.0766	1148.4098	1174.578	1184.2345	1198.8594	1263.9729	1273.3431	1296.3165	1359.5743	1400.2372	1415.7698	1449.7691	1479.3625	1489.5041	1499.6168	1503.4871	3016.0993	3036.3396	3080.2616	3092.0743	3104.0852	3120.627	3127.2058	3134.5923	3212.5944	3227.4328
CC12COC1C1(CC1)O2	C[C@@]12CO[C@@H]1C1(CC1)O2	
InChI=1S/C7H10O2/c1-6-4-8-5(6)7(9-6)2-3-7/h5H,2-4H2,1H3	InChI=1S/C7H10O2/c1-6-4-8-5(6)7(9-6)2-3-7/h5H,2-4H2,1H3/t5-,6+/m0/s1
