19
gdb 5407	2.6014573	1.1055447	0.9137826	1.6182	80.06	-0.24311	0.03304	0.27615	1327.4561	0.152871	-422.512109	-422.501481	-422.500537	-422.547524	38.308	
C	 2.3813405853	-2.7152163979	-1.8543779782	-0.432143
C	 2.2349080266	-3.2213467753	-0.4403265232	 0.424219
O	 2.0681474373	-4.6088919462	-0.4044181892	-0.476152
C	 1.5219884907	-2.4277366071	 0.6212460841	-0.118325
C	 0.9155705085	-1.0646543671	 0.3746182867	-0.091133
O	-0.2416034841	-1.1125872697	-0.4482677345	-0.411844
C	 3.048447216	-2.5855791442	 0.6922289911	-0.330605
C	 3.6445224244	-3.4500243551	 1.6624214395	 0.280289
C	 4.1290820674	-4.247020037	 2.4256371822	-0.409504
H	 3.2476841604	-3.1836728116	-2.3309182707	 0.121711
H	 1.4888657957	-2.971376205	-2.4323993264	 0.138517
H	 2.5061970229	-1.630862037	-1.890498336	 0.117084
H	 2.6741141579	-4.9721212823	 0.2552926239	 0.286266
H	 0.9810570695	-3.0511847247	 1.3294907153	 0.096735
H	 0.7005732019	-0.5784254742	 1.3392806965	 0.096296
H	 1.6224235162	-0.4180807024	-0.154336339	 0.109119
H	-0.8839780146	-1.6895372022	-0.0225772456	 0.285124
H	 3.6286017919	-1.7055529342	 0.4278197967	 0.113237
H	 4.561437986	-4.9143585569	 3.1295855465	 0.201109
71.6918	114.2335	121.5281	150.0432	197.5848	204.9834	230.4798	294.4029	337.7248	363.3856	406.097	426.3502	452.4644	567.4033	586.9827	626.3434	662.3568	724.4665	776.0238	933.9248	957.1014	972.7849	998.0431	1048.3415	1075.1673	1092.7232	1102.2397	1114.9795	1188.8945	1248.0133	1278.1513	1317.8626	1371.5766	1386.3228	1422.6584	1423.2437	1448.2444	1478.39	1497.4577	1508.8664	2222.1834	2981.1292	3046.8977	3076.1476	3115.7934	3130.9089	3138.5661	3146.5429	3501.3851	3741.4317	3816.1711
CC1(O)C(CO)C1C#C	C[C@]1(O)[C@H](CO)[C@H]1C#C	
InChI=1S/C7H10O2/c1-3-5-6(4-8)7(5,2)9/h1,5-6,8-9H,4H2,2H3	InChI=1S/C7H10O2/c1-3-5-6(4-8)7(5,2)9/h1,5-6,8-9H,4H2,2H3/t5-,6-,7-/m1/s1
