19
gdb 4873	2.6953934	0.9919364	0.8093771	2.0835	81.81	-0.25147	0.02173	0.2732	1451.678	0.153276	-422.513709	-422.502954	-422.50201	-422.55126	37.029	
C	 1.5126984926	-0.1770558978	-0.1198750655	-0.502807
C	 0.0579360444	-0.1369067388	-0.1343701007	 0.130366
C	-1.1468901135	-0.0890283319	-0.1325010364	 0.05398
C	-2.5845614841	-0.0278891948	-0.1822681908	-0.231226
O	-3.3185892367	-0.0580425287	 1.0582524406	-0.285436
C	-3.4476539224	-1.1797729923	 0.1786393384	 0.379526
C	-4.7880797698	-1.3560254095	-0.4920562727	-0.464405
C	-2.7707792705	-2.4544610379	 0.6598913848	-0.138997
O	-2.3148780518	-3.2403108249	-0.4303198629	-0.419572
H	 1.8812340448	-0.9708273768	 0.538623989	 0.155978
H	 1.9129136734	-0.3630952148	-1.1225015574	 0.153928
H	 1.9304126839	 0.7716713862	 0.2340929012	 0.157472
H	-2.987230593	 0.6827911587	-0.9041440077	 0.110021
H	-5.5258428588	-1.7191383472	 0.2319630339	 0.128125
H	-5.1537646005	-0.4155822571	-0.9112035999	 0.123105
H	-4.7036779071	-2.0983682692	-1.2911484691	 0.140989
H	-1.9608748064	-2.1879400167	 1.3495348944	 0.111059
H	-3.490482613	-3.0747542995	 1.2050310744	 0.109183
H	-1.5865778814	-2.7547965269	-0.8344719834	 0.288709
19.6598	50.3785	91.1757	112.8167	193.3411	215.2344	261.3469	279.7341	347.0936	353.7882	389.9804	414.5962	472.0947	527.8426	562.7482	741.732	792.6377	856.1279	907.0356	950.459	1032.1367	1050.8831	1053.2089	1070.7258	1080.5432	1099.1064	1171.3733	1208.4226	1275.2933	1333.4114	1379.2289	1405.2938	1413.3075	1421.5013	1447.1522	1475.0545	1477.1383	1482.343	1496.8759	1503.2696	2361.5729	3029.4007	3029.7904	3038.4731	3080.8492	3091.8722	3093.8013	3104.3274	3106.7518	3128.2009	3795.9161	19.6635	50.3775	91.1759	112.8163	193.3406	215.2342	261.3468	279.7339	347.0933	353.7877	389.9805	414.5943	472.0943	527.8428	562.7484	741.7325	792.6383	856.1289	907.0364	950.4592	1032.1372	1050.8832	1053.2089	1070.7255	1080.5432	1099.1069	1171.3734	1208.4228	1275.294	1333.4118	1379.2291	1405.2941	1413.3077	1421.5017	1447.1527	1475.0546	1477.1384	1482.3433	1496.8763	1503.2698	2361.5727	3029.4006	3029.7904	3038.4732	3080.8491	3091.8723	3093.8014	3104.3276	3106.7519	3128.2009	3795.9152
CC#CC1OC1(C)CO	CC#C[C@@H]1O[C@]1(C)CO	
InChI=1S/C7H10O2/c1-3-4-6-7(2,5-8)9-6/h6,8H,5H2,1-2H3	InChI=1S/C7H10O2/c1-3-4-6-7(2,5-8)9-6/h6,8H,5H2,1-2H3/t6-,7+/m0/s1
