19
gdb 4263	2.2691521	1.7307793	1.0782694	1.1478	79.25	-0.228	0.00499	0.23299	1131.924	0.156749	-422.531516	-422.522947	-422.522003	-422.564563	32.295	
C	-0.2120480798	 1.4026178093	 0.1071730224	-0.502208
C	-0.1015336257	-0.0702649983	-0.123084846	 0.13898
C	-1.0482891359	-0.9731910215	-0.3722695725	 0.063225
C	-2.4392688545	-1.3498706501	 0.1038802675	 0.069923
O	-3.1707515711	-0.4514846692	 0.8905959153	-0.423021
C	-1.7276775289	-2.5995576129	 0.7672653164	-0.301069
C	-0.5147460093	-2.3589518751	-0.1988699229	 0.096542
O	 0.8200382722	-2.2192150347	 0.2578714729	-0.279265
C	 1.201024985	-0.8474749623	 0.0588278639	-0.147086
H	 0.2516013139	 1.6973937667	 1.0573909916	 0.123278
H	 0.3049394735	 1.968402423	-0.6784852709	 0.135445
H	-1.2577000155	 1.7203025731	 0.1126932111	 0.139384
H	-3.1129225121	-1.665226282	-0.6982017203	 0.105553
H	-2.5927209303	-0.1509694498	 1.6008095522	 0.280555
H	-1.4473060947	-2.3765242632	 1.7999960166	 0.107343
H	-2.2485835157	-3.5583150366	 0.711801326	 0.104722
H	-0.5514033825	-3.0276928957	-1.0691469147	 0.078647
H	 1.8854937832	-0.7653933716	-0.8017380962	 0.102569
H	 1.749926628	-0.4980291192	 0.9447163176	 0.106483
118.0513	123.1667	171.7914	178.5997	288.1501	313.174	375.0887	402.8762	438.4283	501.4893	630.653	671.8479	679.3397	753.5976	819.7936	913.0923	934.531	966.8236	983.4837	1009.1934	1027.1479	1081.1659	1096.23	1112.0583	1120.8722	1156.0475	1172.0259	1195.7397	1229.7508	1250.9325	1269.6037	1311.1722	1348.2914	1377.4995	1410.3073	1436.5993	1461.0919	1482.9737	1489.2809	1517.8881	1754.8062	2965.849	3010.4441	3014.8328	3018.0733	3060.0609	3060.6401	3071.2335	3117.9956	3130.1846	3800.209
CC1=C2C(O)CC2OC1	C[C]1[C]2[C@H](O)C[C@@H]2OC1	
InChI=1S/C7H10O2/c1-4-3-9-6-2-5(8)7(4)6/h5-6,8H,2-3H2,1H3	InChI=1S/C7H10O2/c1-4-3-9-6-2-5(8)7(4)6/h5-6,8H,2-3H2,1H3/t5-,6+/m1/s1
