19
gdb 3798	4.3505453	0.9394921	0.8289099	1.0989	78.52	-0.23555	0.0122	0.24775	1418.5747	0.156124	-422.537552	-422.528799	-422.527855	-422.57173	31.751	
C	-1.0935055618	 5.2082167435	 1.9049986838	-0.421525
C	-0.6532751188	 4.4406576705	 0.6868552947	 0.085853
O	-1.6897053826	 3.955601341	-0.1805676122	-0.266029
C	-0.8914321708	 3.0019091945	 0.5278057297	 0.043595
C	-0.0033370082	 2.1275460272	-0.3378113322	 0.053271
O	 0.9703735502	 1.4788420214	 0.483713778	-0.277455
C	 0.89949716	 0.0630131612	 0.3186912024	-0.115121
C	-0.2388511568	-0.1626838015	-0.6359213234	-0.098651
C	-0.7448429529	 1.0043980353	-1.0149408148	-0.093231
H	-1.9347113109	 4.7106208312	 2.3950303716	 0.127232
H	-0.2696846788	 5.2918433983	 2.6218073347	 0.126242
H	-1.4069421984	 6.2211442904	 1.63145922	 0.128649
H	 0.1989849104	 4.8612381902	 0.1493152398	 0.090064
H	-1.4121821965	 2.4687061592	 1.3251533332	 0.088376
H	 0.4994406186	 2.7781273048	-1.0723701548	 0.085231
H	 1.8562005353	-0.3174862989	-0.0734960933	 0.10674
H	 0.7372333171	-0.416924335	 1.2959547128	 0.107805
H	-0.5613640905	-1.1470768571	-0.9506018528	 0.108812
H	-1.5660692245	 1.1796383339	-1.6970412874	 0.120142
60.697	83.817	125.9862	202.0743	215.971	307.4974	349.9042	369.295	488.7538	526.6719	724.0877	768.132	795.052	818.3679	887.4592	929.1186	937.8601	963.9206	971.7622	998.0651	1042.4052	1047.9011	1091.3131	1108.823	1114.5966	1147.6781	1165.5557	1177.0491	1198.8715	1277.0132	1287.8593	1303.1669	1350.0238	1381.8847	1385.4427	1413.09	1474.934	1491.2016	1511.5718	1522.6621	1690.245	2965.2234	2976.0278	2996.0068	3036.9027	3088.2446	3100.0396	3102.16	3123.8624	3211.353	3238.073
CC1OC1C1OCC=C1	C[C@@H]1O[C@H]1[C@H]1OCC=C1	
InChI=1S/C7H10O2/c1-5-7(9-5)6-3-2-4-8-6/h2-3,5-7H,4H2,1H3	InChI=1S/C7H10O2/c1-5-7(9-5)6-3-2-4-8-6/h2-3,5-7H,4H2,1H3/t5-,6-,7+/m0/s1
