19
gdb 822	3.8517334	0.8705705	0.8517132	2.1003	76.61	-0.24227	-0.02941	0.21286000000000002	1431.3716	0.155583	-422.529008	-422.520059	-422.519115	-422.564239	31.962	
O	 0.890786827	 0.1173797248	-0.7398687127	-0.237493
C	 0.3011188417	-0.2103155588	 0.2569807165	 0.134867
C	-0.317300952	 0.7590740878	 1.2439247608	 0.059233
C	-0.9404420739	 2.0451991264	 0.67924025	-0.326379
C	-2.2658365834	 1.4875946598	 1.2544572401	 0.141126
O	-1.5955675365	 0.2661472709	 1.6955933877	-0.31589
C	-3.3986260474	 1.223719584	 0.3135671801	 0.019428
C	-4.7759459363	 0.9344701381	 0.8563725056	-0.267076
C	-4.5003508108	 2.2498682133	 0.1785074244	-0.272202
H	 0.1463036733	-1.2780265527	 0.5318328637	 0.091479
H	 0.385787832	 0.9013147158	 2.0800726314	 0.098818
H	-0.587248417	 2.9795821064	 1.114686506	 0.114737
H	-0.8971805572	 2.1105356488	-0.4092299122	 0.130021
H	-2.6288927896	 2.0460920012	 2.12834872	 0.0725
H	-3.110846439	 0.6953615454	-0.5914809895	 0.087772
H	-5.3823886009	 0.2015184482	 0.3369115584	 0.118121
H	-4.9036018195	 0.9337500949	 1.9337998114	 0.118769
H	-4.91371213	 2.4239051127	-0.8081909361	 0.118133
H	-4.4440610804	 3.1391431832	 0.7979785445	 0.114034
32.8958	74.7937	83.2257	181.3407	229.7877	268.6723	369.0068	375.41	460.0777	587.4583	726.8745	772.6415	810.675	832.4915	887.4708	905.5025	923.8075	934.898	986.7011	1003.18	1036.2648	1057.5376	1063.4678	1082.4312	1106.801	1131.2581	1132.6698	1196.6782	1222.1048	1230.4414	1249.7733	1251.9756	1299.5155	1327.7238	1351.1841	1403.4061	1443.8306	1471.0622	1496.0641	1506.7682	1832.8411	2887.5212	2979.1463	3006.2824	3089.0906	3133.2598	3137.4715	3144.1299	3147.6486	3212.4577	3227.2149
O=CC1CC(O1)C1CC1	O=C[C@H]1C[C@H](O1)C1CC1	
InChI=1S/C7H10O2/c8-4-6-3-7(9-6)5-1-2-5/h4-7H,1-3H2	InChI=1S/C7H10O2/c8-4-6-3-7(9-6)5-1-2-5/h4-7H,1-3H2/t6-,7+/m1/s1
