19
gdb 1969	3.231747	1.4366584	1.1835289	1.0632	74.3	-0.25116	0.07016	0.32132	1085.4736	0.156325	-422.542787	-422.534584	-422.53364	-422.574817	32.67	
C	 0.0388202951	-0.4242639085	-0.304602699	-0.478829
C	 1.3900436618	 0.0879058373	 0.1140925958	 0.413859
C	 2.040040421	-0.4167306606	 1.4023793768	-0.369537
C	 3.0183003689	 0.6780287677	 1.8560482883	 0.385701
O	 3.0977691519	 0.9273265556	 3.2291682326	-0.464544
C	 4.1884205601	 1.0399402672	 0.9856982531	-0.34723
C	 2.9002272485	 1.8447333371	 0.9025151559	-0.108753
C	 1.9215152904	 1.4364828755	-0.1710675135	-0.040647
O	 2.3335361639	 0.3019990553	-0.9532462628	-0.296279
H	-0.7058533387	-0.2474281492	 0.4784471924	 0.122639
H	-0.2895091437	 0.0723833019	-1.2211988069	 0.129324
H	 0.0729284746	-1.5023746387	-0.4977975303	 0.126568
H	 1.2775967071	-0.5253821118	 2.1810828482	 0.112846
H	 2.5148158464	-1.3937846182	 1.2583108451	 0.106394
H	 3.76473096	 0.3399043425	 3.6006219794	 0.282844
H	 5.0167172838	 1.5264681199	 1.4899728258	 0.107474
H	 4.4444155218	 0.4108148269	 0.142034244	 0.133785
H	 2.8894454104	 2.8642643189	 1.2671417827	 0.094039
H	 1.3606604767	 2.1920018313	-0.7150767475	 0.090346
163.3304	185.5232	220.9482	280.2838	289.4685	353.5626	395.3522	406.2506	417.213	547.7537	568.0387	657.1069	724.3178	741.4767	831.1178	866.2488	880.789	897.5733	928.7913	972.188	978.0485	1001.1359	1047.6251	1072.9156	1078.3312	1088.0635	1104.1221	1177.5979	1218.7089	1252.4061	1268.1914	1293.6294	1322.2637	1339.1383	1390.7039	1410.5037	1435.6901	1470.3743	1480.6213	1486.415	1497.094	3033.3489	3042.0087	3086.8846	3096.51	3121.8142	3137.6002	3146.6841	3196.1563	3236.7351	3796.5583
CC12CC3(O)CC3C1O2	C[C@]12C[C@@]3(O)C[C@H]3[C@H]1O2	
InChI=1S/C7H10O2/c1-6-3-7(8)2-4(7)5(6)9-6/h4-5,8H,2-3H2,1H3	InChI=1S/C7H10O2/c1-6-3-7(8)2-4(7)5(6)9-6/h4-5,8H,2-3H2,1H3/t4-,5+,6-,7-/m0/s1
