19
gdb 5130	2.3347518	1.5009771	1.2863223	2.1153	74.74	-0.24892	-0.01111	0.23781	1100.7225	0.156524	-422.551544	-422.542891	-422.541947	-422.584807	32.824	
C	 1.3515602871	 1.0749656661	 0.1110510063	-0.386491
C	 1.1626774638	-0.4383401864	-0.0537176743	-0.293902
C	 1.8839966774	-1.0141702142	-1.2437551033	 0.380298
O	 1.3385484941	-2.2244217405	-1.8044334995	-0.319099
C	 1.4085120014	-1.0267897903	-2.6324708832	-0.069682
C	 2.6108134671	-1.0132464754	-3.5242462155	-0.079179
C	 3.7229782253	-1.0455049123	-2.7881068468	-0.124395
C	 3.4248679873	-1.0764769552	-1.2947842752	 0.040787
O	 3.9239193112	-2.2385552966	-0.6529637581	-0.435998
H	 0.8042503221	 1.4370043008	 0.9860765058	 0.120734
H	 2.4041328085	 1.3411881437	 0.2502667435	 0.12443
H	 0.98305453	 1.6188174027	-0.7648952563	 0.118962
H	 1.5181554175	-0.9594397553	 0.8447189246	 0.116049
H	 0.0992224734	-0.6788119835	-0.15554608	 0.110458
H	 0.4448593611	-0.6340634059	-2.9424742923	 0.098995
H	 2.5521707854	-1.0184109504	-4.605945239	 0.108347
H	 4.7377422365	-1.1198435338	-3.1617533508	 0.110435
H	 3.8825331228	-0.2300400866	-0.7707206257	 0.09055
H	 3.3988582981	-2.9683419569	-1.0094469504	 0.2887
74.1369	129.128	179.1823	198.2345	258.3035	308.1588	384.6543	448.2242	492.8734	542.7992	589.3139	605.329	712.48	765.3588	785.7477	836.0071	885.2611	917.619	934.7604	959.9432	983.5443	1001.7213	1051.6036	1061.458	1083.6709	1113.1826	1142.7109	1215.4909	1249.9555	1273.9547	1293.3071	1318.89	1352.4822	1366.6206	1413.4805	1431.086	1462.3026	1483.7622	1501.1437	1507.5721	1664.7888	3028.255	3038.2559	3050.8627	3073.553	3107.793	3111.4352	3163.5848	3193.9972	3218.4663	3757.5472
CCC12OC1C=CC2O	CC[C@@]12O[C@@H]1C=C[C@@H]2O	
InChI=1S/C7H10O2/c1-2-7-5(8)3-4-6(7)9-7/h3-6,8H,2H2,1H3	InChI=1S/C7H10O2/c1-2-7-5(8)3-4-6(7)9-7/h3-6,8H,2H2,1H3/t5-,6+,7-/m0/s1
