19
gdb 838	3.6227177	1.2089802	1.1314313	3.0779	74.67	-0.24438	-0.01986	0.22452	1132.7461	0.159254	-422.588254	-422.580653	-422.579709	-422.620835	29.083	
O	 1.3471817145	-0.3693987293	 0.0774274883	-0.257038
C	 0.1843610592	-0.0585521786	 0.1245992933	 0.140772
C	-0.4458211635	 0.7703632537	 1.2168326009	-0.062078
C	-1.1670685059	 2.0338050124	 0.6403852593	-0.255214
C	-2.6230062714	 1.7873380034	 1.0919764822	 0.084077
C	-2.7527461817	 2.0155755594	 2.6142183396	-0.217779
C	-2.0566697346	 0.7345171612	 3.1681318393	-0.224718
C	-1.6619625826	 0.0268905631	 1.8536470495	 0.050193
O	-2.7369744296	 0.3611065435	 0.9712701152	-0.259516
H	-0.5333008194	-0.3793459548	-0.665675155	 0.085917
H	 0.3257151698	 1.0107834665	 1.9508391822	 0.090708
H	-0.7414011105	 2.9649285882	 1.0201071583	 0.11158
H	-1.1093750063	 2.0574136985	-0.4521699218	 0.111021
H	-3.3853016791	 2.2672009912	 0.4785839219	 0.08288
H	-2.2729227907	 2.9417316175	 2.9401420255	 0.102937
H	-3.8030865914	 2.0572703593	 2.910190936	 0.110526
H	-1.1963008506	 0.9482596221	 3.8064698986	 0.106281
H	-2.7544233075	 0.115592136	 3.7364134936	 0.110386
H	-1.5612595686	-1.0571880132	 1.9158339131	 0.089066
77.6138	90.5293	227.1481	270.0625	356.727	394.4682	459.0006	557.6777	643.2423	783.0777	806.9444	824.2745	834.3638	884.6319	899.9089	931.1889	945.2692	962.0452	977.3255	1007.8932	1028.8423	1040.9962	1072.7616	1125.8298	1155.3169	1189.993	1225.2991	1233.0157	1237.9584	1274.7637	1284.8065	1301.6445	1313.1495	1323.378	1352.2462	1361.3813	1422.1731	1483.1085	1492.49	1508.6815	1829.4316	2869.71	3056.7063	3065.4441	3074.2234	3093.9849	3106.0195	3113.4571	3118.1251	3124.0101	3127.8393
O=CC1CC2CCC1O2	O=C[C@H]1C[C@@H]2CC[C@H]1O2	
InChI=1S/C7H10O2/c8-4-5-3-6-1-2-7(5)9-6/h4-7H,1-3H2	InChI=1S/C7H10O2/c8-4-5-3-6-1-2-7(5)9-6/h4-7H,1-3H2/t5-,6+,7-/m1/s1
