19
gdb 4737	2.8726258	1.1022199	0.9701479	3.0728	78.02	-0.25847	-0.05971	0.19876	1276.5803	0.152542	-422.539622	-422.528816	-422.527871	-422.57538	38.588	
C	 2.897239898	-1.7904311447	 1.71603077	-0.443712
C	 3.2835740122	-1.2853230796	 0.3101481306	 0.106858
C	 2.7707294228	-2.270656759	-0.761314762	-0.425239
C	 4.8171365256	-1.1314895585	 0.1931176006	-0.086883
O	 5.5026061935	-2.3622954894	 0.376765839	-0.42877
C	 2.6461145846	 0.0867397751	 0.0763329889	 0.228713
O	 3.2899063163	 1.0869998204	-0.1622621363	-0.310399
C	 1.19063481	 0.1487173219	 0.1451218312	 0.275659
C	-0.0105084486	 0.2140001954	 0.1983034173	-0.402065
H	 3.3093439513	-2.7917178811	 1.8752358147	 0.120859
H	 3.2812080485	-1.127630569	 2.4995950831	 0.120364
H	 1.812349876	-1.8562377864	 1.83050822	 0.134447
H	 3.3059225272	-3.2172961321	-0.6539971181	 0.139346
H	 1.6982151472	-2.4536284658	-0.6569169258	 0.123019
H	 2.9571091091	-1.8896172225	-1.7707401146	 0.123349
H	 5.0732828381	-0.7848140269	-0.8114788082	 0.121311
H	 5.1683924597	-0.3654105289	 0.8957383107	 0.102992
H	 5.5493326115	-2.5421765821	 1.3198994272	 0.286394
H	-1.0703994328	 0.2856451535	 0.2415355317	 0.213755
40.105	116.4614	130.7782	179.0537	215.8833	221.8991	246.2296	286.9321	301.413	325.8135	341.223	376.7665	413.8757	489.3051	636.5222	646.6376	703.6897	713.3278	765.7403	822.1197	913.903	959.68	993.9476	1027.271	1036.6025	1092.623	1127.9208	1237.0459	1268.9397	1269.8285	1387.6934	1389.978	1403.8208	1422.1607	1484.1028	1487.5622	1491.8676	1509.6503	1513.6086	1753.9051	2206.663	3026.9696	3033.1419	3042.3634	3098.575	3102.0295	3113.2162	3120.1326	3131.4865	3493.2097	3836.6964
CC(C)(CO)C(=O)C#C	CC(C)(CO)C(=O)C#C	
InChI=1S/C7H10O2/c1-4-6(9)7(2,3)5-8/h1,8H,5H2,2-3H3	InChI=1S/C7H10O2/c1-4-6(9)7(2,3)5-8/h1,8H,5H2,2-3H3
