19
gdb 2472	2.5544892	1.7986489	1.4125886	2.7783	77.05	-0.24575	0.00341	0.24916	999.2353	0.157597	-422.566803	-422.558775	-422.557831	-422.599284	30.755	
C	 0.0105744087	 1.8186760984	-0.0799473249	-0.41623
C	 0.0353032043	 0.2986948636	 0.06233284	 0.430155
O	-1.3116032168	-0.1565591766	 0.1827026124	-0.29447
C	-1.5020624825	-0.7963513338	 1.4535327603	-0.067149
C	-0.2994912537	-0.3901026171	 2.3540497698	-0.343304
C	 0.7202310336	-0.289137228	 1.2736708262	 0.215704
C	 1.8202211692	-0.9307537736	 0.9039000106	-0.237595
C	 1.9545094966	-0.8317829362	-0.5963389962	-0.126225
O	 0.7270383966	-0.2536350341	-1.0476126321	-0.296006
H	 1.0252200418	 2.2111860062	-0.1914322179	 0.114409
H	-0.5682088782	 2.0819640719	-0.9693796718	 0.135137
H	-0.4609810779	 2.2863865024	 0.7891211013	 0.109056
H	-2.468874621	-0.4770871501	 1.8541460085	 0.108448
H	-1.5191996657	-1.8873751894	 1.3269796118	 0.10455
H	-0.4937143377	 0.5714145635	 2.8427491328	 0.118318
H	-0.0765479636	-1.1340102885	 3.1209518577	 0.115497
H	 2.4742460423	-1.5357165786	 1.5193739005	 0.107385
H	 2.8041668828	-0.2124155857	-0.9251287872	 0.106941
H	 2.0800730713	-1.8237578643	-1.0517952017	 0.115379
85.6306	130.1159	226.9717	239.5538	269.2282	363.0942	410.4196	451.4758	607.1441	625.1479	680.0495	725.6763	789.5678	821.0991	855.6183	899.6664	913.7917	936.4148	948.1283	1020.1187	1034.6005	1058.8439	1066.7824	1129.4723	1135.0831	1155.3616	1185.3794	1196.1229	1221.2621	1247.4707	1294.0075	1338.9076	1365.1775	1385.1404	1402.1959	1477.2458	1482.9389	1485.057	1514.8325	1523.1852	1751.6352	2977.9492	3010.3764	3022.042	3041.2827	3043.6718	3080.1581	3117.9704	3119.766	3126.1427	3213.165
CC12OCCC1=CCO2	C[C@]12OCC[C]1[CH]CO2	
InChI=1S/C7H10O2/c1-7-6(2-4-8-7)3-5-9-7/h2H,3-5H2,1H3	InChI=1S/C7H10O2/c1-7-6(2-4-8-7)3-5-9-7/h2H,3-5H2,1H3/t7-/m0/s1
