19
gdb 1187	2.560153	1.278575	1.1372197	1.0919	76.81	-0.24074	0.02793	0.26867	1176.6777	0.153716	-422.50741	-422.497423	-422.496479	-422.542272	36.258	
C	 2.6943657624	-0.6857761193	 2.6070419795	-0.460735
C	 3.1321938538	-0.9768295748	 1.1826656121	 0.429584
C	 4.6341435626	-1.2804152377	 0.9620472699	-0.336011
C	 4.1412876594	-2.657264377	 0.477662747	-0.070121
O	 2.7663586712	-2.3183074246	 0.7645353227	-0.320441
C	 2.5814032445	 0.0475852483	 0.1581837738	-0.091641
O	 3.1521085216	 1.3365514446	 0.377679807	-0.426635
C	 1.1195839515	 0.0899570985	 0.1411751509	 0.297674
C	-0.0799504984	 0.1683475533	 0.1611013773	-0.440466
H	 3.1060418053	-1.435219413	 3.287864522	 0.121044
H	 3.0542181914	 0.2990079262	 2.9235550771	 0.114846
H	 1.603844988	-0.706653414	 2.6865987949	 0.137527
H	 5.1329628523	-0.6519283818	 0.2233321161	 0.121534
H	 5.2287754476	-1.297550475	 1.876654091	 0.107672
H	 4.2954489533	-2.8701254522	-0.5872912297	 0.103745
H	 4.4761231337	-3.5227990682	 1.0608085003	 0.104827
H	 2.9357434611	-0.2684745816	-0.830243354	 0.115214
H	 2.5975498153	 1.7963772195	 1.0164485574	 0.290832
H	-1.1407611666	 0.223370149	 0.1609023447	 0.201551
64.3529	85.7765	133.8503	197.8124	210.8134	233.3479	265.6272	306.205	345.3568	374.5916	459.0926	507.5635	590.4435	630.933	671.4696	734.4477	782.7846	849.4014	892.2202	907.3259	969.4019	995.3965	1006.0481	1022.2325	1067.7116	1135.3388	1160.6298	1192.1306	1205.4002	1255.2917	1261.134	1274.0909	1345.8263	1355.756	1400.6455	1407.2425	1486.0637	1490.0499	1495.4245	1531.4103	2231.8174	3019.059	3039.7292	3040.6017	3058.8825	3083.5603	3112.9891	3124.2126	3138.1801	3501.9977	3821.605
CC1(CCO1)C(O)C#C	C[C@]1(CCO1)[C@H](O)C#C	
InChI=1S/C7H10O2/c1-3-6(8)7(2)4-5-9-7/h1,6,8H,4-5H2,2H3	InChI=1S/C7H10O2/c1-3-6(8)7(2)4-5-9-7/h1,6,8H,4-5H2,2H3/t6-,7+/m1/s1
