19
gdb 5997	4.0679695	0.9394595	0.8347059	1.7059	78.43	-0.23977	0.00191	0.24168	1425.7574	0.156364	-422.528157	-422.519442	-422.518497	-422.562267	31.614	
C	 1.3591098031	 0.252270225	-0.1523507139	-0.220834
O	-0.0419281497	 0.2291338305	-0.0170745291	-0.236768
C	-0.4660717596	 0.4207624983	 1.3215429988	-0.192591
C	-1.9574563448	 0.4930469614	 1.3407640861	 0.345498
C	-2.8026019281	-0.182377267	 2.1259290139	-0.194091
C	-4.2517407907	 0.1807959974	 1.8716086441	-0.286684
C	-4.1479220628	 1.270385937	 0.8087994207	 0.045843
O	-3.4485907132	 2.4409554408	 1.2346973258	-0.261341
C	-2.7256419554	 1.4428750138	 0.4723302171	-0.062415
H	 1.8393220583	-0.553674822	 0.4250722729	 0.104326
H	 1.5874522946	 0.1110569771	-1.2114572809	 0.128295
H	 1.786267355	 1.2118687452	 0.1801273846	 0.105313
H	-0.107203418	-0.3964931836	 1.968279342	 0.091778
H	-0.0348855171	 1.3594145212	 1.7150820015	 0.09933
H	-2.5059395204	-0.8895239344	 2.8935905948	 0.096375
H	-4.8279629587	-0.6786268356	 1.5050130887	 0.113531
H	-4.7575823595	 0.5421069271	 2.7752452184	 0.124845
H	-4.9558579999	 1.4393821097	 0.102042128	 0.094631
H	-2.350671683	 1.7709021881	-0.4908193334	 0.104958
63.1751	88.3541	117.2313	219.5873	244.0964	302.5402	344.607	363.1085	423.5776	607.9375	669.6709	769.6375	819.2689	824.4917	866.3278	886.9518	922.4582	951.4476	983.6664	1017.1915	1026.4686	1050.5158	1107.9531	1146.4216	1182.5421	1183.8004	1199.4488	1220.9814	1243.9532	1249.5781	1279.1308	1312.2497	1368.7968	1409.0333	1410.5891	1459.5652	1478.7673	1484.7483	1499.9746	1519.5561	1708.3822	2936.0932	2969.1915	2983.1342	3013.2118	3026.3898	3061.7327	3115.3035	3149.1772	3184.0015	3186.8343
COCC1=CCC2OC12	COCC1=CC[C@H]2O[C@@H]12	
InChI=1S/C7H10O2/c1-8-4-5-2-3-6-7(5)9-6/h2,6-7H,3-4H2,1H3	InChI=1S/C7H10O2/c1-8-4-5-2-3-6-7(5)9-6/h2,6-7H,3-4H2,1H3/t6-,7+/m1/s1
