19
gdb 4793	2.6427213	0.9261362	0.8186121	1.4401	77.56	-0.24445	-0.01477	0.22968	1465.3949	0.152878	-422.543813	-422.533061	-422.532117	-422.580568	37.554	
C	 3.8074186224	 0.8739603537	 0.3506186035	-0.484535
C	 2.3864669685	 0.3984559661	 0.1046412187	 0.391382
O	 1.8511740479	-0.4103493686	 0.824758861	-0.292762
C	 1.6566000586	 0.9589189841	-1.1167258065	-0.303809
C	 1.7666546998	 2.4864486304	-1.3205078873	-0.188536
C	 0.9930361819	 2.9286302028	-2.5866502291	-0.05884
O	 1.1098111403	 4.3095312781	-2.8363391342	-0.420263
C	 1.2766366283	 3.2330139932	-0.162342488	 0.32308
C	 0.8409825296	 3.866867375	 0.7629096543	-0.476726
H	 4.2717104245	 0.2499086033	 1.1148453647	 0.143822
H	 4.402630501	 0.8489924711	-0.5686577217	 0.131569
H	 3.7923913374	 1.9128461361	 0.6993140286	 0.155585
H	 2.0787321716	 0.4671889142	-2.0046655313	 0.122258
H	 0.6100407976	 0.6544146154	-1.0355303506	 0.130769
H	 2.8174559274	 2.7570328107	-1.4839821052	 0.118786
H	 1.417142705	 2.4186088216	-3.4576518423	 0.112405
H	-0.0578354492	 2.6142319682	-2.4898055488	 0.099299
H	 0.7652024204	 4.7703167978	-2.0617885984	 0.287846
H	 0.4698675172	 4.4102729068	 1.5970168326	 0.208671
43.6392	61.0398	100.458	140.4995	156.1874	171.6835	222.1717	271.5259	368.0107	394.978	410.7063	484.3368	534.9992	549.8485	625.0275	637.099	664.0054	777.297	793.487	864.1951	969.1032	990.3747	1054.8409	1074.4426	1094.1546	1097.9831	1178.008	1212.9944	1244.7528	1268.5799	1335.5099	1366.5296	1380.4575	1386.4597	1427.4	1458.6974	1464.8351	1479.6746	1504.9731	1816.582	2227.2797	2984.6952	3018.3353	3032.6267	3038.0664	3079.5336	3099.2737	3105.6686	3153.0308	3499.8983	3783.8327
CC(=O)CC(CO)C#C	CC(=O)C[C@@H](CO)C#C	
InChI=1S/C7H10O2/c1-3-7(5-8)4-6(2)9/h1,7-8H,4-5H2,2H3	InChI=1S/C7H10O2/c1-3-7(5-8)4-6(2)9/h1,7-8H,4-5H2,2H3/t7-/m0/s1
