19
gdb 889	2.0609356	1.2663551	0.8693187	2.1395	76.91	-0.24607	-0.04301	0.20306000000000002	1345.496	0.154487	-422.565014	-422.555269	-422.554325	-422.601727	33.787	
O	 2.7308371949	 1.8674699887	 2.8253682085	-0.233881
C	 1.5480458544	 1.7209592635	 2.6682188745	 0.164713
C	 0.8977025414	 1.3713303318	 1.3369603353	-0.359058
C	-0.0001152744	 0.1387188049	 1.5089611416	 0.356861
O	-1.0021408675	 0.21230838	 2.1810169355	-0.303828
C	 0.4692061262	-1.1650107768	 0.88011647	-0.311114
C	 1.6524128662	-1.7385830455	 1.6460720589	 0.021059
C	 2.5667847253	-2.7496173382	 1.0000388649	-0.280129
C	 3.0758307027	-1.3649230999	 1.3065472405	-0.249177
H	 0.8238217597	 1.8244116791	 3.5038525845	 0.105274
H	 0.2357707242	 2.2044839104	 1.0711289305	 0.150472
H	 1.6701740563	 1.2505576914	 0.5776252476	 0.124069
H	-0.3748821734	-1.8608492837	 0.8980543277	 0.125363
H	 0.7570570427	-0.9912512201	-0.1639803327	 0.108664
H	 1.4454486742	-1.901102969	 2.7005229199	 0.100866
H	 2.9169928075	-3.5786497771	 1.6045488517	 0.119676
H	 2.3852549089	-3.004006365	-0.0391673381	 0.114501
H	 3.7778634426	-1.2308408558	 2.1209993971	 0.129604
H	 3.245935888	-0.6968009886	 0.4690404121	 0.116066
30.8461	38.8818	100.5618	113.3137	148.5929	231.1811	305.0152	324.2272	428.2911	477.22	558.2579	631.0115	772.5297	780.0644	813.8909	839.5001	867.6513	903.708	923.5402	984.7625	1034.0758	1045.2057	1064.926	1090.0589	1099.0968	1144.005	1156.3689	1198.2647	1206.4176	1229.6278	1250.9659	1289.6774	1302.6086	1400.7845	1408.2509	1446.2544	1466.4681	1475.1471	1506.8645	1793.0511	1837.9304	2915.3871	3033.4255	3047.4522	3095.1525	3133.3974	3140.8087	3144.067	3144.6718	3213.4584	3229.6116
O=CCC(=O)CC1CC1	O=CCC(=O)CC1CC1	
InChI=1S/C7H10O2/c8-4-3-7(9)5-6-1-2-6/h4,6H,1-3,5H2	InChI=1S/C7H10O2/c8-4-3-7(9)5-6-1-2-6/h4,6H,1-3,5H2
