19
gdb 432	3.8299345	1.285732	1.2153884	2.2043	74.45	-0.24854	0.0773	0.32584	1088.5627	0.158263	-422.518155	-422.510658	-422.509714	-422.550268	29.413	
C	 0.4342750108	 0.1529849323	-0.976427204	-0.171979
O	 0.0459989543	-0.0906122386	 0.3770440217	-0.235786
C	 1.3943158955	 0.3045824234	 0.1254970997	-0.071405
C	 1.8061948597	 1.6518310579	 0.6180645942	 0.435202
C	 1.5151270867	 2.1638809806	 2.0528645738	-0.2729
C	 1.5803957652	 3.4839836229	 1.2619691839	 0.072251
C	 3.0660429106	 3.6052013278	 0.8602153369	-0.217185
C	 3.2520927299	 2.1401272832	 0.3491814346	-0.267591
O	 1.0174065281	 2.7767180005	 0.1104858856	-0.329586
H	 0.4852524104	-0.7270364725	-1.6159600806	 0.112526
H	 0.0100356997	 1.0481196829	-1.4238240402	 0.137205
H	 2.1309174463	-0.4837485494	 0.2896358353	 0.092178
H	 0.4999933519	 1.9104936848	 2.3562940236	 0.126871
H	 2.2428194624	 1.9761596522	 2.8466776703	 0.09115
H	 1.0297713799	 4.3810320612	 1.5430987789	 0.08079
H	 3.2068468098	 4.3464834902	 0.0712528704	 0.109391
H	 3.7164949576	 3.8603892258	 1.701105458	 0.099986
H	 3.4954629585	 2.0902392379	-0.7144056611	 0.108935
H	 4.0021025728	 1.5732999868	 0.9075211989	 0.099946
76.4196	169.4048	184.9265	294.2118	373.5799	430.3683	474.9687	567.2396	645.5351	710.7494	828.6713	830.1872	845.9637	858.4482	879.7831	906.5685	918.3669	948.6169	969.0656	1001.1539	1003.4144	1047.1373	1086.5433	1106.2431	1156.739	1159.1392	1162.7527	1167.0445	1186.3457	1224.0659	1237.6715	1275.2282	1284.3731	1293.2653	1308.2697	1340.6112	1448.6897	1481.3855	1482.9559	1508.2867	1521.3601	3061.5844	3066.137	3072.4915	3091.13	3099.6369	3108.3658	3125.3396	3129.508	3156.2455	3192.5936
C1OC1C12CC(CC1)O2	C1O[C@@H]1[C@@]12C[C@@H](CC1)O2	
InChI=1S/C7H10O2/c1-2-7(6-4-8-6)3-5(1)9-7/h5-6H,1-4H2	InChI=1S/C7H10O2/c1-2-7(6-4-8-6)3-5(1)9-7/h5-6H,1-4H2/t5-,6+,7+/m1/s1
