19
gdb 4083	2.7997988	1.8120302	1.4599319	2.7863	73.13	-0.23695	0.06772	0.30467	950.8719	0.159736	-422.559755	-422.552474	-422.55153	-422.591379	29.093	
O	 0.9256745757	 0.4931655246	 0.4560926687	-0.431243
C	 0.0452579891	 0.8853000863	 1.4835594871	 0.150555
C	-1.3219809434	 0.1501173271	 1.5225827624	-0.291621
C	-2.271566017	 1.1773141975	 2.1327798599	-0.051446
C	-2.712693177	 2.3630021303	 1.2940751186	-0.070201
C	-2.1622662991	 2.5101557765	-0.1126444502	-0.093317
O	-0.7508777084	 2.6703497063	 0.0104081736	-0.260846
C	-0.3327684471	 2.3731013609	 1.3421950037	 0.061927
C	-1.5613114555	 2.5169688118	 2.2452052402	-0.09967
H	 1.1869739537	-0.4184049783	 0.6170972426	 0.283044
H	 0.5197092613	 0.7753726957	 2.4740466204	 0.060027
H	-1.6068450574	-0.1475320919	 0.5071108208	 0.111446
H	-1.2784853977	-0.7600982909	 2.127932585	 0.091067
H	-2.9519897005	 0.8604468199	 2.9151329153	 0.083023
H	-3.6755725969	 2.8065796296	 1.5200655319	 0.089967
H	-2.3871463709	 1.6415211803	-0.7489632101	 0.097964
H	-2.5753390173	 3.4001395145	-0.6040968519	 0.100225
H	 0.5012041646	 3.0365332155	 1.5827414538	 0.081845
H	-1.5740342661	 3.1537197244	 3.1196954182	 0.087255
84.8098	226.0067	250.564	260.427	375.0267	439.1865	517.8285	600.8228	667.6955	725.409	739.9114	783.022	813.3158	841.0201	897.3922	940.7791	967.5182	979.5492	993.0173	1013.8648	1026.5604	1061.8864	1073.258	1104.8361	1120.3808	1133.7576	1153.2977	1200.4087	1222.3545	1232.5454	1260.6175	1287.7288	1293.1352	1331.3217	1347.7304	1363.9929	1383.8308	1411.9395	1433.1966	1496.1085	1530.9104	2950.4041	2994.9233	3035.7518	3041.6507	3084.1437	3088.7907	3167.8852	3178.3146	3200.3181	3825.6549
OC1CC2C3COC1C23	O[C@@H]1C[C@@H]2[C@@H]3CO[C@H]1[C@H]23	
InChI=1S/C7H10O2/c8-5-1-3-4-2-9-7(5)6(3)4/h3-8H,1-2H2	InChI=1S/C7H10O2/c8-5-1-3-4-2-9-7(5)6(3)4/h3-8H,1-2H2/t3-,4+,5-,6-,7-/m1/s1
