19
gdb 1774	2.0931401	1.7264535	1.1622994	1.2785	77.11	-0.23505	-0.03533	0.19972	1121.6399	0.153615	-422.516323	-422.507068	-422.506124	-422.550096	34.209	
C	-0.3334668301	-0.526729255	-2.8045613785	-0.521286
C	-0.2873167712	 0.4852239702	-1.705816599	 0.411308
C	 0.2166497284	 1.9515449715	-1.7253504934	-0.311811
C	-0.5206807461	 1.7037106164	-0.3891316743	 0.387185
C	-0.9347875808	 2.6569459639	 0.6864536608	-0.5135
O	-1.5752606292	 0.9886384268	-1.138338773	-0.372483
C	 0.2220636562	 0.3133938192	-0.2479648405	-0.156116
C	 1.6778738236	 0.2291305135	 0.0990275866	 0.117602
O	 2.5936528353	 0.311068782	-0.685183514	-0.256837
H	-0.8679224925	-1.4250909074	-2.4812158078	 0.131275
H	-0.8404166836	-0.115751843	-3.6826153862	 0.13409
H	 0.6858950127	-0.8069482431	-3.0860645852	 0.145272
H	 1.2928430298	 2.1216829233	-1.7149713991	 0.123837
H	-0.3228482445	 2.6028482323	-2.4149462399	 0.102601
H	-1.5227865365	 2.1439933519	 1.4532881223	 0.135098
H	-0.0559424141	 3.1056955861	 1.1594866513	 0.131
H	-1.5450179247	 3.4592908652	 0.2604071627	 0.139824
H	-0.3694444982	-0.3852936978	 0.3520016099	 0.092192
H	 1.8781654755	 0.075764024	 1.1849633173	 0.08075
73.8337	154.3082	191.0076	198.3351	211.443	227.9419	253.197	362.8201	395.9398	456.7192	579.5219	593.7347	630.1367	669.8376	726.7054	765.4951	870.9225	889.1216	933.3664	998.9237	1010.7715	1034.3267	1068.5827	1091.3713	1112.6114	1145.1547	1172.0379	1177.4671	1218.0129	1270.3697	1319.2251	1384.3642	1408.1751	1426.0798	1429.816	1476.7068	1479.7519	1486.6174	1487.5942	1506.1121	1807.8336	2860.3408	3040.2422	3041.473	3072.7391	3083.1157	3115.064	3116.0171	3117.1955	3121.5143	3164.0891
CC12CC(C)(O1)C2C=O	C[C@@]12C[C@@](C)(O1)[C@@H]2C=O	
InChI=1S/C7H10O2/c1-6-4-7(2,9-6)5(6)3-8/h3,5H,4H2,1-2H3	InChI=1S/C7H10O2/c1-6-4-7(2,9-6)5(6)3-8/h3,5H,4H2,1-2H3/t5-,6+,7-
