19
gdb 3190	2.7091372	1.7029592	1.2284914	1.562	74.9	-0.2173	0.05604	0.27333999999999997	1046.7449	0.15594	-422.509597	-422.50114	-422.500196	-422.541785	33.473	
C	-0.2853625999	-0.7743325747	-0.2678628737	-0.405832
C	 1.0288305825	-0.0359672591	-0.4901826136	-0.063428
C	 0.8632864958	 1.4673873057	-0.888158144	-0.066244
C	 2.3161498527	 2.0182355667	-1.042966093	-0.29496
C	 2.3910420591	 1.095640396	-2.2406883978	 0.363123
O	 3.3968831837	 1.0598043959	-3.1799978539	-0.475151
C	 0.8806676256	 1.0497444277	-2.4162781613	-0.228265
C	 1.5955369142	-0.1782039689	-1.8991306642	 0.309544
O	 1.8471151271	-1.3261015927	-2.6392861909	-0.476192
H	-0.7506935136	-0.4707026059	 0.6759225093	 0.11029
H	-0.9916758439	-0.5680833802	-1.0792177162	 0.121191
H	-0.1286317791	-1.8574427846	-0.2327046331	 0.114404
H	 1.7212675968	-0.2217251172	 0.3430262316	 0.055444
H	 0.0876864487	 2.0693104625	-0.4209960427	 0.077156
H	 2.3216854541	 3.0712471184	-1.3391846758	 0.105217
H	 3.0103659272	 1.8616419102	-0.2084800925	 0.086431
H	 3.3450537492	 0.1944197096	-3.6091864849	 0.279996
H	 0.2135461671	 1.219037984	-3.2482867281	 0.098466
H	 2.5896152928	-1.7874635534	-2.2294822751	 0.288809
171.7925	209.243	221.9543	235.0845	252.4781	294.7657	383.9313	430.1801	447.89	457.0709	520.2601	657.5232	670.0358	741.4405	782.6091	802.1359	852.8503	880.9853	928.8304	944.1041	996.2151	1035.695	1065.9031	1071.9758	1087.5884	1096.9914	1122.1602	1152.9124	1195.369	1214.3137	1234.7965	1269.1929	1302.0848	1340.917	1385.2328	1407.8054	1416.1824	1441.6558	1494.1411	1498.1017	1509.7032	3002.1586	3028.4462	3029.8955	3092.6789	3097.1417	3101.2393	3145.7671	3228.9853	3744.029	3769.3538
CC1C2CC3(O)C2C13O	C[C@@H]1[C@H]2C[C@]3(O)[C@H]2[C@]13O	
InChI=1S/C7H10O2/c1-3-4-2-6(8)5(4)7(3,6)9/h3-5,8-9H,2H2,1H3	InChI=1S/C7H10O2/c1-3-4-2-6(8)5(4)7(3,6)9/h3-5,8-9H,2H2,1H3/t3-,4-,5+,6+,7-/m1/s1
