19
gdb 503	2.9150182	1.853641	1.4305002	1.6993	74.29	-0.24089	0.06771	0.3086	944.3359	0.159826	-422.508026	-422.501285	-422.500341	-422.538713	28.086	
C	 0.1994479584	 0.819183217	-1.1697594085	-0.21454
O	 0.3589774984	-0.4065543766	-0.3906789548	-0.31015
C	 0.4907212087	 0.3918376056	 0.8083429124	 0.129252
C	 1.5535825871	 0.123756135	 1.8659741749	-0.12531
O	 1.951597514	 1.4052258774	 2.3831776198	-0.287258
C	 2.0929558642	 2.4349885906	 1.39955097	 0.137361
C	 0.7092867376	 2.8948807312	 0.8087394702	-0.330021
C	 0.8627459741	 1.6128983766	-0.0372557454	 0.285601
C	 2.3935246039	 1.8355968461	 0.0067557068	-0.284561
H	 0.7247117789	 0.765764044	-2.1282471127	 0.109572
H	-0.8622121658	 1.0475765377	-1.3381898723	 0.101823
H	-0.4965367989	 0.5167380954	 1.2799125982	 0.073522
H	 1.1901308411	-0.4443011314	 2.7253439583	 0.111068
H	 2.4034009483	-0.4176600784	 1.4314694031	 0.108062
H	 2.7514363577	 3.1870288755	 1.8360088656	 0.082567
H	-0.1398230745	 2.9485785767	 1.4944081429	 0.102391
H	 0.8119141803	 3.8307841167	 0.2517382104	 0.099783
H	 3.0713850457	 0.9843236814	-0.0732939015	 0.110133
H	 2.6987153108	 2.6127830295	-0.6989857572	 0.100706
189.9518	251.2242	335.373	377.9446	419.1036	459.1729	499.0522	534.9361	591.7513	778.6519	804.6364	824.3614	838.74	876.8925	932.9458	957.7695	967.2653	974.9454	986.3346	1021.7705	1055.1264	1064.2976	1110.6366	1139.2443	1153.2168	1167.7303	1189.0947	1204.6866	1230.7727	1243.4481	1266.2706	1277.7128	1299.0977	1337.7029	1356.5739	1380.8845	1406.8929	1475.2242	1502.5069	1511.7425	1532.2632	2976.5477	3007.1825	3026.5659	3053.6023	3068.8652	3081.7995	3101.2138	3106.1391	3118.2791	3126.6357
C1OC2COC3CC12C3	C1O[C@H]2CO[C@@H]3C[C@]12C3	
InChI=1S/C7H10O2/c1-5-2-7(1)4-9-6(7)3-8-5/h5-6H,1-4H2	InChI=1S/C7H10O2/c1-5-2-7(1)4-9-6(7)3-8-5/h5-6H,1-4H2/t5-,6-,7+/m0/s1
