19
gdb 4170	4.0705568	1.0500945	1.0171355	2.8764	76.26	-0.24071	-0.02393	0.21678	1239.2736	0.157112	-422.551709	-422.543548	-422.542604	-422.584502	30.928	
C	 1.8258294826	 1.321505841	 0.2674175948	-0.416245
C	 1.3174869468	-0.0843610641	-0.0408036079	 0.033187
C	 1.6074469135	-1.1417404791	 1.0790080238	-0.245035
C	 2.4827326651	-2.092422802	 0.2408356266	 0.060081
O	 3.3578927957	-1.1653131262	-0.4738889133	-0.296621
C	 2.1235025211	-0.7890090966	-1.1595947678	 0.050871
C	 1.6620520847	-2.2733238049	-1.072083068	-0.094428
C	 2.3114820642	-3.1772602313	-2.0802947944	 0.142162
O	 1.7135759949	-4.0153539882	-2.7095415304	-0.264031
H	 1.3338566824	 1.7314348993	 1.1552292918	 0.117667
H	 2.9036337293	 1.3012274134	 0.454059067	 0.13442
H	 1.6338815861	 2.0059665932	-0.5660711788	 0.113828
H	 0.2534308044	-0.053409623	-0.2960414563	 0.078957
H	 2.1754960719	-0.71938092	 1.9115646818	 0.113451
H	 0.709796816	-1.6236062884	 1.4739645081	 0.107297
H	 3.0077531808	-2.9135902458	 0.7290001561	 0.091715
H	 2.2805613628	-0.2705467099	-2.1062969488	 0.088608
H	 0.5933163943	-2.4867948217	-0.9976742442	 0.088029
H	 3.4023094635	-3.0185917156	-2.21069362	 0.096088
85.0897	144.391	203.8685	236.9588	247.7758	330.6707	387.0506	432.9682	503.2547	599.203	695.3667	809.5028	828.4381	869.4855	879.7598	907.8326	930.8139	943.4754	962.8298	1038.1963	1044.2256	1057.2846	1068.7131	1093.256	1147.1973	1182.3208	1196.4611	1207.5898	1216.9939	1255.6048	1273.5736	1291.207	1317.73	1341.9553	1372.2702	1406.3659	1422.1359	1487.377	1496.1467	1505.596	1820.297	2919.1913	3033.1824	3054.4949	3067.663	3094.1081	3098.3834	3114.7751	3117.775	3119.9468	3125.251
CC1CC2OC1C2C=O	C[C@@H]1C[C@@H]2O[C@H]1[C@H]2C=O	
InChI=1S/C7H10O2/c1-4-2-6-5(3-8)7(4)9-6/h3-7H,2H2,1H3	InChI=1S/C7H10O2/c1-4-2-6-5(3-8)7(4)9-6/h3-7H,2H2,1H3/t4-,5+,6+,7-/m1/s1
