19
gdb 2919	2.2526668	1.8187994	1.3945195	1.61	74.52	-0.22663	0.0758	0.30243	1014.423	0.15738	-422.530755	-422.52273	-422.521786	-422.562871	31.303	
C	-2.8798980175	 2.5995267871	 1.8285771077	-0.522186
C	-2.4623159794	 1.1879794045	 1.5527937613	 0.305137
C	-3.3001273261	 0.0146686373	 1.1945902601	 0.053247
O	-3.1218997755	-1.0971821775	 2.0489486686	-0.27443
C	-2.048606334	-0.7569511085	 2.9378457655	-0.09315
C	-1.3100946896	 0.3703500975	 2.221602925	-0.169552
C	-0.857507688	-0.0905592408	 0.7946426194	 0.141722
O	 0.1902107565	 0.6930734859	 0.2563451907	-0.446195
C	-2.18013095	 0.4173968916	 0.2483680939	-0.161398
H	-3.2174727992	 2.7210645759	 2.8649558758	 0.119912
H	-2.054072392	 3.2992908826	 1.6594578083	 0.127546
H	-3.7068123331	 2.8979660375	 1.1756571888	 0.121758
H	-4.3215263206	 0.1300239897	 0.8505643461	 0.102291
H	-2.4465508201	-0.432135036	 3.9114604071	 0.093086
H	-1.4355078702	-1.6521531663	 3.0908024561	 0.103077
H	-0.5581974877	 0.8997230461	 2.8073282323	 0.070322
H	-0.6449865701	-1.1650334776	 0.6826361678	 0.063227
H	 1.0113053024	 0.4147102669	 0.6750506129	 0.279393
H	-2.357893976	 0.7098810641	-0.7809653574	 0.086195
127.453	193.5848	233.1285	242.0814	291.4045	314.1155	339.2813	415.0793	555.5451	588.6494	672.5805	743.836	776.4973	852.4709	874.384	897.8463	927.5916	965.416	981.3229	1014.5415	1024.4916	1032.5296	1058.3158	1096.5787	1117.1989	1129.9292	1171.2627	1199.3482	1214.383	1217.5442	1247.1909	1274.1235	1301.0792	1327.8285	1369.886	1413.4429	1429.6919	1465.4626	1486.0233	1498.4434	1514.521	2976.6974	2985.4492	3021.6266	3062.6515	3082.5487	3095.2163	3116.2586	3170.9825	3187.4226	3810.5578
CC12C3OCC1C(O)C23	C[C@]12[C@@H]3OC[C@H]1[C@H](O)[C@H]23	
InChI=1S/C7H10O2/c1-7-3-2-9-6(7)4(7)5(3)8/h3-6,8H,2H2,1H3	InChI=1S/C7H10O2/c1-7-3-2-9-6(7)4(7)5(3)8/h3-6,8H,2H2,1H3/t3-,4-,5-,6+,7-/m0/s1
