19
gdb 1217	2.1709629	1.5011669	1.0911212	1.8229	76.37	-0.2539	0.04805	0.30195	1172.9559	0.153176	-422.510027	-422.500062	-422.499118	-422.544624	36.798	
C	 4.7154328562	 1.3612428755	-0.013749389	-0.40845
C	 3.1885492286	 1.3959825593	 0.0535459797	 0.305027
O	 2.837150318	 2.1113724658	 1.2215743755	-0.465308
C	 2.6382600922	-0.0595677274	 0.1305423615	-0.384085
C	 1.1920454845	-0.1289902261	 0.2933906148	 0.294746
C	-0.0004574257	-0.1687512832	 0.4381380786	-0.434189
C	 2.6268998882	 2.1149457621	-1.1749787645	 0.065229
C	 2.5652394647	 3.5787987478	-1.2293145418	-0.188057
O	 1.3874784603	 2.7966625606	-0.9785803277	-0.243795
H	 5.1192665135	 0.8554758644	 0.8677895189	 0.128729
H	 5.0590827375	 0.8300769524	-0.9067700924	 0.114502
H	 5.1130341089	 2.3786262008	-0.0375292787	 0.126277
H	 1.8897080593	 2.2948286718	 1.1472935832	 0.295461
H	 2.9406495066	-0.6119418685	-0.7684818409	 0.123162
H	 3.1250569478	-0.5490846252	 0.9820994664	 0.135179
H	-1.0549752011	-0.2061325869	 0.5562737913	 0.197151
H	 2.6913090252	 1.5618391634	-2.1130386214	 0.092737
H	 2.9218483473	 4.1515572513	-0.3769723583	 0.128854
H	 2.5865145581	 4.0850550421	-2.1923699252	 0.11683
66.9989	95.914	146.0457	197.4351	221.5613	262.6597	301.5299	346.9159	373.1425	373.8455	415.8665	453.5711	562.2734	615.2331	622.9086	645.6167	736.7901	846.039	883.0007	922.6311	933.5688	954.975	992.2227	1018.5716	1084.1455	1109.4302	1158.6458	1165.7109	1176.8033	1192.5699	1278.274	1301.0062	1315.4308	1384.501	1415.4806	1438.3491	1459.4816	1484.5805	1497.3909	1516.1372	2238.113	3023.2592	3044.2967	3064.4702	3097.0967	3105.1344	3116.961	3127.9841	3194.2035	3506.524	3747.4048
CC(O)(CC#C)C1CO1	C[C@](O)(CC#C)[C@@H]1CO1	
InChI=1S/C7H10O2/c1-3-4-7(2,8)6-5-9-6/h1,6,8H,4-5H2,2H3	InChI=1S/C7H10O2/c1-3-4-7(2,8)6-5-9-6/h1,6,8H,4-5H2,2H3/t6-,7-/m0/s1
