19
gdb 3152	2.9438292	1.0217326	0.8336884	3.1806	76.15	-0.2469	-0.0211	0.2258	1388.0248	0.154802	-422.527079	-422.517999	-422.517055	-422.561828	32.627	
C	-1.6171772324	 4.2589827407	-1.8256547335	-0.415586
C	-1.9719365043	 2.7801615312	-1.7451361174	-0.031231
C	-3.2595342367	 2.4588671118	-0.966733727	 0.029199
O	-3.3677211492	 1.0336215246	-0.8774609928	-0.247551
C	-2.5218258261	 1.7096226786	 0.0606897151	 0.011541
C	-1.1756190177	 1.969343198	-0.6460742594	-0.046575
C	-0.3720423986	 0.7481410169	-1.1064057526	-0.296139
C	 0.2578566336	 0.0101198695	 0.0513098782	 0.155205
O	 1.4359544097	-0.2096506361	 0.172609781	-0.239527
H	-1.6785089134	 4.737579149	-0.8417144626	 0.118705
H	-0.5987190069	 4.3980794781	-2.2022507324	 0.126582
H	-2.2986813138	 4.7911930592	-2.4979458697	 0.12179
H	-1.9514909252	 2.3181461657	-2.7372941342	 0.085022
H	-4.1779489644	 3.0322925379	-0.90259454	 0.106407
H	-2.7295217855	 1.5554539451	 1.1134593947	 0.10686
H	-0.5490019819	 2.6518955354	-0.0623655914	 0.08799
H	-1.0634876253	 0.0638912205	-1.6158207674	 0.135435
H	 0.4175929038	 1.0348991799	-1.8072348785	 0.118384
H	-0.4663518558	-0.3301510361	 0.8288988798	 0.073489
56.8978	65.6857	149.0098	178.5788	237.9194	243.0614	271.7474	370.4439	464.9639	503.9559	592.4215	716.835	827.2788	841.1149	856.9819	864.0561	875.8897	896.7865	983.0921	1016.3628	1042.8339	1050.837	1079.7161	1095.1718	1122.3745	1139.977	1201.7929	1226.2071	1234.2972	1253.5288	1263.2919	1307.4164	1338.7885	1373.0564	1387.9043	1412.8995	1431.5571	1467.367	1495.535	1499.2662	1833.1038	2852.5222	3028.2687	3030.8689	3055.279	3060.0323	3096.3276	3099.2768	3102.4849	3173.1025	3188.6313
CC1C2OC2C1CC=O	C[C@@H]1[C@H]2O[C@H]2[C@H]1CC=O	
InChI=1S/C7H10O2/c1-4-5(2-3-8)7-6(4)9-7/h3-7H,2H2,1H3	InChI=1S/C7H10O2/c1-4-5(2-3-8)7-6(4)9-7/h3-7H,2H2,1H3/t4-,5-,6+,7-/m0/s1
