19
gdb 6040	3.2144556	0.8014882	0.7233847	2.1087	77.97	-0.25366	0.01896	0.27262	1592.6301	0.154897	-422.499777	-422.489995	-422.489051	-422.535766	34.911	
O	 1.5413337554	 0.5278089622	-0.0693873652	-0.419564
C	 0.162567602	 0.2865873071	 0.1654932748	-0.06464
C	-0.7445847936	 1.0874864159	-0.7729981552	-0.216518
C	-2.2180226314	 0.8203098323	-0.5280250504	 0.152414
C	-3.2475213328	 1.7412455848	-1.2155130347	-0.327373
C	-3.7057020247	 2.0811394855	 0.2287715926	-0.026259
O	-2.6470244311	 1.2640061511	 0.789010271	-0.302573
C	-3.6480405342	 3.4726180325	 0.6437531116	 0.330523
C	-3.6050713626	 4.6279164217	 0.9732250968	-0.454123
H	 1.7257819213	 1.4375856932	 0.1844144843	 0.281638
H	 0.0173378003	-0.7867709433	-0.0017425949	 0.108672
H	-0.1143766151	 0.4948831778	 1.2086464246	 0.112386
H	-0.5562295894	 2.1611993969	-0.6385340129	 0.094609
H	-0.4988943153	 0.8391476144	-1.813401448	 0.105865
H	-2.4371404183	-0.2499127713	-0.6522440738	 0.077148
H	-2.8109861191	 2.5851162946	-1.7511273558	 0.122623
H	-3.9964248808	 1.2547684343	-1.8407577244	 0.11653
H	-4.688059515	 1.6613418331	 0.4826968332	 0.105409
H	-3.5685657258	 5.6466887071	 1.2714830265	 0.203233
26.6719	92.196	100.4537	156.3795	189.6654	232.0426	306.5376	340.261	381.9487	483.0539	510.3954	527.8978	618.4655	671.4356	717.7707	780.0896	842.907	903.9657	931.2127	987.1661	993.534	1039.2084	1073.8558	1083.2503	1091.398	1120.2649	1130.27	1209.3775	1252.8739	1259.5535	1270.9777	1318.1928	1327.6647	1362.0979	1391.1004	1417.744	1421.9741	1471.837	1490.6731	1513.9572	2234.6602	2997.6406	3007.3239	3013.1947	3017.549	3054.8455	3077.8841	3087.6333	3147.6435	3501.7186	3818.6851
OCCC1CC(O1)C#C	OCC[C@@H]1C[C@@H](O1)C#C	
InChI=1S/C7H10O2/c1-2-6-5-7(9-6)3-4-8/h1,6-8H,3-5H2	InChI=1S/C7H10O2/c1-2-6-5-7(9-6)3-4-8/h1,6-8H,3-5H2/t6-,7+/m0/s1
