19
gdb 3058	2.6071961	1.4770407	1.2503905	2.0036	75.25	-0.23144	-0.00901	0.22243000000000002	1079.6704	0.157544	-422.570015	-422.561775	-422.56083	-422.602398	31.996	
C	-0.7944252263	 2.3378173536	 1.2761992719	-0.422579
C	-1.0120468327	 1.349987091	 0.130037562	-0.093235
C	-2.3182553151	 0.5236333288	 0.105007852	-0.050668
C	-2.0013242168	-0.5289273494	-0.9981405611	-0.250242
C	-0.9596280167	-1.0433958178	 0.0531057022	-0.178834
C	-2.0296079959	-0.6031185889	 1.132109323	 0.138437
O	-3.1356760241	-1.4622231831	 1.2636149932	-0.441531
C	-0.0289629998	 0.1506155249	 0.1457718177	 0.427006
O	 1.1683914456	 0.1829849911	 0.2579014189	-0.348044
H	-0.9716382798	 1.8803084801	 2.2542916427	 0.120703
H	 0.2376376245	 2.6993903218	 1.2616660215	 0.139789
H	-1.4630257553	 3.1990226628	 1.1832011367	 0.117794
H	-0.8924400035	 1.8809272326	-0.8233188849	 0.099716
H	-3.2642053905	 1.0641588708	 0.1323739162	 0.075553
H	-2.8095547315	-1.2428677674	-1.142152044	 0.126991
H	-1.6205089805	-0.1685030353	-1.9573702305	 0.099566
H	-0.5095318717	-2.0346102712	 0.0342216115	 0.075893
H	-1.6407901688	-0.3127362784	 2.1163317894	 0.07484
H	-2.859137101	-2.233943966	 1.7679716415	 0.288847
124.7824	192.7207	197.9375	226.4472	298.9833	310.7029	350.7683	454.3709	472.1441	537.681	593.6256	695.4558	750.3004	809.5611	856.9529	874.4788	892.909	917.6797	984.1579	1001.3672	1037.2132	1044.0841	1078.3912	1093.8463	1126.5956	1136.1034	1169.0071	1188.3855	1217.3831	1231.8663	1251.33	1267.2861	1306.3292	1318.0276	1351.9828	1407.1906	1435.1177	1496.6425	1498.7744	1500.1922	1859.5359	3018.6294	3025.2283	3041.9963	3071.2465	3109.5656	3117.8687	3119.4403	3135.9909	3161.8023	3818.1865
CC1C2CC(C2O)C1=O	C[C@@H]1[C@H]2C[C@H]([C@@H]2O)C1=O	
InChI=1S/C7H10O2/c1-3-4-2-5(6(3)8)7(4)9/h3-5,7,9H,2H2,1H3	InChI=1S/C7H10O2/c1-3-4-2-5(6(3)8)7(4)9/h3-5,7,9H,2H2,1H3/t3-,4-,5+,7-/m1/s1
