19
gdb 4147	2.9866753	1.3326842	1.0763252	2.2537	75.57	-0.24785	0.06241	0.31026	1170.8924	0.155801	-422.494566	-422.486089	-422.485145	-422.527859	31.778	
C	 2.012956774	-0.4149252073	-1.3331031588	-0.413559
C	 1.8654506171	 0.4246231932	-0.0699335363	-0.059727
C	 3.0208575151	 1.4701811922	 0.1544816081	-0.2638
C	 3.3867438436	 0.7295247905	 1.4445534527	-0.039969
O	 2.2167187801	 0.7352165194	 2.276138444	-0.294879
C	 2.3073726948	-0.2570351086	 1.2501716325	 0.441314
C	 2.2045124049	-1.6840289404	 1.647966829	-0.079431
C	 1.5981473395	-2.084738005	 2.9269954474	-0.17341
O	 3.015648778	-2.092412143	 2.7486690961	-0.229533
H	 1.2643658482	-1.2134034913	-1.3768042567	 0.118686
H	 1.8868054529	 0.2068621608	-2.2253173312	 0.122676
H	 3.0041316666	-0.8797384576	-1.3905323968	 0.118297
H	 0.8584181577	 0.8462874766	-0.0001148185	 0.081816
H	 3.7918877286	 1.3970273709	-0.6173910006	 0.105347
H	 2.7303991556	 2.5153078139	 0.2844695885	 0.11095
H	 4.3421445404	 0.6285656388	 1.9456074858	 0.114029
H	 2.1803165155	-2.3894389989	 0.8172201977	 0.094667
H	 1.2226683458	-1.3072199973	 3.5877181868	 0.133192
H	 1.1324464216	-3.0648444071	 3.0201678304	 0.113333
70.3242	136.3638	156.5157	211.3795	262.1752	272.6321	405.8249	453.3725	493.5411	509.3199	672.9466	734.1862	833.9208	851.2827	857.1123	893.2722	899.412	929.8121	941.3059	1013.2079	1036.713	1051.9528	1086.8078	1100.4922	1117.4961	1155.0396	1166.2198	1169.6068	1198.753	1237.1353	1250.5833	1273.0454	1286.2657	1344.397	1404.4547	1411.4567	1463.4262	1483.2407	1497.4598	1500.5413	1518.9367	3025.9884	3060.3045	3064.04	3090.4742	3093.5096	3099.005	3111.5526	3120.0832	3190.3238	3194.6675
CC1CC2OC12C1CO1	C[C@@H]1C[C@H]2O[C@@]12[C@@H]1CO1	
InChI=1S/C7H10O2/c1-4-2-5-7(4,9-5)6-3-8-6/h4-6H,2-3H2,1H3	InChI=1S/C7H10O2/c1-4-2-5-7(4,9-5)6-3-8-6/h4-6H,2-3H2,1H3/t4-,5-,6+,7+/m1/s1
