19
gdb 3069	2.4999478	1.6163426	1.2894139	1.8	75.5	-0.23693	0.00261	0.23954	1039.9028	0.158308	-422.555826	-422.547813	-422.546869	-422.587772	31.939	
O	-2.2895741389	-2.067816016	 2.5999960516	-0.457827
C	-2.1466613448	-0.9633513821	 1.7389834017	 0.183519
C	-3.2018625706	 0.1859345678	 1.9031587987	-0.09661
C	-2.2403868989	 0.7938452863	 2.9754218204	-0.264805
C	-1.0929976918	 0.0974253898	 2.1824109127	-0.093562
C	-0.6768311972	 0.9720072609	 0.9836649569	 0.110685
O	 0.2432708387	 0.3008745622	 0.1254780322	-0.44052
C	-1.9134001637	 1.4311599819	 0.238385914	-0.127407
C	-3.1194695561	 1.0492112909	 0.6662582579	-0.06007
H	-2.199137761	-1.7713038661	 3.5113763119	 0.281783
H	-2.0607829162	-1.3853926323	 0.7334146078	 0.068542
H	-4.2183512995	-0.0901167916	 2.1863902716	 0.066755
H	-2.217148356	 1.8827224634	 3.0601221483	 0.104543
H	-2.3838843581	 0.3660638755	 3.9727414489	 0.090219
H	-0.212282108	-0.2677956332	 2.7170378773	 0.071113
H	-0.1102104859	 1.838321353	 1.3501228672	 0.091502
H	-0.2403272973	-0.3989626107	-0.3272368367	 0.278204
H	-1.7696621116	 2.0512706199	-0.6411701027	 0.097366
H	-4.030276753	 1.3398424806	 0.1515700403	 0.09657
150.9781	196.7235	224.4113	289.9723	321.2285	345.9961	392.2647	415.7605	472.3051	498.8852	616.7758	703.5137	751.1906	828.6881	850.0731	892.2443	920.7103	938.178	952.6866	973.1304	987.9867	1045.0595	1067.5518	1085.1702	1112.6652	1113.9987	1138.2722	1163.7318	1222.0416	1237.794	1254.1447	1266.8727	1276.3423	1300.7304	1333.5477	1352.002	1387.9438	1421.7597	1434.8174	1502.2148	1687.4992	3019.595	3047.4679	3063.6145	3079.7335	3102.8163	3107.3719	3164.5426	3187.8565	3800.2072	3817.6061
OC1C2CC1C(O)C=C2	O[C@H]1[C@H]2C[C@@H]1[C@@H](O)C=C2	
InChI=1S/C7H10O2/c8-6-2-1-4-3-5(6)7(4)9/h1-2,4-9H,3H2	InChI=1S/C7H10O2/c8-6-2-1-4-3-5(6)7(4)9/h1-2,4-9H,3H2/t4-,5-,6+,7+/m1/s1
