19
gdb 447	4.2685523	0.9621249	0.8899882	3.0161	75.76	-0.23011	0.08728	0.31739	1341.8757	0.157911	-422.514092	-422.506135	-422.505191	-422.547143	29.917	
C	 3.4610235453	 2.5132587336	 0.1377662671	-0.187476
O	 2.567272093	 2.8266789579	 1.2077040107	-0.238654
C	 2.669741976	 1.4613916843	 0.7900094141	 0.080149
C	 1.4654143909	 0.8541474052	 0.1580222305	-0.097067
C	 1.4709749171	-0.6476897616	-0.1106370088	-0.101351
C	 0.5003050554	-1.1714818245	-1.157466517	-0.252087
C	-0.8404118022	-0.5179152239	-0.7459842973	-0.087793
O	-0.7489075621	-0.2245624058	 0.6493297812	-0.257294
C	 0.6059644547	-0.0853535752	 0.9777826072	 0.107093
H	 3.1595657563	 2.8765594503	-0.8442923705	 0.110453
H	 4.5216004206	 2.6185261434	 0.3639541182	 0.113083
H	 3.1856204549	 0.8198703803	 1.5085083139	 0.087404
H	 0.9631211976	 1.5007955921	-0.5560680172	 0.092399
H	 2.3699828691	-1.2144775235	 0.1040610369	 0.090189
H	 0.7721020773	-0.9183892074	-2.1865763294	 0.107411
H	 0.4451490899	-2.262491745	-1.08317405	 0.111988
H	-1.0112310879	 0.4072248604	-1.3133712756	 0.103452
H	-1.7070574137	-1.1673514688	-0.8960536844	 0.111938
H	 0.7886533778	-0.2153925019	 2.0383360603	 0.106164
68.8948	138.4047	144.7113	225.5287	303.5614	340.5984	429.5355	462.7742	666.3511	705.5531	831.3656	847.2129	854.0121	870.5507	882.9036	918.5415	960.2568	974.9711	1005.0592	1010.6069	1038.499	1070.6342	1098.4758	1123.028	1139.7119	1157.0478	1166.6031	1175.0657	1210.689	1218.4695	1238.5166	1266.4977	1295.1475	1306.7131	1315.3897	1386.3628	1408.0709	1472.8995	1494.9136	1527.917	1532.7096	3007.0041	3047.927	3076.0425	3080.6478	3083.6042	3096.3682	3150.581	3163.5114	3169.0635	3182.3165
C1OC1C1C2CCOC12	C1O[C@H]1[C@H]1[C@@H]2CCO[C@H]12	
InChI=1S/C7H10O2/c1-2-8-7-4(1)6(7)5-3-9-5/h4-7H,1-3H2	InChI=1S/C7H10O2/c1-2-8-7-4(1)6(7)5-3-9-5/h4-7H,1-3H2/t4-,5+,6+,7-/m0/s1
