19
gdb 733	2.7135033	1.5385408	1.1957347	4.1765	74.57	-0.26017	0.01089	0.27106	1085.0977	0.158817	-422.595233	-422.587262	-422.586318	-422.628006	30.079	
O	 1.1851128269	 0.3778232068	 0.7155947299	-0.357753
C	 0.0422162677	 0.1898004157	 0.4078121481	 0.407724
O	-0.816291978	 1.2104296555	 0.1345393003	-0.225435
C	-2.10356236	 0.6962128791	-0.2508401213	-0.086959
C	-2.1442324754	-0.7459550106	 0.2745682839	-0.31568
C	-0.6680016441	-1.1442185676	 0.2336035516	 0.194822
C	-0.2031092802	-1.9646245452	-1.0227998741	-0.266353
C	-0.1476167216	-3.236495072	-0.1369483976	-0.212235
C	-0.1868269981	-2.3238073131	 1.116845489	-0.279124
H	-2.8660362448	 1.3468541411	 0.1820292963	 0.12597
H	-2.1840617289	 0.740647629	-1.3434761529	 0.117261
H	-2.5081049634	-0.7584374741	 1.3080455584	 0.116633
H	-2.7965681192	-1.3886867219	-0.3214319412	 0.112464
H	-0.881377008	-1.9657634237	-1.880064858	 0.100407
H	 0.7891300604	-1.649358721	-1.3539031134	 0.126708
H	-1.0488879308	-3.8476919649	-0.2342942007	 0.103814
H	 0.7232037418	-3.8839898869	-0.2559561033	 0.107536
H	-0.844743439	-2.6157327822	 1.9394622746	 0.098812
H	 0.8106415748	-2.1132083941	 1.5108139104	 0.131387
89.9142	106.3279	197.2158	204.1944	283.3268	346.8042	413.2864	568.3644	642.5433	689.2731	715.8185	727.8325	808.8182	830.6041	871.3443	923.5947	943.7258	948.0049	970.5005	984.0092	1053.8914	1062.9672	1081.9801	1147.8977	1183.1905	1202.2601	1213.2978	1237.5704	1253.0178	1262.7722	1277.1463	1287.3948	1305.8669	1337.631	1399.3279	1470.0009	1480.9408	1492.0953	1503.2005	1523.9602	1870.5447	3036.2333	3045.8692	3057.6923	3059.351	3066.6525	3101.8397	3105.773	3113.0822	3117.6917	3128.7695
O=C1OCCC11CCC1	O=C1OCCC21CCC2	
InChI=1S/C7H10O2/c8-6-7(2-1-3-7)4-5-9-6/h1-5H2	InChI=1S/C7H10O2/c8-6-7(2-1-3-7)4-5-9-6/h1-5H2
