19
gdb 3948	2.6631439	1.7297515	1.5638214	1.1562	73.93	-0.23974	0.03861	0.27835	970.1472	0.156459	-422.471645	-422.463756	-422.462812	-422.50358	30.958	
C	 0.3586400928	 0.6019813315	-0.0339108749	-0.400427
C	 0.9869196286	-0.770676795	-0.0888266677	 0.068663
O	 1.9400478701	-0.9208889753	-1.2165896623	-0.354663
C	 2.9867909312	-1.2751574417	-0.2952898526	 0.322442
C	 3.2506577239	-2.7696982201	 0.040304832	-0.301795
C	 2.4221222098	-2.5647661139	 1.3745609531	-0.306228
C	 2.1277264312	-1.1134653376	 0.9074534938	 0.31337
O	 2.9100763012	-0.0250208407	 1.4403927482	-0.33879
C	 3.8304693587	-0.1263830709	 0.2937466114	-0.15233
H	-0.3892895594	 0.6421305991	 0.76535433	 0.12089
H	 1.1133191995	 1.3670657141	 0.1612458781	 0.134928
H	-0.1386232128	 0.822918297	-0.9830795981	 0.126441
H	 0.2210937595	-1.5546819958	-0.1526639084	 0.078837
H	 2.7793026546	-3.4409023959	-0.6794030952	 0.123077
H	 4.2956051861	-3.0616606932	 0.1676880323	 0.108974
H	 1.5561264689	-3.2177490516	 1.5061365612	 0.10878
H	 3.0278464639	-2.5892892128	 2.2818971999	 0.122444
H	 3.8428294102	 0.7909269985	-0.3029027438	 0.117604
H	 4.8459167421	-0.3789207658	 0.6204266731	 0.107784
117.3029	206.6919	216.0861	239.4978	298.7783	335.4668	398.2269	470.5528	558.0298	679.097	700.1819	717.3988	744.4015	831.011	847.1244	874.4829	887.7122	904.6195	937.3496	993.2485	1021.5077	1055.4381	1101.3212	1136.6354	1163.141	1171.8247	1198.1419	1220.5038	1235.352	1254.8862	1261.3354	1266.7325	1306.7193	1341.0472	1371.6823	1404.7654	1458.6408	1471.096	1481.1861	1489.1346	1500.1201	3017.4868	3027.5815	3041.4924	3067.8101	3072.2738	3090.9135	3110.1264	3124.4579	3133.5119	3140.8975
CC1OC23CCC12OC3	C[C@H]1O[C@]23CC[C@]12OC3	
InChI=1S/C7H10O2/c1-5-7-3-2-6(7,9-5)4-8-7/h5H,2-4H2,1H3	InChI=1S/C7H10O2/c1-5-7-3-2-6(7,9-5)4-8-7/h5H,2-4H2,1H3/t5-,6+,7+/m1/s1
