19
gdb 5077	2.6984883	1.3413029	1.0596546	3.3817	76.43	-0.24298	-0.0154	0.22758	1190.001	0.156025	-422.5504	-422.541214	-422.54027	-422.58464	33.578	
C	-0.9747587666	 2.0302127777	-1.19320488	-0.407999
C	-1.0664559933	 1.119450186	 0.0282250221	-0.110943
C	-2.2283285708	 0.1005112274	 0.0594454909	-0.124191
C	-2.0882152088	-0.7775194324	 1.2516998565	-0.33361
C	-1.2376078366	-1.1057873467	 0.0340641124	 0.222538
C	-1.1842650774	-2.4379274479	-0.6680939791	-0.182875
O	-0.1068501284	-3.2168800057	-0.1752231201	-0.416378
C	-0.1309745241	-0.1140047852	-0.0826727466	 0.363634
O	 1.0183556028	-0.2450137694	-0.4222535687	-0.34985
H	-1.097368422	 1.4628999456	-2.1218219155	 0.122153
H	-1.7476230284	 2.8043224213	-1.1625597678	 0.120926
H	 0.0021975063	 2.5198468286	-1.2281121134	 0.139694
H	-0.967375943	 1.7027259331	 0.9508735344	 0.094528
H	-3.1421411721	 0.1897571734	-0.5143439072	 0.109083
H	-1.6321064886	-0.396850292	 2.1620882677	 0.122443
H	-2.8815451327	-1.4991807641	 1.4225683435	 0.128055
H	-2.0995559197	-3.0135670552	-0.4954143513	 0.109227
H	-1.0930594863	-2.2790271022	-1.7544416394	 0.09555
H	 0.6927676698	-2.6928892425	-0.3120675184	 0.298015
60.1869	86.378	177.4045	193.957	212.3077	242.5673	302.5046	393.1339	448.3173	466.332	500.2925	606.8049	686.8846	788.6685	799.416	857.0448	872.7684	946.1139	957.9977	976.6398	1008.9915	1047.7387	1057.6333	1072.9007	1092.4275	1100.9984	1149.34	1198.0094	1231.017	1247.9032	1305.7451	1339.8773	1372.9888	1382.6474	1407.9901	1438.9641	1493.1525	1493.59	1498.872	1507.2363	1843.9159	2976.2216	3037.5832	3039.7533	3070.7757	3105.8705	3111.1538	3119.4059	3194.169	3203.128	3776.008
CC1C2CC2(CO)C1=O	C[C@H]1[C@@H]2C[C@]2(CO)C1=O	
InChI=1S/C7H10O2/c1-4-5-2-7(5,3-8)6(4)9/h4-5,8H,2-3H2,1H3	InChI=1S/C7H10O2/c1-4-5-2-7(5,3-8)6(4)9/h4-5,8H,2-3H2,1H3/t4-,5-,7+/m0/s1
