19
gdb 4458	2.4645675	1.8798728	1.4887672	0.9774	73.45	-0.22675	0.04775	0.2745	971.428	0.157333	-422.49362	-422.485826	-422.484882	-422.525541	30.615	
C	 2.0616570384	-0.2511317614	-1.4660159662	-0.403684
C	 1.5730813545	 0.0165064023	-0.0424529656	-0.08846
C	 2.5660215538	-0.4889919251	 1.0609967906	-0.099262
O	 2.4647035775	 0.4193356959	 2.1797501693	-0.294223
C	 2.1060409096	 1.6546659679	 1.6573443829	 0.254798
C	 0.648545677	 2.0093206984	 1.4668903305	-0.379206
C	 1.4625959393	 1.4921944797	 0.3150916179	 0.336897
O	 2.2765479731	 2.5132589532	-0.2951834308	-0.328104
C	 3.036620723	 2.6423945876	 0.9460601645	-0.149135
H	 2.2671870968	-1.316015398	-1.6131553435	 0.114506
H	 1.3114024057	 0.0520920739	-2.2015052079	 0.127542
H	 2.9763466871	 0.3113622221	-1.6716018391	 0.133872
H	 0.6012371006	-0.4662013487	 0.1060497484	 0.086926
H	 2.3423551132	-1.4945478817	 1.4289674723	 0.112988
H	 3.5939192071	-0.4853967889	 0.6681426913	 0.099503
H	-0.046446527	 1.3053028478	 1.9105702965	 0.128804
H	 0.3356355479	 3.0493196103	 1.4729136983	 0.121708
H	 4.0560332791	 2.2578156924	 0.8294128306	 0.114145
H	 3.0662009632	 3.6770114422	 1.3055742999	 0.110383
111.638	184.8891	216.5887	254.4132	334.76	372.494	426.7728	475.0475	570.0216	580.9731	655.5251	746.0546	804.2993	862.0501	883.3116	909.5596	925.878	947.8877	960.467	983.5732	1026.0358	1034.1436	1064.4756	1092.8454	1129.7592	1146.9564	1165.9474	1229.0167	1240.3067	1263.276	1313.9755	1323.5172	1326.8424	1374.3589	1386.0966	1414.7637	1460.1613	1492.5442	1501.3419	1508.4051	1516.3212	2994.397	3026.6977	3043.3684	3045.5206	3081.0175	3090.2939	3111.613	3123.6319	3123.9585	3226.5796
CC1COC23CC12OC3	C[C@H]1CO[C@]23C[C@]12OC3	
InChI=1S/C7H10O2/c1-5-2-8-6-3-7(5,6)9-4-6/h5H,2-4H2,1H3	InChI=1S/C7H10O2/c1-5-2-8-6-3-7(5,6)9-4-6/h5H,2-4H2,1H3/t5-,6-,7-/m0/s1
