19
gdb 4614	4.010903	0.6109433	0.5525592	3.3548	84.33	-0.2372	0.03184	0.26904	1988.4941	0.154282	-422.506256	-422.495598	-422.494654	-422.543486	37.029	
C	 5.8457539811	-1.2365652707	 1.3495051626	-0.421476
C	 4.6660128699	-0.2922564089	 1.3535331476	-0.048229
C	 4.7235782209	 1.0257241134	 0.6290679816	 0.08607
O	 5.8403821606	 1.3533887733	-0.1424111283	-0.4177
C	 3.8592021704	-0.0828341442	 0.06551902	-0.249904
C	 2.430958914	 0.0060745172	 0.0963393631	 0.021126
C	 1.2259067108	 0.0631352589	 0.1243747465	 0.109302
C	-0.2284328743	 0.1992886095	 0.1430396442	-0.189441
O	-0.7346548526	 1.072785997	-0.8593039133	-0.40401
H	 6.5091603781	-1.0384060566	 2.1994064463	 0.115089
H	 5.5180668459	-2.2784023489	 1.4218761224	 0.126982
H	 6.4313603467	-1.1245143448	 0.4335742679	 0.132428
H	 4.0691414303	-0.2925252239	 2.2610442067	 0.096581
H	 4.2004272329	 1.8722891467	 1.0717531882	 0.096119
H	 6.5461828572	 1.6266502614	 0.4539381466	 0.291268
H	 4.2894958664	-0.5570916457	-0.8128622871	 0.11983
H	-0.7040145891	-0.7705967252	-0.0426602499	 0.137115
H	-0.5486928334	 0.5191926783	 1.1483301418	 0.113341
H	-0.2056007856	 1.8766634934	-0.829692507	 0.28551
21.1164	68.9996	97.6546	162.5095	187.8318	219.1723	254.4772	291.5119	300.3669	325.7941	348.132	457.037	474.7238	568.5465	585.1473	790.7176	802.6019	842.3628	942.4564	982.6877	992.8017	1020.9878	1045.4719	1085.5231	1120.9009	1132.8598	1171.1876	1199.6891	1216.0299	1222.8747	1288.8845	1327.7587	1351.5622	1383.0765	1417.7025	1419.8325	1461.361	1493.034	1496.6755	1504.4356	2351.5279	2967.7808	3032.5348	3056.1452	3091.8336	3111.044	3120.6992	3143.8744	3157.2769	3798.0941	3817.831
CC1C(O)C1C#CCO	C[C@H]1[C@@H](O)[C@@H]1C#CCO	
InChI=1S/C7H10O2/c1-5-6(7(5)9)3-2-4-8/h5-9H,4H2,1H3	InChI=1S/C7H10O2/c1-5-6(7(5)9)3-2-4-8/h5-9H,4H2,1H3/t5-,6-,7-/m1/s1
