19
gdb 3507	2.4187129	1.7944852	1.2492147	2.38	75.44	-0.2411	0.01554	0.25664000000000003	1035.609	0.158559	-422.552052	-422.544164	-422.54322	-422.584376	30.533	
O	 0.4048864421	 0.4395862743	 1.1392387195	-0.434329
C	-0.9444925077	 0.9020625152	 1.0965974634	 0.054419
C	-1.0571843813	 1.8627592754	-0.0547166932	-0.053414
C	-2.2189753157	 2.1291063347	-0.6479894956	-0.062226
C	-3.5039980999	 1.4687094683	-0.2198384072	-0.282708
C	-3.281896896	 0.0389364611	 0.2666662441	 0.129135
O	-2.9546024149	-0.8484441656	-0.826330461	-0.292417
C	-1.6920225047	-1.2094540649	-0.2291232939	-0.071105
C	-1.9295121094	-0.2680430901	 0.9683388199	-0.109999
H	 0.5115701283	-0.0916540026	 1.9349762661	 0.282215
H	-1.1730724693	 1.4485287478	 2.0291862123	 0.078176
H	-0.1340807324	 2.349511425	-0.3538819158	 0.09998
H	-2.2637705395	 2.8538991171	-1.4557361743	 0.092765
H	-3.9835487252	 2.0504103723	 0.5819005951	 0.107274
H	-4.2223647442	 1.4370026932	-1.0465372952	 0.11834
H	-4.1664238835	-0.3212067717	 0.8078543238	 0.06899
H	-1.6451852263	-2.2782367123	 0.0131982079	 0.09274
H	-0.841317425	-0.9437551137	-0.8654672499	 0.115864
H	-2.0307807252	-0.7822957237	 1.927987804	 0.0663
102.4811	123.2312	228.6989	294.2532	310.2182	343.8243	423.0512	452.9617	541.0481	599.6098	710.3948	747.2038	823.0724	850.1358	881.3299	914.748	933.6086	977.3269	994.7846	1013.3057	1041.2872	1072.3669	1083.958	1090.6888	1123.1619	1160.9451	1177.2268	1215.019	1236.2844	1242.1597	1286.9201	1314.7358	1346.4105	1348.8707	1362.6815	1376.8202	1406.8482	1444.9192	1460.9669	1523.7451	1719.1449	2929.1618	2995.0542	3014.3637	3020.4208	3062.7319	3066.0937	3077.2592	3162.5647	3187.6934	3814.7408
OC1C=CCC2OCC12	O[C@H]1C=CC[C@H]2OC[C@@H]12	
InChI=1S/C7H10O2/c8-6-2-1-3-7-5(6)4-9-7/h1-2,5-8H,3-4H2	InChI=1S/C7H10O2/c8-6-2-1-3-7-5(6)4-9-7/h1-2,5-8H,3-4H2/t5-,6-,7+/m0/s1
