19
gdb 2292	2.3648713	1.9305227	1.4806274	4.2728	73.68	-0.25688	0.01895	0.27583	971.3653	0.159249	-422.626326	-422.618738	-422.617794	-422.657947	30.097	
C	-0.1838027231	 2.5360681989	-0.3821694893	-0.480089
C	-0.9483010806	 1.2717798376	-0.0495432854	 0.145899
C	-1.810754911	 1.3103597777	 1.2565065554	-0.250833
C	-2.6984212409	 0.0339510339	 1.1430541065	-0.225338
C	-2.2277380398	-0.5498606396	-0.2010658317	 0.091315
C	-1.9714331912	 0.696322285	-1.0554655548	-0.268139
O	-0.8813895365	-1.0593931081	 0.0126591398	-0.244105
C	-0.0642565871	 0.0325754218	 0.1247460478	 0.445383
O	 1.1089979461	-0.046211687	 0.3459628491	-0.360408
H	 0.5633388962	 2.7439313717	 0.3891572406	 0.13831
H	 0.3471854185	 2.4383383158	-1.3337508067	 0.126502
H	-0.8587119976	 3.3951627097	-0.4515903432	 0.111868
H	-1.1879993569	 1.3227363813	 2.1541536688	 0.122304
H	-2.413503812	 2.2234560844	 1.2599507742	 0.106696
H	-2.5320508398	-0.6792173448	 1.9527577976	 0.121524
H	-3.7649801938	 0.2735056446	 1.1150644624	 0.107405
H	-2.8252931203	-1.356629548	-0.6216629417	 0.090747
H	-1.5398685256	 0.4617224456	-2.0321642809	 0.115196
H	-2.8573851846	 1.3243677796	-1.1840103885	 0.105765
149.6649	193.74	222.3358	267.4434	308.1285	405.3517	439.0479	516.1896	577.1778	614.5671	726.7308	749.2908	813.3583	828.4623	860.4638	889.1486	907.3446	954.4402	962.0301	971.9284	1023.7391	1037.9113	1089.1768	1093.1837	1153.4183	1185.9102	1189.1722	1227.1486	1264.8251	1270.8459	1299.4938	1324.9683	1351.005	1372.7576	1417.9467	1479.7295	1487.441	1491.3756	1495.0944	1510.4721	1885.2702	3039.3395	3055.2406	3060.1383	3069.4331	3102.0857	3108.3982	3115.469	3116.2806	3123.7714	3139.9456
CC12CCC(C1)OC2=O	C[C@@]12CC[C@@H](C1)OC2=O	
InChI=1S/C7H10O2/c1-7-3-2-5(4-7)9-6(7)8/h5H,2-4H2,1H3	InChI=1S/C7H10O2/c1-7-3-2-5(4-7)9-6(7)8/h5H,2-4H2,1H3/t5-,7+/m0/s1
