19
gdb 5328	2.9927674	1.0841305	0.8524215	2.422	80.32	-0.23605	-0.05129	0.18476	1349.2643	0.157854	-422.597129	-422.588388	-422.587444	-422.63095	32.452	
O	-0.417953156	-1.1462240836	-0.2223634578	-0.405447
C	 0.1679867201	-0.6487186275	-1.4205093696	-0.156723
C	-0.4775895831	 0.6335100394	-1.8880317172	 0.290689
C	 0.2444637086	 1.7487778797	-2.0869404741	-0.265362
C	-0.3344602542	 3.0117627726	-2.5925632708	 0.384456
O	 0.3445904831	 4.0090558238	-2.7396667173	-0.332865
C	-1.8158090132	 2.9753472161	-2.9518240939	-0.306654
C	-2.5987827797	 1.9934375312	-2.0724029483	-0.227864
C	-1.9687511069	 0.5964962534	-2.1137523733	-0.291933
H	-0.2407462609	-0.5043639819	 0.4737234369	 0.287711
H	 1.2528597472	-0.5098827669	-1.3144146801	 0.103459
H	 0.0071030075	-1.4370023808	-2.1666654711	 0.122827
H	 1.3154683704	 1.7698261611	-1.9012484714	 0.097045
H	-2.2071975377	 3.9942630034	-2.8970039341	 0.122117
H	-1.8829455423	 2.6642546945	-4.004971182	 0.12158
H	-2.5956453811	 2.3555073111	-1.0366654541	 0.10785
H	-3.6461543892	 1.9475881396	-2.3870298818	 0.104397
H	-2.4203367468	-0.0649219077	-1.3676858553	 0.127835
H	-2.1603674357	 0.1238321425	-3.0900486947	 0.116884
66.6403	99.8	150.1484	237.0393	269.2656	304.8019	379.9157	425.6993	458.2968	482.3343	538.539	607.3695	672.0808	762.9651	831.7176	865.1802	907.9435	930.9533	966.3618	992.0246	1054.7427	1059.4164	1075.195	1139.5891	1154.7183	1187.8823	1214.3352	1256.7453	1271.4595	1331.7143	1347.547	1368.669	1375.205	1398.8615	1411.7537	1458.6435	1476.3817	1493.6706	1496.2009	1689.9179	1775.5285	2991.5697	3005.8688	3010.0622	3032.3724	3055.8469	3078.0437	3080.3918	3101.7804	3164.9743	3808.2133
OCC1=CC(=O)CCC1	OCC1=CC(=O)CCC1	
InChI=1S/C7H10O2/c8-5-6-2-1-3-7(9)4-6/h4,8H,1-3,5H2	InChI=1S/C7H10O2/c8-5-6-2-1-3-7(9)4-6/h4,8H,1-3,5H2
