19
gdb 1569	2.1615687	1.902773	1.3949192	2.119	76.2	-0.25073	-0.00142	0.24931	1011.7699	0.1561	-422.558327	-422.549897	-422.548953	-422.59074	33.204	
C	-0.1032075855	 0.1902278435	-0.0525435294	-0.411205
C	 1.4075012092	-0.0502732172	 0.0068394878	 0.322653
O	 1.6657428255	-0.9290378394	 1.0799218498	-0.487435
C	 2.1680344444	 1.3109666291	 0.0994986948	-0.322915
C	 2.6043664731	 1.5779811299	-1.3197827709	-0.072258
C	 2.4714199192	 0.5072576762	-2.1059513509	-0.150865
C	 1.9363762042	-0.6338939335	-1.3275088848	 0.347732
C	 1.5218618818	-1.9407779327	-1.8389453893	-0.248696
O	 2.7931678351	-1.8010219905	-1.1871341125	-0.29654
H	-0.4431083001	 0.6121431442	 0.897809482	 0.125326
H	-0.3590604733	 0.8884620247	-0.8553347526	 0.115836
H	-0.6386281242	-0.7483359519	-0.2178604518	 0.114864
H	 2.3620242194	-1.5280474894	 0.7712649529	 0.2893
H	 1.5391758189	 2.108412778	 0.5102402743	 0.105455
H	 3.0311363726	 1.2114569869	 0.7689609684	 0.120837
H	 2.9973292072	 2.5367801575	-1.640480367	 0.103413
H	 2.7496150424	 0.4324644656	-3.1499883559	 0.104305
H	 0.783332222	-2.5195612695	-1.2859943542	 0.122228
H	 1.572765818	-2.1530528616	-2.9061422607	 0.117963
88.2999	219.5209	247.5404	256.1393	288.8029	331.609	358.8221	427.2159	470.2646	486.8925	545.4568	585.2509	641.6112	726.5784	768.1799	827.9525	887.2111	914.6067	941.8258	962.4868	973.9644	981.7175	989.8776	1083.8953	1109.1091	1124.3154	1154.085	1179.2962	1182.662	1224.1412	1246.525	1313.7946	1341.5663	1398.0755	1420.3172	1433.7504	1476.5347	1486.9825	1496.8941	1522.9984	1669.7352	3033.284	3041.4132	3069.8432	3082.937	3115.9337	3120.8489	3169.7663	3187.0895	3215.7919	3711.6012
CC1(O)CC=CC11CO1	C[C@]1(O)CC=C[C@@]21CO2	
InChI=1S/C7H10O2/c1-6(8)3-2-4-7(6)5-9-7/h2,4,8H,3,5H2,1H3	InChI=1S/C7H10O2/c1-6(8)3-2-4-7(6)5-9-7/h2,4,8H,3,5H2,1H3/t6-,7-/m0/s1
