19
gdb 831	3.4532492	0.7544555	0.6742034	2.9393	77.85	-0.25749	-0.03701	0.22048	1673.875	0.155009	-422.526754	-422.517539	-422.516595	-422.562074	32.849	
O	 0.9311002303	-0.8711221404	 0.3241989961	-0.248815
C	 0.1661685101	-0.0228078056	-0.0571962189	 0.149187
C	-0.8405743433	 0.6458192665	 0.8165090492	-0.049182
O	-1.2507048549	 1.9505924411	 0.384543575	-0.247259
C	-2.2006281725	 0.901193659	 0.2839131015	 0.079494
C	-3.4049016553	 0.9453002635	 1.1976233755	-0.266225
C	-4.0941795067	-0.3998426445	 1.2985682481	 0.030283
C	-5.5597189826	-0.4814715085	 1.6380380275	-0.273528
C	-5.0906712769	-0.8285073057	 0.2471909998	-0.258209
H	 0.1427260022	 0.333743606	-1.1116608064	 0.087684
H	-0.7059585659	 0.51395815	 1.8887264896	 0.115189
H	-2.402135959	 0.5837578255	-0.7413146972	 0.103984
H	-3.086979455	 1.2992810326	 2.1852308293	 0.113422
H	-4.1092050162	 1.6916697171	 0.8073932331	 0.109883
H	-3.4691072821	-1.1907879796	 1.7052958816	 0.092069
H	-5.8925419397	-1.2845033039	 2.285762293	 0.116985
H	-6.1000788231	 0.449801673	 1.7729147342	 0.114673
H	-5.1047370921	-1.8684521315	-0.0588277942	 0.117673
H	-5.3191674771	-0.1291977745	-0.5509247966	 0.112692
46.0132	73.3907	107.0267	144.2274	235.0097	264.7441	297.3496	393.4406	453.0626	463.9782	517.4881	776.0695	800.785	820.1708	844.0134	879.6691	908.3248	944.5105	986.3581	1011.7749	1051.552	1067.7178	1076.976	1081.9882	1125.8941	1140.2558	1162.8701	1178.3828	1199.214	1228.4817	1242.7161	1267.641	1307.5051	1320.3062	1406.1074	1416.0571	1467.7931	1469.7665	1483.4352	1508.1007	1828.3953	2886.676	3023.8313	3064.9037	3095.4778	3130.5317	3135.2477	3139.1215	3140.4092	3209.6717	3224.6252
O=CC1OC1CC1CC1	O=C[C@H]1O[C@@H]1CC1CC1	
InChI=1S/C7H10O2/c8-4-7-6(9-7)3-5-1-2-5/h4-7H,1-3H2	InChI=1S/C7H10O2/c8-4-7-6(9-7)3-5-1-2-5/h4-7H,1-3H2/t6-,7-/m1/s1
