19
gdb 5311	2.3135182	1.501866	1.0952455	2.0584	78.09	-0.21867	0.00608	0.22475	1166.546	0.156386	-422.515076	-422.506289	-422.505344	-422.548768	32.471	
C	 2.8095775858	 0.4400519374	-1.3959690506	-0.520025
C	 1.8387479032	 1.0699392893	-0.4610565434	 0.208074
C	 0.8571164276	 0.5823875735	 0.3084779685	 0.285751
C	 0.344018512	-0.7889897805	 0.5518034567	-0.231499
O	-1.0643290031	-0.7856969439	 0.315039724	-0.421369
C	 0.3232413415	 1.8672164639	 0.974563007	-0.01911
C	 0.2089950717	 2.8299363486	-0.241340038	-0.21772
C	 1.7420893277	 2.5787545052	-0.1288447193	-0.023886
O	 1.5726241227	 2.5595608767	 1.3267774996	-0.29085
H	 3.8421049431	 0.5726260988	-1.0476357448	 0.134962
H	 2.629370453	-0.6328479545	-1.5091687726	 0.127103
H	 2.7552070644	 0.8976398326	-2.3919724207	 0.13037
H	 0.8592586534	-1.5123689173	-0.0994052451	 0.09205
H	 0.554643742	-1.0845138056	 1.593900811	 0.098292
H	-1.4200337832	-1.6183694086	 0.6405750052	 0.287628
H	-0.4092628388	 1.8005534976	 1.7771949789	 0.080281
H	-0.3211728449	 2.4877722888	-1.1322592855	 0.101426
H	-0.0719898224	 3.8455494185	 0.0472978367	 0.104149
H	 2.5072632142	 3.2654026995	-0.4918808876	 0.074375
68.7182	126.2452	169.0339	191.4284	218.5025	265.3279	287.4639	426.3352	501.2989	590.6234	595.1867	670.6739	719.1854	823.1022	836.1651	857.9039	904.5585	927.0681	965.2745	1022.0897	1034.3606	1049.449	1056.4219	1077.6088	1128.748	1161.1343	1182.5097	1202.7367	1228.5246	1243.5682	1259.1998	1268.1485	1294.8298	1339.2012	1414.4466	1453.8753	1477.3569	1485.0403	1485.7635	1510.3066	1738.7229	2951.5056	2988.3804	3015.1113	3060.586	3064.2278	3103.5156	3121.1072	3137.3118	3142.0976	3820.4183
CC1=C(CO)C2CC1O2	CC1=C(CO)[C@@H]2C[C@H]1O2	
InChI=1S/C7H10O2/c1-4-5(3-8)7-2-6(4)9-7/h6-8H,2-3H2,1H3	InChI=1S/C7H10O2/c1-4-5(3-8)7-2-6(4)9-7/h6-8H,2-3H2,1H3/t6-,7+/m1/s1
