19
gdb 2625	2.7435497	1.4253331	1.1655912	4.3132	74.81	-0.25954	0.01402	0.27355999999999997	1116.719	0.157427	-422.591796	-422.583326	-422.582382	-422.62497	31.829	
C	-1.0284978844	-1.5071778058	 1.5255463143	-0.398134
C	-0.7506255047	-1.2373921308	 0.0363057285	-0.247177
C	 0.211079565	-0.0527417179	-0.1002965764	 0.446447
O	 1.3776550494	-0.019535326	 0.162971175	-0.346671
O	-0.4615155686	 1.0402620426	-0.5579859988	-0.222192
C	-1.8566435205	 0.7488898045	-0.7381641548	-0.1473
C	-1.9504585296	-0.769886366	-0.7739731592	 0.345688
C	-2.3694146511	-1.4717125613	-2.0405550463	-0.314691
C	-3.2731339251	-1.4751401841	-0.8296984968	-0.328271
H	-1.688454227	-2.3711536096	 1.6431586457	 0.120635
H	-0.0916064471	-1.7101943671	 2.0506488425	 0.14365
H	-1.5088532064	-0.6487231704	 2.0061596839	 0.124417
H	-0.269449768	-2.1159169239	-0.4018751361	 0.108664
H	-2.4128658398	 1.1855102382	 0.1012709777	 0.115291
H	-2.1879632832	 1.2282708286	-1.6630379282	 0.122451
H	-2.6571982498	-0.8642832344	-2.89269765	 0.118218
H	-1.8634134916	-2.3955162089	-2.3014333837	 0.120768
H	-4.1742756799	-0.8702386413	-0.8613806214	 0.117552
H	-3.3844906577	-2.4009298161	-0.2752277258	 0.120656
62.559	161.836	206.9858	222.8286	239.4709	271.2302	326.7465	467.5207	473.8437	540.265	684.1603	722.5726	770.0711	780.796	815.1629	877.4311	930.7149	940.6092	980.3296	1025.626	1045.1021	1059.2954	1068.4012	1084.962	1086.8961	1122.0989	1173.7337	1188.408	1230.3285	1243.8766	1301.3391	1322.1498	1363.7489	1402.5225	1420.4497	1468.5763	1494.8339	1497.0714	1508.2414	1523.078	1880.2844	3022.9436	3041.2702	3073.7598	3092.0196	3112.4312	3124.2107	3125.433	3128.0594	3202.6934	3217.4623
CC1C(=O)OCC11CC1	C[C@@H]1C(=O)OCC21CC2	
InChI=1S/C7H10O2/c1-5-6(8)9-4-7(5)2-3-7/h5H,2-4H2,1H3	InChI=1S/C7H10O2/c1-5-6(8)9-4-7(5)2-3-7/h5H,2-4H2,1H3/t5-/m1/s1
