19
gdb 3158	2.3083076	1.6599174	1.3151805	2.3509	73.8	-0.24426	0.07766	0.32192	1044.2757	0.15734	-422.535144	-422.527089	-422.526145	-422.567145	32.572	
O	 0.5238918382	 0.5145785485	 0.5876086005	-0.429203
C	-0.6977636018	-0.1094987262	 0.9666899419	 0.100843
C	-1.7995918501	 0.1992243347	-0.058855887	-0.0621
C	-3.1839232642	-0.3790015926	 0.0814509323	-0.318248
C	-2.8924670103	 0.9943069982	 0.6302914517	-0.110041
C	-2.501466687	 1.1578369134	 2.0973151812	 0.399094
O	-2.7090553749	 2.4182475615	 2.6606915331	-0.473522
C	-2.4510846891	-0.0598650807	 2.9818403091	-0.380782
C	-1.1880260301	 0.4493997147	 2.3071130361	-0.113768
H	 0.3611933469	 1.4646506709	 0.5573357776	 0.280096
H	-0.4590205987	-1.1772617579	 1.0154329312	 0.091323
H	-1.4439964594	 0.4383632054	-1.0552437777	 0.09234
H	-3.7754058131	-0.4308374199	-0.8271300112	 0.111743
H	-3.3639066936	-1.2083418792	 0.7554706542	 0.113902
H	-3.3553867605	 1.8613480796	 0.1734558872	 0.087411
H	-3.6318497296	 2.4746254382	 2.9319072091	 0.283174
H	-2.499925914	 0.1329676304	 4.0488038645	 0.114059
H	-2.9087513211	-0.9949706211	 2.6810582552	 0.11276
H	-0.4220450276	 0.862637552	 2.954130611	 0.100921
119.3094	185.154	295.005	324.9113	334.1442	355.1489	380.8724	403.8761	480.2612	499.4643	595.4687	679.7688	725.0191	792.2687	811.6845	851.3155	887.7438	922.873	954.2256	985.3935	995.9022	1017.7485	1040.4578	1053.7955	1070.6952	1079.7517	1099.9738	1115.4818	1125.2646	1193.8868	1216.3171	1245.3905	1271.6669	1285.8399	1309.2644	1336.852	1369.7028	1404.3955	1430.1316	1479.4911	1503.3964	3056.4958	3128.342	3136.5312	3167.2713	3174.6867	3179.1352	3209.4301	3219.3642	3791.0739	3795.9236
OC1C2CC2C2(O)CC12	O[C@@H]1[C@H]2C[C@H]2[C@@]2(O)C[C@@H]12	
InChI=1S/C7H10O2/c8-6-3-1-4(3)7(9)2-5(6)7/h3-6,8-9H,1-2H2	InChI=1S/C7H10O2/c8-6-3-1-4(3)7(9)2-5(6)7/h3-6,8-9H,1-2H2/t3-,4+,5-,6+,7-/m0/s1
