19
gdb 3433	2.3314347	1.5281449	1.1653018	2.667	77.33	-0.23376	0.01123	0.24498999999999999	1127.3265	0.155899	-422.56207	-422.553093	-422.552148	-422.595097	34.516	
C	 1.1906955502	 0.530097292	-0.3513476953	-0.511337
C	-0.1953450491	 0.0547791715	-0.0562169728	 0.275952
C	-1.3212330517	 0.7733693231	 0.0358101994	-0.256958
C	-2.5433072937	-0.0851594943	 0.2890571643	 0.102548
O	-3.4972118367	-0.0192083689	-0.7666992488	-0.43209
C	-1.9557200208	-1.4857815101	 0.476803038	-0.13011
C	-0.9753545718	-1.7057730219	 1.6097238911	-0.351108
C	-0.4730578635	-1.3978613712	 0.2140562518	 0.305668
O	 0.2000224881	-2.3681473337	-0.5306318627	-0.465497
H	 1.8622559047	 0.3500926238	 0.4985803734	 0.123905
H	 1.6079449822	-0.0191419029	-1.2033192839	 0.138055
H	 1.2129843765	 1.5979290445	-0.5813760004	 0.127956
H	-1.3907207679	 1.8515415432	-0.0590628035	 0.093444
H	-3.0960865334	 0.2374073848	 1.1794745885	 0.092513
H	-3.0125587655	-0.1566727223	-1.5887048871	 0.275877
H	-2.5347716207	-2.332424838	 0.1287978124	 0.102389
H	-0.8702633034	-0.9493246696	 2.3816324851	 0.112119
H	-0.87020458	-2.7324359882	 1.9485178448	 0.11114
H	 1.0066833965	-2.6037331018	-0.0607068144	 0.285538
130.8388	146.5871	178.1715	237.9767	269.8994	278.2072	350.6745	366.5129	400.9998	444.7184	475.1908	576.8765	630.7495	664.0072	754.5229	813.1695	836.2648	888.0551	937.339	956.8271	993.0563	1008.9852	1033.1874	1059.0411	1064.2681	1087.8092	1098.1308	1148.6775	1222.5809	1246.9978	1259.986	1291.4576	1322.4657	1350.052	1386.3982	1408.8255	1424.1439	1472.1456	1477.7734	1490.6288	1698.2774	3019.315	3042.8345	3071.5393	3113.9242	3119.9938	3191.9757	3193.854	3207.4815	3795.6325	3806.6311
CC1=CC(O)C2CC12O	CC1=C[C@@H](O)[C@@H]2C[C@]12O	
InChI=1S/C7H10O2/c1-4-2-6(8)5-3-7(4,5)9/h2,5-6,8-9H,3H2,1H3	InChI=1S/C7H10O2/c1-4-2-6(8)5-3-7(4,5)9/h2,5-6,8-9H,3H2,1H3/t5-,6+,7-/m0/s1
