19
gdb 411	3.0198644	1.5617032	1.2610338	1.5123	74.23	-0.24603	0.05958	0.30561	1038.3119	0.158404	-422.531696	-422.524144	-422.5232	-422.563792	29.322	
C	 0.503561167	 0.8324018226	-0.7566989365	-0.257761
O	-0.0026019086	-0.0903477413	 0.2152924294	-0.283472
C	 1.4140511342	 0.1416147829	 0.154058841	 0.443024
C	 2.3015190586	-1.0394856882	-0.2025235038	-0.304311
C	 2.7595999383	-1.565247813	 1.1783177228	-0.2333
C	 2.884987085	-0.3113373149	 2.0638526036	-0.074956
C	 4.0630033372	 0.6350147742	 1.7533623937	-0.080245
O	 3.2002447275	 1.5665096208	 1.0625153054	-0.297408
C	 2.0223549768	 0.7881172034	 1.3816273554	 0.048426
H	 0.4318728028	 0.5036848011	-1.7928492195	 0.113479
H	 0.2543783256	 1.8788817007	-0.5855949221	 0.118402
H	 1.7678946474	-1.783349156	-0.7977505966	 0.112352
H	 3.1587532816	-0.6865674149	-0.786723954	 0.117466
H	 1.9894850381	-2.2248756473	 1.5921972415	 0.114493
H	 3.6902657179	-2.1388568447	 1.1300703857	 0.100003
H	 2.7123523521	-0.5088310168	 3.1216797227	 0.081558
H	 4.5354854795	 1.0972215416	 2.6288180038	 0.102099
H	 4.8465377764	 0.2334054782	 1.0977126991	 0.099266
H	 1.2911536226	 1.3532467214	 1.9675969083	 0.080888
89.1988	147.0893	215.062	292.8481	352.8072	358.4384	447.8359	556.1562	600.9993	744.8607	793.5514	842.8219	858.9693	869.5408	898.7673	931.2425	946.0807	963.2578	986.0421	1008.763	1027.4813	1075.0794	1104.7755	1125.3851	1150.4132	1162.8066	1174.7051	1192.3792	1237.437	1248.2289	1273.2903	1286.7018	1318.6118	1324.7342	1341.1112	1367.0316	1441.4325	1471.5112	1491.6126	1524.7678	1533.3544	3008.8194	3046.2316	3048.1163	3051.3735	3065.728	3080.936	3089.9076	3111.3491	3116.0008	3166.0741
C1OC11CCC2COC12	C1O[C@]21CC[C@H]1CO[C@@H]21	
InChI=1S/C7H10O2/c1-2-7(4-9-7)6-5(1)3-8-6/h5-6H,1-4H2	InChI=1S/C7H10O2/c1-2-7(4-9-7)6-5(1)3-8-6/h5-6H,1-4H2/t5-,6+,7-/m0/s1
