19
gdb 3265	2.5403712	1.9433746	1.4419487	2.0137	74.16	-0.23702	0.06951	0.30653	959.826	0.157754	-422.528976	-422.521401	-422.520457	-422.560358	30.742	
C	 0.8712836213	 2.8843512737	 2.4384639009	-0.516957
C	-0.5279763436	 2.3972954591	 2.2291640153	 0.4878
O	-1.5483954022	 3.0524992515	 3.0024513244	-0.330883
C	-2.3901747353	 1.9374165928	 2.5959629688	 0.056736
C	-2.6159887688	 2.2734898066	 1.1048759571	-0.222735
C	-1.1263736856	 2.1122078244	 0.7518124939	-0.142757
C	-0.9219892161	 0.6053849575	 1.0236573763	 0.126587
O	 0.4102932198	 0.2194389724	 0.7379640417	-0.445025
C	-1.1345681288	 0.9920880685	 2.5007735798	-0.172059
H	 1.1437324272	 2.8355231102	 3.4973516993	 0.121702
H	 1.5657836709	 2.2719406968	 1.8600018945	 0.142465
H	 0.962779061	 3.9259524233	 2.1109728345	 0.125287
H	-3.2365895457	 1.7579238157	 3.2572785773	 0.078693
H	-3.2613047928	 1.5742946224	 0.5647899287	 0.095039
H	-3.0015025002	 3.2889261976	 0.9994638109	 0.109267
H	-0.7273899508	 2.5749954911	-0.1488106692	 0.073158
H	-1.6411525484	-0.078647204	 0.5522233426	 0.061765
H	 0.5820732329	-0.6155625585	 1.18525064	 0.283185
H	-0.8751198347	 0.3641936189	 3.3534859831	 0.068732
196.8715	207.304	241.334	290.6611	323.7974	342.633	442.0428	494.427	534.7655	615.8369	693.0855	768.6116	836.9564	842.3717	863.3642	887.0211	926.6067	938.0026	951.788	974.7955	990.2037	1017.1053	1072.9245	1087.7001	1111.459	1143.2898	1153.3372	1157.1874	1205.0903	1207.5941	1242.5183	1271.8663	1294.08	1306.2607	1323.0049	1359.2812	1410.0634	1419.3986	1483.9127	1488.3908	1493.2829	2999.6345	3037.7264	3061.5324	3101.1389	3114.2702	3123.6125	3132.9821	3139.303	3140.4938	3811.2453
CC12OC3CC1C(O)C23	C[C@@]12O[C@H]3C[C@@H]1[C@@H](O)[C@@H]23	
InChI=1S/C7H10O2/c1-7-3-2-4(9-7)5(7)6(3)8/h3-6,8H,2H2,1H3	InChI=1S/C7H10O2/c1-7-3-2-4(9-7)5(7)6(3)8/h3-6,8H,2H2,1H3/t3-,4+,5+,6-,7-/m1/s1
