19
gdb 4764	1.9043925	1.2671929	0.8735778	2.5196	77.54	-0.26141	-0.03348	0.22792999999999997	1372.9991	0.153058	-422.546248	-422.535757	-422.534813	-422.582373	37.291	
C	 4.425223992	-3.8548604397	 0.8347359473	-0.381817
C	 4.1886905283	-2.465712484	 0.2388527041	-0.195693
C	 3.0923742966	-2.4912346229	-0.8495018501	 0.047272
O	 3.410017083	-3.40230786	-1.8691565267	-0.439395
C	 2.8924906559	-1.1042503739	-1.450017442	 0.370505
O	 3.1192911314	-0.9170620463	-2.6247950148	-0.322049
C	 2.4610347666	 0.0662052235	-0.5558470295	-0.454435
C	 1.5403811628	-0.2654521315	 0.5216990139	 0.306722
C	 0.7732117428	-0.5346913097	 1.4063903162	-0.445944
H	 3.5258217246	-4.2243837765	 1.3394739862	 0.115858
H	 4.688444022	-4.5661498627	 0.0486397736	 0.143151
H	 5.2364215255	-3.8306495376	 1.5684191616	 0.111218
H	 3.8971157936	-1.7634539806	 1.0280034311	 0.106756
H	 5.1149734093	-2.0907292625	-0.2144724828	 0.102833
H	 2.1434947711	-2.7842058932	-0.3727111494	 0.104751
H	 3.5129501193	-2.8669857616	-2.6719613667	 0.291849
H	 3.3838949257	 0.4943226896	-0.1380435447	 0.1659
H	 2.0406018775	 0.8296541668	-1.2178631619	 0.164746
H	 0.093336572	-0.772442557	 2.1870558046	 0.207772
46.6842	74.4681	100.686	138.1483	176.7111	237.8077	277.7672	332.6795	337.3681	376.0347	413.886	467.0679	502.1579	554.0463	634.9716	651.5455	672.4431	770.1034	828.0868	906.3311	932.526	990.2761	1002.1443	1075.3765	1107.215	1127.2386	1188.1262	1206.7181	1279.3952	1293.1364	1302.2286	1345.5488	1372.4131	1406.7699	1439.1367	1440.7182	1476.9864	1494.9387	1509.4863	1793.8203	2241.701	2987.1461	3016.2959	3027.3894	3039.1159	3073.8908	3083.8474	3104.6938	3132.4657	3503.7167	3686.7724
CCC(O)C(=O)CC#C	CC[C@H](O)C(=O)CC#C	
InChI=1S/C7H10O2/c1-3-5-7(9)6(8)4-2/h1,6,8H,4-5H2,2H3	InChI=1S/C7H10O2/c1-3-5-7(9)6(8)4-2/h1,6,8H,4-5H2,2H3/t6-/m0/s1
