19
gdb 1067	3.2996444	1.2771281	1.0713071	2.1296	76.63	-0.23717	-0.0139	0.22327	1168.8605	0.154936	-422.532303	-422.523308	-422.522363	-422.566054	33.412	
C	 3.742727435	 0.4506518107	 1.5026318412	-0.494876
C	 2.9386581588	-0.8360599784	 1.5333017877	 0.329278
O	 3.3260132169	-1.7984978482	 2.1693652465	-0.324409
C	 1.6388673181	-0.8812199536	 0.7806271178	 0.16071
C	 1.2315364926	 0.2898503024	-0.0877232559	-0.500099
C	 1.2572092252	-2.3317758863	 0.4406023742	-0.146344
C	-0.13858634	-2.3774412104	-0.1659038813	-0.126421
O	-0.6837880292	-1.624280934	 0.9581747893	-0.288532
C	 0.5877945517	-1.657622403	 1.5904603006	 0.098335
H	 4.6645470901	 0.3032131125	 2.0659112607	 0.141838
H	 3.9774063448	 0.7455184626	 0.474470075	 0.139213
H	 3.1725855138	 1.2744529225	 1.9464885127	 0.143311
H	 1.8091380003	 0.3304597065	-1.0176075606	 0.119288
H	 0.1721679764	 0.2220612677	-0.3428025234	 0.144312
H	 1.370499746	 1.2402052928	 0.435456431	 0.12068
H	 2.0021066178	-3.1139225703	 0.4404833323	 0.122297
H	-0.314680894	-1.8831929051	-1.1271520949	 0.112215
H	-0.5625206361	-3.3866438818	-0.1813714837	 0.123121
H	 0.6442665519	-1.7906905964	 2.6634697208	 0.126083
52.3187	169.6289	173.4304	190.1486	212.4016	285.5843	326.5245	353.0152	424.6171	474.3641	586.4564	598.3626	663.6495	745.0995	816.729	871.4146	915.5128	944.5525	962.2897	978.8337	991.7463	1039.724	1056.1564	1081.1019	1098.0021	1105.131	1122.9026	1159.0549	1231.1488	1250.2013	1304.868	1312.2594	1379.6583	1385.9521	1418.4363	1460.103	1473.8226	1494.72	1502.3557	1519.5996	1765.6552	3036.9885	3038.3534	3041.9831	3089.4884	3099.0584	3103.0404	3129.4632	3154.1934	3199.1748	3227.2321
CC(=O)C1(C)C2COC12	CC(=O)[C@@]1(C)[C@@H]2CO[C@H]12	
InChI=1S/C7H10O2/c1-4(8)7(2)5-3-9-6(5)7/h5-6H,3H2,1-2H3	InChI=1S/C7H10O2/c1-4(8)7(2)5-3-9-6(5)7/h5-6H,3H2,1-2H3/t5-,6+,7+/m1/s1
