19
gdb 1407	2.432417	1.525126	1.2007543	4.5832	76.43	-0.26553	0.00586	0.27138999999999996	1116.7711	0.154576	-422.570987	-422.561741	-422.560796	-422.604287	34.63	
C	-1.3122464718	-0.2688239273	-2.5505700981	-0.464611
C	-1.8592460025	-0.870478237	-1.270094078	 0.24002
C	-2.9446070536	-1.9104298048	-1.4991924659	-0.458933
C	-0.9396235846	-1.2292600177	-0.0671830592	-0.378611
C	 0.0775412449	-0.1432214729	 0.1036741874	 0.45826
O	 1.2486826079	-0.0348976051	 0.2729905223	-0.333356
O	-0.860337614	 0.8837686677	 0.0496865742	-0.294855
C	-1.9492055529	-0.0952040599	 0.0052561391	 0.413027
C	-3.1127638187	 0.2030532502	 0.8913352047	-0.49337
H	-0.8233946994	-1.0379294216	-3.1574801417	 0.124625
H	-2.131102718	 0.1526411906	-3.1444499625	 0.120136
H	-0.5946643238	 0.5292854883	-2.3571013943	 0.150149
H	-3.288523091	-2.3687103831	-0.5678143057	 0.121608
H	-3.8101270313	-1.45996238	-1.9969959242	 0.12798
H	-2.5693989426	-2.7116326101	-2.1443456395	 0.131537
H	-0.9183493303	-2.2156716233	 0.374301435	 0.118744
H	-2.7856108347	 0.3352413415	 1.9266710762	 0.14176
H	-3.6039040153	 1.1277752103	 0.5694738934	 0.142217
H	-3.8499571781	-0.6019059658	 0.8563809269	 0.133672
129.3204	177.8428	191.9438	194.0744	198.1932	263.3284	289.5339	323.526	354.2325	453.4324	503.9167	513.8803	616.1635	667.8802	725.3972	796.5838	852.2924	887.6419	933.1044	971.072	983.458	992.5576	1019.6575	1042.6562	1121.6573	1143.5175	1162.7828	1211.2206	1240.5834	1276.6568	1402.9002	1412.1193	1426.8705	1453.0598	1476.5313	1483.6134	1487.4692	1493.682	1504.8239	1518.3356	1937.103	3032.6501	3038.1815	3043.04	3094.1482	3098.6291	3106.2718	3110.9996	3134.6389	3144.6722	3218.6391
CC1(C)C2C(=O)OC12C	CC1(C)[C@H]2C(=O)O[C@@]12C	
InChI=1S/C7H10O2/c1-6(2)4-5(8)9-7(4,6)3/h4H,1-3H3	InChI=1S/C7H10O2/c1-6(2)4-5(8)9-7(4,6)3/h4H,1-3H3/t4-,7-/m1/s1
