19
gdb 1308	2.5141158	1.1537506	0.8659502	2.7539	77.82	-0.25149	0.01951	0.271	1347.1611	0.154036	-422.502718	-422.492756	-422.491812	-422.538252	35.692	
C	 2.647902152	 1.0310686025	 3.0731112745	-0.412465
C	 2.0329914886	 1.0213699446	 1.6735597409	 0.107833
O	 3.025783457	 1.1561467383	 0.6601505512	-0.440112
C	 1.3130020415	-0.2803760446	 1.3645807193	-0.026451
C	 0.4913180867	-0.3455626227	 0.0640511557	-0.091244
O	-0.7197989781	-0.6675124485	 0.7877932144	-0.286565
C	-0.0553099941	-0.5192906309	 2.0658705029	-0.058814
C	-0.1789092904	-1.6783397965	 2.9331339212	 0.314226
C	-0.2659932474	-2.6330684977	 3.6584386324	-0.436628
H	 3.387098796	 0.229734681	 3.1679816922	 0.129961
H	 3.1478708446	 1.9859331701	 3.2715475754	 0.108216
H	 1.8833886596	 0.8916934518	 3.8445103821	 0.127076
H	 1.3035089707	 1.8466881293	 1.5952151738	 0.06668
H	 3.5180199985	 1.9660788322	 0.82803165	 0.28375
H	 2.0002510494	-1.1203112735	 1.4835884041	 0.097894
H	 0.4083057116	 0.6077359889	-0.4718043946	 0.106201
H	 0.7633635367	-1.1338384941	-0.6449924861	 0.112383
H	-0.4288599681	 0.3724775678	 2.5911855379	 0.096886
H	-0.3500691349	-3.4780628681	 4.2963924028	 0.201171
43.2932	69.5117	143.4789	153.8723	217.1555	239.4855	276.0678	320.8848	341.3595	402.9229	480.316	535.2181	543.1705	616.5674	671.8409	737.9051	851.1626	908.1363	953.9838	979.7602	990.6116	1022.5926	1039.2568	1075.1263	1112.3618	1124.4588	1147.6812	1167.7457	1205.7085	1262.7472	1280.12	1320.0289	1352.7177	1365.6755	1379.5341	1405.4822	1438.372	1491.0559	1498.7704	1526.2679	2234.6697	2944.4141	2984.1738	3027.2663	3029.7507	3074.4445	3096.3966	3098.3452	3114.7511	3502.4976	3816.7029
CC(O)C1COC1C#C	C[C@@H](O)[C@@H]1CO[C@H]1C#C	
InChI=1S/C7H10O2/c1-3-7-6(4-9-7)5(2)8/h1,5-8H,4H2,2H3	InChI=1S/C7H10O2/c1-3-7-6(4-9-7)5(2)8/h1,5-8H,4H2,2H3/t5-,6+,7+/m1/s1
