19
gdb 5914	1.9613645	1.0237706	0.9323124	3.2291	78.21	-0.26101	-0.05968	0.20133	1410.0126	0.153235	-422.535487	-422.524657	-422.523713	-422.572522	37.461	
C	 3.0081530975	-0.9264796151	 2.2716064953	-0.417499
C	 3.2485910828	 0.2171333421	 1.2694574425	-0.090164
C	 2.8442371954	 1.580657424	 1.8627384001	-0.220304
C	 3.1998095343	 2.7734935939	 0.9707505732	-0.06927
O	 2.7975160962	 4.010304479	 1.5349088465	-0.415681
C	 2.5137324086	-0.0680194861	-0.0377725948	 0.257995
O	 3.0848621681	-0.2517604418	-1.0907741012	-0.292429
C	 1.0585076368	-0.1217348934	 0.0397510709	 0.295364
C	-0.1435561574	-0.1621169754	 0.0974015111	-0.460175
H	 3.5796762412	-0.7485405011	 3.1875080514	 0.123029
H	 1.9498094263	-0.9981339279	 2.540030695	 0.133081
H	 3.3214413251	-1.889613521	 1.8578158219	 0.129867
H	 4.3091394411	 0.2384748264	 0.9941138455	 0.0992
H	 1.7676282931	 1.597796568	 2.0666473897	 0.120602
H	 3.3505656274	 1.6935888319	 2.8311600638	 0.08896
H	 4.2781557402	 2.7647080235	 0.7438035498	 0.093053
H	 2.6744111439	 2.7034816773	 0.0122430685	 0.124918
H	 3.2984150472	 4.1416337294	 2.3462887359	 0.28082
H	-1.2055329078	-0.1998089037	 0.1327568852	 0.218635
28.4824	82.1217	89.7974	144.0984	163.3465	199.7442	226.2142	276.8431	302.5409	317.2211	366.6192	414.5317	532.6081	626.8306	653.253	693.0506	711.2628	760.3536	799.265	917.9204	979.735	1002.8918	1016.8459	1079.0613	1083.1876	1144.6594	1153.5986	1230.9681	1291.6907	1310.1722	1342.7726	1357.5502	1395.528	1410.0355	1429.3676	1481.0655	1494.432	1502.8071	1509.5749	1764.6271	2206.7378	2976.5433	3014.3408	3039.3681	3049.1609	3067.0633	3083.5719	3111.609	3116.7426	3492.2958	3814.7988
CC(CCO)C(=O)C#C	C[C@H](CCO)C(=O)C#C	
InChI=1S/C7H10O2/c1-3-7(9)6(2)4-5-8/h1,6,8H,4-5H2,2H3	InChI=1S/C7H10O2/c1-3-7(9)6(2)4-5-8/h1,6,8H,4-5H2,2H3/t6-/m1/s1
