19
gdb 1962	4.1927541	1.15738	1.081182	3.3533	75.84	-0.23229	0.07209	0.30438	1186.523	0.155686	-422.503211	-422.494805	-422.493861	-422.536394	31.659	
C	 3.2275367754	-1.0761876828	-3.2736544784	-0.502033
C	 2.6952079185	-0.2157096386	-2.1756763166	 0.421518
C	 2.1788238927	-0.6292140464	-0.7846399169	-0.381891
C	 1.2063904137	 0.5964687446	-0.8450009027	 0.464552
C	-0.3214103142	 0.4003562844	-0.7496957204	-0.361207
C	-0.2356984578	 1.4538127929	 0.3722203257	-0.070825
O	 1.1965588648	 1.5497218483	 0.2264476054	-0.31001
C	 1.8306759998	 0.98464737	-2.1875475508	-0.1208
O	 3.2474095791	 1.0949253019	-1.9952756383	-0.281156
H	 4.1947906093	-1.50812092	-2.9929019999	 0.133382
H	 2.5417607009	-1.9022422703	-3.4880345422	 0.123507
H	 3.3689986861	-0.4890786339	-4.1848807105	 0.135229
H	 1.6498419494	-1.5857407647	-0.753085956	 0.101633
H	 2.9318405384	-0.5864689806	 0.0050275189	 0.118509
H	-0.8862815727	 0.6974653251	-1.636064032	 0.112009
H	-0.6416720097	-0.5950572263	-0.4371665019	 0.113269
H	-0.7326888676	 2.4087764888	 0.164538134	 0.105257
H	-0.5231316069	 1.1142030541	 1.3740967528	 0.105161
H	 1.3939840306	 1.5514679534	-3.00428769	 0.093896
73.6939	93.2758	196.2933	222.0127	285.565	323.3673	395.741	422.721	449.9529	567.2821	676.6268	772.2422	786.552	844.2166	862.6686	883.8782	916.5729	926.1468	971.383	1001.379	1005.2279	1026.4628	1050.5	1128.3029	1139.4629	1152.7599	1171.3677	1184.6799	1210.8788	1217.6016	1255.8133	1260.9723	1316.1726	1353.165	1402.1858	1447.2524	1470.846	1483.9505	1487.68	1495.6224	1532.8205	3021.4946	3034.2668	3061.4969	3061.5318	3072.3375	3095.9325	3121.1735	3125.0849	3128.1802	3163.924
CC12CC3(CCO3)C1O2	C[C@]12C[C@]3(CCO3)[C@H]1O2	
InChI=1S/C7H10O2/c1-6-4-7(2-3-8-7)5(6)9-6/h5H,2-4H2,1H3	InChI=1S/C7H10O2/c1-6-4-7(2-3-8-7)5(6)9-6/h5H,2-4H2,1H3/t5-,6-,7+/m0/s1
