19
gdb 5198	2.9576984	1.659878	1.4119881	2.1133	74.31	-0.25001	0.08545	0.33546	981.6741	0.158648	-422.522764	-422.515491	-422.514547	-422.5543	29.527	
O	 1.4273958542	 0.8911294821	 0.1234953212	-0.419778
C	 0.470169498	-0.0662102549	 0.5376360477	-0.181158
C	-0.8322601269	 0.5917267821	 0.9032528759	 0.399294
C	-2.1062286394	-0.1212629502	 1.4130870553	-0.289705
C	-2.7483037736	 1.2374090304	 1.0960755167	-0.070111
C	-1.8040802848	 2.3455311691	 1.7303494517	 0.080234
C	-1.5645646539	 2.9227452647	 0.3180908713	-0.24379
C	-1.7345724278	 1.4528082012	-0.0864942721	-0.089486
O	-0.6141083425	 1.5681992587	 1.9505620213	-0.317384
H	 1.4225736201	 1.5730961409	 0.8060349084	 0.290326
H	 0.3206020335	-0.756822255	-0.2984067396	 0.108931
H	 0.8293315269	-0.6556183738	 1.3977946565	 0.094357
H	-2.4652583519	-0.8905075922	 0.7234543068	 0.101914
H	-2.0852605799	-0.4946566037	 2.4399637535	 0.101826
H	-3.8177829699	 1.4266844594	 1.028805975	 0.075963
H	-2.0498090841	 2.9421071097	 2.6073067538	 0.080158
H	-2.4041750674	 3.5267179883	-0.037335849	 0.100605
H	-0.6149325911	 3.4332993191	 0.1415963374	 0.101382
H	-1.8861916095	 1.089846704	-1.1010346216	 0.076422
107.439	148.5996	293.2735	365.7251	424.2782	448.4315	461.5842	550.5574	628.1837	681.9076	730.5483	802.3749	831.8471	845.5848	869.9454	925.5412	950.6579	964.0472	981.6175	995.926	1018.8686	1039.2187	1060.1811	1071.9857	1079.689	1114.0021	1140.3915	1179.9729	1190.1519	1204.9249	1235.3381	1248.1299	1260.7111	1274.5747	1317.9713	1337.0876	1377.1174	1445.639	1480.5577	1481.5802	1497.0752	2969.9129	3056.4258	3058.4405	3078.5756	3119.0424	3120.3309	3132.1017	3137.3873	3144.8042	3790.0517
OCC12CC3C(CC13)O2	OC[C@]12C[C@H]3[C@H](C[C@@H]13)O2	
InChI=1S/C7H10O2/c8-3-7-2-4-5(7)1-6(4)9-7/h4-6,8H,1-3H2	InChI=1S/C7H10O2/c8-3-7-2-4-5(7)1-6(4)9-7/h4-6,8H,1-3H2/t4-,5-,6+,7-/m1/s1
