19
gdb 2399	2.6224354	1.6592521	1.3930241	1.2976	75.28	-0.23025	0.0638	0.29405000000000003	1021.1914	0.15553	-422.500335	-422.492028	-422.491084	-422.532935	31.934	
C	-1.201727505	-1.2381492747	-1.7663608799	-0.487942
C	-1.0750901876	-0.3459148073	-0.5643771605	 0.28286
O	-1.8628823507	 0.865965499	-0.6662646757	-0.325357
C	-2.3998877691	 0.6923437754	 0.6701518934	-0.105701
C	-1.5591960859	-0.5725411226	 0.8899616129	 0.019645
O	-0.2478876415	-0.3041406024	 1.4190308195	-0.328684
C	 0.2799593187	-0.0942336757	 0.0979254568	 0.431684
C	 1.3085489642	 0.9376678459	-0.1985499536	-0.326186
C	 1.6525587091	-0.5453803759	-0.2789430318	-0.346984
H	-0.6563111892	-2.1741838697	-1.6166231675	 0.128786
H	-2.2518061493	-1.4654765383	-1.9692129002	 0.128202
H	-0.7911214371	-0.738357729	-2.6513530746	 0.132523
H	-2.1596882312	 1.5259331873	 1.3382795717	 0.113512
H	-3.4852240487	 0.5325312342	 0.6420222088	 0.102243
H	-2.0132483971	-1.4714624648	 1.3090309836	 0.090466
H	 1.2133553708	 1.5070792407	-1.1171317845	 0.124507
H	 1.7019359481	 1.4941999554	 0.6451548032	 0.125515
H	 1.8053871825	-0.9935239025	-1.2555365158	 0.115489
H	 2.2651159489	-0.9605381748	 0.5143148243	 0.125422
89.4495	185.8517	193.2392	210.5866	244.1681	327.4883	396.2406	416.0864	500.1778	577.01	636.8645	753.3641	792.721	840.5659	858.576	876.0697	887.7839	916.518	976.1789	979.6707	996.9325	1037.8306	1048.3583	1065.1645	1077.9789	1141.8977	1149.0644	1160.4974	1176.5772	1184.9405	1227.7488	1288.8367	1328.7374	1352.1784	1392.3333	1412.4065	1448.6323	1479.3591	1488.6387	1497.303	1503.6765	3017.7687	3035.7911	3080.2882	3103.0912	3104.2375	3123.139	3127.5077	3133.2116	3211.9745	3226.6186
CC12OCC1OC21CC1	C[C@@]12OC[C@@H]1OC12CC1	
InChI=1S/C7H10O2/c1-6-5(4-8-6)9-7(6)2-3-7/h5H,2-4H2,1H3	InChI=1S/C7H10O2/c1-6-5(4-8-6)9-7(6)2-3-7/h5H,2-4H2,1H3/t5-,6+/m0/s1
