19
gdb 3275	3.0690793	1.8532263	1.5953078	0.5533	72.69	-0.2355	0.06943	0.30493	900.0375	0.161372	-422.558915	-422.552498	-422.551554	-422.589236	27.61	
O	-0.4950866063	-0.170858712	 0.1843980379	-0.443021
C	-1.8881886902	-0.0069869145	 0.354575386	 0.163273
C	-2.6062981687	 0.2965458296	-0.9801467632	-0.102724
C	-2.1499723594	-0.9537272641	-1.7696990553	-0.209516
C	-2.9390710243	-1.9306143641	-0.8618706168	-0.067657
C	-4.3631572073	-1.4508465355	-1.2294621881	-0.195808
C	-4.1185307606	-0.0818451832	-0.5725220424	 0.071862
O	-4.0036853852	-0.5431966396	 0.7924945483	-0.267186
C	-2.7741693969	-1.2592402009	 0.5947220439	 0.010717
H	-0.1144220459	-0.3381128021	 1.0515316608	 0.285843
H	-2.1026527092	 0.7262048665	 1.1387357141	 0.074843
H	-2.450154262	 1.2797333918	-1.420573129	 0.067741
H	-2.4964538999	-0.9861230527	-2.8048199311	 0.086401
H	-1.0682953124	-1.0702623692	-1.752042888	 0.123305
H	-2.7185278664	-2.9944029231	-0.92918964	 0.064721
H	-4.5312659796	-1.4512158109	-2.3086980994	 0.091768
H	-5.1857903402	-1.9601369679	-0.7252244063	 0.101707
H	-4.8722816623	 0.6997996608	-0.6472122535	 0.076194
H	-2.5622875335	-1.9141644687	 1.4393827618	 0.067536
216.9398	270.9111	331.3879	407.8534	520.5277	548.0049	579.0952	629.8279	693.1344	771.6149	806.2601	818.2266	876.7908	894.6305	907.99	918.0033	932.0915	944.6901	958.0715	972.8522	1015.1948	1026.4629	1054.1211	1101.3251	1132.1101	1144.2841	1165.2059	1181.9137	1200.7975	1232.9906	1245.855	1263.5507	1270.5257	1285.6777	1298.7973	1314.537	1326.6471	1343.1328	1422.61	1487.1476	1521.908	3051.8225	3069.2901	3083.0146	3123.0873	3129.165	3130.9461	3134.8481	3143.6013	3154.6036	3829.6217
OC1C2CC3CC2OC13	O[C@H]1[C@H]2C[C@@H]3C[C@H]2O[C@H]13	
InChI=1S/C7H10O2/c8-6-4-1-3-2-5(4)9-7(3)6/h3-8H,1-2H2	InChI=1S/C7H10O2/c8-6-4-1-3-2-5(4)9-7(3)6/h3-8H,1-2H2/t3-,4+,5-,6+,7+/m1/s1
