19
gdb 3213	2.7869073	1.6808662	1.3321222	0.7442	74.44	-0.24745	0.06647	0.31392	998.4103	0.158817	-422.498231	-422.491035	-422.490091	-422.529374	29.718	
O	 0.5443725181	-0.0725431254	 0.5711915456	-0.443297
C	-0.7362376753	 0.4733237291	 0.787586432	 0.106543
C	-1.3661810891	 0.225041746	 2.2062146959	-0.077242
C	-0.8572437564	 1.3923961208	 3.1654432869	-0.331025
C	-1.6190662541	 2.2096409126	 2.1043044456	 0.471555
C	-2.6602854985	 1.0626746908	 2.053168885	-0.290075
O	-1.9607322035	 3.5572397521	 1.7580276375	-0.358706
C	-1.6438132441	 3.224734923	 0.3596018726	-0.176569
C	-0.7846624823	 2.0274956786	 0.8544621868	-0.06041
H	 1.1412540371	 0.2839003009	 1.2380982011	 0.277523
H	-1.3715266054	 0.0246524689	 0.0190727318	 0.098811
H	-1.3842640012	-0.8030840597	 2.5641922211	 0.079826
H	-1.3312874532	 1.3064240248	 4.14566788	 0.110291
H	 0.2156798978	 1.5773478661	 3.2732675377	 0.088787
H	-3.300487447	 1.0404755903	 2.9371917055	 0.103807
H	-3.2548359516	 0.9270308791	 1.1457572864	 0.095792
H	-2.5517744733	 2.9676280612	-0.1973393949	 0.109956
H	-1.1172344337	 4.0440608492	-0.1349608098	 0.115234
H	 0.2343060357	 2.3982967719	 1.0108899432	 0.0792
162.0266	264.7722	284.8841	326.0282	340.153	436.3025	502.6461	515.1194	555.6172	605.7794	743.8931	785.3135	834.085	856.6195	885.9038	925.5916	945.6149	949.0101	985.4469	1017.1894	1026.285	1050.4955	1083.9687	1094.6992	1117.4281	1145.3365	1147.9183	1168.5759	1198.3066	1214.3044	1229.9466	1252.5323	1277.6606	1282.6485	1301.2335	1325.9943	1389.3999	1432.9612	1486.8107	1511.2502	1523.1915	3036.3848	3041.8483	3052.9529	3060.97	3078.2589	3109.6059	3119.1009	3125.0571	3135.3555	3802.8204
OC1C2CC3(C2)OCC13	O[C@H]1[C@H]2C[C@@]3(C2)OC[C@H]13	
InChI=1S/C7H10O2/c8-6-4-1-7(2-4)5(6)3-9-7/h4-6,8H,1-3H2	InChI=1S/C7H10O2/c8-6-4-1-7(2-4)5(6)3-9-7/h4-6,8H,1-3H2/t4-,5-,6+,7-/m1/s1
