19
gdb 4974	2.4164645	1.6234903	1.2712465	1.5997	75.52	-0.22316	0.07407	0.29723	1074.463	0.1562	-422.486764	-422.478228	-422.477284	-422.519766	32.419	
C	 1.4439766334	-0.2847407341	 0.0452947297	-0.25518
O	 0.0448062839	-0.0446538522	 0.122893913	-0.283087
C	-0.3427582825	 0.6346070268	 1.2359688113	 0.346094
C	-0.3351477054	 0.3243371505	 2.7261065502	-0.190285
C	 0.2837097594	 1.6746972343	 3.0695244217	-0.222182
C	-0.2652299371	 2.1671804357	 1.7013020146	-0.14564
C	-1.8149131286	 2.1330419117	 1.8847926434	-0.290436
C	-1.6564528838	 0.6184634697	 1.9596953052	 0.318404
O	-2.6321071961	-0.3553204179	 1.9656795306	-0.467836
H	 1.7943051624	-0.8570669166	 0.9138381191	 0.118843
H	 1.617324406	-0.8612053213	-0.8658339178	 0.12891
H	 2.0085199128	 0.6557897188	-0.0115620898	 0.115379
H	-0.2298478525	-0.6359491177	 3.2143901213	 0.092501
H	-0.0770447329	 2.202618971	 3.9595652908	 0.090985
H	 1.3765730589	 1.6299904762	 3.0882566666	 0.095007
H	 0.203414268	 2.9852194699	 1.1591206808	 0.074117
H	-2.2279850026	 2.6689403601	 2.7468277299	 0.091887
H	-2.3373364556	 2.4368713111	 0.9718307305	 0.093185
H	-3.0059030477	-0.4114008659	 1.0791337489	 0.289334
90.9552	127.6613	166.028	222.0057	301.1237	318.9828	370.6228	392.024	438.6922	576.1008	606.9392	653.4755	684.4553	780.2635	863.1321	905.7438	925.5003	954.796	984.3043	991.5124	1006.519	1044.5758	1058.2247	1103.4154	1114.4471	1148.344	1161.8067	1178.0138	1200.7537	1217.2157	1233.6078	1258.2684	1276.2186	1324.149	1373.4986	1449.5569	1485.3797	1489.232	1498.5109	1503.5642	1527.6544	3000.8501	3030.0592	3036.5218	3060.395	3088.1775	3091.8261	3126.3204	3142.0315	3203.4432	3792.8135
COC12C3CC1CC23O	CO[C@@]12[C@H]3C[C@@H]1C[C@@]23O	
InChI=1S/C7H10O2/c1-9-7-4-2-5(7)6(7,8)3-4/h4-5,8H,2-3H2,1H3	InChI=1S/C7H10O2/c1-9-7-4-2-5(7)6(7,8)3-4/h4-5,8H,2-3H2,1H3/t4-,5+,6+,7-/m1/s1
