19
gdb 4003	4.5902125	1.064417	1.0381256	1.3925	76.	-0.21417	0.06197	0.27614	1232.619	0.156066	-422.486495	-422.478184	-422.477239	-422.519549	31.244	
C	 0.259716699	-0.4315847411	-0.3167833221	-0.399119
C	 0.7927594501	 0.7470104336	 0.4711039797	 0.141349
O	 2.1019650813	 1.1707829498	-0.0352109675	-0.302211
C	 2.7211867545	 0.7970372721	 1.1955485876	-0.007776
C	 1.3860640707	 0.4274692088	 1.8416214637	-0.245867
C	 2.1815238686	 1.6118810757	 2.3196043805	 0.456159
C	 1.8934034476	 3.1021978943	 2.4404313577	-0.35874
C	 2.6488461565	 2.9623911398	 3.7814523477	-0.079792
O	 2.8058098514	 1.5313101707	 3.5994474745	-0.324087
H	-0.703328146	-0.7587622499	 0.0908536059	 0.115472
H	 0.112676662	-0.1478853318	-1.3632805128	 0.127571
H	 0.9602307159	-1.2707655125	-0.2782383852	 0.125619
H	 0.0827196934	 1.5846920867	 0.4446458562	 0.07956
H	 3.6952953107	 0.3206075315	 1.17640281	 0.107686
H	 1.1105459218	-0.3900299561	 2.4954342579	 0.105058
H	 2.3623868851	 3.7312450036	 1.6830520351	 0.125935
H	 0.8378669305	 3.3659194411	 2.5334019885	 0.113711
H	 3.6192767515	 3.4688474952	 3.8292896873	 0.109876
H	 2.0756461358	 3.1892898386	 4.6862072754	 0.109597
80.4151	115.7758	167.9258	228.9138	265.9721	288.4497	407.1805	426.7359	504.2296	618.8882	770.0465	789.4467	802.3536	863.7754	872.7277	906.2314	919.412	959.9344	973.5851	1012.8311	1017.6231	1033.019	1075.3197	1096.5105	1109.4453	1129.9199	1161.3289	1167.5166	1206.8927	1208.4072	1225.3057	1260.8416	1304.9887	1351.6568	1384.3813	1405.2246	1441.9276	1483.6618	1490.0506	1491.264	1530.118	3012.9504	3031.9901	3034.8612	3075.1539	3080.5248	3106.6572	3119.961	3135.6408	3173.2042	3198.913
CC1OC2C1C21CCO1	C[C@@H]1O[C@@H]2[C@H]1[C@@]12CCO1	
InChI=1S/C7H10O2/c1-4-5-6(9-4)7(5)2-3-8-7/h4-6H,2-3H2,1H3	InChI=1S/C7H10O2/c1-4-5-6(9-4)7(5)2-3-8-7/h4-6H,2-3H2,1H3/t4-,5-,6+,7+/m0/s1
