19
gdb 5469	3.2889631	1.3440475	1.1286291	2.1475	75.71	-0.227	0.08531	0.31231	1134.1683	0.15506	-422.460912	-422.452445	-422.451501	-422.493907	31.941	
C	 1.6526881403	-0.3544580159	 0.0830114557	-0.239672
O	 0.2485397163	-0.2132752678	 0.0757293792	-0.252135
C	-0.2382321697	 0.5441547256	 1.1536206606	 0.125312
C	-0.2435842857	 2.0859728106	 1.0261355538	-0.188696
C	-1.5524999656	 2.1861103174	 1.8625666327	 0.072638
O	-2.2614598872	 3.0076601204	 0.8933913806	-0.36085
C	-1.5005152182	 2.0523471864	 0.0808244702	 0.484444
C	-1.6041487434	 2.1147631586	-1.4071224672	-0.527728
C	-1.7348643226	 0.8559286442	 1.0744602846	-0.189248
H	 2.0053132053	-0.8349680894	 1.0088151299	 0.107156
H	 1.9208300219	-0.9872059291	-0.7662553427	 0.128723
H	 2.1655230593	 0.6135036581	-0.0190877237	 0.108044
H	 0.1316510447	 0.1431921693	 2.1092530922	 0.065679
H	 0.5727333804	 2.8077394734	 1.0042516172	 0.080391
H	-1.6871226843	 2.3898655891	 2.9234119785	 0.094904
H	-0.9874148934	 1.3268652354	-1.8460095358	 0.144819
H	-2.6420187318	 1.9727207678	-1.7240660874	 0.1323
H	-1.2610590376	 3.0866617962	-1.7755463166	 0.129845
H	-2.5904670289	 0.1821429797	 1.1025645281	 0.084074
87.496	145.9542	178.3302	207.9943	240.8981	299.9516	343.1132	415.9213	522.5328	568.9671	647.52	740.9386	774.6805	792.5356	840.8876	874.7837	914.6947	944.1648	952.5797	1010.9773	1021.8851	1077.3321	1106.1728	1116.4567	1125.0236	1139.1424	1171.208	1179.7131	1186.1791	1221.9142	1256.339	1264.8473	1280.3411	1369.1263	1397.8865	1416.8658	1480.6724	1483.6924	1488.5129	1489.9186	1510.3206	2976.9269	2991.6144	3026.1803	3041.6369	3109.5524	3116.8053	3119.6993	3126.1194	3134.8415	3140.1603
COC1C2C3OC2(C)C13	CO[C@H]1[C@@H]2[C@H]3O[C@]2(C)[C@@H]13	
InChI=1S/C7H10O2/c1-7-3-5(8-2)4(7)6(3)9-7/h3-6H,1-2H3	InChI=1S/C7H10O2/c1-7-3-5(8-2)4(7)6(3)9-7/h3-6H,1-2H3/t3-,4+,5+,6-,7+
