19
gdb 2903	2.8459655	1.4973033	1.1604814	1.2145	75.1	-0.19844	0.05902	0.25746	1103.5175	0.155007	-422.483426	-422.474571	-422.473627	-422.516038	34.688	
C	 2.2867041001	-1.4482818214	 0.5717741233	-0.426606
C	 1.7585153823	-0.0906278609	 0.1521807204	-0.0993
C	 2.7990154407	 0.9382364334	-0.2797209412	-0.126378
C	 2.2391820938	 2.3404251628	-0.6638001036	-0.161566
C	 0.7199668785	 2.4489175774	-0.5835500351	-0.354708
C	 1.3321690303	 1.6833925986	-1.6993652431	 0.35996
O	 1.0508661913	 1.9659801009	-3.0187624907	-0.45729
C	 1.9111461503	 0.2833623051	-1.3003482158	 0.285238
O	 2.2990426983	-0.5867699454	-2.3104220986	-0.459299
H	 2.5977623934	-1.4370902114	 1.6214790101	 0.120448
H	 1.5173914051	-2.2207670162	 0.4612191582	 0.112899
H	 3.144535045	-1.7457239949	-0.0373860709	 0.129728
H	 0.8814381406	 0.2276642997	 0.7084654208	 0.079805
H	 3.852069446	 0.7604784305	-0.1010565778	 0.093712
H	 2.8598781859	 3.2249681559	-0.7279057609	 0.092985
H	 0.1233504235	 2.0045023592	 0.2073013244	 0.110978
H	 0.3605871803	 3.4251286473	-0.8985516005	 0.119974
H	 1.7313069923	 1.5274024874	-3.5454654554	 0.288337
H	 1.5436617723	-1.1441204781	-2.5333510436	 0.291084
159.1743	189.1225	204.4996	222.5244	248.5789	285.4064	349.9117	410.5889	420.2046	449.2137	480.7751	521.3665	626.2567	653.6759	782.8714	800.436	866.9789	910.8221	928.9644	945.6589	958.7583	974.7844	1001.3484	1015.2398	1053.9035	1090.3969	1127.7819	1139.5712	1147.2572	1210.2874	1225.663	1248.7871	1286.4026	1331.1506	1365.5779	1412.6227	1417.349	1455.0689	1495.4699	1505.2844	1510.0312	3032.3346	3091.0253	3111.0575	3115.4946	3144.3202	3187.3027	3193.759	3198.8964	3770.6408	3773.9131
CC1C2C3CC3(O)C12O	C[C@H]1[C@@H]2[C@@H]3C[C@]3(O)[C@]12O	
InChI=1S/C7H10O2/c1-3-5-4-2-6(4,8)7(3,5)9/h3-5,8-9H,2H2,1H3	InChI=1S/C7H10O2/c1-3-5-4-2-6(4,8)7(3,5)9/h3-5,8-9H,2H2,1H3/t3-,4-,5+,6+,7-/m0/s1
