19
gdb 3680	2.6405752	1.5396508	1.1659615	2.0774	77.79	-0.22428	0.02079	0.24507	1092.4669	0.157223	-422.553944	-422.545576	-422.544632	-422.586471	32.958	
O	 0.821990998	 1.5406061216	 3.548228949	-0.428066
C	-0.3356057972	 0.7633425506	 3.7534772829	 0.006566
C	-0.3692111888	-0.6382660404	 3.2067513818	-0.3692
C	-1.1270210044	 0.4868907243	 2.5146160534	 0.296247
C	-2.6069728639	 0.4867317483	 2.3886226646	-0.149439
C	-2.9740026594	 0.6013062546	 1.1095392792	-0.087753
C	-1.778006686	 0.6973029781	 0.1884598375	-0.286927
C	-0.6352307761	 1.0451545837	 1.161576719	 0.078808
O	 0.6098749304	 0.5583804478	 0.7131350372	-0.441542
H	 1.5022397401	 1.2213369177	 4.1510489234	 0.291175
H	-0.8619216189	 0.9764979747	 4.68394483	 0.088268
H	 0.5162367775	-0.9935557378	 2.68994178	 0.121319
H	-0.9364485732	-1.3927631207	 3.7415194326	 0.109917
H	-3.2757149161	 0.3676779808	 3.2342146026	 0.092606
H	-3.9964027067	 0.5925571579	 0.7497386523	 0.093344
H	-1.5702451754	-0.2653880427	-0.2989996399	 0.117652
H	-1.8903185393	 1.4418912577	-0.6057167558	 0.103902
H	-0.5948318439	 2.1397904466	 1.2673524498	 0.080621
H	 1.2634083533	 0.9220260372	 1.3231386004	 0.282501
99.6858	166.763	196.1939	250.8793	335.4048	371.4227	407.631	430.4821	487.5367	492.987	562.3523	598.0854	677.1291	738.7434	770.6506	838.7114	892.9836	919.1544	960.5907	961.7012	976.3927	1015.3508	1033.8238	1040.6338	1088.4337	1115.0797	1134.291	1152.6898	1171.0956	1240.1759	1281.4805	1287.6184	1301.4137	1313.2377	1344.2798	1383.3743	1411.8277	1440.8124	1486.0317	1491.1607	1667.1615	2983.4082	3018.6685	3075.9684	3099.3543	3127.6501	3180.4942	3206.838	3222.0095	3785.0717	3800.5186
OC1CC11C=CCC1O	O[C@@H]1C[C@]21C=CC[C@@H]2O	
InChI=1S/C7H10O2/c8-5-2-1-3-7(5)4-6(7)9/h1,3,5-6,8-9H,2,4H2	InChI=1S/C7H10O2/c8-5-2-1-3-7(5)4-6(7)9/h1,3,5-6,8-9H,2,4H2/t5-,6+,7+/m0/s1
