19
gdb 5129	2.6302258	1.5562549	1.1762056	1.655	75.25	-0.2468	-0.00223	0.24456999999999998	1091.3537	0.156629	-422.550389	-422.541743	-422.540799	-422.583566	32.803	
C	 0.7613153483	-0.2070400397	-0.8778402148	-0.405252
C	 0.921403789	 0.4264778671	 0.5132522663	-0.091082
C	 1.6559276049	 1.7556865246	 0.4997929233	-0.083295
C	 2.7210772506	 1.7680024599	 1.3045730626	-0.093234
C	 2.8836917463	 0.4328142865	 1.9531225663	-0.077749
O	 3.1133166134	-0.6395292911	 1.0018857077	-0.311332
C	 1.7723784576	-0.4109178202	 1.4804773384	 0.373142
C	 1.1909663979	-1.5732527021	 2.2393853699	-0.157933
O	 0.8828361641	-2.6587641769	 1.3754070056	-0.413209
H	 0.2346169806	-1.1611997505	-0.7997360633	 0.134523
H	 0.1966018226	 0.4508366999	-1.5458536525	 0.108931
H	 1.7445740758	-0.3870746662	-1.3208571737	 0.131649
H	-0.0785995795	 0.5598958998	 0.9514895143	 0.084608
H	 1.3436926717	 2.5726267131	-0.1425235734	 0.101653
H	 3.4025924039	 2.5950686976	 1.4592909293	 0.104578
H	 3.3777416653	 0.3030894012	 2.9118741375	 0.095816
H	 1.8929822527	-1.8784645449	 3.0292733953	 0.093587
H	 0.2476725336	-1.2860543244	 2.7159070494	 0.110329
H	 1.705100261	-2.8957706536	 0.9309187516	 0.294268
70.1842	135.0453	193.3165	237.6013	264.1848	299.7268	347.2338	433.2925	438.8858	503.8891	571.8235	694.8631	702.049	755.7091	804.0607	837.4544	910.6051	925.4829	958.5197	968.2727	986.991	1026.0647	1042.6335	1076.6127	1103.4652	1117.6886	1147.6105	1170.3515	1251.5472	1268.1862	1306.292	1331.3485	1360.4386	1381.0295	1402.7094	1421.7133	1449.588	1490.4118	1493.4331	1510.9083	1662.3889	2996.3741	2999.7869	3042.5553	3076.6547	3114.0925	3130.8788	3156.4005	3183.8377	3218.0834	3798.666
CC1C=CC2OC12CO	C[C@@H]1C=C[C@@H]2O[C@]12CO	
InChI=1S/C7H10O2/c1-5-2-3-6-7(5,4-8)9-6/h2-3,5-6,8H,4H2,1H3	InChI=1S/C7H10O2/c1-5-2-3-6-7(5,4-8)9-6/h2-3,5-6,8H,4H2,1H3/t5-,6+,7-/m1/s1
