19
gdb 3929	2.9951874	1.3937571	1.2201663	2.0582	76.55	-0.24313	0.05849	0.30162	1097.4344	0.156069	-422.431099	-422.423167	-422.422223	-422.462967	31.946	
C	-0.0051756845	 0.1436459137	-0.0092049469	-0.404942
C	 1.499911222	 0.0376115317	 0.0363472256	 0.077681
O	 2.0157272335	-0.8312631165	-1.0671777208	-0.368583
C	 2.8953771344	-1.3901968013	-0.0879555184	 0.368868
C	 4.1270215274	-0.5729600429	 0.4206401418	-0.278048
C	 3.5389966877	-1.2728288323	 1.6475645313	-0.140803
C	 3.4682458502	-2.6132119215	 0.7170533191	 0.087602
O	 2.6988084596	-3.7069463703	 1.0603437262	-0.426872
C	 2.0922661106	-0.9479193021	 1.1160182321	-0.116094
H	-0.3626986895	 0.7717634529	 0.8137077383	 0.123361
H	-0.3260323504	 0.5923447665	-0.9540458909	 0.133898
H	-0.4680301203	-0.8440428009	 0.0732358971	 0.121865
H	 1.9716675661	 1.0212509768	-0.0328349509	 0.095158
H	 5.1126616238	-0.9000222022	 0.0824273465	 0.096234
H	 4.0319510225	 0.5108311591	 0.3898299033	 0.106214
H	 3.9153560537	-1.2486387508	 2.6706616888	 0.086266
H	 4.4476463349	-2.9985048884	 0.4191900543	 0.096335
H	 1.788869295	-3.4227061143	 1.2057160471	 0.288033
H	 1.2983604334	-1.612986707	 1.4692789667	 0.053828
145.602	204.5209	237.9879	281.8211	337.3776	343.0823	414.7532	442.1331	513.556	552.7195	600.532	693.0522	757.5684	773.5922	808.2888	838.2239	890.2633	933.8512	949.2577	985.0964	1020.4354	1044.0504	1067.5133	1089.9383	1102.1244	1119.8284	1151.6632	1174.7411	1180.5167	1189.2568	1214.1986	1233.7246	1265.1221	1289.3561	1340.4264	1389.7279	1406.9878	1445.9359	1477.7879	1495.6274	1522.3093	3036.973	3044.9846	3069.3611	3076.4752	3081.4757	3110.8084	3112.3832	3118.4495	3155.9632	3790.0556
CC1OC23CC(C2O)C13	C[C@@H]1O[C@]23C[C@H]([C@H]2O)[C@@H]13	
InChI=1S/C7H10O2/c1-3-5-4-2-7(5,9-3)6(4)8/h3-6,8H,2H2,1H3	InChI=1S/C7H10O2/c1-3-5-4-2-7(5,9-3)6(4)8/h3-6,8H,2H2,1H3/t3-,4-,5+,6+,7-/m0/s1
