19
gdb 5923	1.6172989	1.1089312	0.6986053	1.1127	78.65	-0.2533	-0.03002	0.22328000000000003	1582.1848	0.152805	-422.531294	-422.520393	-422.519449	-422.56891	37.137	
O	 2.563765906	-4.058666523	 2.8450472642	-0.419839
C	 3.0518347681	-2.7273677156	 2.8439021795	-0.082005
C	 2.6514229385	-2.0980109074	 1.5139137483	-0.194498
C	 3.1246468383	-0.6413096309	 1.3658468291	-0.078512
C	 2.5223198869	 0.0327628152	 0.1012585002	-0.382441
C	 1.0692499704	 0.1239703361	 0.1405468961	 0.300797
C	-0.1290134471	 0.2003489895	 0.1940197299	-0.431168
C	 4.637354831	-0.5981503728	 1.2547854943	 0.15469
O	 5.3782109453	-0.0530532369	 2.0303849411	-0.248457
H	 2.8097621416	-4.4692397205	 3.679037039	 0.288534
H	 2.6234416123	-2.1399671986	 3.6721330626	 0.094125
H	 4.1468006148	-2.7030120315	 2.964984737	 0.097399
H	 3.0585193249	-2.709198444	 0.6974305006	 0.108338
H	 1.561923017	-2.1321710137	 1.4192340522	 0.133025
H	 2.8428612779	-0.057288465	 2.2479015116	 0.105752
H	 2.9450761803	 1.039533817	-0.0057351974	 0.143818
H	 2.8324075562	-0.5291066416	-0.7901764004	 0.136068
H	-1.188026604	 0.2708849924	 0.2282729433	 0.200582
H	 5.0370007115	-1.1375218587	 0.3611670189	 0.073792
39.8487	63.8455	75.3552	88.7231	149.4353	172.6347	261.339	280.6014	334.8106	343.7544	368.7852	393.0431	512.9915	593.3697	624.1402	648.218	785.784	864.5544	914.0356	959.3724	999.0807	1016.0656	1045.9636	1090.8511	1108.915	1144.4929	1203.6496	1225.4765	1258.4469	1282.5348	1316.2742	1325.3024	1358.7521	1367.1905	1425.2118	1465.5619	1473.085	1494.5171	1527.0835	1835.3812	2239.3325	2834.7991	2965.8884	2992.0276	3016.4957	3029.4265	3050.3042	3071.1213	3093.3196	3505.247	3831.0334
OCCC(CC#C)C=O	OCC[C@H](CC#C)C=O	
InChI=1S/C7H10O2/c1-2-3-7(6-9)4-5-8/h1,6-8H,3-5H2	InChI=1S/C7H10O2/c1-2-3-7(6-9)4-5-8/h1,6-8H,3-5H2/t7-/m0/s1
