19
gdb 1954	2.7622999	1.5269882	1.3726186	1.4606	74.59	-0.24236	0.07312	0.31548	1032.0758	0.155867	-422.502844	-422.494593	-422.493649	-422.534941	32.635	
C	-0.0173440316	-0.1280479971	 0.0337115492	-0.478519
C	 1.4815698847	 0.0033935054	 0.0055259678	 0.461667
O	 2.1687148283	-1.2870682774	-0.0523264049	-0.337245
C	 2.8869918308	-0.903640176	-1.2522097325	-0.117073
C	 2.3174898662	 0.5242981209	-1.1869420231	-0.201768
C	 2.9756739663	 1.5505310495	-0.2308061965	 0.387984
O	 3.2202679197	 2.861803924	-0.5977256686	-0.463243
C	 3.6234077237	 0.9117266518	 0.9628154422	-0.368001
C	 2.1193148518	 1.0616378635	 0.9379077494	-0.155729
H	-0.3351608616	-0.6054144139	 0.967703154	 0.129579
H	-0.4921237165	 0.8568196787	-0.0229825803	 0.123652
H	-0.3723660401	-0.7397743246	-0.8005222357	 0.121788
H	 3.9720196016	-1.0214749169	-1.1456134271	 0.096786
H	 2.5466555685	-1.4841490896	-2.1187148592	 0.10055
H	 1.853411555	 0.9647711856	-2.068292451	 0.083601
H	 4.1472510246	 2.9407560011	-0.8487379124	 0.286355
H	 4.0708190917	-0.0756674787	 0.934335763	 0.129373
H	 4.1196807561	 1.625059486	 1.613597394	 0.111968
H	 1.5887249608	 1.6204053776	 1.7001357516	 0.088277
141.584	210.2982	240.0968	249.0093	298.2687	308.5875	339.6816	395.2018	481.7801	516.8791	582.5235	645.9428	737.6894	811.5233	846.1914	873.4277	895.5677	932.0925	946.0128	982.2007	991.8867	1005.0107	1016.4662	1068.9109	1074.4514	1101.6868	1146.6014	1164.8052	1177.0679	1194.4257	1238.471	1274.325	1299.7676	1331.3564	1356.1814	1400.8697	1408.7669	1480.8879	1486.1104	1492.765	1521.5046	3013.5426	3032.0309	3056.7162	3100.155	3114.5254	3127.239	3130.5803	3179.8551	3218.219	3791.7064
CC12OCC1C1(O)CC21	C[C@@]12OC[C@@H]1[C@]1(O)C[C@H]21	
InChI=1S/C7H10O2/c1-6-4-2-7(4,8)5(6)3-9-6/h4-5,8H,2-3H2,1H3	InChI=1S/C7H10O2/c1-6-4-2-7(4,8)5(6)3-9-6/h4-5,8H,2-3H2,1H3/t4-,5+,6+,7+/m1/s1
