19
gdb 5303	3.3533773	1.4380219	1.2667443	2.0152	74.27	-0.2136	0.07786	0.29146	1065.9078	0.157145	-422.512482	-422.504673	-422.503728	-422.544763	30.3	
C	 2.5836647908	 1.5296605171	-0.238063031	-0.375922
C	 1.5985465097	 0.3541077207	-0.2515191718	-0.277979
C	 1.9847026622	-0.7187277114	-1.2316032597	 0.458681
O	 3.2617604744	-1.2818300908	-0.9931903936	-0.3103
C	 3.2766007023	-2.5976878739	-1.5579682819	-0.082055
C	 2.0809099236	-2.6024681582	-2.4962202211	 0.05195
O	 2.3189956947	-1.5467448279	-3.4818335333	-0.304205
C	 1.5341351322	-0.658592796	-2.6874372604	 0.024835
C	 1.022372795	-1.7431619386	-1.7666923091	-0.260737
H	 2.2856226758	 2.2784252538	 0.5017063394	 0.108934
H	 3.5901004581	 1.1826704232	 0.0090516696	 0.139651
H	 2.6289131737	 2.0176713605	-1.2168771719	 0.117383
H	 1.5350890977	-0.0908414604	 0.7493053776	 0.106806
H	 0.5908390798	 0.7071714252	-0.5026658274	 0.100278
H	 4.2189094006	-2.7413287877	-2.094901011	 0.119435
H	 3.1838580111	-3.3621421248	-0.7703859833	 0.091704
H	 1.8092801843	-3.5527303737	-2.9568545267	 0.089866
H	 1.0513368425	 0.1795549766	-3.1785190182	 0.103336
H	 0.0456947215	-2.0230187036	-1.3949618762	 0.098338
88.7147	151.3936	194.6412	251.8371	325.2167	369.3444	408.0762	545.8908	611.2059	703.4655	739.8634	779.0031	820.0867	835.9107	861.4621	894.9323	911.9501	938.8594	974.6559	1001.7237	1032.2213	1040.6616	1051.5065	1073.9063	1108.2402	1117.4867	1166.3821	1192.8491	1214.2504	1229.4	1281.6536	1295.9088	1314.1777	1360.7333	1376.9265	1409.203	1428.7066	1475.6438	1495.2445	1500.7607	1509.4424	2982.7578	3025.4448	3042.5492	3061.2126	3086.511	3109.8784	3115.3082	3126.3429	3169.3182	3197.6581
CCC12OCC3OC1C23	CC[C@]12OC[C@@H]3O[C@H]1[C@H]23	
InChI=1S/C7H10O2/c1-2-7-5-4(3-8-7)9-6(5)7/h4-6H,2-3H2,1H3	InChI=1S/C7H10O2/c1-2-7-5-4(3-8-7)9-6(5)7/h4-6H,2-3H2,1H3/t4-,5+,6-,7+/m0/s1
