19
gdb 471	3.7172725	1.1300233	0.9929105	1.8251	74.16	-0.25929	0.08541	0.3447	1217.8599	0.157928	-422.52808	-422.520211	-422.519267	-422.56103	29.802	
C	-1.367418632	-2.2883160243	-2.1851626762	-0.186738
O	-0.5091550188	-1.966449195	-3.281357536	-0.240439
C	-0.1235223854	-1.5363233886	-1.9744068938	 0.091677
C	-0.1092664979	-0.0423186863	-1.7341370604	-0.059487
C	 1.1652255349	 0.6414071107	-2.3058276555	-0.239326
C	 2.201630852	 0.6485895152	-1.1530494501	-0.243341
C	 1.3477635915	 0.6566945051	 0.0988672845	 0.058163
O	 0.283770676	 1.6192389734	 0.0550863351	-0.267397
C	-0.0233644339	 0.2528117221	-0.2432621866	 0.042258
H	-2.3205614678	-1.7605907383	-2.1698554874	 0.115316
H	-1.418223778	-3.3443269033	-1.9236161313	 0.115856
H	 0.7308266267	-2.0836566653	-1.5693021666	 0.091322
H	-1.015273615	 0.3812989985	-2.1804408455	 0.085072
H	 1.5291298245	 0.1330480826	-3.20157544	 0.115222
H	 0.9237693415	 1.6684021731	-2.5842279669	 0.119524
H	 2.8208308337	-0.2570357464	-1.1551326245	 0.104727
H	 2.8794934237	 1.5056921494	-1.2081326068	 0.111831
H	 1.7826106834	 0.4896579334	 1.0812081256	 0.092887
H	-0.6895780691	-0.2416817059	 0.4601833423	 0.092871
67.2924	108.6983	165.6737	267.3072	321.2729	365.1466	434.0454	473.6157	678.5429	724.4609	790.3626	828.8672	857.034	862.2686	869.2157	904.9997	935.0381	976.5706	992.0272	1015.8624	1037.6126	1049.5847	1094.3796	1129.2474	1141.4213	1158.2744	1174.8197	1199.7263	1211.7136	1250.2637	1278.3976	1288.6153	1293.8271	1317.689	1332.2645	1360.159	1434.4462	1450.7068	1482.377	1495.0022	1529.7013	3036.0008	3053.1775	3078.5637	3080.4135	3084.9747	3087.3126	3125.8854	3135.9131	3151.005	3167.6383
C1OC1C1CCC2OC12	C1O[C@H]1[C@@H]1CC[C@H]2O[C@@H]12	
InChI=1S/C7H10O2/c1-2-5-7(9-5)4(1)6-3-8-6/h4-7H,1-3H2	InChI=1S/C7H10O2/c1-2-5-7(9-5)4(1)6-3-8-6/h4-7H,1-3H2/t4-,5+,6+,7-/m0/s1
