19
gdb 2744	3.0189664	1.3575691	1.1191754	0.4243	76.52	-0.22335	0.0747	0.29805	1147.1466	0.155284	-422.501277	-422.492643	-422.491698	-422.534439	33.318	
O	 0.4168052746	 0.3319620979	 0.7374768744	-0.4236
C	-0.8568584468	 0.9143456573	 0.6856988129	-0.090112
C	-1.6492801308	 0.8411739895	-0.6226704983	 0.414227
C	-1.1498686552	 0.4241071282	-1.968400836	-0.340276
C	-1.7848560629	 1.794133546	-1.7548250089	-0.343482
O	-2.7759467256	 0.2223514166	 0.0099507639	-0.325258
C	-2.0496978957	 0.131208705	 1.2415292534	 0.414227
C	-2.7139607045	 0.1467801219	 2.5707394395	-0.343482
C	-2.0170166524	-1.1133943172	 2.0687173659	-0.340275
H	 0.3415837851	-0.5610672572	 0.3812017485	 0.285753
H	-0.7483800097	 1.922709985	 1.0930271044	 0.105387
H	-0.0760968645	 0.3697550099	-2.1185314918	 0.121266
H	-1.7314712971	-0.3157613506	-2.5074672658	 0.12526
H	-1.147875592	 2.6726932754	-1.7726990488	 0.119809
H	-2.7822090981	 1.9452870014	-2.1537649411	 0.127111
H	-2.2534380016	 0.7124725463	 3.3743821544	 0.119809
H	-3.7986900457	 0.1430106565	 2.5785891785	 0.127111
H	-1.0731003869	-1.3979866465	 2.5231493758	 0.121266
H	-2.6463560902	-1.9379057853	 1.7519016891	 0.12526
58.5612	195.0012	195.8532	218.049	240.1051	312.8014	384.9537	404.0014	455.5493	501.9267	582.9181	706.8017	761.45	768.1732	809.5159	869.1801	869.2508	906.4925	910.1004	963.1574	981.6794	987.489	1021.0523	1043.3887	1045.6911	1069.238	1069.2885	1141.7085	1185.2999	1188.8112	1189.1425	1221.9223	1277.5294	1291.7977	1340.5103	1397.4987	1444.3649	1446.3358	1448.5249	1487.2381	1512.2726	3083.4135	3127.2307	3127.3961	3129.1721	3129.227	3211.7284	3211.9403	3225.7592	3225.8354	3795.3096
OC1C2(CC2)OC11CC1	OC1C2(CC2)OC21CC2	
InChI=1S/C7H10O2/c8-5-6(1-2-6)9-7(5)3-4-7/h5,8H,1-4H2	InChI=1S/C7H10O2/c8-5-6(1-2-6)9-7(5)3-4-7/h5,8H,1-4H2
