19
gdb 3746	2.9847602	1.3347898	1.2315225	2.283	75.08	-0.25219	0.07692	0.32911	1097.4753	0.157451	-422.535597	-422.52757	-422.526626	-422.567922	31.425	
O	 0.6289368174	-0.2146233496	 0.6335476809	-0.421163
C	-0.7258682515	 0.1313485928	 0.6938902077	 0.047753
C	-1.4197965945	 0.1924367426	 2.0316022727	-0.390907
C	-1.6932991208	-0.9529554658	 1.0792141438	 0.334368
C	-3.041597694	-1.1282339996	 0.3745194785	-0.307011
C	-2.9504794532	-2.5041689236	-0.3360010519	-0.244285
C	-1.9367858428	-3.2758950913	 0.48879896	 0.048811
O	-2.1703446896	-3.210939105	 1.9030592199	-0.274744
C	-1.1788858758	-2.3393705906	 1.3274437094	-0.018487
H	 1.1389974707	 0.5158905488	 0.9987096367	 0.289559
H	-1.0522585169	 0.8310635497	-0.0771911048	 0.08496
H	-0.8163973607	-0.0253627491	 2.9072119545	 0.117127
H	-2.196291779	 0.9353500446	 2.1848653045	 0.111685
H	-3.8393714755	-1.1516394091	 1.1217989188	 0.119596
H	-3.2624601753	-0.3115507258	-0.3185247511	 0.096492
H	-3.9198758378	-3.0075392566	-0.3992207003	 0.107707
H	-2.5637237116	-2.4010720373	-1.3570694175	 0.105526
H	-1.5201865525	-4.2127447683	 0.1269564413	 0.090799
H	-0.1545602366	-2.504333797	 1.6425007369	 0.102214
105.5779	160.2529	207.2869	273.0631	298.1225	350.8026	423.3098	445.0215	504.9639	566.6497	683.0167	776.0374	808.6632	829.6562	852.6673	866.2143	907.3737	913.2846	955.7543	987.67	1005.8514	1035.5016	1042.2915	1082.0185	1090.3815	1117.7796	1163.96	1193.0978	1210.3447	1248.1274	1267.0942	1281.0193	1299.6039	1319.4194	1334.3625	1378.0853	1415.3305	1439.1435	1479.6906	1488.9688	1492.4079	3038.8498	3058.2235	3084.1982	3085.7036	3103.3671	3122.4884	3144.0909	3183.3389	3211.8936	3805.1351
OC1CC11CCC2OC12	O[C@@H]1C[C@]21CC[C@@H]1O[C@H]21	
InChI=1S/C7H10O2/c8-5-3-7(5)2-1-4-6(7)9-4/h4-6,8H,1-3H2	InChI=1S/C7H10O2/c8-5-3-7(5)2-1-4-6(7)9-4/h4-6,8H,1-3H2/t4-,5+,6-,7-/m0/s1
