19
gdb 2223	2.4978959	1.9852694	1.7595465	0.7548	72.68	-0.23909	0.07976	0.31884999999999997	892.6378	0.160036	-422.572735	-422.566027	-422.565083	-422.603178	28.685	
O	 0.5875814628	 0.5806443768	 0.750178472	-0.509073
C	-0.7289556032	 0.8761637303	 1.0887301162	 0.43837
C	-1.3020578162	 2.1479487536	 0.479424293	-0.272368
C	-2.6928238181	 2.0033169061	 1.139448801	-0.040902
C	-2.3025826815	 1.9010612023	 2.6383913008	-0.226396
C	-1.1877545274	 0.8409138462	 2.5887736379	 0.02121
O	-1.767718894	-0.4766033641	 2.4056328402	-0.308917
C	-1.8411545955	-0.2250616853	 0.9783693467	 0.021206
C	-3.1073801519	 0.5880923545	 0.6548344936	-0.226396
H	 0.83362694	-0.2393976435	 1.1930501236	 0.286814
H	-0.7590698454	 3.0444684566	 0.7932120027	 0.101469
H	-1.3299291346	 2.1131494989	-0.6137629356	 0.101469
H	-3.413775602	 2.7895471346	 0.9115369351	 0.064498
H	-1.9160633843	 2.8604973919	 3.0005389372	 0.096885
H	-3.1193751845	 1.5863770255	 3.2933900641	 0.10536
H	-0.4552620633	 0.8658901511	 3.3995989982	 0.072264
H	-1.6780209114	-1.1289484004	 0.3859298097	 0.072263
H	-3.3051471748	 0.5943064269	-0.4230875854	 0.096885
H	-3.9825480648	 0.1781741181	 1.1659580591	 0.105359
263.4282	273.8274	355.2397	368.5952	424.0295	454.8106	457.4583	576.3639	615.1909	647.8916	774.5462	835.1086	851.4175	878.1158	897.0099	903.5198	919.2265	950.7456	972.0542	984.6773	1009.6413	1065.9711	1073.057	1089.6401	1110.6407	1139.984	1159.0231	1185.1214	1214.9204	1243.4568	1270.3885	1285.4491	1303.6836	1307.9634	1343.1441	1352.8467	1364.3181	1408.5293	1469.2477	1475.521	1505.1026	3041.1074	3041.6087	3055.152	3079.0672	3082.7111	3098.4957	3101.0772	3103.4508	3105.7638	3799.2145
OC12CC3CC1OC2C3	O[C@]12C[C@@H]3C[C@H]1O[C@H]2C3	
InChI=1S/C7H10O2/c8-7-3-4-1-5(7)9-6(7)2-4/h4-6,8H,1-3H2	InChI=1S/C7H10O2/c8-7-3-4-1-5(7)9-6(7)2-4/h4-6,8H,1-3H2/t4-,5-,6+,7-
