19
gdb 877	1.670284	1.6348076	0.8879107	4.4616	77.22	-0.25578	-0.03433	0.22145	1298.7401	0.156112	-422.591518	-422.582326	-422.581382	-422.627462	32.067	
O	 1.0035824582	-1.0035398573	 3.8050418346	-0.244794
C	 0.8424009756	 0.060876513	 3.2692868755	 0.155324
C	-0.39408889	 0.4733726462	 2.5034392419	-0.082586
C	-1.1120007189	 1.6792161012	 3.1480379657	-0.229904
C	-2.0189942067	 2.1969404145	 2.0221957629	-0.208888
C	-1.1941759992	 2.0047923957	 0.7270793764	-0.246679
C	-0.0674908069	 0.977320552	 1.0678478554	-0.073637
C	-0.0152343894	-0.1588059812	 0.0703391723	 0.154745
O	 0.9509461758	-0.4766947452	-0.5707428891	-0.244553
H	 1.623948746	 0.8570290579	 3.3187388262	 0.075608
H	-1.0708513382	-0.3881497481	 2.4664699851	 0.096421
H	-1.6549063021	 1.4034223994	 4.0557601934	 0.117648
H	-0.3708607865	 2.440786867	 3.4241995835	 0.107769
H	-2.9315023904	 1.5926490216	 1.9818004338	 0.110405
H	-2.3276716248	 3.2347837289	 2.1723424221	 0.108773
H	-1.8227258908	 1.6473253963	-0.0955306727	 0.112069
H	-0.743632976	 2.9411866174	 0.3892258891	 0.121265
H	 0.9137474643	 1.4627756239	 1.0603879253	 0.095696
H	-0.98502459	-0.7023424934	-0.0385234513	 0.075317
29.8918	50.2306	79.3723	152.4592	247.4476	265.3036	333.0553	407.6123	421.6618	455.9827	586.478	672.5119	795.5021	851.1491	892.147	909.6116	956.9763	976.7942	1003.1667	1017.2173	1059.238	1085.6476	1091.2178	1107.2749	1191.3424	1201.3201	1242.4982	1253.628	1296.9055	1308.8119	1321.9464	1343.4703	1344.9635	1360.8492	1424.4954	1427.724	1488.2975	1491.3726	1509.0447	1832.4012	1840.3056	2841.4283	2844.6981	3025.6772	3043.9505	3047.3113	3054.3195	3059.021	3088.3779	3099.5572	3108.7291	29.8939	50.2316	79.3737	152.4594	247.4477	265.3037	333.0553	407.6123	421.6617	455.9826	586.478	672.5116	795.5021	851.1491	892.1469	909.6116	956.9763	976.794	1003.1666	1017.2171	1059.238	1085.6477	1091.2175	1107.2746	1191.3419	1201.32	1242.4979	1253.6277	1296.9053	1308.8115	1321.9462	1343.4702	1344.9632	1360.8489	1424.4944	1427.7233	1488.2972	1491.3728	1509.0446	1832.4008	1840.3052	2841.4278	2844.6982	3025.6772	3043.9506	3047.3113	3054.3195	3059.021	3088.3779	3099.5572	3108.7291
O=CC1CCCC1C=O	O=C[C@H]1CCC[C@@H]1C=O	
InChI=1S/C7H10O2/c8-4-6-2-1-3-7(6)5-9/h4-7H,1-3H2	InChI=1S/C7H10O2/c8-4-6-2-1-3-7(6)5-9/h4-7H,1-3H2/t6-,7-/m1/s1
