19
gdb 572	3.7350707	1.4092537	1.2180031	1.9606	74.13	-0.23012	0.0877	0.31782	1053.6136	0.15988	-422.546109	-422.538934	-422.53799	-422.577464	28.403	
C	-1.354408906	 1.7002602928	-0.2548460723	-0.084593
C	-1.2362255204	 0.2411249491	 0.2428773963	-0.348324
C	 0.2596157597	 0.0253401305	 0.2385226464	 0.30002
C	 1.0151320681	-1.1013360255	 0.9021623559	-0.17866
O	 2.3611002802	-0.9602358328	 0.4568430756	-0.25831
C	 2.3525456109	-0.414266635	-0.8629219471	-0.098128
C	 1.1114669573	 0.4562645452	-0.9546142093	-0.181088
C	 0.8793096627	 1.3939350135	 0.2034226564	 0.08545
O	-0.1308293298	 2.360847604	 0.0806481219	-0.271259
H	-1.5051336019	 1.7200426737	-1.3431891806	 0.101044
H	-2.1740078089	 2.2560339965	 0.2085929338	 0.112477
H	-1.6219312313	 0.1381051252	 1.2639619427	 0.110954
H	-1.794112212	-0.4488750218	-0.3978476378	 0.107241
H	 1.0282769637	-1.0501283895	 1.9967033828	 0.109011
H	 0.5941659843	-2.0776748702	 0.6075081867	 0.089143
H	 3.2960519047	 0.1277045383	-0.9883321576	 0.111167
H	 2.3086082435	-1.2109050539	-1.6232802796	 0.093084
H	 0.6897929843	 0.6720978126	-1.9300515992	 0.092082
H	 1.6926836808	 1.7153429973	 0.8456474349	 0.108689
179.3133	197.6789	220.5417	278.5676	338.5059	367.0303	462.6529	639.2291	689.3679	711.7759	768.8346	871.1693	886.1031	898.9411	927.7709	955.0252	971.3333	990.534	1011.0461	1055.9713	1061.7045	1090.5445	1109.4099	1128.6459	1141.6125	1202.4778	1215.8121	1229.4358	1241.7141	1248.7092	1268.281	1283.9778	1333.092	1361.2585	1370.6091	1403.3006	1441.195	1496.0305	1511.3583	1523.9098	1526.1601	2958.6992	2973.2681	3003.7747	3035.7128	3058.34	3064.435	3079.6966	3091.3899	3168.5448	3174.5712
C1CC23COCC2C3O1	C1C[C@@]23COC[C@@H]2[C@H]3O1	
InChI=1S/C7H10O2/c1-2-9-6-5-3-8-4-7(1,5)6/h5-6H,1-4H2	InChI=1S/C7H10O2/c1-2-9-6-5-3-8-4-7(1,5)6/h5-6H,1-4H2/t5-,6-,7-/m1/s1
