19
gdb 4166	3.4030222	1.3482131	1.2947319	0.2644	74.9	-0.25554	0.08044	0.33598	1072.2904	0.15743	-422.515678	-422.507931	-422.506987	-422.547616	30.432	
C	 2.723479352	-2.047857162	-3.2824533065	-0.418399
C	 2.0190049358	-2.102738448	-1.9300755834	 0.039584
C	 2.4616972365	-0.982052377	-0.9214944165	-0.245746
C	 3.0044763525	-1.8955033134	 0.1944231103	-0.029193
O	 3.7550843888	-2.9034153391	-0.5592684844	-0.300465
C	 2.4424897788	-3.3144854739	-1.0639653974	-0.049292
C	 1.9014320591	-2.9498901683	 0.3192003932	 0.505283
C	 1.4058827795	-3.7392790118	 1.4307590674	-0.295561
O	 0.5692861729	-2.7850886424	 0.7278051314	-0.284355
H	 2.4018213964	-2.8680574253	-3.9337903118	 0.110314
H	 2.5076681141	-1.1073889091	-3.7999570962	 0.114699
H	 3.8070682678	-2.1211850422	-3.1492259884	 0.130857
H	 0.9325241361	-2.1010299221	-2.06467037	 0.086008
H	 3.2470745901	-0.3417289279	-1.3304482424	 0.106378
H	 1.6324203763	-0.356870146	-0.5810538549	 0.112993
H	 3.5459896831	-1.4674749123	 1.0370729576	 0.085889
H	 2.4179548725	-4.3161801485	-1.4927763094	 0.082848
H	 1.1364254211	-4.7835205814	 1.282815825	 0.124167
H	 1.6587881766	-3.4632526993	 2.4529319663	 0.12399
126.2169	172.5639	241.3138	243.6363	288.5523	370.0142	430.0459	469.9195	600.7641	626.1418	711.1035	826.1011	837.9457	853.5159	871.0668	894.7082	924.2331	932.6429	948.2517	1000.0218	1041.87	1053.9276	1063.9161	1106.0116	1111.6755	1160.2122	1167.1553	1192.5907	1213.1299	1218.0925	1237.2949	1275.0741	1295.5523	1318.9989	1368.4491	1406.2711	1470.8153	1483.9777	1496.1064	1506.3111	1561.9686	3031.2319	3056.0626	3066.8632	3089.7413	3095.5921	3112.3175	3118.8859	3127.2113	3134.4536	3177.3429
CC1CC2OC1C21CO1	C[C@@H]1C[C@@H]2O[C@H]1[C@]12CO1	
InChI=1S/C7H10O2/c1-4-2-5-7(3-8-7)6(4)9-5/h4-6H,2-3H2,1H3	InChI=1S/C7H10O2/c1-4-2-5-7(3-8-7)6(4)9-5/h4-6H,2-3H2,1H3/t4-,5+,6-,7-/m1/s1
