19
gdb 768	2.2167279	1.8881572	1.2127453	3.0296	75.19	-0.23876	-0.0188	0.21996	1053.3318	0.158556	-422.557638	-422.549702	-422.548758	-422.590435	30.439	
O	 1.0975255658	-3.8566580596	 0.5451876082	-0.310481
C	 1.2802191939	-2.6747747187	 0.3671956692	 0.377891
C	 2.0085968083	-2.149818788	-0.8653789096	-0.33336
C	 3.3984115621	-1.5648047184	-0.5527937747	-0.071378
O	 3.4568293863	-0.7739483239	 0.6207075384	-0.242707
C	 2.4699406643	 0.2362821032	 0.7311993734	-0.117745
C	 1.2375763555	-0.246828028	 1.4825181163	-0.036672
C	 1.4251890701	-1.2491662166	 2.5901785624	-0.276963
C	 0.7042463756	-1.6494438836	 1.3184551376	-0.115413
H	 2.1216708149	-2.9712289686	-1.5779143559	 0.12347
H	 1.3776803066	-1.3804913396	-1.326651087	 0.1172
H	 4.1093633254	-2.3782159427	-0.3812360813	 0.12604
H	 3.7494343709	-0.9880069858	-1.4226842406	 0.097742
H	 2.9305529997	 1.0574985909	 1.2931073575	 0.114036
H	 2.1999527448	 0.6341930214	-0.2589830908	 0.094602
H	 0.4971861849	 0.5343810971	 1.6366640548	 0.086277
H	 2.4295306766	-1.6312723487	 2.7304769135	 0.137821
H	 0.8348892071	-1.1612164554	 3.4947671335	 0.116093
H	-0.3687926229	-1.783417975	 1.427222975	 0.113545
47.5155	173.5162	219.0074	255.061	310.4311	357.153	440.8414	472.2354	542.0872	624.5329	660.3568	771.2969	779.6297	827.5165	843.6887	902.7896	933.6296	965.45	1001.6849	1024.5699	1056.1077	1083.0315	1103.4063	1117.5484	1123.8721	1153.5954	1184.414	1226.8557	1248.4988	1259.8688	1314.7718	1350.0435	1363.4387	1379.6189	1402.5666	1422.5319	1470.6431	1486.1628	1500.7096	1509.8049	1803.7511	2982.198	2987.4857	3037.8526	3051.8815	3084.8334	3108.4601	3136.3959	3142.3307	3149.2634	3234.5045
O=C1CCOCC2CC12	O=C1CCOC[C@@H]2C[C@H]12	
InChI=1S/C7H10O2/c8-7-1-2-9-4-5-3-6(5)7/h5-6H,1-4H2	InChI=1S/C7H10O2/c8-7-1-2-9-4-5-3-6(5)7/h5-6H,1-4H2/t5-,6-/m0/s1
