19
gdb 2435	2.6334874	2.0012963	1.4982175	1.5955	73.54	-0.21958	0.07494	0.29452	934.8124	0.158884	-422.54163	-422.534457	-422.533512	-422.572716	29.036	
C	 0.0058885013	-0.2899447022	-0.2209170877	-0.513894
C	 1.4939923438	-0.0819888885	-0.0855504684	 0.273543
C	 2.3285443479	-1.1536584107	 0.6108406174	-0.131438
O	 3.6557939746	-0.5997982975	 0.5051869508	-0.283603
C	 3.4101220705	 0.6172266982	-0.179343942	 0.098196
C	 2.1371464767	 1.2570645975	 0.4602946021	-0.138485
C	 1.7221760221	 2.2972800351	-0.5695235077	-0.109441
O	 1.9094009924	 1.550081747	-1.7947246833	-0.282409
C	 2.3952613084	 0.305656092	-1.3125161983	 0.054722
H	-0.4917443568	-0.2766728018	 0.7553176866	 0.11946
H	-0.4428968256	 0.488223702	-0.8447152008	 0.13625
H	-0.2124493535	-1.2555305352	-0.6910434538	 0.121455
H	 2.0622485972	-1.2970388837	 1.6662438951	 0.100559
H	 2.2834947924	-2.1268077541	 0.1047396963	 0.101038
H	 4.335598933	 1.1669595976	-0.3441906692	 0.086957
H	 2.1031273112	 1.5204639407	 1.5177538749	 0.074
H	 0.6775266055	 2.6191253715	-0.4825264948	 0.104503
H	 2.3628037956	 3.1876996449	-0.571390966	 0.105093
H	 2.6079633335	-0.373515163	-2.1376052613	 0.083492
187.6369	229.721	254.0307	297.0718	366.3449	378.275	415.1028	609.0215	638.2742	676.5988	703.4314	763.4605	909.7408	928.7633	936.0674	954.5401	962.3786	970.361	1003.2005	1014.8801	1018.3646	1064.2576	1082.2851	1103.575	1154.7297	1170.8245	1191.4183	1204.9186	1226.7721	1238.5036	1257.934	1264.1026	1293.1436	1329.6373	1370.7376	1402.9263	1414.6534	1490.4566	1496.8458	1526.2825	1530.4398	3007.5461	3019.6635	3029.927	3043.4222	3054.9557	3088.8321	3110.6728	3118.1808	3129.042	3141.3409
CC12COC3C1COC23	C[C@]12CO[C@@H]3[C@H]1CO[C@H]23	
InChI=1S/C7H10O2/c1-7-3-9-5-4(7)2-8-6(5)7/h4-6H,2-3H2,1H3	InChI=1S/C7H10O2/c1-7-3-9-5-4(7)2-8-6(5)7/h4-6H,2-3H2,1H3/t4-,5-,6+,7+/m1/s1
