19
gdb 1771	2.0955578	1.917933	1.2990115	2.9084	76.54	-0.23589	0.08504	0.32093	1061.7716	0.153896	-422.478364	-422.469422	-422.468478	-422.511354	33.835	
C	 4.6739424645	-0.8855142907	 0.1005844633	-0.51852
C	 3.2966758008	-0.3071798254	 0.1033739604	 0.286845
C	 2.5562167106	 0.5633644164	 1.1556585463	-0.299707
C	 1.5071393344	 0.1122704399	 0.1023876814	 0.286847
C	 0.0163332193	 0.2061825028	 0.0980090411	-0.518521
O	 2.1334747403	-1.2426073426	 0.1402903496	-0.381058
C	 2.5361413789	 0.4726892917	-0.9817813359	 0.491807
C	 2.7906776137	 1.5564773889	-1.9187341978	-0.31255
O	 2.4742225145	 0.2053401348	-2.348427697	-0.287795
H	 4.8293646462	-1.5144936722	 0.9818548976	 0.136144
H	 4.8248424493	-1.4944528079	-0.7955865632	 0.145124
H	 5.4223251385	-0.086745432	 0.1089017478	 0.125987
H	 2.4419849404	 0.0782833516	 2.1258705102	 0.106518
H	 2.8052912729	 1.6261838343	 1.2274975296	 0.092202
H	-0.4033257673	-0.2880400145	 0.9789398564	 0.136145
H	-0.2991653409	 1.2543131453	 0.1057782358	 0.125987
H	-0.3884967296	-0.2724623816	-0.7984904478	 0.145124
H	 2.0196451895	 2.2966380693	-2.1270762064	 0.119711
H	 3.8105179141	 1.876881182	-2.1261038613	 0.119711
160.5142	168.9797	175.7365	194.4514	212.7047	238.3571	246.4601	401.5089	475.5739	484.7372	590.1827	602.4092	670.1182	693.2691	736.971	751.6107	858.5228	889.166	939.9589	990.7128	1006.9738	1050.1695	1052.7426	1075.6375	1111.2935	1149.1351	1156.0898	1163.4477	1166.6343	1204.4724	1295.8777	1359.8456	1408.8388	1415.8622	1450.421	1475.7968	1477.7502	1486.8838	1487.681	1501.0882	1567.3865	3041.3652	3041.3965	3055.098	3085.2237	3114.2011	3114.2796	3119.7011	3119.8198	3144.7144	3171.6173
CC12CC(C)(O1)C21CO1	C[C@]12C[C@](C)(O1)[C@]12CO1	
InChI=1S/C7H10O2/c1-5-3-6(2,9-5)7(5)4-8-7/h3-4H2,1-2H3	InChI=1S/C7H10O2/c1-5-3-6(2,9-5)7(5)4-8-7/h3-4H2,1-2H3/t5-,6+,7-
