19
gdb 3920	2.9680602	1.6001995	1.3503891	2.9946	76.37	-0.22521	0.04979	0.275	1004.4038	0.154792	-422.415338	-422.407017	-422.406073	-422.447397	33.114	
C	-0.5363212632	 2.9527400907	-0.1519639943	-0.454337
C	-1.5206853876	 1.9520614121	 0.4268710146	 0.267972
C	-0.8967155217	 0.5093219873	 0.6410230827	 0.037372
O	 0.2176169019	 0.2667278265	-0.1734378239	-0.425841
C	-0.6214180022	 0.9362655397	 2.1798808289	-0.387559
C	-1.7837493609	 1.8934606784	 1.9178035683	 0.368148
C	-3.2368839801	 1.3637335964	 1.6948155195	-0.26098
C	-2.9612296919	 2.5109257045	 0.7363704827	-0.033193
O	-2.3536371774	 3.2757644984	 1.921638915	-0.384992
H	 0.4897071177	 2.7676959878	 0.1764659785	 0.122038
H	-0.5337134061	 2.8835801501	-1.2450769653	 0.117939
H	-0.8195621317	 3.965596583	 0.1391514123	 0.131497
H	-1.608252619	-0.3201103375	 0.5900520484	 0.086662
H	 0.5488590972	-0.6161366646	 0.0196386516	 0.28841
H	-0.7229259387	 0.1857137636	 2.968518445	 0.103677
H	 0.3521600387	 1.4273918276	 2.2393767447	 0.131762
H	-3.3906153132	 0.3630606657	 1.287700278	 0.096372
H	-3.9259173825	 1.5998354826	 2.5051993373	 0.107883
H	-3.6453019393	 3.1103884576	 0.1285848361	 0.087169
157.7522	181.1374	224.9264	266.6218	294.4567	313.6918	359.8288	430.4295	478.1889	506.4518	600.1585	626.6399	671.4544	722.643	782.5373	813.8607	843.215	892.5134	956.8582	963.2006	983.9843	1022.4407	1063.7623	1085.8101	1121.3461	1130.5489	1166.2282	1177.3792	1193.2342	1197.1416	1205.6771	1218.1663	1264.2569	1277.1903	1325.6106	1399.9023	1429.3095	1472.093	1491.356	1493.3071	1498.7501	3043.6716	3047.7504	3060.154	3067.7222	3082.662	3102.4721	3132.8324	3139.2057	3154.4235	3817.6019
CC12C(O)CC11CC2O1	C[C@@]12[C@@H](O)C[C@@]31C[C@H]2O3	
InChI=1S/C7H10O2/c1-6-4(8)2-7(6)3-5(6)9-7/h4-5,8H,2-3H2,1H3	InChI=1S/C7H10O2/c1-6-4(8)2-7(6)3-5(6)9-7/h4-5,8H,2-3H2,1H3/t4-,5+,6-,7-/m0/s1
