19
gdb 5486	3.0199178	1.5068295	1.3911706	2.122	74.39	-0.22248	0.08169	0.30417	1023.9571	0.158067	-422.512858	-422.505138	-422.504193	-422.545321	29.497	
C	 1.2998196413	-0.125383861	-0.1809794607	-0.238756
O	-0.091005379	-0.115153084	 0.0446131874	-0.243882
C	-0.460086458	 0.5194677833	 1.2395775723	 0.173387
C	-0.1249545621	-0.1012499251	 2.5982508156	-0.169396
C	-1.1164515916	-1.1992730347	 2.9343540147	 0.126401
O	-1.7728624151	-1.8946167328	 1.904698923	-0.269511
C	-2.5322371626	-0.9303487089	 1.1623455234	-0.067713
C	-1.9727449275	 0.4293296401	 1.5853709062	-0.15487
C	-1.5646226569	 0.2082862018	 3.0678870348	-0.128741
H	 1.8378534745	-0.6843120713	 0.5986022417	 0.111936
H	 1.4704228908	-0.6136028724	-1.1432597012	 0.127708
H	 1.7126386935	 0.8955475109	-0.2226462482	 0.099735
H	-0.1291639617	 1.5699918338	 1.2289177378	 0.067364
H	 0.7995341471	 0.023573501	 3.1513628506	 0.081436
H	-0.9100526415	-1.8154386425	 3.8014902573	 0.1038
H	-2.3884097854	-1.1241693728	 0.0967083212	 0.123457
H	-3.6001214294	-1.0188455677	 1.4111781001	 0.08735
H	-2.5935687376	 1.2822839146	 1.3160612652	 0.077386
H	-1.9279856588	 0.7153764676	 3.9505056988	 0.092909
71.5302	149.1334	186.3894	212.8853	306.3449	381.2483	508.5653	573.5886	646.0929	721.525	778.5967	801.6285	825.4106	861.6649	895.1245	927.0496	973.9113	986.0267	1019.3272	1030.2937	1045.5375	1060.24	1070.6325	1084.8225	1132.3428	1162.2198	1183.2466	1186.6591	1225.3835	1227.4111	1245.0674	1262.9199	1298.796	1331.6799	1370.2384	1378.0291	1420.1457	1481.5351	1486.8432	1506.0212	1510.6752	2969.4627	2977.9484	2994.9249	3024.6023	3102.0289	3116.1759	3129.2699	3167.1713	3189.3258	3213.7317
COC1C2C3OCC1C23	CO[C@@H]1[C@@H]2[C@@H]3OC[C@H]1[C@H]23	
InChI=1S/C7H10O2/c1-8-6-3-2-9-7-4(3)5(6)7/h3-7H,2H2,1H3	InChI=1S/C7H10O2/c1-8-6-3-2-9-7-4(3)5(6)7/h3-7H,2H2,1H3/t3-,4+,5+,6-,7+/m0/s1
