19
gdb 3946	3.6133765	1.3117604	1.2096951	1.3848	74.51	-0.24037	0.06865	0.30902	1087.26	0.157732	-422.526976	-422.51917	-422.518225	-422.558881	31.062	
O	 0.190409455	 0.3776524566	-0.0278438313	-0.429663
C	-0.5957511839	 1.0149958275	 0.9650777386	 0.127355
C	-1.9061694972	 1.5394257707	 0.2993996136	-0.33056
C	-2.9089051612	 1.4371186149	 1.4125282433	 0.321468
C	-4.3507553244	 0.9353136116	 1.6150914413	-0.298596
C	-3.8050505072	 0.0031933407	 2.7649674796	-0.298143
C	-2.4009216322	 0.5706640601	 2.4822274677	 0.326586
C	-1.0347923196	 0.0552242205	 2.1298969375	-0.360411
O	-2.4659014081	 1.9938431287	 2.6600358667	-0.310816
H	 1.075660911	 0.2484293285	 0.3256891559	 0.284467
H	-0.0525454427	 1.8649722086	 1.3948623558	 0.088186
H	-1.7732641925	 2.5402577685	-0.1207550949	 0.111102
H	-2.1772575296	 0.8629541889	-0.5191967581	 0.117424
H	-5.0806964735	 1.6987270975	 1.8930514425	 0.110549
H	-4.7298890655	 0.3636857396	 0.7648166307	 0.109344
H	-4.1882015197	 0.1742148611	 3.7733989745	 0.110215
H	-3.8979560743	-1.056611933	 2.5165515293	 0.108594
H	-0.3135858908	 0.0512856667	 2.9539477318	 0.101369
H	-1.1066837536	-0.9644736878	 1.7342752954	 0.11153
108.508	207.4526	261.5137	283.5661	303.1126	366.3802	423.162	478.3674	500.6041	583.6042	678.5951	741.983	758.8576	790.3938	831.1397	877.0501	902.019	925.8847	950.5638	1002.4982	1012.5704	1040.7527	1070.9173	1133.5357	1159.7758	1175.9164	1196.0378	1221.5842	1224.406	1237.1975	1254.7681	1276.3422	1314.4677	1331.6861	1359.0504	1422.9743	1426.6212	1463.5479	1479.9209	1486.8404	1494.2166	3026.7776	3038.8531	3049.5017	3064.2734	3071.1932	3085.1326	3096.9266	3115.0981	3131.896	3824.0799
OC1CC23CCC2(C1)O3	O[C@H]1C[C@@]23CC[C@]2(C1)O3	
InChI=1S/C7H10O2/c8-5-3-6-1-2-7(6,4-5)9-6/h5,8H,1-4H2	InChI=1S/C7H10O2/c8-5-3-6-1-2-7(6,4-5)9-6/h5,8H,1-4H2/t5-,6-,7+
