19
gdb 4484	2.664657	1.8118502	1.5262779	1.6593	72.9	-0.23008	0.07765	0.30773	943.5377	0.159644	-422.526527	-422.519219	-422.518274	-422.557957	29.483	
O	 0.0549928236	-2.5268747544	-2.2027632048	-0.44268
C	 0.4817528805	-1.1709622201	-2.251615564	 0.109808
C	-0.4902235489	-0.2530188511	-1.5040053212	-0.107569
O	-0.4346472296	-0.4339987298	-0.0916541475	-0.274995
C	 0.8422947351	-0.5880702844	 0.4700910792	 0.123262
C	 2.1233134477	 0.1416675427	 0.1479287442	-0.106455
C	 2.3508303513	 0.42684782	-1.3383659473	-0.265019
C	 1.8973072416	-1.0287160607	-1.6797984938	-0.04794
C	 1.9328826272	-1.3698435672	-0.1696211401	-0.138835
H	-0.1088111903	-2.7341019974	-1.2753092832	 0.289683
H	 0.4692695235	-0.8932689534	-3.3119611058	 0.085341
H	-0.3037924987	 0.7985725443	-1.7618813787	 0.09794
H	-1.5153515385	-0.4961869522	-1.7964521711	 0.113451
H	 0.7146963051	-0.7534619632	 1.5356587163	 0.105305
H	 2.6992150129	 0.5914623146	 0.9496325688	 0.086328
H	 1.8203202882	 1.266771255	-1.7962754323	 0.097418
H	 3.4180197979	 0.5465755378	-1.5428058638	 0.10593
H	 2.6094477115	-1.5895838785	-2.2853334841	 0.081284
H	 2.4063624199	-2.2392365518	 0.2707981489	 0.087742
140.9419	145.1553	286.7482	324.2056	388.822	430.8797	451.4359	545.8614	603.3191	717.0886	743.5365	775.8896	806.7538	835.2152	878.8708	931.959	949.45	969.068	984.9765	1010.7184	1037.6676	1056.5471	1061.2149	1083.011	1111.4341	1132.2135	1166.3307	1204.8381	1219.9542	1254.47	1263.28	1283.8864	1293.4439	1329.6061	1351.6099	1363.1874	1392.8421	1427.4	1445.3092	1493.7152	1515.1964	3005.5281	3047.8034	3053.9775	3090.4719	3095.1962	3107.9825	3159.2216	3166.305	3181.9864	3797.2884
OC1COC2C3CC1C23	O[C@H]1CO[C@@H]2[C@@H]3C[C@H]1[C@H]23	
InChI=1S/C7H10O2/c8-5-2-9-7-4-1-3(5)6(4)7/h3-8H,1-2H2	InChI=1S/C7H10O2/c8-5-2-9-7-4-1-3(5)6(4)7/h3-8H,1-2H2/t3-,4-,5+,6+,7-/m1/s1
