19
gdb 2888	3.3614359	1.5129214	1.296292	2.3785	73.49	-0.24111	0.06677	0.30788	1026.4666	0.158749	-422.525088	-422.517858	-422.516914	-422.556287	29.636	
C	-0.1721922621	-0.0329873549	-0.0010491255	-0.416946
C	 1.3480595747	-0.0132744546	-0.1274129746	-0.003352
C	 2.0877616318	-0.3516790623	 1.1853183665	-0.071023
C	 2.0350473613	 1.1304610502	 1.620621307	 0.097559
O	 3.3970787539	 1.1179319798	 2.0968984777	-0.314592
C	 3.5886512394	 0.0992355536	 1.0602279687	 0.004576
C	 3.5212746553	 1.0037954187	-0.1977782028	 0.183644
O	 4.4432869745	 2.0577537931	-0.1561340761	-0.45826
C	 2.0341488713	 1.3734904449	 0.040458604	-0.143022
H	-0.5182205839	 0.508309839	 0.8859289711	 0.117603
H	-0.6415252381	 0.4299629889	-0.8752538672	 0.120085
H	-0.5452562005	-1.0603922806	 0.0727858594	 0.117404
H	 1.6533988449	-0.5713073366	-1.0200526888	 0.068928
H	 1.8465916971	-1.189627379	 1.8384652214	 0.077821
H	 1.3209219948	 1.6167255846	 2.280785939	 0.092296
H	 4.452647811	-0.5406309194	 1.2318124172	 0.085971
H	 3.6704478802	 0.4711590335	-1.1402344122	 0.084659
H	 4.4499841176	 2.347703506	 0.7678328928	 0.284219
H	 1.6565290069	 2.2796993851	-0.4296751077	 0.072432
204.136	215.7288	234.9452	255.51	364.9212	464.3814	490.2891	551.401	609.8559	702.1454	763.9411	820.2557	841.8813	849.2584	853.137	900.3589	913.5322	930.0142	944.6778	997.7262	1020.979	1040.7452	1074.5023	1090.2883	1103.0385	1132.7238	1170.5572	1182.1118	1193.1554	1215.858	1235.3684	1269.9037	1274.8642	1280.5703	1309.7835	1340.5312	1384.6088	1414.6675	1451.7451	1494.7507	1500.083	3029.8571	3032.466	3086.1354	3095.3009	3100.4538	3122.3696	3136.2491	3140.2982	3152.5626	3730.4803
CC1C2C3OC2C(O)C13	C[C@@H]1[C@@H]2[C@H]3O[C@@H]2[C@H](O)[C@@H]13	
InChI=1S/C7H10O2/c1-2-3-5(8)7-4(2)6(3)9-7/h2-8H,1H3	InChI=1S/C7H10O2/c1-2-3-5(8)7-4(2)6(3)9-7/h2-8H,1H3/t2-,3+,4+,5+,6-,7-/m0/s1
