19
gdb 1927	3.8082833	1.0802339	0.9507612	3.3864	76.27	-0.24446	-0.02217	0.22229000000000002	1266.7539	0.156041	-422.572954	-422.564221	-422.563276	-422.60663	32.245	
C	 1.6804607586	 1.8167078528	-4.3494456451	-0.485086
C	 1.3588235555	 1.3187308948	-2.9680256297	 0.419575
C	-0.0777126072	 1.2535968057	-2.4744086016	-0.279732
C	 0.0410330044	 0.9274984793	-0.9683204606	-0.2507
C	 1.415128064	 1.5048768966	-0.5182126363	-0.089731
C	 2.0335963778	 0.6925407712	 0.5979038759	 0.151914
O	 2.3148207146	 1.1188064911	 1.6886342496	-0.252087
C	 2.2407473272	 1.461486095	-1.7991885654	-0.04569
O	 2.1465743367	 0.2077064849	-2.4928978458	-0.297052
H	 1.230228407	 1.1671289381	-5.1079429299	 0.131122
H	 1.288018366	 2.8280064799	-4.49936015	 0.124525
H	 2.7606284903	 1.8307856683	-4.5132218862	 0.133261
H	-0.550706515	 2.2301780694	-2.633925727	 0.107181
H	-0.6714818847	 0.5097915336	-3.0152330159	 0.112024
H	-0.7805758981	 1.3360995899	-0.3769123983	 0.114767
H	 0.0406915832	-0.1566341577	-0.8260865592	 0.12252
H	 1.3287853565	 2.541506384	-0.1753497871	 0.092674
H	 2.2150438023	-0.3725466647	 0.3272724473	 0.089477
H	 3.210906981	 1.9508364177	-1.8441202448	 0.101038
69.1201	96.0634	181.1382	197.7584	240.6396	336.3448	350.2553	382.6431	431.0881	498.8994	579.9926	692.3627	701.4291	843.9037	850.237	892.8879	915.7067	937.0758	990.1438	1006.6692	1020.4754	1030.162	1078.7007	1110.3936	1138.8691	1188.124	1218.3767	1240.609	1274.3677	1297.0008	1304.5127	1338.2351	1353.7918	1410.0344	1421.6707	1448.7575	1478.2936	1486.3149	1493.5279	1499.3347	1829.6357	2878.5371	3034.5308	3039.4511	3061.3425	3066.9544	3084.5018	3098.8594	3119.602	3125.3251	3144.104
CC12CCC(C=O)C1O2	C[C@]12CC[C@@H](C=O)[C@H]1O2	
InChI=1S/C7H10O2/c1-7-3-2-5(4-8)6(7)9-7/h4-6H,2-3H2,1H3	InChI=1S/C7H10O2/c1-7-3-2-5(4-8)6(7)9-7/h4-6H,2-3H2,1H3/t5-,6+,7-/m0/s1
