19
gdb 2048	2.8442556	1.4589396	1.266517	1.9143	74.66	-0.24191	0.06767	0.30957999999999997	1062.4117	0.156572	-422.500385	-422.492102	-422.491158	-422.533261	31.64	
O	-1.7617424038	 1.3820251525	 2.0312849019	-0.456505
C	-1.3063709151	 2.0317813267	 0.8981941016	 0.344256
C	-1.3825241919	 3.5241624163	 0.7262985542	-0.349032
C	-2.1370850398	 2.622509813	-0.2280017512	-0.10053
C	-1.1599899529	 2.0464072369	-1.2608152207	-0.320951
C	-0.324062559	 1.4159634568	-0.1064754867	 0.231224
C	 1.2033086369	 1.520020292	 0.0635821768	-0.142238
O	 1.3244679515	 0.0955072257	 0.2500474044	-0.277712
C	-0.0756678138	-0.102691239	-0.0419243927	-0.139217
H	-1.1885018169	 1.6138932086	 2.7705454178	 0.290131
H	-2.0050257771	 4.0185977024	 1.4654221088	 0.115724
H	-0.5295102216	 4.1079171498	 0.3847495203	 0.104812
H	-3.2130809561	 2.679597904	-0.3302682918	 0.097299
H	-1.6036506634	 1.2822723269	-1.9048709257	 0.10856
H	-0.6412704946	 2.7790888364	-1.8889434594	 0.098073
H	 1.7466134234	 1.8652255206	-0.8272440797	 0.096025
H	 1.557903323	 2.0859492263	 0.935678838	 0.092437
H	-0.2257516802	-0.6349573091	-0.9913430666	 0.092551
H	-0.5960523286	-0.6331153269	 0.7632431808	 0.115093
75.1638	121.5642	198.8842	259.7805	270.0009	343.7399	414.0483	417.3858	482.1567	532.6443	644.6387	767.1841	834.7564	853.9846	867.2103	893.2096	927.5161	955.7606	987.7327	990.6784	1020.5911	1026.5609	1035.4172	1080.0926	1117.9761	1150.533	1158.6983	1178.1221	1197.555	1214.8503	1234.3554	1245.7473	1303.7739	1306.3662	1326.762	1380.3705	1398.3637	1476.8037	1500.8046	1504.6159	1530.8401	2990.7985	3005.7686	3034.2185	3038.4739	3067.0363	3094.7072	3098.4357	3194.2288	3202.8313	3791.8813
OC12CC1CC21COC1	O[C@]12C[C@H]1CC12COC1	
InChI=1S/C7H10O2/c8-7-2-5(7)1-6(7)3-9-4-6/h5,8H,1-4H2	InChI=1S/C7H10O2/c8-7-2-5(7)1-6(7)3-9-4-6/h5,8H,1-4H2/t5-,7-/m1/s1
