19
gdb 4215	2.2774102	1.836167	1.3236338	3.1273	75.96	-0.24288	0.01466	0.25754	1025.0725	0.158992	-422.546536	-422.538663	-422.537719	-422.578787	30.824	
O	 0.3276682276	 2.4133920196	-1.9352066519	-0.439449
C	-0.1086697574	 1.1285466663	-2.3714240033	 0.079722
C	 0.8609360138	 0.026355169	-1.9153230907	-0.277432
C	 0.9879361783	-0.1585153643	-0.4187690762	 0.045276
O	 0.4994750368	 0.895625504	 0.4395699325	-0.26569
C	-0.1398779586	-0.3882454478	 0.4907237862	 0.072642
C	-1.5942787971	-0.5211271099	 0.1017628485	-0.305162
C	-2.1581941904	 0.2751464657	-1.0451597681	-0.050392
C	-1.5710798815	 0.9291793449	-2.0462212584	-0.075442
H	 0.258724817	 2.3898442583	-0.9708885712	 0.292356
H	-0.0294607993	 1.1709324492	-3.4645452229	 0.084774
H	 0.5801501212	-0.9313556322	-2.3725352312	 0.107456
H	 1.8458721645	 0.2914937386	-2.3148262546	 0.115397
H	 1.953093078	-0.5506278872	-0.094113305	 0.094646
H	 0.0887737886	-0.9299608531	 1.4113453513	 0.092804
H	-1.7853293224	-1.5928468764	-0.0684501969	 0.122815
H	-2.1923900415	-0.278350308	 0.9915618656	 0.122393
H	-3.2465202818	 0.3118071022	-1.0182199246	 0.091869
H	-2.2302663057	 1.4633387511	-2.727862239	 0.091417
77.3307	179.5883	255.7078	274.3453	319.7619	356.7964	423.5945	510.7478	524.6011	559.8771	696.3413	718.1504	752.7014	811.2584	826.5998	875.3435	890.0948	903.5632	941.8006	1001.4002	1021.5301	1057.361	1071.2973	1096.0673	1147.7063	1152.7316	1240.4417	1257.1317	1270.8063	1289.0746	1321.433	1364.4785	1386.2654	1402.5254	1421.8208	1435.7278	1456.6908	1462.685	1472.6571	1507.7231	1742.8971	2989.806	3019.1814	3023.0591	3035.9082	3070.4162	3080.4464	3098.5415	3123.4214	3151.155	3752.6755
OC1CC2OC2CC=C1	O[C@H]1C[C@H]2O[C@H]2CC=C1	
InChI=1S/C7H10O2/c8-5-2-1-3-6-7(4-5)9-6/h1-2,5-8H,3-4H2	InChI=1S/C7H10O2/c8-5-2-1-3-6-7(4-5)9-6/h1-2,5-8H,3-4H2/t5-,6+,7-/m1/s1
