19
gdb 1168	3.7277258	0.9971243	0.9304939	1.8095	77.15	-0.24481	0.01856	0.26337	1333.811	0.156184	-422.608653	-422.59949	-422.598545	-422.644316	32.365	
C	-0.449366136	-1.820472685	-2.2076396059	-0.477056
C	 0.0119991797	-0.6778804545	-3.0816663911	 0.427506
O	 0.2092999686	-0.7424224923	-4.2696726872	-0.358328
O	 0.1798805633	 0.4417538159	-2.3472285821	-0.254903
C	 0.641042919	 1.6169806886	-3.0573715928	 0.128787
C	-0.5501336889	 2.3497405133	-3.7214787203	-0.264475
C	-0.8685007813	 3.458609615	-2.7485039885	-0.059451
C	 0.0696938319	 3.5885360261	-1.8127606522	-0.056959
C	 1.187122531	 2.5888236543	-1.9894204061	-0.279895
H	-1.4010130188	-1.5665283207	-1.7319358923	 0.148856
H	-0.5647382222	-2.7178657138	-2.8141828846	 0.146483
H	 0.2749236525	-1.9986783901	-1.4079208126	 0.147859
H	 1.3862531754	 1.2936246817	-3.7838476128	 0.10284
H	-0.263801468	 2.7472379533	-4.7041809447	 0.114758
H	-1.3847833876	 1.6649433092	-3.9000155781	 0.118415
H	-1.7533416919	 4.0783032243	-2.8403512389	 0.093661
H	 0.0728330948	 4.3309259003	-1.0229036961	 0.093327
H	 2.1083450735	 3.0762726034	-2.3353012621	 0.110558
H	 1.4416502651	 2.046377531	-1.0730166014	 0.118017
41.4887	54.4139	67.4687	115.7597	204.8722	317.5493	360.1956	417.6056	452.7785	609.4396	627.505	695.7832	751.8613	791.9439	848.1472	888.819	905.4997	949.9733	977.0882	978.8945	993.0697	1022.3593	1058.8705	1064.1413	1068.4588	1130.5121	1172.6998	1216.437	1248.5319	1273.735	1309.23	1330.3235	1376.9349	1387.2852	1402.9633	1468.4986	1469.7662	1476.0408	1477.2778	1687.8972	1817.2107	3021.7059	3025.856	3056.8482	3073.7775	3079.7534	3117.1145	3121.601	3168.4601	3186.4896	3211.7159
CC(=O)OC1CC=CC1	CC(=O)O[C@H]1CC=CC1	
InChI=1S/C7H10O2/c1-6(8)9-7-4-2-3-5-7/h2-3,7H,4-5H2,1H3	InChI=1S/C7H10O2/c1-6(8)9-7-4-2-3-5-7/h2-3,7H,4-5H2,1H3
