19
gdb 1517	3.3401887	1.067724	0.9871893	4.0063	76.9	-0.23907	-0.0179	0.22117	1261.4827	0.153659	-422.550707	-422.541398	-422.540454	-422.584827	35.099	
C	-3.8274427138	 1.0784143503	-1.4116260845	-0.448304
C	-3.2859049384	-0.1128699873	-0.6549783202	 0.341683
O	-3.4527489654	-1.3416423428	-1.3154888363	-0.460128
C	-3.3082067241	-0.1316845525	 0.8605635506	-0.421727
C	-2.0029513466	-0.0257922868	 0.1105552374	 0.309966
C	-0.8874210168	-1.0852507987	 0.0722793852	-0.411242
C	 0.1231197297	 0.0758121885	 0.0853827955	 0.405383
O	 1.3172255982	 0.1369960316	 0.0795572893	-0.288319
C	-0.9953588803	 1.1394765109	 0.1258605171	-0.432482
H	-3.6336188401	 2.0134418285	-0.8788897473	 0.121955
H	-3.3728155887	 1.1433627355	-2.4056603821	 0.127935
H	-4.913028429	 0.9922112745	-1.5432356929	 0.111772
H	-4.3935915763	-1.5498845344	-1.3271395797	 0.283259
H	-3.6758751852	 0.7455060325	 1.3852305777	 0.110635
H	-3.5286994317	-1.0797771192	 1.3411252092	 0.114607
H	-0.8117612674	-1.7446891652	 0.9431403599	 0.128451
H	-0.8598211879	-1.7012221829	-0.8314973599	 0.146748
H	-0.982102643	 1.7530619803	 1.0329641675	 0.129629
H	-1.0073000333	 1.8050026173	-0.7436248365	 0.130181
41.2755	155.7323	169.3019	211.4425	249.9161	284.8076	371.6546	383.9122	417.0628	441.5735	444.7058	505.7392	567.1851	674.9722	695.1351	721.0738	863.8433	890.6556	904.8849	917.7933	982.3161	1014.8803	1035.2252	1059.8404	1078.8987	1088.3791	1160.3943	1179.5403	1195.5773	1205.0561	1226.9345	1276.1944	1310.7227	1407.3327	1420.8121	1427.2619	1445.9705	1479.7985	1486.3875	1510.421	1898.0039	3025.8728	3044.6806	3053.6615	3087.9962	3095.3534	3104.6087	3114.2153	3117.4634	3206.9048	3794.3125
CC1(O)CC11CC(=O)C1	C[C@]1(O)CC21CC(=O)C2	
InChI=1S/C7H10O2/c1-6(9)4-7(6)2-5(8)3-7/h9H,2-4H2,1H3	InChI=1S/C7H10O2/c1-6(9)4-7(6)2-5(8)3-7/h9H,2-4H2,1H3/t6-/m0/s1
