19
gdb 2814	4.2815404	1.1443941	1.0462954	0.4963	74.57	-0.23871	0.07161	0.31032	1170.6246	0.158296	-422.526113	-422.518321	-422.517377	-422.55828	30.128	
O	 0.4434115247	 0.4546866939	 0.7255889496	-0.443624
C	-0.8780540017	 0.7905016157	 0.4105854621	 0.128064
C	-1.945230943	-0.2547179637	 0.5585951847	-0.102036
C	-1.869893151	 0.9492302011	 1.5260787148	-0.102026
C	-3.2018985014	 1.480006647	 0.9990167186	-0.061543
C	-4.403592251	 1.2522482839	 1.9235229021	-0.095779
O	-4.7030546446	-0.1345322446	 1.8595816117	-0.243823
C	-4.5141216492	-0.5140538971	 0.5041507469	-0.095778
C	-3.2790516649	 0.2471036398	 0.0082716287	-0.061544
H	 0.4383538755	-0.1485894422	 1.4764594063	 0.283979
H	-0.879502154	 1.4723279764	-0.4377747795	 0.098533
H	-1.6865864129	-1.2950462632	 0.72966904	 0.08318
H	-1.5439747856	 0.9838612247	 2.5609806933	 0.083183
H	-3.187399105	 2.4894013901	 0.5769839943	 0.071522
H	-4.2101827337	 1.5048555274	 2.9702372492	 0.106956
H	-5.2605724093	 1.8521615038	 1.5739652017	 0.086129
H	-4.4046056354	-1.6021240496	 0.4735174313	 0.106955
H	-5.3912369299	-0.2358892873	-0.1039567198	 0.086129
H	-3.3154745876	 0.4428047535	-1.0676342159	 0.071523
147.3015	150.9321	172.8609	257.165	267.9344	386.6659	386.9888	455.6961	595.2584	714.0044	794.1236	850.8304	865.4936	876.3988	899.3488	918.5486	928.6342	955.7605	990.0852	1025.8195	1039.2916	1082.579	1086.3203	1114.4831	1120.1459	1129.6381	1146.5864	1190.7393	1208.0333	1229.7241	1255.642	1269.3488	1291.0346	1317.7698	1342.2365	1347.9329	1355.6149	1407.0276	1450.2945	1501.3751	1515.2308	2960.7711	2967.4931	3055.9764	3067.4274	3082.3084	3085.3096	3124.785	3153.1389	3164.5192	3810.7165
OC1C2C1C1COCC21	O[C@H]1[C@H]2[C@@H]1[C@@H]1COC[C@H]21	
InChI=1S/C7H10O2/c8-7-5-3-1-9-2-4(3)6(5)7/h3-8H,1-2H2	InChI=1S/C7H10O2/c8-7-5-3-1-9-2-4(3)6(5)7/h3-8H,1-2H2/t3-,4+,5+,6-,7-
