19
gdb 3638	3.1339263	1.0267666	0.8511372	1.8744	77.01	-0.24574	-0.03074	0.215	1356.2535	0.155626	-422.604824	-422.595634	-422.59469	-422.639709	32.96	
C	-0.1874220317	 2.2124023826	-0.9435300717	-0.396458
C	-1.0017383881	 1.3503828188	 0.0365826977	-0.093105
C	-2.290318308	 0.7584556537	-0.5654123009	-0.253849
C	-1.8985688211	-0.6610703974	-1.0716735974	-0.075301
C	-0.8885897628	-1.1466437231	-0.0165939633	-0.347203
C	-0.1739476846	 0.1233681719	 0.4570907355	 0.402834
O	 0.8773664016	 0.1596567897	 1.0400852643	-0.314491
C	-3.1019265701	-1.5653891729	-1.1819881066	 0.157813
O	-3.5115348931	-2.0657505888	-2.1956961877	-0.245558
H	 0.7687086335	 2.4898176695	-0.4925543124	 0.143375
H	 0.0213721791	 1.6738879865	-1.8742783632	 0.122794
H	-0.734109251	 3.1248336962	-1.1985219644	 0.122392
H	-1.2062487614	 1.9458356555	 0.9323291903	 0.104649
H	-3.0620337847	 0.6638094385	 0.2088462548	 0.106595
H	-2.7095047172	 1.370397958	-1.3675963758	 0.119669
H	-1.4315410618	-0.6012989433	-2.0588371234	 0.102742
H	-1.4148443081	-1.5693407036	 0.8528307058	 0.132596
H	-0.1806266704	-1.9012274544	-0.3640658851	 0.141908
H	-3.61494131	-1.7395023373	-0.2035650166	 0.068599
51.3093	78.7101	87.7132	216.5978	238.7727	286.161	307.9926	360.0017	418.8574	484.1915	543.3877	634.7251	649.368	755.3134	843.0653	871.9404	897.8675	951.5006	973.8574	1014.8454	1025.0012	1066.3895	1095.401	1122.2024	1162.8993	1186.8677	1231.1168	1250.8803	1264.7071	1304.8077	1322.5117	1333.6941	1351.2793	1403.3226	1426.1596	1447.1637	1490.5234	1497.8002	1499.0796	1837.8216	1846.3175	2827.2994	3009.4414	3030.3904	3037.2404	3058.4496	3075.233	3102.0754	3106.404	3119.4589	3125.8833
CC1CC(CC1=O)C=O	C[C@H]1C[C@@H](CC1=O)C=O	
InChI=1S/C7H10O2/c1-5-2-6(4-8)3-7(5)9/h4-6H,2-3H2,1H3	InChI=1S/C7H10O2/c1-5-2-6(4-8)3-7(5)9/h4-6H,2-3H2,1H3/t5-,6-/m0/s1
