19
gdb 1817	2.9120712	1.5306471	1.2089364	2.5148	74.7	-0.24063	-0.01747	0.22316000000000003	1067.9604	0.156947	-422.584769	-422.576763	-422.575819	-422.617152	31.367	
C	-3.2108713112	-2.2515149978	 0.4415627784	-0.466818
C	-2.3661140697	-1.0249884963	 0.1893939572	 0.392224
C	-2.7814918945	-0.0091799886	-0.9035461214	-0.301275
C	-2.3533283509	 1.0117653222	 0.1677375142	 0.085952
C	-0.8566367963	 1.3082827435	 0.1039842029	-0.311677
C	-0.0727303994	 0.0072929076	-0.1130964437	 0.380436
O	 1.0831607813	 0.0021516358	-0.4586752723	-0.30933
C	-0.8562456008	-1.2913496634	 0.1248825979	-0.337743
O	-2.5622210721	 0.0140388067	 1.2042662784	-0.328421
H	-2.9047271633	-2.7458973685	 1.3695160832	 0.128348
H	-4.2654164927	-1.9768851716	 0.5297869418	 0.124871
H	-3.1020170141	-2.9688660478	-0.3786314725	 0.122183
H	-2.2499173679	-0.0211004188	-1.8586480817	 0.106016
H	-3.8598988977	-0.0087238242	-1.0702581268	 0.111089
H	-2.9650125339	 1.9036569576	 0.3233199274	 0.082739
H	-0.5919593217	 2.0123632858	-0.6919858853	 0.124686
H	-0.5297745818	 1.7500328365	 1.0529996005	 0.13839
H	-0.5841151803	-2.0050382944	-0.6600545641	 0.123328
H	-0.5248206428	-1.7164786443	 1.0804268359	 0.135
69.7832	197.5887	231.1051	263.263	372.9547	377.9496	400.5572	467.746	484.1935	497.374	636.2556	668.1806	765.7133	799.7232	850.7631	864.1989	908.4767	920.7125	940.1332	971.7964	1020.0977	1040.1978	1062.0472	1103.4675	1170.3498	1176.568	1209.5549	1223.6665	1240.9737	1266.7487	1305.79	1319.9734	1342.7473	1369.3928	1410.3086	1436.2958	1439.2743	1480.6151	1490.6768	1496.1311	1823.233	3034.8148	3038.7423	3042.517	3064.4297	3081.7649	3087.0695	3090.7071	3106.4559	3118.9123	3130.5146
CC12CC(CC(=O)C1)O2	C[C@]12C[C@H](CC(=O)C1)O2	
InChI=1S/C7H10O2/c1-7-3-5(8)2-6(4-7)9-7/h6H,2-4H2,1H3	InChI=1S/C7H10O2/c1-7-3-5(8)2-6(4-7)9-7/h6H,2-4H2,1H3/t6-,7+/m0/s1
