19
gdb 1099	3.3106458	1.1422223	0.8796324	1.9466	79.79	-0.24349	-0.04778	0.19571	1313.5032	0.156746	-422.58025	-422.571406	-422.570462	-422.614205	32.378	
C	-2.2623900629	-2.1298938444	-1.1696899427	-0.493496
C	-1.1615307504	-1.4465414561	-0.3759494651	 0.322853
O	-0.5339224366	-2.0558975367	 0.4669010106	-0.308707
C	-0.8796752681	-0.0045348684	-0.673955895	 0.140937
C	 0.0901235264	 0.6206977621	 0.0060186303	-0.101856
C	 0.4058456449	 2.0722236476	-0.1899847979	-0.264137
C	-0.7250614886	 2.7561605441	-0.9614031504	-0.084349
O	-1.1045187482	 1.9804065891	-2.0849048565	-0.244456
C	-1.6782978275	 0.7399854759	-1.7235439195	-0.177072
H	-2.4082708538	-3.1389108698	-0.7837183622	 0.14254
H	-3.2025865619	-1.5703955887	-1.1095157695	 0.136426
H	-1.9914926738	-2.185370599	-2.2305363622	 0.143244
H	 0.6584718302	 0.0458657997	 0.731931113	 0.122771
H	 0.558916256	 2.5628827543	 0.779743073	 0.114017
H	 1.3551983859	 2.1733809645	-0.7345321421	 0.127475
H	-1.589391218	 2.9138998502	-0.2952540629	 0.092649
H	-0.4165011931	 3.7299130562	-1.3505361809	 0.1117
H	-2.7178771645	 0.8872754933	-1.3757545042	 0.099847
H	-1.7368210559	 0.162318606	-2.6523484758	 0.119614
55.1129	113.0079	158.1701	206.663	227.1879	306.8906	353.1492	402.0192	436.6356	501.1345	562.4899	596.4409	631.3874	791.4958	883.146	894.983	925.6079	958.9632	981.8542	1021.1727	1044.8566	1051.4455	1074.9662	1102.5692	1138.8878	1225.1122	1251.1289	1270.6828	1317.8986	1335.3898	1365.1893	1382.4522	1395.1792	1421.8157	1458.8885	1462.2282	1477.7006	1487.8211	1502.1573	1684.8138	1781.5199	2929.2405	2971.4665	3013.4974	3034.269	3049.8698	3062.7554	3094.0889	3094.2759	3154.9862	3178.1683
CC(=O)C1=CCCOC1	CC(=O)C1=CCCOC1	
InChI=1S/C7H10O2/c1-6(8)7-3-2-4-9-5-7/h3H,2,4-5H2,1H3	InChI=1S/C7H10O2/c1-6(8)7-3-2-4-9-5-7/h3H,2,4-5H2,1H3
