19
gdb 3333	2.6621344	1.8831933	1.5678226	2.4072	74.06	-0.24042	0.05933	0.29975	930.1551	0.159726	-422.498556	-422.491721	-422.490777	-422.529181	28.895	
O	 0.6501946638	 0.2494860617	 0.8894283003	-0.456673
C	-0.7355265278	 0.3434943177	 0.7494895495	 0.156059
C	-1.6012824081	 0.5282312795	 2.0215087559	-0.13326
C	-3.0074704438	 0.656572364	 1.3371386281	-0.220208
C	-2.9502104346	-0.4894316084	 0.2269678267	-0.336737
C	-1.5866965861	-1.0077973843	 0.6373951863	 0.249278
C	-0.6956863198	-2.239118097	 0.7445438193	-0.213293
O	-0.4000045278	-1.8597385741	 2.1386821063	-0.335395
C	-1.5991245086	-1.0077186082	 2.1734999115	 0.112657
H	 0.8148977906	-0.4085580789	 1.581262862	 0.291637
H	-0.9143838435	 1.0574912677	-0.0595387362	 0.076709
H	-1.3736409351	 1.2527538928	 2.8056658355	 0.066658
H	-3.8264853265	 0.4898054319	 2.0417564467	 0.108548
H	-3.1344287034	 1.6508003479	 0.9021033485	 0.111926
H	-3.7547414135	-1.2183239996	 0.3537971172	 0.105924
H	-3.0046383289	-0.0876531222	-0.7883255516	 0.105974
H	-1.209926483	-3.2068539548	 0.7111019026	 0.111678
H	 0.213747169	-2.2627670426	 0.1379748928	 0.122861
H	-2.3805343427	-1.4829333333	 2.7753235885	 0.075656
261.1974	276.555	297.7008	321.5282	389.9934	421.2436	516.0024	599.6921	635.3882	676.832	741.2314	812.025	828.1383	847.5998	886.0276	903.8416	911.2359	928.7643	977.3754	984.6967	1008.6548	1063.4856	1072.3447	1112.6107	1155.5737	1168.1786	1181.2504	1194.5035	1216.6714	1238.2898	1258.5181	1277.1889	1286.9058	1302.9283	1307.5298	1333.6118	1382.2932	1470.4421	1488.8628	1501.9232	1513.7445	3030.4144	3052.0779	3055.2985	3064.4676	3069.859	3096.7186	3099.2352	3101.0981	3116.6902	3711.9436
OC1C2CCC11COC21	O[C@@H]1[C@H]2CC[C@]31CO[C@@H]23	
InChI=1S/C7H10O2/c8-5-4-1-2-7(5)3-9-6(4)7/h4-6,8H,1-3H2	InChI=1S/C7H10O2/c8-5-4-1-2-7(5)3-9-6(4)7/h4-6,8H,1-3H2/t4-,5-,6+,7-/m1/s1
