19
gdb 3307	2.3823551	1.6373471	1.161575	2.6323	76.55	-0.23996	-0.01985	0.22011	1108.6705	0.156655	-422.583778	-422.575056	-422.574112	-422.616761	33.117	
C	-2.1050066961	-2.739681374	-1.6824065423	-0.415184
C	-1.7071394024	-1.3434391574	-1.2569451002	-0.085968
C	-2.3638847417	-0.7102470512	-0.0588687167	-0.126751
C	-2.3455418221	 0.8189552926	 0.0046103497	-0.233569
C	-0.8644681257	 1.2294637004	-0.1929695034	-0.344381
C	-0.0700077274	-0.0119110842	 0.203837476	 0.347478
O	 1.0426904519	-0.0620137139	 0.6810164778	-0.355611
C	-0.9305741417	-1.2144938607	 0.0511361948	 0.34419
O	-0.5216733813	-2.3428974499	 0.7359352212	-0.480681
H	-2.3312398507	-3.3673014483	-0.8174023194	 0.137824
H	-2.9881118142	-2.7083469344	-2.3293222484	 0.117439
H	-1.2957928382	-3.225067344	-2.2369500755	 0.125581
H	-1.4266567882	-0.6839353818	-2.076390848	 0.083521
H	-3.165000239	-1.2548188864	 0.429214056	 0.100752
H	-3.0062146204	 1.2694484661	-0.743489482	 0.106857
H	-2.6929424366	 1.1505250745	 0.9885168791	 0.115186
H	-0.6392170464	 1.4809630682	-1.2362449496	 0.134469
H	-0.5575310799	 2.0838155964	 0.4127631363	 0.133729
H	 0.3740813802	-2.1317597519	 1.0430346045	 0.295121
101.2652	166.7421	177.3696	220.5149	253.9565	296.3509	339.6607	366.5913	457.1825	504.7549	549.2982	629.5079	670.0901	692.5607	792.2784	834.4088	876.5314	923.4855	963.3921	1001.4244	1025.7208	1039.6289	1063.0979	1086.5175	1134.4769	1140.5617	1180.4993	1201.7425	1237.0343	1266.6065	1306.1444	1331.0288	1365.4511	1390.7886	1420.357	1459.9402	1461.7213	1490.0745	1498.8216	1504.8385	1809.1226	3038.8742	3042.587	3046.9654	3082.5136	3100.0376	3110.3285	3120.7461	3131.1208	3174.4331	3703.3051
CC1C2CCC(=O)C12O	C[C@H]1[C@@H]2CCC(=O)[C@]12O	
InChI=1S/C7H10O2/c1-4-5-2-3-6(8)7(4,5)9/h4-5,9H,2-3H2,1H3	InChI=1S/C7H10O2/c1-4-5-2-3-6(8)7(4,5)9/h4-5,9H,2-3H2,1H3/t4-,5-,7-/m0/s1
