19
gdb 1513	3.2155213	1.2875315	1.2548139	0.5696	76.11	-0.24521	0.07793	0.32314	1115.0686	0.154318	-422.472313	-422.463655	-422.462711	-422.505198	32.976	
C	-0.0529293385	-0.441509955	-0.0919543206	-0.451302
C	 1.4116398812	-0.121172516	 0.0967638891	 0.210195
C	 2.0278498127	-0.565633583	 1.402870104	-0.451272
O	 2.246288524	-0.39198487	-1.0873900971	-0.343808
C	 2.0366273128	 0.9310242934	-0.6859516394	 0.506209
C	 1.5825668196	 2.1502442835	-1.5115754657	-0.058869
C	 3.0496804714	 2.329296081	-1.980123293	-0.230232
C	 3.0562520231	 2.0625294651	-0.4527673661	-0.058857
O	 1.8949997287	 2.9761293523	-0.3194052922	-0.312781
H	-0.6557432254	 0.0638087557	 0.6699806731	 0.129004
H	-0.3994680631	-0.1240019023	-1.0776798425	 0.126445
H	-0.223971775	-1.5192631184	 0.003148661	 0.126214
H	 1.9092794436	-1.6467545368	 1.5331456318	 0.126251
H	 3.0938393821	-0.3304785911	 1.4332312221	 0.126416
H	 1.536166123	-0.0687848731	 2.2458780275	 0.128976
H	 0.6506725054	 2.3518791058	-2.0384582633	 0.100498
H	 3.4754540891	 1.5664871596	-2.6359255023	 0.117409
H	 3.3134824457	 3.3491356413	-2.2628017098	 0.109006
H	 3.8647142094	 2.1605773878	 0.2707421335	 0.100498
138.7233	152.5039	160.8895	177.2792	216.2054	309.3065	377.4508	437.3484	460.1594	493.5798	583.3562	632.8164	730.6699	764.9284	819.7911	867.9129	900.9111	942.3435	946.3999	959.2889	988.7386	1014.6278	1052.0618	1056.0012	1111.6901	1120.3539	1152.9018	1170.1171	1182.3003	1210.9864	1249.9711	1261.4728	1265.7141	1406.7952	1416.9573	1472.2648	1473.2132	1482.4112	1482.8844	1499.9991	1575.9637	3035.2025	3039.7736	3070.5491	3098.5012	3103.172	3126.9093	3129.9095	3130.1145	3133.4335	3154.3566
CC1(C)OC11C2CC1O2	CC1(C)O[C@]21[C@@H]1C[C@H]2O1	
InChI=1S/C7H10O2/c1-6(2)7(9-6)4-3-5(7)8-4/h4-5H,3H2,1-2H3	InChI=1S/C7H10O2/c1-6(2)7(9-6)4-3-5(7)8-4/h4-5H,3H2,1-2H3/t4-,5+,7+
