19
gdb 641	2.6182828	1.5110435	1.0250208	2.2004	78.43	-0.23911	0.02613	0.26524	1165.7257	0.158057	-422.507973	-422.499439	-422.498495	-422.541103	31.797	
C	 2.8881328332	-2.5651192099	 2.2862810061	-0.182965
C	 2.1909148361	-1.3927061508	 1.5760268541	-0.066496
O	 2.3430989595	-1.4978576299	 0.1666979356	-0.233855
C	 1.2193261029	-1.3186739486	-0.6609890412	 0.0304
O	 1.0868287974	-2.3519866348	-1.6004068494	-0.225647
C	 0.3453446181	-3.5021339959	-1.1858815345	-0.209525
C	 0.7929765488	-4.001437594	 0.1097216474	 0.043101
C	 1.3061504671	-4.0887209589	 1.1949843571	 0.08506
C	 2.0161829715	-3.8417290425	 2.4414516502	-0.351462
H	 3.789966166	-2.8021122674	 1.7138708051	 0.128208
H	 3.2096496982	-2.2434615803	 3.2832273981	 0.097967
H	 1.1267110138	-1.3531176029	 1.8501792033	 0.095569
H	 2.6474075221	-0.4490976707	 1.9065961115	 0.096937
H	 0.3075117029	-1.2117993884	-0.0509837307	 0.07989
H	 1.3660843687	-0.4153401354	-1.2656901603	 0.105112
H	-0.7287572757	-3.2597363375	-1.1466466735	 0.117051
H	 0.4827396758	-4.23723402	-1.9849776864	 0.137344
H	 1.2968538048	-3.6987176381	 3.258536126	 0.125786
H	 2.6466888687	-4.6898354938	 2.7322446415	 0.127524
81.4674	142.1831	189.1041	207.2684	293.8495	347.8974	360.0957	370.3423	405.5516	488.0125	543.2577	605.8751	749.3015	815.6297	868.9934	912.086	917.73	985.5344	1017.8132	1033.1755	1063.9769	1087.3181	1141.2481	1154.013	1181.105	1219.1385	1248.2375	1268.6372	1294.7942	1331.8653	1348.0793	1374.5854	1390.3328	1409.3361	1451.7492	1469.0758	1481.8753	1485.1688	1495.3928	1513.5626	2361.3616	2964.0367	2978.0146	2990.2269	3020.1009	3023.5509	3046.5828	3047.636	3057.5232	3074.0149	3099.0837
C1COCOCC#CC1	C1COCOCC#CC1	
InChI=1S/C7H10O2/c1-2-4-6-9-7-8-5-3-1/h1,3,5-7H2	InChI=1S/C7H10O2/c1-2-4-6-9-7-8-5-3-1/h1,3,5-7H2
