19
gdb 5400	2.340624	1.3987623	0.9680024	2.4457	76.18	-0.24285	-0.02949	0.21336000000000002	1245.9511	0.154372	-422.540035	-422.53079	-422.529846	-422.574813	33.556	
C	 2.7784714798	 1.5070663005	-0.0836871298	-0.39141
C	 2.0002114401	 0.1945665984	 0.0461312966	-0.178794
C	 1.9543026319	-0.5903322664	-1.2685508355	-0.213504
C	 1.0239607479	-0.0462739061	-2.376299779	 0.407334
O	 0.937307822	 1.0078516051	-2.9366578755	-0.2961
C	 0.2187411432	-1.3618815373	-2.4524821979	-0.442187
C	 1.1021656322	-1.8785796309	-1.3062638352	 0.419115
C	 1.4472903713	-3.2423988299	-0.9151645099	-0.262552
O	 0.549726976	-2.4431329841	-0.1284574268	-0.258924
H	 2.7632382478	 2.0640869419	 0.8578933557	 0.114238
H	 3.8260588931	 1.3205326896	-0.3453306423	 0.112221
H	 2.3481933335	 2.1399491779	-0.8648224963	 0.145693
H	 2.4467089553	-0.4455584206	 0.8159464558	 0.109491
H	 0.9757529062	 0.3949959283	 0.3804348035	 0.108974
H	 2.9710674498	-0.7439932167	-1.653891549	 0.102762
H	-0.8421877693	-1.2598309398	-2.204479921	 0.148513
H	 0.3095842003	-1.8859754946	-3.4088279249	 0.137289
H	 0.9893510684	-4.0873019029	-1.4280026746	 0.119613
H	 2.4133312606	-3.4465812725	-0.4545719139	 0.118227
38.0072	90.6804	136.0512	178.1931	252.5647	260.3255	324.0762	359.744	427.2887	498.7396	518.2379	553.8824	722.4408	770.6657	797.7726	834.1979	870.28	926.116	956.3798	980.4855	1018.1226	1049.2375	1066.791	1122.7731	1135.7993	1146.0008	1164.1713	1192.033	1208.3824	1220.9766	1262.6741	1323.3717	1362.7674	1413.0859	1413.6572	1444.3735	1487.0059	1497.8977	1510.8627	1536.7794	1890.5414	3025.3631	3034.6916	3036.5418	3056.4159	3068.044	3079.8336	3102.6991	3110.7464	3121.2063	3166.2658
CCC1C(=O)CC11CO1	CC[C@@H]1C(=O)C[C@]21CO2	
InChI=1S/C7H10O2/c1-2-5-6(8)3-7(5)4-9-7/h5H,2-4H2,1H3	InChI=1S/C7H10O2/c1-2-5-6(8)3-7(5)4-9-7/h5H,2-4H2,1H3/t5-,7-/m1/s1
