19
gdb 1985	2.348792	1.7078175	1.5312266	0.762	74.74	-0.2421	0.06175	0.30385	993.6998	0.156366	-422.51598	-422.507718	-422.506774	-422.548178	32.284	
C	-0.0433901196	 0.3066487428	 0.008854203	-0.514152
C	 1.4212156594	-0.0267576676	 0.0491769063	 0.342484
C	 2.4175374563	 0.510632915	-0.9447119538	-0.347045
C	 2.2650634164	-0.9811548932	-0.8230158075	-0.116509
C	 3.046196387	-1.4547519604	 0.3846430726	 0.032111
O	 2.4476112441	-2.5966992597	 1.030941705	-0.291688
C	 1.6733509463	-1.7774273414	 1.9255394714	-0.147094
C	 2.1883725691	-0.4702871865	 1.2850293108	 0.274313
O	 2.6168341021	 0.5641520959	 2.1118913699	-0.47917
H	-0.2444307048	 1.253752331	 0.5223744509	 0.130879
H	-0.3927906813	 0.4097449818	-1.0233942374	 0.120214
H	-0.6518618624	-0.4684472367	 0.4880535697	 0.118985
H	 1.9809572791	 0.9480797218	-1.836822279	 0.112229
H	 3.3242057137	 1.0052427215	-0.6067050738	 0.117237
H	 1.9308431932	-1.6123303226	-1.6374367571	 0.094823
H	 4.1368454182	-1.5228607952	 0.340707409	 0.077195
H	 0.5971612911	-1.9809578271	 1.8705572577	 0.106215
H	 2.0014264969	-1.9023034104	 2.96917969	 0.086595
H	 3.0960168453	 0.1881657309	 2.8584501922	 0.282377
134.8595	190.6028	219.7099	233.8556	272.5221	333.9587	363.983	409.8104	468.8054	509.4162	593.6054	656.5855	752.6658	808.0555	843.5427	891.1827	921.2943	969.196	994.9337	1011.3749	1017.2139	1032.553	1055.9951	1072.7088	1086.4097	1100.2316	1122.7172	1151.2317	1171.0797	1238.6641	1252.9857	1282.1058	1301.561	1357.656	1365.8306	1409.4912	1425.4776	1486.0903	1498.7484	1500.3827	1518.3011	2981.0187	3026.7105	3049.0466	3070.8443	3086.52	3099.1776	3117.6784	3189.5101	3204.672	3801.0215
CC12CC1C1OCC21O	C[C@]12C[C@H]1[C@@H]1OC[C@]21O	
InChI=1S/C7H10O2/c1-6-2-4(6)5-7(6,8)3-9-5/h4-5,8H,2-3H2,1H3	InChI=1S/C7H10O2/c1-6-2-4(6)5-7(6,8)3-9-5/h4-5,8H,2-3H2,1H3/t4-,5-,6-,7+/m0/s1
