19
gdb 4110	3.1489597	1.2205549	1.0452485	2.5316	74.59	-0.23754	-0.0161	0.22144	1178.7054	0.157201	-422.581403	-422.573119	-422.572175	-422.615035	31.528	
O	-3.8951738379	-1.535244418	 1.719155134	-0.433939
C	-2.798428625	-0.6851110327	 1.4782535836	 0.135113
C	-3.0641571291	 0.8338171494	 1.2819345485	-0.276209
C	-2.2000479077	 0.7985179656	-0.0091410908	-0.039083
C	-0.7112092085	 1.1483654943	 0.1471931348	-0.33263
C	 0.0668045738	-0.1784713702	 0.2210373845	 0.385061
O	 1.2213431587	-0.2886395577	 0.5405782602	-0.30674
C	-0.8692558891	-1.3272793282	-0.1799389459	-0.342717
C	-2.2729628602	-0.7756690582	 0.0239533001	-0.024574
H	-4.1704793518	-1.4254305545	 2.6350410112	 0.283548
H	-1.9924230373	-0.8667296491	 2.2062681999	 0.067901
H	-4.1200051298	 1.003439615	 1.0543851128	 0.108135
H	-2.7536839593	 1.5146141622	 2.0800619121	 0.094526
H	-2.644327347	 1.2893357595	-0.8756145504	 0.076308
H	-0.32635355	 1.7087979244	-0.712733443	 0.132525
H	-0.4828596484	 1.7510025313	 1.0318288569	 0.129086
H	-0.6769730313	-1.5545080627	-1.2375323276	 0.127002
H	-0.6392254009	-2.2307654247	 0.3909887428	 0.131474
H	-3.0327525193	-1.2081570261	-0.6281012837	 0.085213
43.0209	71.5185	238.1893	280.1537	315.4338	343.8641	446.0502	450.6137	469.6022	574.8924	635.1312	731.1956	743.4035	773.8517	836.2491	850.4796	892.5086	925.3794	971.2532	1020.6762	1037.2073	1076.7365	1105.3761	1130.6856	1135.9079	1166.4499	1169.7806	1214.3789	1232.8486	1246.2981	1263.2878	1274.1193	1291.1996	1322.1444	1329.115	1350.7722	1436.8645	1442.5714	1448.3864	1481.7517	1844.1472	2974.5017	3025.9682	3045.4125	3051.0146	3085.2638	3094.5945	3100.5829	3107.048	3113.1232	3814.786
OC1CC2CC(=O)CC12	O[C@@H]1C[C@H]2CC(=O)C[C@@H]12	
InChI=1S/C7H10O2/c8-5-1-4-2-7(9)6(4)3-5/h4,6-7,9H,1-3H2	InChI=1S/C7H10O2/c8-5-1-4-2-7(9)6(4)3-5/h4,6-7,9H,1-3H2/t4-,6-,7-/m1/s1
