19
gdb 1680	2.9112472	1.2656527	1.0502911	1.8185	75.66	-0.24531	-0.02729	0.21802	1176.8513	0.154658	-422.494161	-422.485352	-422.484408	-422.528921	32.483	
C	-2.349534952	 1.8591345817	-0.2216747958	-0.476427
C	-1.1392931054	 2.0340193966	 0.6914128033	 0.339642
C	-0.5543595196	 0.6680737355	 1.1209785472	-0.37775
C	 0.4240954705	 0.1291604162	 0.0995431362	 0.168941
O	 1.5757882205	-0.134795353	 0.3338281912	-0.240553
C	-0.166682028	 3.2146736886	 0.3246713711	 0.007627
C	 0.3099619682	 3.3143588421	 1.7903400766	-0.237234
C	-1.2325844409	 3.1786117813	 1.7602528103	 0.002247
O	-1.2501196422	 4.168462693	 0.6598529369	-0.309803
H	-3.1506050372	 1.3263092255	 0.3034656328	 0.116187
H	-2.7286170205	 2.8263653341	-0.5501822776	 0.147789
H	-2.0932686211	 1.2651263613	-1.106174989	 0.116065
H	-0.0451363742	 0.6994070997	 2.0849322934	 0.123556
H	-1.3836303412	-0.0467164532	 1.2052938826	 0.119753
H	 0.0098618683	 0.001236631	-0.9269125788	 0.078104
H	 0.3860991397	 3.3918424949	-0.5992040778	 0.099209
H	 0.9243721369	 2.518352652	 2.2098226267	 0.113993
H	 0.6578524704	 4.3071176622	 2.0744676729	 0.11383
H	-1.9605572321	 3.3092136307	 2.5628977279	 0.094824
29.9543	52.1645	159.6145	226.999	258.4697	343.7666	371.1649	400.5924	464.1668	543.7768	625.7776	678.7716	736.4519	802.1376	831.9095	867.6227	880.2061	912.7469	951.4578	991.3494	1014.5924	1031.7932	1048.661	1107.4961	1113.2065	1153.9992	1167.2664	1174.311	1204.712	1214.3392	1239.667	1276.0314	1298.578	1326.9675	1400.4985	1429.2666	1465.2647	1489.5757	1504.729	1510.1142	1828.6701	2868.9698	3028.4757	3033.8217	3085.3471	3088.26	3103.3	3112.2342	3124.3794	3153.716	3165.6931
CC1(CC=O)C2CC1O2	C[C@@]1(CC=O)[C@@H]2C[C@H]1O2	
InChI=1S/C7H10O2/c1-7(2-3-8)5-4-6(7)9-5/h3,5-6H,2,4H2,1H3	InChI=1S/C7H10O2/c1-7(2-3-8)5-4-6(7)9-5/h3,5-6H,2,4H2,1H3/t5-,6+,7+
