19
gdb 3860	2.907078	1.1940227	1.0314078	2.7064	76.82	-0.24202	-0.01684	0.22518000000000002	1222.9187	0.155361	-422.551624	-422.542527	-422.541583	-422.58558	33.909	
C	-1.9573024839	-2.7433091332	-0.088124143	-0.499046
C	-2.677737233	-2.8905604598	 1.2431884316	 0.270988
O	-3.1200011216	-3.962389838	 1.6065633688	-0.313589
C	-2.8411822899	-1.6871793806	 2.0903887275	 0.271332
C	-2.0131547621	-0.4246524672	 1.9896312087	-0.339857
C	-3.470869761	-0.3137146704	 1.7014901019	-0.142019
C	-4.2888462903	-0.3164278021	 3.0045535824	 0.161166
O	-5.6853988318	-0.3341320697	 2.841647527	-0.434075
C	-3.6344812238	-1.6793073724	 3.403135227	-0.341947
H	-0.8821440219	-2.6145184864	 0.0804488638	 0.145156
H	-2.1157284434	-3.6465903251	-0.6781607635	 0.144396
H	-2.3056119047	-1.8693125304	-0.647849658	 0.131451
H	-1.6010231335	-0.0059330765	 2.9052378121	 0.118393
H	-1.3537298027	-0.3468237601	 1.1321046003	 0.123399
H	-3.8500741715	-0.0034221008	 0.7340817953	 0.101833
H	-4.0832377364	 0.5279774178	 3.6697734455	 0.093508
H	-5.9186515626	-1.1122749442	 2.3225176981	 0.281573
H	-3.0456450219	-1.708704202	 4.3249186925	 0.101476
H	-4.3769711438	-2.4794899087	 3.4346208621	 0.125862
70.0934	93.5137	155.515	196.9343	250.5391	313.63	347.8243	378.5282	442.9351	477.1764	483.8349	586.7625	629.4426	735.871	786.8753	833.6327	876.76	942.4016	946.36	960.6802	1000.5733	1024.5394	1041.8125	1050.6201	1093.5409	1112.5064	1137.7347	1150.8738	1227.5929	1237.554	1268.8474	1292.0572	1324.9789	1374.4486	1400.5394	1435.4997	1466.4847	1478.3029	1481.9366	1496.4536	1773.6415	3039.2705	3054.0445	3065.3353	3101.4379	3110.7544	3121.823	3152.297	3179.0293	3207.6899	3794.5343
CC(=O)C12CC1C(O)C2	CC(=O)[C@@]12C[C@@H]1[C@@H](O)C2	
InChI=1S/C7H10O2/c1-4(8)7-2-5(7)6(9)3-7/h5-6,9H,2-3H2,1H3	InChI=1S/C7H10O2/c1-4(8)7-2-5(7)6(9)3-7/h5-6,9H,2-3H2,1H3/t5-,6+,7+/m1/s1
