19
gdb 2900	2.8210498	1.4907659	1.1502305	1.3754	75.17	-0.20385	0.06898	0.27283	1097.4993	0.154701	-422.482015	-422.473028	-422.472084	-422.514773	34.969	
C	-0.437958752	-0.6814279413	 3.1142984088	-0.491767
C	-1.3027064546	 0.1079214959	 2.1777892174	 0.253608
C	-0.842630602	 0.6359773922	 0.8477223098	 0.013944
O	 0.5499115694	 0.5874862184	 0.6873090527	-0.435727
C	-1.3459756494	 1.6088972098	 1.8967346191	-0.163508
C	-2.8851696152	 1.6152121584	 2.0813965747	-0.120672
C	-3.6278629123	 0.6719846152	 1.1477650828	-0.377211
C	-2.8644835146	 0.1289028317	 2.3274395477	 0.3323
O	-3.4821735878	-0.548248584	 3.3646615097	-0.445744
H	-0.7137036936	-0.4932922763	 4.1565245844	 0.124626
H	-0.5406618567	-1.7592641479	 2.9357253028	 0.108266
H	 0.6115494591	-0.4177501945	 2.9694097252	 0.136952
H	-1.390435754	 0.4469795311	-0.0736410161	 0.079039
H	 0.8178756799	 1.3814869125	 0.2129152774	 0.287771
H	-0.6882237545	 2.3762002976	 2.2874197846	 0.08737
H	-3.4093287772	 2.3864246888	 2.6308955843	 0.098541
H	-4.6995503107	 0.6766972411	 1.326660542	 0.113868
H	-3.3615323304	 0.5144702305	 0.1087843931	 0.112362
H	-3.7244447434	-1.4268330693	 3.0501862696	 0.285981
139.4787	176.6638	231.4036	248.7066	264.6269	289.0351	292.7563	330.1223	419.4026	429.4573	464.1801	522.474	621.8298	652.7796	788.0762	836.7258	868.0374	881.8463	903.3488	916.8458	945.7318	991.1824	1025.0734	1045.5993	1067.2774	1079.787	1113.9815	1140.0599	1157.8687	1225.171	1239.5596	1267.1545	1281.5241	1305.8256	1350.5506	1391.6067	1410.955	1460.5474	1487.3375	1498.8398	1503.8668	3025.2788	3085.681	3099.572	3129.9214	3133.1876	3180.3066	3196.5797	3206.7078	3781.6729	3805.9392
CC12C(O)C1C1CC21O	C[C@]12[C@H](O)[C@H]1[C@H]1C[C@@]21O	
InChI=1S/C7H10O2/c1-6-4(5(6)8)3-2-7(3,6)9/h3-5,8-9H,2H2,1H3	InChI=1S/C7H10O2/c1-6-4(5(6)8)3-2-7(3,6)9/h3-5,8-9H,2H2,1H3/t3-,4-,5-,6-,7+/m1/s1
