19
gdb 5031	2.429378	1.6673461	1.2433879	1.2343	75.47	-0.24539	-0.00138	0.24401	1074.0313	0.156516	-422.526852	-422.51859	-422.517646	-422.55948	32.364	
C	 1.2312969601	-0.3623602886	 1.1519937535	-0.38036
C	 0.72829457	 0.0022737988	-0.250154965	-0.312762
C	 1.4439884151	-0.7431135117	-1.3427199672	 0.337002
O	 2.9237845367	-0.6143922571	-1.3331185844	-0.350198
C	 2.8144109634	-1.1318197676	-2.7032772176	-0.04787
C	 2.1921076923	-2.5049413117	-2.4971523006	-0.085416
C	 1.261676775	-2.2415493888	-1.5725165997	-0.12744
C	 1.529024889	-0.2350264271	-2.8469371191	 0.148422
O	 1.7469201014	 1.1264925291	-3.0041899154	-0.443706
H	 1.0689839953	-1.4227487068	 1.3704410527	 0.118106
H	 2.3035371688	-0.1674006288	 1.2377277427	 0.139412
H	 0.7115675211	 0.223097548	 1.9158355634	 0.112844
H	-0.344697826	-0.2094897898	-0.3399219916	 0.103699
H	 0.8469310129	 1.0774006765	-0.4276226343	 0.104694
H	 3.70931604	-0.9992551824	-3.3097001875	 0.082739
H	 2.4277331161	-3.4176345085	-3.0241813604	 0.113318
H	 0.5146399455	-2.878677421	-1.1212435546	 0.111184
H	 0.7495792979	-0.5460594082	-3.5451364653	 0.089842
H	 2.4570082952	 1.3504283856	-2.3857234796	 0.286488
81.8791	155.1001	201.8446	252.1032	274.3747	359.3434	437.6394	487.8473	535.1395	582.9027	621.1944	672.035	707.9243	736.4847	781.5794	849.8661	879.3858	907.5285	911.6587	922.194	941.3941	978.4022	994.3867	1072.0468	1099.8503	1124.3875	1155.9741	1183.2078	1191.8549	1255.162	1268.9822	1290.1986	1303.013	1336.9912	1388.1108	1411.0251	1428.7468	1481.3418	1497.2422	1508.2691	1608.6782	3030.36	3042.0902	3065.9627	3106.6011	3109.303	3124.1469	3137.3266	3226.9937	3254.1712	3746.3699
CCC12OC(C=C1)C2O	CC[C@@]12O[C@@H](C=C1)[C@@H]2O	
InChI=1S/C7H10O2/c1-2-7-4-3-5(9-7)6(7)8/h3-6,8H,2H2,1H3	InChI=1S/C7H10O2/c1-2-7-4-3-5(9-7)6(7)8/h3-6,8H,2H2,1H3/t5-,6-,7+/m0/s1
