19
gdb 1698	3.6934046	1.1788585	1.1121141	2.4868	76.	-0.25079	0.01532	0.26611	1156.4597	0.156484	-422.546888	-422.538433	-422.537489	-422.580037	32.296	
O	 4.2933192581	-1.9041613867	-0.5854183048	-0.478244
C	 3.2437974525	-0.9446102992	-0.6375001755	 0.361258
C	 3.7491602708	 0.3598815212	-1.3230723726	-0.299739
C	 4.1967607275	 1.2072019913	-0.1559732772	-0.081828
C	 3.7179589605	 0.7470633104	 1.000820082	-0.076704
C	 2.869851693	-0.4877863183	 0.8042805613	-0.306873
C	 2.0824470762	-1.5785404757	-1.3727383663	 0.051756
C	 1.9776895706	-3.0205868754	-1.6187369767	-0.177819
O	 2.3448410513	-2.1162161015	-2.6661525211	-0.246316
H	 5.0580437696	-1.4694713729	-0.1926529412	 0.281761
H	 4.5360487321	 0.1216107333	-2.0454007127	 0.12098
H	 2.947789805	 0.8590514836	-1.8848190148	 0.113084
H	 4.8043833318	 2.097558399	-0.2736407199	 0.096033
H	 3.8756863164	 1.202448122	 1.9721255221	 0.096105
H	 3.0748188943	-1.2931788692	 1.5170003887	 0.113483
H	 1.8014993024	-0.2447450291	 0.894212321	 0.106476
H	 1.1614642654	-0.9952933516	-1.3140302605	 0.087257
H	 2.7756168411	-3.6715089315	-1.2738614487	 0.132996
H	 0.9936231015	-3.4767253897	-1.7204084731	 0.106333
68.1277	102.2425	194.943	265.9112	315.7478	360.3343	373.9186	395.7161	421.1814	510.4003	661.5387	708.3086	784.3833	789.6178	859.8896	893.6224	921.1407	937.8298	954.4678	975.3309	976.8092	999.694	1041.5296	1083.7939	1114.969	1120.1019	1131.367	1161.3283	1178.0496	1180.1135	1232.2676	1280.6585	1293.9886	1315.6068	1361.9361	1370.6338	1460.9498	1469.0657	1476.7642	1520.8046	1676.9289	3009.4431	3018.227	3073.5656	3080.036	3088.3657	3096.7334	3183.6572	3197.2315	3208.5119	3808.258
OC1(CC=CC1)C1CO1	O[C@@]1(CC=CC1)[C@@H]1CO1	
InChI=1S/C7H10O2/c8-7(6-5-9-6)3-1-2-4-7/h1-2,6,8H,3-5H2	InChI=1S/C7H10O2/c8-7(6-5-9-6)3-1-2-4-7/h1-2,6,8H,3-5H2/t6-/m0/s1
