19
gdb 1018	2.5435773	1.1453784	0.9864654	1.6301	79.62	-0.24493	0.04771	0.29264	1351.0015	0.154789	-422.533989	-422.523922	-422.522977	-422.57133	34.498	
C	 1.1091038766	-0.4902679863	-0.1180774798	-0.502269
C	-0.300144138	-0.1329526912	-0.0473941168	 0.036943
C	-1.4650343868	 0.166932279	 0.011731089	 0.130692
C	-2.8979996801	 0.5308679607	 0.0836866059	 0.196033
C	-3.1064066342	 2.0174762213	 0.3185867694	-0.431012
O	-3.5688963427	 0.1484310514	-1.1073570315	-0.254179
C	-3.8828538642	-1.2316102855	-0.9675330906	-0.109594
C	-3.8657397482	-1.4719262333	 0.5659186562	-0.10971
O	-3.5457037165	-0.199353685	 1.1142682777	-0.254081
H	 1.3754382564	-1.2111285854	 0.662613639	 0.151316
H	 1.3564803079	-0.9400429638	-1.0858378505	 0.151311
H	 1.7472031206	 0.3906399997	 0.0115822506	 0.152228
H	-2.6383324419	 2.3128017989	 1.2596898126	 0.134593
H	-2.6568366716	 2.5877182268	-0.4967012513	 0.1346
H	-4.1782830423	 2.2209746323	 0.3617260925	 0.127936
H	-4.8621816915	-1.4013647228	-1.4223924527	 0.115508
H	-3.1397586635	-1.8573351584	-1.4773568951	 0.107073
H	-4.8351643154	-1.7771762958	 0.9681663126	 0.11553
H	-3.1129490147	-2.2201308326	 0.8436835326	 0.107083
13.9585	52.9742	80.5988	119.6648	180.8633	207.3483	299.5283	299.6649	344.7255	403.7232	494.3872	571.2413	634.7462	744.7756	756.4729	839.4684	865.366	888.8799	949.1446	1050.1747	1052.1315	1053.4371	1068.3965	1069.589	1129.5922	1164.8331	1205.1496	1236.3581	1239.4454	1255.5616	1369.1106	1377.1912	1402.7097	1413.276	1477.1352	1477.1554	1479.0409	1480.2231	1514.8027	1528.0477	2363.052	3018.8481	3028.3853	3031.0615	3060.7845	3081.7949	3090.3561	3090.7663	3101.357	3146.6335	3147.4742	13.9605	52.9742	80.5987	119.6646	180.8632	207.348	299.5283	299.6648	344.7255	403.7232	494.3872	571.2413	634.7462	744.7756	756.4729	839.4684	865.3658	888.8798	949.1445	1050.1747	1052.1314	1053.437	1068.3963	1069.5889	1129.5922	1164.8331	1205.1495	1236.3581	1239.4454	1255.5615	1369.1105	1377.1911	1402.7098	1413.2759	1477.135	1477.1553	1479.0411	1480.2233	1514.8026	1528.0476	2363.052	3018.848	3028.3853	3031.0615	3060.7845	3081.7949	3090.3561	3090.7663	3101.357	3146.6335	3147.4742
CC#CC1(C)OCCO1	CC#CC1(C)OCCO1	
InChI=1S/C7H10O2/c1-3-4-7(2)8-5-6-9-7/h5-6H2,1-2H3	InChI=1S/C7H10O2/c1-3-4-7(2)8-5-6-9-7/h5-6H2,1-2H3
