19
gdb 596	2.3595362	2.0687605	1.6479517	2.0472	74.42	-0.24688	0.00724	0.25412	914.2373	0.160976	-422.574015	-422.567178	-422.566234	-422.604791	28.244	
C	-0.4377277183	 0.8487522996	 0.4730468162	 0.019655
O	 0.0001457137	-0.0563723964	-0.515326683	-0.268922
C	 0.7832998988	 0.5404212598	-1.5576035629	 0.095708
C	-0.0225013667	 1.5110533406	-2.4459936847	-0.274152
C	-0.1156030561	 2.9085826647	-1.8857557786	-0.049684
C	 0.5158716431	 3.2899087858	-0.7747919576	-0.082537
C	 1.3641918391	 2.3166922796	 0.0143275233	 0.062878
C	 1.9715827761	 1.2633319267	-0.9168832615	-0.226155
O	 0.5940267203	 1.6271486363	 1.0242086856	-0.264684
H	-1.2311039368	 1.4964662212	 0.0681393233	 0.086217
H	-0.8363997413	 0.2430567028	 1.2903350423	 0.115529
H	 1.1111446198	-0.3088978307	-2.1629081827	 0.081419
H	 0.4427063761	 1.5506733408	-3.4418234413	 0.112654
H	-1.0259797601	 1.0968153129	-2.6054986941	 0.121102
H	-0.7308841472	 3.6163743234	-2.4374772783	 0.092874
H	 0.4002926738	 4.2969693662	-0.3855985348	 0.091762
H	 2.1355302559	 2.847127198	 0.5776785141	 0.080425
H	 2.6059014952	 1.7326496801	-1.6758806554	 0.098074
H	 2.5702401546	 0.5555590786	-0.3374876097	 0.107836
168.2366	255.3067	333.89	375.0897	399.454	428.0353	498.1739	552.5042	646.3413	685.0553	730.3086	794.8877	825.9572	872.3254	909.9969	924.7668	949.659	1001.3246	1015.5183	1017.2349	1028.4253	1064.933	1077.5821	1136.0457	1152.5688	1191.3536	1205.6096	1244.4152	1286.085	1306.6916	1351.3119	1354.1246	1368.7566	1384.3752	1391.2199	1417.9272	1447.3944	1454.6037	1471.8607	1515.0351	1710.701	2979.8746	3005.7462	3047.8801	3049.5972	3071.3419	3079.3627	3101.3791	3105.8785	3144.0167	3177.1289
C1OC2CC=CC(C2)O1	C1O[C@H]2CC=C[C@H](C2)O1	
InChI=1S/C7H10O2/c1-2-6-4-7(3-1)9-5-8-6/h1-2,6-7H,3-5H2	InChI=1S/C7H10O2/c1-2-6-4-7(3-1)9-5-8-6/h1-2,6-7H,3-5H2/t6-,7+/m1/s1
