19
gdb 3444	2.7828605	1.3343273	0.9497941	4.3609	79.1	-0.25318	0.00799	0.26117	1254.5395	0.156235	-422.604491	-422.595178	-422.594234	-422.640229	33.245	
C	-3.2825648265	 0.7468272243	-1.3914299376	-0.38429
C	-2.5280343586	 0.5563390017	-0.059726425	-0.203526
C	-1.0952101585	 0.9909550606	-0.1503367274	-0.138766
C	-0.0726644914	 0.2471743692	 0.258163043	 0.242292
C	 1.3666881214	 0.6727130348	 0.1771369986	-0.476517
C	-0.3054289514	-1.1053153682	 0.8597088771	-0.133236
O	-1.6505998244	-1.5875864787	 0.8542715988	-0.23635
C	-2.7207436272	-0.8755261899	 0.435566471	 0.420795
O	-3.8034250126	-1.3964987158	 0.4722627869	-0.332203
H	-2.818517014	 0.1586602521	-2.1891705386	 0.123076
H	-4.3199141498	 0.4276225062	-1.2821510069	 0.14775
H	-3.2609576883	 1.7994275316	-1.6892353917	 0.113076
H	-3.0429020614	 1.1783920901	 0.6886703326	 0.12242
H	-0.9148653041	 1.9746141656	-0.5794236691	 0.089897
H	 1.8393237121	 0.6752406589	 1.1676433012	 0.12988
H	 1.9515651188	-0.0139352953	-0.44786618	 0.131097
H	 1.4574142185	 1.6767511188	-0.243682	 0.131683
H	 0.2926137917	-1.8620846715	 0.3336287177	 0.126536
H	 0.0338792156	-1.1165051347	 1.9056954595	 0.126387
12.515	90.9686	141.9011	186.027	221.2066	270.0319	314.4394	379.9558	434.5929	461.8681	471.5011	582.9024	640.0549	745.6856	774.0632	860.0848	908.2908	937.5526	997.0635	1004.7991	1047.0563	1082.0226	1090.2146	1099.3873	1147.8191	1199.5853	1210.9392	1268.82	1302.207	1335.3746	1376.3942	1403.9766	1415.5921	1437.4444	1478.7606	1490.2173	1493.0904	1502.6203	1505.1106	1769.7624	1832.2237	2989.7285	3001.0437	3019.8476	3027.613	3044.372	3066.1119	3111.1995	3120.3404	3144.1889	3146.903
CC1C=C(C)COC1=O	C[C@@H]1C=C(C)COC1=O	
InChI=1S/C7H10O2/c1-5-3-6(2)7(8)9-4-5/h3,6H,4H2,1-2H3	InChI=1S/C7H10O2/c1-5-3-6(2)7(8)9-4-5/h3,6H,4H2,1-2H3/t6-/m1/s1
