19
gdb 408	3.0401283	1.5803591	1.2701651	0.9016	74.77	-0.24743	0.0715	0.31893	1035.5673	0.158528	-422.525156	-422.517624	-422.516679	-422.557241	29.306	
C	 0.8165530244	 1.3595646556	-0.0039732064	-0.317179
C	 1.5629254531	 0.048663486	-0.0589878992	-0.317353
C	 0.0669494605	 0.0505134224	 0.0410580614	 0.363454
C	-0.6881242598	-0.3966730745	 1.2846422566	-0.173597
O	-2.072615524	-0.2521885963	 0.95316453	-0.266303
C	-2.226179474	-0.5032964749	-0.4275516067	 0.06913
C	-2.1285702233	-1.9761203977	-0.8818837643	-0.107794
O	-0.7978446034	-1.7688444749	-1.4071930149	-0.298101
C	-0.835537776	-0.3528767148	-1.0968095993	-0.011733
H	 0.8697311082	 1.9429534846	 0.9093003059	 0.115196
H	 0.7567039303	 1.9539136438	-0.91009788	 0.115081
H	 2.0099928549	-0.2557837517	-0.9989664768	 0.124861
H	 2.1265641031	-0.255440653	 0.8174520242	 0.116068
H	-0.4560920143	-1.4450379505	 1.5260706897	 0.103072
H	-0.489644357	 0.2149211443	 2.1690575284	 0.110364
H	-3.0784718209	 0.0725910276	-0.7898876958	 0.092167
H	-2.1542107063	-2.7158192665	-0.0732851778	 0.108447
H	-2.8361476452	-2.2685250093	-1.6679204412	 0.100367
H	-0.7283659002	 0.26026682	-1.9971251138	 0.073855
86.1646	157.3142	206.6645	281.1876	321.8595	406.6901	457.5569	543.7176	653.9507	777.1056	801.5957	812.7771	859.564	887.2531	917.5822	937.0456	960.6951	984.451	988.8931	1009.3633	1018.02	1057.598	1064.5387	1077.3425	1095.0645	1126.4202	1167.2823	1186.1153	1220.7751	1227.1503	1243.8969	1290.7033	1303.4645	1329.9506	1348.8516	1372.6966	1415.9382	1471.2148	1505.9942	1510.1013	1519.7914	2989.681	3015.8167	3059.646	3067.0885	3088.4431	3109.009	3126.3467	3131.4332	3205.2659	3219.6077
C1CC11COC2COC12	C1CC21CO[C@@H]1CO[C@H]21	
InChI=1S/C7H10O2/c1-2-7(1)4-9-5-3-8-6(5)7/h5-6H,1-4H2	InChI=1S/C7H10O2/c1-2-7(1)4-9-5-3-8-6(5)7/h5-6H,1-4H2/t5-,6+/m1/s1
