19
gdb 3560	1.8811814	1.6424967	0.9502048	3.717	77.03	-0.24455	-0.03471	0.20984	1241.3777	0.156497	-422.617473	-422.60872	-422.607776	-422.651141	32.631	
C	-2.7770704938	 2.5423587219	 1.0992042013	-0.400021
C	-1.8920828803	 1.2932922103	 1.1396017231	 0.001761
C	-2.7411482889	 0.0057137828	 1.1933712715	-0.295348
C	-1.8735156044	-1.2430599704	 1.218485864	 0.367492
O	-1.995136286	-2.1165261378	 2.041520756	-0.292858
C	-0.8088744117	-1.3078130699	 0.1228058614	-0.387638
C	-0.0489194441	 0.0089749724	-0.0406150836	 0.367484
O	 1.1534634271	 0.0440377781	-0.1309883731	-0.292854
C	-0.9233334325	 1.2530957083	-0.0610638888	-0.295349
H	-3.4401768489	 2.5833966089	 1.9689576585	 0.122748
H	-2.1714619499	 3.4539889432	 1.0934321702	 0.122748
H	-3.4029093724	 2.5492606266	 0.199171329	 0.117744
H	-1.2866411541	 1.33253133	 2.0559698094	 0.099789
H	-3.3922437468	-0.0100224083	 2.0705050851	 0.125247
H	-3.3802258273	-0.0348100878	 0.2984173184	 0.114141
H	-0.1181415958	-2.1310979564	 0.3051128011	 0.144543
H	-1.3369434152	-1.4914552945	-0.8250494121	 0.14099
H	-0.2728042664	 2.1305367947	-0.0821350431	 0.125246
H	-1.5117730988	 1.2473227079	-0.9909585984	 0.114134
90.8351	93.1295	130.3897	237.8478	277.4428	374.6267	377.9756	381.9447	448.1013	465.6403	550.511	586.4908	619.9993	809.8912	821.6064	842.7443	856.4118	904.4559	965.0196	970.1507	1033.6456	1076.9867	1116.5312	1124.0823	1190.0721	1214.0319	1230.4556	1242.1264	1288.5056	1291.7362	1301.7228	1361.4402	1377.111	1413.2937	1436.7491	1459.6819	1472.4193	1497.0835	1497.5191	1811.9679	1835.0786	2999.0122	3005.8583	3014.2422	3021.0319	3030.6056	3097.6662	3105.6636	3108.9955	3109.344	3142.366
CC1CC(=O)CC(=O)C1	CC1CC(=O)CC(=O)C1	
InChI=1S/C7H10O2/c1-5-2-6(8)4-7(9)3-5/h5H,2-4H2,1H3	InChI=1S/C7H10O2/c1-5-2-6(8)4-7(9)3-5/h5H,2-4H2,1H3
