19
gdb 5891	2.7095398	0.9869749	0.9254461	1.7638	78.12	-0.25697	0.0063	0.26327	1402.0494	0.153533	-422.559121	-422.548461	-422.547517	-422.596184	36.886	
C	 2.0505186993	 4.3624657035	-0.429215833	-0.387381
C	 1.2561432243	 3.3922835586	 0.4315054791	-0.053842
O	 1.4759375584	 2.0231190718	 0.0252414185	-0.235128
C	 2.5463713207	 1.4047143089	 0.5487299606	 0.445227
O	 3.3308294847	 1.9121047597	 1.3090101497	-0.368884
C	 2.6665741353	-0.031552221	 0.0229283345	-0.240729
C	 2.9822924181	-0.021519486	-1.4911560868	-0.39832
C	 1.4720564037	-0.8165169415	 0.32008282	 0.333627
C	 0.4986885936	-1.4799367016	 0.5564558296	-0.4775
H	 1.8136497755	 4.2276644946	-1.4885610308	 0.126322
H	 1.802891927	 5.3915931735	-0.1501890092	 0.122935
H	 3.1232222949	 4.2163584194	-0.2828501003	 0.144547
H	 1.5235376209	 3.4912873945	 1.4859216639	 0.134246
H	 0.1804020766	 3.5406798579	 0.3137590397	 0.117223
H	 3.5189392114	-0.4558526219	 0.5628173461	 0.132823
H	 3.1266019687	-1.0440366796	-1.8471594702	 0.133508
H	 2.1587582082	 0.4301552545	-2.0472540224	 0.143904
H	 3.8960077913	 0.5484309614	-1.6832409087	 0.127677
H	-0.3635425427	-2.0608769765	 0.7723555395	 0.199745
24.0385	69.0217	83.8486	134.0467	180.5665	215.4444	233.2801	244.7494	321.7182	348.337	443.8862	473.3061	540.2214	627.2311	639.3855	676.3306	772.9046	780.5066	845.5772	877.2436	921.7476	1004.2756	1055.9917	1086.5687	1112.5731	1117.2768	1196.8075	1262.485	1300.8257	1329.1914	1334.1289	1397.117	1403.4217	1420.6535	1484.2995	1487.9175	1492.7543	1499.3546	1507.0825	1818.416	2239.7153	3045.8014	3050.9393	3065.1644	3072.5933	3113.3134	3121.7631	3126.5545	3141.7258	3144.8568	3504.7069
CCOC(=O)C(C)C#C	CCOC(=O)[C@H](C)C#C	
InChI=1S/C7H10O2/c1-4-6(3)7(8)9-5-2/h1,6H,5H2,2-3H3	InChI=1S/C7H10O2/c1-4-6(3)7(8)9-5-2/h1,6H,5H2,2-3H3/t6-/m1/s1
