19
gdb 5459	2.7884125	1.3200852	1.1111184	0.5032	74.68	-0.22787	0.07577	0.30364	1158.6048	0.156309	-422.488932	-422.480442	-422.479498	-422.522017	32.102	
C	 4.4539600665	-2.036435872	-1.2125592879	-0.535345
C	 3.2993407086	-2.8634471027	-0.7520815619	 0.293015
C	 2.8710885774	-4.274256965	-0.9649122102	 0.015618
O	 2.7218781975	-4.5982383134	 0.4189384846	-0.295965
C	 2.6247821132	-3.1665682383	 0.6509403706	-0.002947
C	 1.2423939342	-2.7898853214	 0.0437838926	-0.035694
C	 0.8631498737	-1.3245457351	 0.1954891786	-0.079109
O	-0.1730555845	-0.9282262226	-0.6930193528	-0.417155
C	 1.8921914361	-3.1307235826	-1.2968083659	-0.151303
H	 5.3803698553	-2.3226221584	-0.7018739583	 0.128582
H	 4.6117136293	-2.1686253101	-2.2884658959	 0.128148
H	 4.2870789308	-0.9679759334	-1.0354565472	 0.126523
H	 3.1917045112	-5.0430338001	-1.6561954684	 0.106306
H	 2.9438512126	-2.8611793012	 1.6467807937	 0.083714
H	 0.4213575867	-3.438271637	 0.3798478084	 0.063991
H	 0.5878829202	-1.1180394294	 1.2427822788	 0.085761
H	 1.7179182738	-0.6843327436	-0.0492536896	 0.108523
H	-0.9501697914	-1.4590220173	-0.4897700597	 0.281898
H	 1.5126452688	-2.9456654164	-2.2935343094	 0.095439
85.4074	150.8605	184.464	206.6472	257.6587	286.3601	331.7414	394.224	532.6372	576.5804	612.2079	754.5843	771.554	829.2395	861.057	889.8959	924.0829	933.4132	969.0673	996.7425	1024.8474	1036.4526	1049.5991	1088.3128	1101.3206	1120.1393	1151.8626	1176.7289	1197.4059	1216.2269	1224.859	1253.8769	1295.2432	1373.6032	1388.5056	1412.0305	1424.1547	1462.5404	1483.3482	1496.6755	1502.5593	2970.0755	3011.2964	3023.2553	3068.8546	3084.5432	3093.9634	3128.909	3198.5399	3207.8979	3812.3251
CC12C3OC1C(CO)C23	C[C@@]12[C@H]3O[C@@H]1[C@@H](CO)[C@@H]23	
InChI=1S/C7H10O2/c1-7-4-3(2-8)5(7)9-6(4)7/h3-6,8H,2H2,1H3	InChI=1S/C7H10O2/c1-7-4-3(2-8)5(7)9-6(4)7/h3-6,8H,2H2,1H3/t3-,4+,5+,6-,7-/m0/s1
