19
gdb 3430	2.2287449	1.5381708	0.9624683	2.9914	79.28	-0.24496	-0.049	0.19596000000000002	1240.5978	0.155628	-422.60347	-422.594002	-422.593058	-422.637706	34.459	
C	-3.1966565099	 0.1609802713	-1.4320247262	-0.411883
C	-2.3526688508	 0.0238679044	-0.1614927149	-0.047275
C	-1.1152379202	 0.8972797739	-0.1422575887	-0.153262
C	-0.0068726255	 0.2876295256	 0.3121110888	 0.194106
C	 1.3632020531	 0.8385502638	 0.5380307167	-0.494771
C	-0.3768422795	-1.0981080508	 0.6758562564	 0.282684
O	 0.2356793739	-1.8892143613	 1.3621864041	-0.352175
C	-1.7636225395	-1.3800249677	 0.0908635656	 0.041869
O	-2.5337599174	-2.2003067322	 0.9302747398	-0.442776
H	-4.0626604546	-0.5060305842	-1.3921420745	 0.135048
H	-3.564855666	 1.185241662	-1.5525856177	 0.115625
H	-2.6123136128	-0.0929196009	-2.3231249597	 0.119119
H	-2.9785934968	 0.2712454511	 0.7066563937	 0.110734
H	-1.1565683033	 1.936692237	-0.4575397147	 0.107968
H	 1.6773956138	 0.6569810648	 1.5713510162	 0.149251
H	 2.0977461678	 0.3362828965	-0.101680127	 0.140625
H	 1.4075842837	 1.9119556015	 0.3382526495	 0.124416
H	-1.6002361228	-1.8632843366	-0.8906969649	 0.088899
H	-1.8949394833	-2.7177208181	 1.4425038876	 0.291799
71.5832	111.5688	151.9789	216.2769	233.1669	243.1895	289.072	328.4825	356.7963	410.7831	504.594	525.2062	575.9144	647.3339	718.5524	839.5565	880.6225	906.1674	943.1125	987.5505	1053.4879	1065.7414	1068.4889	1092.8481	1128.0431	1153.4316	1221.2288	1254.1844	1276.888	1335.3556	1337.0646	1373.4776	1407.125	1413.9145	1419.3486	1474.6824	1486.8611	1497.2433	1499.4131	1684.2626	1802.2291	2928.4694	3019.8184	3032.5065	3035.8322	3090.5266	3099.5768	3112.9747	3122.9072	3169.5881	3725.9345
CC1C=C(C)C(=O)C1O	C[C@@H]1C=C(C)C(=O)[C@H]1O	
InChI=1S/C7H10O2/c1-4-3-5(2)7(9)6(4)8/h3-4,6,8H,1-2H3	InChI=1S/C7H10O2/c1-4-3-5(2)7(9)6(4)8/h3-4,6,8H,1-2H3/t4-,6+/m1/s1
