19
gdb 5920	2.3553957	0.8122474	0.6278383	3.8385	83.51	-0.24036	-0.02156	0.2188	1799.4728	0.152486	-422.522764	-422.51142	-422.510476	-422.561681	36.813	
C	-5.1106033922	 0.0149857034	-2.7233064661	-0.230276
O	-4.5194330691	-0.0219774783	-1.444487694	-0.230433
C	-3.113754616	-0.0575069062	-1.4859616034	-0.065016
C	-2.6117397691	-0.0653751102	-0.034397527	-0.253453
C	-3.105584885	 1.1972715292	 0.6875624725	 0.186214
O	-3.6951733152	 1.1977849786	 1.731170991	-0.240761
C	-1.153716067	-0.083548593	 0.0173118724	 0.031745
C	 0.0495608781	-0.0459808064	 0.0585768907	 0.079955
C	 1.5036293587	-0.0233923147	 0.1198145856	-0.498764
H	-4.8487391978	-0.8742906058	-3.3173158991	 0.108703
H	-6.1930538989	 0.039827084	-2.5802490267	 0.135256
H	-4.8037852985	 0.9090080563	-3.2881527955	 0.108147
H	-2.7465197504	-0.9521749325	-2.0122054537	 0.105338
H	-2.7100291274	 0.8230487221	-2.0142881473	 0.097702
H	-3.0388754976	-0.9261542393	 0.4911573544	 0.128017
H	-2.839635422	 2.139745486	 0.156866067	 0.07908
H	 1.8526913351	 0.4261571097	 1.0557526648	 0.155062
H	 1.9178413994	-1.0359088677	 0.0631284808	 0.152982
H	 1.9281532748	 0.5565768247	-0.7067681662	 0.150501
25.9285	65.5652	70.9028	82.0844	97.3946	141.054	209.37	229.8329	279.6601	315.9549	329.5812	381.4759	458.9802	491.1339	570.6224	791.1715	885.6812	981.5548	1020.1967	1051.7837	1053.6594	1076.7912	1105.5859	1160.9496	1172.9712	1184.3131	1227.7212	1236.0743	1285.5609	1307.99	1401.8666	1414.2896	1419.4934	1477.0483	1477.3929	1479.2049	1485.6669	1501.5629	1526.5731	1848.6025	2367.2555	2873.7698	2960.4619	2977.0215	3002.5124	3021.9957	3029.6789	3063.0711	3091.8415	3092.305	3122.0876
COCC(C=O)C#CC	COC[C@H](C=O)C#CC	
InChI=1S/C7H10O2/c1-3-4-7(5-8)6-9-2/h5,7H,6H2,1-2H3	InChI=1S/C7H10O2/c1-3-4-7(5-8)6-9-2/h5,7H,6H2,1-2H3/t7-/m0/s1
