19
gdb 1883	2.4998914	1.6754704	1.2588109	2.3874	74.88	-0.23152	0.07377	0.30529	1048.8756	0.155908	-422.500022	-422.491572	-422.490628	-422.532422	33.178	
O	-0.823197012	 0.2762050437	 3.1817223572	-0.460844
C	-1.2984851458	 0.0278041915	 1.9083832149	 0.341408
C	-2.4070952097	 0.8524849439	 1.2920865839	-0.444066
C	-1.0587643615	 0.798345165	 0.6078730242	 0.34141
O	-0.3070590691	 1.9352569293	 0.3816175766	-0.460809
C	-0.8474712497	-0.5276917754	-0.1554416454	-0.079255
C	-2.0569201724	-1.2604263898	-0.8160922535	-0.245791
C	-2.3019530278	-2.0482509279	 0.5133408588	-0.245779
C	-1.0916521367	-1.312406807	 1.1690181254	-0.079262
H	-1.5499473147	 0.1767868666	 3.8062979372	 0.284568
H	-3.3134886344	 0.4244835747	 0.8715919828	 0.107647
H	-2.5523456373	 1.7908921498	 1.8210722394	 0.113304
H	-0.8160121685	 2.5350747924	-0.1745538885	 0.284567
H	 0.118958481	-0.5766326955	-0.6577213888	 0.076066
H	-2.8752308231	-0.6199983708	-1.156646684	 0.095347
H	-1.7653640387	-1.9041240578	-1.6491633624	 0.100028
H	-3.2718720296	-1.8953426075	 0.9946032323	 0.095344
H	-2.1443621461	-3.1242736356	 0.409858346	 0.100038
H	-0.2986637139	-1.9187483697	 1.6074432038	 0.076078
154.4108	162.0991	202.9911	257.4969	260.8611	274.8381	352.4477	406.2739	484.0368	549.0841	588.3516	699.9964	720.7052	781.2984	796.2278	810.3228	851.1548	876.2324	943.7693	955.8481	967.5658	1002.0624	1016.2989	1052.8161	1095.1719	1130.3997	1151.1557	1176.1706	1188.3005	1234.0096	1237.4637	1238.3289	1269.128	1294.3747	1296.8702	1297.2672	1343.5631	1420.1555	1473.4179	1490.8393	1514.92	3054.5907	3060.4479	3094.3713	3104.9061	3107.7028	3109.7152	3121.0125	3192.7282	3792.7551	3792.7937
OC12CC1(O)C1CCC21	O[C@@]12C[C@]1(O)[C@@H]1CC[C@H]21	
InChI=1S/C7H10O2/c8-6-3-7(6,9)5-2-1-4(5)6/h4-5,8-9H,1-3H2	InChI=1S/C7H10O2/c8-6-3-7(6,9)5-2-1-4(5)6/h4-5,8-9H,1-3H2/t4-,5+,6+,7-
