19
gdb 4834	2.7735456	1.4878759	1.1814868	1.3673	74.37	-0.22816	0.05117	0.27933	1097.9291	0.154704	-422.468112	-422.459457	-422.458513	-422.501204	33.485	
C	 0.9909971538	-0.5127375673	 1.4364829109	-0.392194
C	 1.3048529294	 0.0694420104	 0.0513411423	-0.261455
C	 2.2817555176	-0.7884549644	-0.7345645691	 0.418303
O	 1.713558367	-2.0342161271	-1.0975082936	-0.473854
C	 3.785318383	-0.9534456926	-0.5354110506	-0.179493
C	 4.6129275481	 0.3569137836	-0.3839309671	 0.005392
O	 3.7499300346	 1.5035480574	-0.3576725966	-0.245542
C	 4.0582247616	 0.8958333485	-1.6217270367	 0.005165
C	 3.2101191243	-0.3911250649	-1.8491416797	-0.16081
H	 0.5271623052	-1.5046174695	 1.3763378103	 0.100787
H	 1.8993467744	-0.5995171636	 2.042151931	 0.120372
H	 0.2897713152	 0.1310106344	 1.975209226	 0.118574
H	 0.3840863134	 0.1244044778	-0.542474364	 0.09941
H	 1.6973647467	 1.0769943947	 0.1576909088	 0.138589
H	 1.5319491513	-2.5169499138	-0.2840589272	 0.28384
H	 4.2115615797	-1.9372645358	-0.3870740807	 0.093988
H	 5.5876119975	 0.4577219388	 0.0787222974	 0.111595
H	 4.4793061734	 1.5323846532	-2.3905680738	 0.113079
H	 3.1561019438	-0.8963861399	-2.8045021875	 0.104254
65.2803	143.3249	216.4217	255.5871	286.6616	290.8607	363.84	383.2297	426.6258	536.7265	626.7736	672.3554	758.3867	763.9018	791.3124	800.2986	848.3651	887.7018	911.6362	933.2449	952.889	994.8644	1007.0403	1031.0461	1039.7651	1046.8457	1089.8125	1151.013	1210.5724	1225.0741	1243.0978	1268.8175	1283.6465	1309.188	1344.3825	1388.4566	1408.3909	1441.7074	1482.1977	1501.1755	1508.8984	3026.8313	3038.5496	3086.548	3109.2684	3175.6403	3179.3023	3193.766	3197.1559	3207.8996	3806.9304
CCC1(O)C2C3OC3C12	CC[C@]1(O)[C@@H]2[C@@H]3O[C@@H]3[C@H]12	
InChI=1S/C7H10O2/c1-2-7(8)3-4(7)6-5(3)9-6/h3-6,8H,2H2,1H3	InChI=1S/C7H10O2/c1-2-7(8)3-4(7)6-5(3)9-6/h3-6,8H,2H2,1H3/t3-,4+,5-,6+,7-
