19
gdb 4207	2.6898648	1.7688112	1.2756012	2.1176	74.37	-0.23616	0.08407	0.32023	1028.2319	0.15778	-422.525761	-422.518033	-422.517089	-422.557671	30.484	
C	 3.188465451	 0.7149344536	-1.4442964405	-0.39942
C	 1.8998487348	 1.5303211824	-1.4616807933	 0.091929
O	 1.6055850321	 1.8405717557	-0.1088664765	-0.269564
C	 0.6846409221	 2.8565747365	 0.1532305519	 0.149173
C	-0.5924917463	 3.0750959417	-0.6121794881	-0.345316
C	 0.5692617746	 4.0649216866	-0.7289962195	-0.109623
C	 1.3593432628	 4.0160897539	-1.9898857964	 0.038615
O	 2.787333876	 3.8548796514	-1.8606240238	-0.261473
C	 2.0219548407	 2.757767388	-2.3501546845	 0.031848
H	 3.0785420599	-0.1449077786	-0.7789248138	 0.126157
H	 3.4286997942	 0.3519789592	-2.4481660268	 0.112581
H	 4.0134734461	 1.3349924004	-1.0841158839	 0.141421
H	 1.0868912548	 0.9146341088	-1.8862323853	 0.072613
H	 0.6461655041	 3.0110963325	 1.2258033826	 0.106179
H	-0.8004477835	 2.4629755667	-1.4825310297	 0.120585
H	-1.4739077234	 3.370615532	-0.053925438	 0.116709
H	 0.4664476096	 5.0395626273	-0.2621495777	 0.094005
H	 1.0675140731	 4.7012947609	-2.7855540281	 0.092362
H	 2.1769685873	 2.5225359111	-3.4051309686	 0.091217
111.4034	194.6937	236.4469	252.5462	324.9261	351.7553	422.6997	505.7929	565.3808	658.3693	704.4574	766.5563	780.8351	821.0748	846.6418	892.2624	898.8386	953.1308	1002.1169	1016.1458	1044.7367	1049.0838	1073.5942	1099.9045	1125.9445	1140.6511	1152.131	1164.3465	1197.8565	1248.4289	1288.6723	1344.838	1362.6647	1377.6538	1395.9359	1403.8526	1419.5679	1471.207	1483.98	1495.3387	1500.0991	2944.4745	3046.7404	3087.8773	3111.3732	3122.2774	3132.4369	3138.253	3153.6001	3174.8305	3224.9347
CC1OC2CC2C2OC12	C[C@H]1O[C@@H]2C[C@@H]2[C@H]2O[C@@H]12	
InChI=1S/C7H10O2/c1-3-6-7(9-6)4-2-5(4)8-3/h3-7H,2H2,1H3	InChI=1S/C7H10O2/c1-3-6-7(9-6)4-2-5(4)8-3/h3-7H,2H2,1H3/t3-,4+,5-,6+,7-/m1/s1
