19
gdb 2026	3.0038047	1.5340463	1.269554	1.7557	73.8	-0.21717	0.07393	0.2911	1037.6538	0.157542	-422.517224	-422.509317	-422.508372	-422.549306	31.595	
O	-0.819307755	 0.8529173433	 0.1478194557	-0.460459
C	-1.7762346533	 0.4131788988	 1.0788790022	 0.353353
C	-3.1861299635	 0.7261287983	 0.6541091545	-0.351448
C	-2.6863189938	-0.7085061629	 0.6559251295	 0.042282
O	-3.1943575557	-1.6675299801	 1.5382111096	-0.25794
C	-2.8529139147	-1.6048577289	 2.8942091012	 0.122561
C	-3.4340696585	-0.5468991618	 3.8003185401	-0.32694
C	-1.9558369733	-0.5362572627	 3.4525752805	-0.06571
C	-1.3264654476	 0.4979828692	 2.5289008892	-0.30925
H	-0.0709300371	 0.24566858	 0.182168929	 0.277171
H	-3.9030006647	 1.0315024854	 1.4067176631	 0.118503
H	-3.3000244877	 1.2062239675	-0.3111345518	 0.123654
H	-2.4959761906	-1.1550683992	-0.3149502045	 0.104216
H	-2.7620969108	-2.6126961459	 3.2869870231	 0.097917
H	-4.0763236897	 0.2009225598	 3.3504165524	 0.120713
H	-3.7204889937	-0.8296685504	 4.8077459227	 0.111897
H	-1.2949688776	-0.8546871818	 4.2532198349	 0.09172
H	-1.4597620598	 1.5157773199	 2.9164981336	 0.111968
H	-0.2440921128	 0.3164298714	 2.522412045	 0.095792
84.4937	189.0557	271.0769	309.8145	361.2407	369.2016	401.5541	428.2278	508.3906	540.1722	645.5244	737.7695	763.7858	791.2569	824.1041	875.9168	917.5458	923.5225	949.0239	991.6906	1005.8656	1020.703	1052.6303	1065.2237	1077.0951	1122.2641	1134.3814	1148.383	1198.7222	1236.7537	1243.4146	1258.3212	1308.1041	1343.8132	1355.5044	1382.6617	1405.4886	1429.1859	1471.9073	1484.4698	1504.2609	3015.684	3047.5993	3135.2656	3140.9839	3145.0027	3154.6534	3160.4417	3223.7159	3238.1233	3783.5291
OC12CC1OC1CC1C2	O[C@@]12C[C@@H]1O[C@@H]1C[C@@H]1C2	
InChI=1S/C7H10O2/c8-7-2-4-1-5(4)9-6(7)3-7/h4-6,8H,1-3H2	InChI=1S/C7H10O2/c8-7-2-4-1-5(4)9-6(7)3-7/h4-6,8H,1-3H2/t4-,5-,6+,7+/m1/s1
