19
gdb 4400	3.4121876	1.1307264	1.035411	1.8758	77.58	-0.26242	0.03474	0.29716	1230.4003	0.15628	-422.521157	-422.512388	-422.511444	-422.554365	33.166	
C	 0.3478443945	 0.6681373631	 1.1865920114	-0.387708
C	 1.407969638	 0.1797607965	 0.192829183	-0.001142
C	 2.3583973225	 1.3090449222	-0.2342736821	-0.084443
O	 3.1977389715	 1.7023071096	 0.8488989572	-0.251545
C	 3.947794636	 0.6092879775	 1.3260589426	 0.033993
O	 3.1255460627	-0.4241996098	 1.8167218347	-0.251543
C	 2.2821978304	-0.9353228798	 0.7871963403	-0.084438
C	 4.8218103751	 1.0694296265	 2.4022753545	 0.289662
C	 5.5712371478	 1.4361739761	 3.2639769086	-0.387951
H	 0.8211146515	 1.0632156596	 2.0884157951	 0.145871
H	-0.2654641915	 1.4614736279	 0.7471896714	 0.110899
H	-0.3194798667	-0.1483871309	 1.4808213793	 0.110898
H	 0.9170119748	-0.2132236954	-0.7072251056	 0.074759
H	 2.9808003768	 0.9799920422	-1.0835659515	 0.088951
H	 1.8143058133	 2.2074137916	-0.5373423104	 0.11242
H	 4.5576172442	 0.2082661174	 0.4904120525	 0.080886
H	 2.9001815611	-1.3944721769	-0.0028939686	 0.088949
H	 1.6809145021	-1.7217146008	 1.2508758278	 0.112418
H	 6.225710876	 1.7641482234	 4.0334738197	 0.199064
87.3937	151.9187	186.8164	205.4624	226.0177	310.9515	380.5539	407.1246	466.7445	485.9265	536.1019	621.6363	649.5202	673.4793	749.9119	795.5883	917.1424	940.0488	942.4949	986.2494	997.7447	1002.9794	1028.0802	1086.14	1144.903	1149.0001	1185.7365	1260.0984	1285.8538	1327.9209	1366.2647	1369.2059	1393.7499	1401.7047	1409.886	1426.9138	1489.2111	1489.7643	1503.4841	1506.3769	2259.2656	2889.4518	2961.7378	2969.8428	3026.8705	3039.1616	3091.4495	3094.1321	3101.3421	3130.6124	3505.6015
CC1COC(OC1)C#C	C[C@H]1CO[C@H](OC1)C#C	
InChI=1S/C7H10O2/c1-3-7-8-4-6(2)5-9-7/h1,6-7H,4-5H2,2H3	InChI=1S/C7H10O2/c1-3-7-8-4-6(2)5-9-7/h1,6-7H,4-5H2,2H3/t6-,7+
