19
gdb 2097	2.2605804	1.7375716	1.468643	0.4438	75.91	-0.23427	0.07274	0.30701	1033.4287	0.153046	-422.477137	-422.468024	-422.467079	-422.510154	34.405	
C	 2.0428020448	 2.1245491553	 0.6530873618	-0.538613
C	 2.1955689546	 1.098066857	-0.4181767154	 0.379864
O	 3.2983742432	 0.1400674428	-0.3653209261	-0.378838
C	 2.6119671221	-0.2497551512	-1.5956151738	 0.379866
C	 3.1272504855	-1.3856866415	-2.4133885729	-0.538613
C	 2.222192099	 1.213122895	-1.9742461622	-0.05335
O	 0.8067680249	 0.9193735166	-2.1385547366	-0.362977
C	 1.1817573743	 0.055983918	-1.0176099583	 0.327893
C	 0.1635657066	-0.8226230563	-0.3719557786	-0.541182
H	 1.9020770921	 1.6495061209	 1.628984943	 0.134217
H	 2.9279835453	 2.7657104262	 0.706553405	 0.136727
H	 1.1704884033	 2.749465725	 0.4381787543	 0.139574
H	 3.1260868237	-2.3138051237	-1.8333536557	 0.134212
H	 2.4901109612	-1.5209378874	-3.2928187646	 0.139575
H	 4.1503458229	-1.1906255695	-2.7491262232	 0.136731
H	 2.6938565012	 1.9384111858	-2.6376802038	 0.093968
H	 0.6319284303	-1.3873647322	 0.4402787327	 0.13901
H	-0.6569695051	-0.2288434424	 0.0428373246	 0.135969
H	-0.25470516	-1.5306218285	-1.0942390301	 0.135968
171.3203	185.9413	196.1086	198.7326	203.1572	212.827	260.9455	264.128	434.5596	529.0613	559.7356	597.9256	689.2089	723.6527	744.4961	763.2613	769.5634	801.6442	859.5467	924.2744	953.441	1045.2866	1073.9389	1099.0134	1104.867	1112.0935	1164.5462	1204.418	1249.4729	1274.7377	1324.4443	1389.522	1404.8446	1405.8121	1463.9102	1473.9819	1475.7463	1476.2737	1488.211	1488.9322	1496.0199	3037.2273	3038.7194	3039.2352	3109.0759	3110.4407	3110.6553	3114.9378	3116.9362	3117.0707	3121.0632
CC12OC3(C)C1OC23C	C[C@]12O[C@]3(C)[C@H]1O[C@]23C	
InChI=1S/C7H10O2/c1-5-4-6(2,9-5)7(5,3)8-4/h4H,1-3H3	InChI=1S/C7H10O2/c1-5-4-6(2,9-5)7(5,3)8-4/h4H,1-3H3/t4-,5-,6+,7+
