19
gdb 5758	4.2066792	1.1184266	1.0739378	0.9145	74.91	-0.24316	0.07135	0.31450999999999996	1189.729	0.156398	-422.477337	-422.469334	-422.46839	-422.509962	30.582	
C	 1.4431174205	-0.1322703932	 0.0001970051	-0.239347
O	 0.0448239966	 0.0382936393	 0.0521272617	-0.253499
C	-0.3865978475	 0.7060073196	 1.2132163573	 0.161177
C	-0.1979228515	 2.2637326327	 1.2080205896	-0.277488
C	-1.7423959373	 2.4468107499	 1.2240886805	-0.060802
C	-2.442063632	 2.4501381686	 2.607287484	 0.013853
O	-1.7014296634	 1.5933522406	 3.484794996	-0.235348
C	-2.6248677578	 0.9876060573	 2.5675669313	 0.00883
C	-1.9265148857	 0.8942035948	 1.190049791	-0.10744
H	 1.8117778842	-0.7132155804	 0.8603365367	 0.105179
H	 1.6711833489	-0.6767082626	-0.9194875675	 0.124886
H	 1.9782823439	 0.8291788261	-0.0175127282	 0.106506
H	 0.0025034284	 0.2118938704	 2.1135599517	 0.075498
H	 0.3447568186	 2.6863221268	 2.0553308723	 0.107476
H	 0.2506760959	 2.6062843817	 0.2721344683	 0.104273
H	-2.2041002758	 3.0884674843	 0.4742030433	 0.076657
H	-3.0285964258	 3.2338899677	 3.0738054229	 0.102683
H	-3.3843025311	 0.3442834993	 2.9978572278	 0.104128
H	-2.4681739391	 0.3920527473	 0.3903011364	 0.082778
93.3836	129.5437	184.4791	226.7583	292.2291	344.8971	390.9722	482.0291	594.2857	710.0648	747.1353	794.158	829.8016	848.1533	873.7824	896.8602	916.1276	968.2103	986.9812	1013.7503	1031.1593	1035.64	1069.6982	1117.9003	1142.4611	1163.1561	1185.0078	1199.1635	1203.5888	1233.1913	1240.0912	1250.9975	1269.4605	1287.5807	1302.5983	1365.0074	1387.9789	1452.5782	1481.0961	1487.7787	1509.8073	2974.3344	3012.6473	3021.7039	3066.911	3112.4139	3115.0786	3130.9126	3136.406	3171.3558	3186.4656
COC1CC2C3OC3C12	CO[C@H]1C[C@@H]2[C@@H]3O[C@@H]3[C@H]12	
InChI=1S/C7H10O2/c1-8-4-2-3-5(4)7-6(3)9-7/h3-7H,2H2,1H3	InChI=1S/C7H10O2/c1-8-4-2-3-5(4)7-6(3)9-7/h3-7H,2H2,1H3/t3-,4-,5-,6-,7+/m0/s1
