19
gdb 5427	1.9902102	1.2601891	0.8270802	1.5634	81.18	-0.23122	0.04931	0.28053	1412.6767	0.152995	-422.470854	-422.460478	-422.459534	-422.506452	36.393	
C	 1.3381029823	 0.0562051338	-0.1819580262	-0.235531
O	-0.0727545797	 0.0376453876	-0.0515431875	-0.230943
C	-0.5230490226	 0.6327600901	 1.1110720523	 0.058893
C	-1.8899023486	 1.2516401397	 1.0811794571	 0.065769
O	-2.5982328616	 1.2968502623	-0.105530949	-0.235885
C	-3.2379930761	 0.067235215	-0.4149408111	-0.236477
C	-0.6766315915	 2.1640319318	 1.1472654378	-0.311118
C	-0.3682614758	 2.9100816063	 2.3272411888	 0.316659
C	-0.1058873699	 3.5174829711	 3.3324958077	-0.443851
H	 1.8248373614	-0.4806888393	 0.6451979281	 0.112553
H	 1.5779292001	-0.4433023348	-1.1228733292	 0.131845
H	 1.7247374691	 1.0840315194	-0.2063337854	 0.118612
H	-0.1945442542	 0.1617650061	 2.0390966203	 0.1003
H	-2.4942728199	 1.1575643536	 1.9849591318	 0.101247
H	-3.9579498342	-0.2176587621	 0.3666364293	 0.104719
H	-3.7776980098	 0.2215964192	-1.3518111796	 0.128737
H	-2.5070025098	-0.7394375032	-0.5418835	 0.131443
H	-0.4664114986	 2.6384541175	 0.1925732474	 0.129396
H	 0.1240268292	 4.0627460958	 4.2137690875	 0.193631
92.6206	100.1273	115.8392	129.7653	165.6879	190.9582	225.4785	241.1772	339.1877	388.7279	432.7656	487.0526	499.4748	581.4341	651.3975	672.4506	825.6021	875.4886	961.7484	976.658	1030.9631	1059.9019	1096.2357	1117.8624	1141.003	1166.5961	1181.3324	1185.8482	1216.2626	1245.812	1249.6849	1306.7497	1363.0728	1439.5215	1483.8694	1486.0154	1488.079	1490.7279	1506.6304	1507.9809	2235.0012	2992.534	2993.658	3048.6701	3069.141	3085.371	3096.3871	3126.4016	3126.5928	3155.6335	3505.0581
COC1C(OC)C1C#C	CO[C@@H]1[C@H](OC)[C@H]1C#C	
InChI=1S/C7H10O2/c1-4-5-6(8-2)7(5)9-3/h1,5-7H,2-3H3	InChI=1S/C7H10O2/c1-4-5-6(8-2)7(5)9-3/h1,5-7H,2-3H3/t5-,6-,7+
