19
gdb 3223	3.265871	1.437876	1.2199138	0.0038	73.81	-0.24552	0.06291	0.30843	1050.0591	0.158637	-422.525954	-422.51844	-422.517495	-422.557406	30.593	
O	-3.1363793021	 2.9470538381	-1.2004608824	-0.455766
C	-3.8442148966	 2.0152030678	-0.4141221806	 0.173641
C	-3.075476593	 1.3680799112	 0.7743107065	-0.091418
C	-4.1990182502	 0.5081730814	 1.3966542229	-0.224778
C	-4.363941358	-0.4111740713	 0.1651115661	-0.091418
C	-2.9672529776	-1.0972389889	 0.1391481854	 0.173642
O	-2.7599002608	-2.0858418389	-0.844404908	-0.455766
C	-2.4728059596	 0.3083547096	-0.2482508557	-0.109794
C	-3.8510868922	 0.5793741145	-0.969637575	-0.109794
H	-2.3156228518	 2.5393153481	-1.4976985076	 0.280615
H	-4.797809964	 2.4978441438	-0.1785303822	 0.079638
H	-2.4466789221	 1.9693153185	 1.430359522	 0.068299
H	-3.9012310035	-0.0479625699	 2.290295604	 0.09913
H	-5.0853353537	 1.1008012626	 1.6411789575	 0.099129
H	-5.278256175	-0.994703159	 0.0612232656	 0.068299
H	-2.6204006605	-1.5422576078	 1.07693348	 0.079638
H	-2.9816156699	-1.7152482304	-1.7056509647	 0.280615
H	-1.487759469	 0.4805659781	-0.6828920234	 0.068045
H	-4.0709581806	 0.3597126226	-2.0147652304	 0.068045
175.8432	229.7757	258.0671	263.899	345.163	379.9095	413.8589	477.0289	528.428	637.187	803.7343	824.3711	826.3631	849.6054	851.6921	903.8863	921.3262	960.0704	968.0891	980.6095	989.9877	1022.6827	1060.1181	1086.7689	1104.3143	1138.8708	1147.5286	1178.7954	1197.0259	1205.0686	1229.2352	1242.7934	1264.6202	1277.5911	1285.5229	1289.4321	1305.9531	1317.4952	1435.2188	1436.6293	1510.8087	3049.1028	3060.9759	3063.8294	3093.8242	3103.494	3110.5981	3122.4372	3125.9496	3804.788	3804.9464
OC1C2CC3C(O)C2C13	O[C@@H]1[C@H]2C[C@@H]3[C@@H](O)[C@H]2[C@H]13	
InChI=1S/C7H10O2/c8-6-2-1-3-5(6)4(2)7(3)9/h2-9H,1H2	InChI=1S/C7H10O2/c8-6-2-1-3-5(6)4(2)7(3)9/h2-9H,1H2/t2-,3-,4+,5+,6+,7+/m0/s1
