19
gdb 5471	3.0967205	1.261259	1.0394839	0.3622	74.93	-0.2345	0.06397	0.29847	1182.7792	0.155569	-422.468142	-422.459634	-422.45869	-422.50122	32.284	
C	 3.8435864887	-2.7201970214	 0.9721282657	-0.531354
C	 2.4582079327	-3.1720440563	 0.6101038728	 0.295075
C	 1.3833729502	-2.5115650031	-0.2954757206	-0.107101
C	 0.7920125251	-1.1752455159	 0.1229729019	-0.085439
O	-0.349158952	-0.817726461	-0.6442231671	-0.418098
C	 0.6878765461	-3.8133680713	 0.1773234444	-0.116365
C	 2.0262709874	-4.606784666	 0.1519769753	 0.045822
O	 1.8924475657	-5.1309439655	 1.5060603388	-0.33225
C	 1.3734330699	-3.7695447923	 1.5782810883	 0.040771
H	 4.3164191523	-3.4616239322	 1.6246282602	 0.138434
H	 4.4679478485	-2.6002949491	 0.0802263317	 0.123953
H	 3.8285540317	-1.7610680234	 1.5007373999	 0.124283
H	 1.6313329644	-2.4924604806	-1.3634337886	 0.074813
H	 0.5616145797	-1.1810040605	 1.2015153034	 0.082603
H	 1.5183925083	-0.3722700005	-0.0450504755	 0.111446
H	-1.0124696759	-1.503889435	-0.5182975841	 0.282768
H	-0.3008577952	-4.2131594359	-0.0505520635	 0.080067
H	 2.4442123042	-5.2479984263	-0.6243091613	 0.094604
H	 1.0055853184	-3.4094376436	 2.5386237582	 0.095967
86.0532	144.1855	198.1528	226.5319	231.4099	293.9798	326.8944	392.4579	509.4156	580.1162	674.2203	738.6794	775.473	811.7514	822.9353	863.2088	884.3197	904.5709	933.5943	991.343	1021.3715	1063.4568	1077.8355	1099.4266	1116.321	1142.5419	1156.1731	1158.5452	1174.3935	1195.3995	1229.6464	1259.1054	1303.427	1344.7792	1364.8462	1404.6791	1409.0629	1433.9404	1489.7385	1490.5745	1504.0324	2965.4898	3029.9529	3040.5563	3065.6952	3095.5003	3104.2048	3107.7778	3117.6716	3128.6056	3814.7593
CC12C(CO)C3C1OC23	C[C@@]12[C@H](CO)[C@H]3[C@@H]1O[C@@H]23	
InChI=1S/C7H10O2/c1-7-3(2-8)4-5(7)9-6(4)7/h3-6,8H,2H2,1H3	InChI=1S/C7H10O2/c1-7-3(2-8)4-5(7)9-6(4)7/h3-6,8H,2H2,1H3/t3-,4-,5-,6+,7+/m1/s1
