19
gdb 594	2.4231266	2.0167499	1.6237161	2.2464	74.24	-0.24484	0.01127	0.25611	923.7194	0.160747	-422.574877	-422.567967	-422.567022	-422.605786	28.379	
C	-0.2899656353	-0.4228250563	-0.5626444089	-0.08152
C	 0.1934764253	 0.3635918679	 0.6623183334	-0.219101
C	 1.1999104633	 1.4612950492	 0.2662117835	 0.079283
C	 2.6021377496	 0.9698724021	-0.1448705453	-0.268102
C	 2.6488658467	 0.5314655184	-1.5848205243	-0.067066
C	 1.6233453152	 0.7347733206	-2.4068555226	-0.078641
C	 0.3610386456	 1.4047415116	-1.9125741538	 0.148033
O	-0.6552159151	 0.4556865588	-1.6243159346	-0.258621
O	 0.6240392834	 2.2285540932	-0.798772168	-0.258613
H	 0.4805348773	-1.1304135731	-0.8987646336	 0.09723
H	-1.1915440245	-0.9949812487	-0.3278296713	 0.108884
H	-0.6662272337	 0.8614305908	 1.1230772843	 0.112212
H	 0.6250317128	-0.3159267877	 1.4056728209	 0.094214
H	 1.3011105055	 2.160583036	 1.1009289706	 0.082498
H	 3.3329803746	 1.7759961436	 0.009024662	 0.118012
H	 2.9198885677	 0.1515440883	 0.5138119197	 0.107984
H	 3.5625785739	 0.0584977785	-1.9366826136	 0.094141
H	 1.6360258359	 0.4026937171	-3.4400326326	 0.096614
H	-0.0700672982	 2.0588278897	-2.6747935758	 0.092559
147.5467	242.0152	315.2387	352.3201	421.0561	472.182	503.6533	513.2986	657.8013	672.9543	740.8288	788.2459	842.2874	859.7317	893.562	927.8189	951.3421	970.9393	998.4578	1005.8254	1016.3947	1070.5902	1097.3027	1110.0801	1129.9328	1200.77	1217.8751	1248.8648	1278.4489	1329.8698	1347.1897	1359.5213	1370.8114	1382.7994	1406.4152	1410.7843	1420.7549	1462.4421	1473.1507	1503.8107	1722.2143	3010.7668	3011.337	3037.1231	3046.1228	3065.7045	3082.3224	3084.2371	3093.4552	3151.5065	3185.5566
C1CC2CC=CC(O1)O2	C1C[C@H]2CC=C[C@@H](O1)O2	
InChI=1S/C7H10O2/c1-2-6-4-5-8-7(3-1)9-6/h1,3,6-7H,2,4-5H2	InChI=1S/C7H10O2/c1-2-6-4-5-8-7(3-1)9-6/h1,3,6-7H,2,4-5H2/t6-,7+/m1/s1
