19
gdb 688	2.9606402	1.2952155	1.1858279	1.2771	75.78	-0.25149	-0.02771	0.22377999999999998	1133.6568	0.157269	-422.571685	-422.563412	-422.562468	-422.605559	30.802	
O	 1.3076873601	 0.2392708268	-0.00614388	-0.286903
C	 0.1274093807	 0.0607404229	-0.0132371929	 0.285113
C	-0.8179643211	-1.1435597984	-0.0071194049	-0.197889
O	-1.9391806477	-0.2401838619	-0.0316366581	-0.327764
C	-1.1102990468	 0.9651743688	-0.0434427162	 0.330717
C	-1.2996346907	 1.8504198361	-1.2916151112	-0.263439
C	-2.1598021868	 3.0315012644	-0.8138893744	-0.211074
C	-1.6162852992	 3.2983150391	 0.5989040167	-0.201846
C	-1.3756990582	 1.8874209702	 1.1736291797	-0.277563
H	-0.7584396252	-1.7872800558	-0.8943000228	 0.130093
H	-0.7851530358	-1.7672083912	 0.8955469356	 0.130436
H	-0.3136036797	 2.2120327948	-1.6092572252	 0.119505
H	-1.731331947	 1.2758023144	-2.1140020846	 0.112413
H	-2.0955064375	 3.9005005914	-1.4742717711	 0.099766
H	-3.2130892308	 2.7309511568	-0.7630614325	 0.109601
H	-0.6687571645	 3.84560354	 0.5332136104	 0.107275
H	-2.2928208796	 3.891981198	 1.2194554199	 0.101724
H	-0.5622267022	 1.8558085158	 1.9035165533	 0.113836
H	-2.2746135379	 1.4998690679	 1.6631331381	 0.125999
30.8614	103.4306	148.744	245.2272	263.1859	383.7936	406.9919	535.7415	544.0221	575.3808	693.9646	713.1507	831.5433	835.6416	868.8606	912.0195	913.2761	960.4477	981.5806	1007.1911	1021.1876	1046.7838	1055.484	1123.9157	1127.5249	1141.8249	1195.8176	1231.1492	1252.4192	1264.8789	1294.257	1312.6583	1334.9438	1340.7796	1354.6752	1470.2854	1474.157	1484.5722	1492.9466	1507.9654	1916.2092	3013.8857	3034.5621	3039.0036	3043.5168	3056.8572	3059.377	3091.5396	3096.7934	3108.183	3112.5296
O=C1COC11CCCC1	O=C1COC21CCCC2	
InChI=1S/C7H10O2/c8-6-5-9-7(6)3-1-2-4-7/h1-5H2	InChI=1S/C7H10O2/c8-6-5-9-7(6)3-1-2-4-7/h1-5H2
