19
gdb 1797	2.8490703	1.8699291	1.6775645	0.3016	73.31	-0.2196	0.06274	0.28234	909.0339	0.158808	-422.507309	-422.500468	-422.499524	-422.537957	28.892	
C	 0.1395258841	-0.1137892953	-0.3403663192	-0.499519
C	 1.5579469615	 0.217067006	 0.0391702086	 0.389001
C	 2.7964061452	-0.4341640503	-0.637692631	-0.246837
C	 3.3478293091	-0.203634134	 0.7878791769	 0.049319
O	 1.9942193945	-0.4194615932	 1.2922055966	-0.318675
C	 3.6560337033	 1.3350312362	 0.947583224	 0.056231
C	 2.4338496977	 1.9937232511	 1.6342498337	-0.210194
C	 1.8796623868	 1.7623474722	 0.2067308458	 0.017758
O	 3.2346775425	 1.9802095152	-0.2963047101	-0.289081
H	-0.5662712579	 0.3216497021	 0.3759080299	 0.127926
H	-0.0927033371	 0.2880225146	-1.3321653371	 0.125678
H	-0.0114861724	-1.1963640602	-0.3556553525	 0.128909
H	 2.6183432044	-1.4957786367	-0.8159442895	 0.098962
H	 3.2677333872	 0.0522587051	-1.4874417363	 0.117823
H	 4.0804536839	-0.8706150254	 1.2454398695	 0.077541
H	 4.6842730922	 1.5763565855	 1.2227943542	 0.078268
H	 1.9631166732	 1.5084445408	 2.4847203476	 0.119662
H	 2.6148712253	 3.0546791759	 1.8092768453	 0.103377
H	 1.1450544866	 2.4291182603	-0.2499884461	 0.073851
207.883	227.0088	284.7298	403.3388	449.2527	522.7374	532.1858	545.7894	586.7302	666.8406	761.2372	793.0759	834.0594	870.14	878.0176	888.656	903.1042	926.4219	954.4019	972.1063	1013.3741	1032.3443	1066.5708	1091.7061	1104.5883	1131.5269	1192.2254	1211.983	1224.9293	1233.9344	1250.1154	1272.3249	1295.32	1310.2505	1316.7206	1355.4706	1409.9717	1473.575	1477.6945	1479.0161	1494.2323	3033.899	3088.7018	3089.7193	3095.2963	3101.0595	3101.2138	3110.8402	3120.5027	3175.0302	3179.4259
CC12CC(O1)C1CC2O1	C[C@]12C[C@H](O1)[C@@H]1C[C@H]2O1	
InChI=1S/C7H10O2/c1-7-3-5(9-7)4-2-6(7)8-4/h4-6H,2-3H2,1H3	InChI=1S/C7H10O2/c1-7-3-5(9-7)4-2-6(7)8-4/h4-6H,2-3H2,1H3/t4-,5-,6+,7+/m0/s1
