19
gdb 2454	2.4984197	2.2686158	1.5960635	1.8435	73.79	-0.22437	0.09288	0.31725000000000003	903.2783	0.159053	-422.548863	-422.541925	-422.540981	-422.579639	28.767	
C	 0.070083724	 0.2053625137	 0.2715580607	-0.482815
C	 1.4474047326	-0.2467965869	-0.1486050799	 0.464316
O	 1.9448006629	-1.1771608658	 0.7976638979	-0.320417
C	 2.9338480893	-1.9744275453	 0.130274964	-0.08062
C	 3.1661429296	-1.2020041565	-1.1612379055	 0.053648
O	 3.7007933095	 0.0774535303	-0.734115222	-0.284901
C	 2.4885768237	 0.8408740952	-0.6345476111	 0.027566
C	 1.9000426142	 0.6872719558	-2.0560333171	-0.262405
C	 1.7362066281	-0.7790644001	-1.5916795787	-0.140601
H	 0.1151003105	 0.633313071	 1.277858721	 0.133516
H	-0.3361687029	 0.9637573275	-0.4016166556	 0.120115
H	-0.6179889678	-0.6447924889	 0.2985566389	 0.126349
H	 3.8410639242	-2.0186028977	 0.7399829092	 0.114614
H	 2.5566585252	-2.9951662001	-0.0357800347	 0.086435
H	 3.8185530396	-1.6676205838	-1.9011486126	 0.080472
H	 2.6780036872	 1.7911016535	-0.1368832896	 0.078773
H	 0.9455904892	 1.1909770867	-2.2126751299	 0.10573
H	 2.5882131778	 0.8957574112	-2.8765708547	 0.10659
H	 1.1146349732	-1.5199655398	-2.0932964503	 0.073636
195.2368	233.267	280.5791	332.7336	403.4185	437.9378	500.1627	581.2461	650.3368	708.0605	748.4687	828.1419	860.5121	871.9112	897.1404	911.3282	938.5501	957.1229	971.6635	997.4142	1030.8459	1059.9927	1071.0763	1092.9597	1118.0373	1167.7447	1172.0584	1187.0383	1207.1327	1233.6426	1250.7641	1274.108	1292.1521	1308.258	1349.6405	1381.1396	1416.5049	1480.2943	1489.0719	1501.1919	1509.5379	2988.1885	3045.2381	3082.7047	3083.2889	3108.4023	3110.1193	3125.8359	3128.0358	3134.0993	3146.148
CC12OCC3OC1CC23	C[C@]12OC[C@@H]3O[C@H]1C[C@H]23	
InChI=1S/C7H10O2/c1-7-4-2-6(7)9-5(4)3-8-7/h4-6H,2-3H2,1H3	InChI=1S/C7H10O2/c1-7-4-2-6(7)9-5(4)3-8-7/h4-6H,2-3H2,1H3/t4-,5-,6-,7+/m0/s1
