19
gdb 4594	3.6100395	0.6813444	0.5992045	3.6967	81.3	-0.25301	0.02917	0.28218	1873.4907	0.154155	-422.499685	-422.489169	-422.488224	-422.537325	35.986	
C	-3.4659900027	 1.3355957007	 4.7670150001	-0.365953
C	-3.0541819832	 2.022430084	 3.4516795162	-0.316127
C	-2.2338405019	 1.1703147601	 2.5970933961	 0.07397
C	-1.5735535924	 0.4461058738	 1.8953532488	 0.031653
C	-0.7226576634	-0.4348505273	 1.0909212763	-0.069377
O	-0.5440741607	-1.7113065707	 1.6981671218	-0.413153
C	 0.6144532002	 0.2326375589	 0.8062274494	 0.083672
C	 0.8138724888	 1.0750006003	-0.3766001794	-0.17356
O	 1.3323548317	-0.2563274844	-0.3203568798	-0.226015
H	-4.0433618787	 0.4289759683	 4.5677295598	 0.133197
H	-2.5857343915	 1.0541872992	 5.3513527766	 0.126738
H	-4.0791661527	 2.0102134865	 5.3714039918	 0.118476
H	-3.9527545724	 2.3277378987	 2.900644258	 0.134324
H	-2.507988679	 2.9476347963	 3.6755754704	 0.131237
H	-1.1964642827	-0.6441966419	 0.1242375844	 0.119354
H	-0.3598212793	-1.5634141323	 2.6322682621	 0.28313
H	 1.224334147	 0.4205452567	 1.6919189777	 0.094058
H	-0.0094167917	 1.226939274	-1.073585567	 0.117025
H	 1.5551675045	 1.8718889691	-0.3529069434	 0.11735
18.7696	57.6672	90.0093	109.2192	180.7705	219.2986	243.0234	257.6146	328.1765	367.0674	415.329	484.7939	518.0938	601.1644	778.9368	787.1872	846.6349	876.7288	945.0032	964.1229	1042.1677	1077.1359	1087.8645	1104.1268	1120.4303	1158.04	1159.4859	1170.6201	1255.9816	1279.1164	1285.513	1291.7134	1348.3637	1408.8088	1414.8628	1436.2401	1476.2226	1494.8217	1505.9456	1530.5583	2359.3901	3022.2362	3043.1506	3046.1946	3050.3566	3085.2625	3096.8898	3120.3011	3125.4167	3172.4975	3809.4161
CCC#CC(O)C1CO1	CCC#C[C@H](O)[C@@H]1CO1	
InChI=1S/C7H10O2/c1-2-3-4-6(8)7-5-9-7/h6-8H,2,5H2,1H3	InChI=1S/C7H10O2/c1-2-3-4-6(8)7-5-9-7/h6-8H,2,5H2,1H3/t6-,7-/m0/s1
