19
gdb 709	2.6771805	1.655137	1.2894094	3.1957	74.47	-0.23278	-0.0242	0.20858	1024.5301	0.158528	-422.557355	-422.54974	-422.548796	-422.589521	29.885	
O	-0.653858689	 1.250390286	 3.6489900703	-0.293613
C	-0.4118794798	 1.1462551212	 2.4691586446	 0.359405
C	-1.4944146327	 0.623234625	 1.5060599153	-0.163969
O	-1.1914968108	-0.5603969873	 0.7914470652	-0.263698
C	 0.0050766073	-0.6176113384	 0.0340669694	 0.135308
C	 1.2962814066	-0.7255548675	 0.895562203	-0.246438
C	 1.4888301906	 0.8105451107	 0.72211383	-0.019544
C	 0.5472652753	 0.731056319	-0.5149583846	-0.26555
C	 0.926463238	 1.6178525258	 1.8958212572	-0.313549
H	-2.3729349884	 0.3914610506	 2.110653539	 0.131877
H	-1.7565332226	 1.4454557122	 0.8189354262	 0.101683
H	-0.1658735755	-1.4144791644	-0.6930681214	 0.085811
H	 1.1718384284	-1.1157998396	 1.9094979225	 0.112454
H	 2.0720531232	-1.3023721533	 0.3850385515	 0.102968
H	 2.5069985054	 1.149853109	 0.5168641713	 0.075628
H	-0.1577978622	 1.5467179073	-0.6933390996	 0.102436
H	 1.1116178318	 0.5617245113	-1.4354359485	 0.107368
H	 1.6317122509	 1.6379069503	 2.7318901758	 0.127799
H	 0.7778676237	 2.663032032	 1.5842208628	 0.123624
65.7334	172.319	291.217	298.918	349.2318	411.1322	458.2609	474.9833	486.0713	628.0619	765.3091	786.3702	803.1568	821.8972	866.4345	883.5677	918.8679	956.65	970.3777	1036.7294	1067.3807	1082.3198	1095.566	1131.2783	1158.5516	1192.5038	1220.9434	1241.699	1259.228	1274.7818	1285.1652	1300.3359	1321.734	1370.2571	1378.2522	1395.5086	1451.2622	1464.7564	1484.5931	1500.9013	1806.9701	2964.3343	3005.5592	3056.4152	3062.4036	3074.4527	3085.3624	3090.8604	3113.2614	3115.1268	3119.6145
O=C1COC2CC(C2)C1	O=C1CO[C@@H]2C[C@@H](C2)C1	
InChI=1S/C7H10O2/c8-6-1-5-2-7(3-5)9-4-6/h5,7H,1-4H2	InChI=1S/C7H10O2/c8-6-1-5-2-7(3-5)9-4-6/h5,7H,1-4H2/t5-,7+
