19
gdb 1268	3.0361906	1.2727475	1.2285093	2.4568	74.41	-0.2267	0.064	0.2907	1118.8712	0.155075	-422.479456	-422.470835	-422.469891	-422.51258	33.181	
C	-2.4104420884	-3.8325017742	 0.0075097438	-0.411051
C	-1.8389744179	-2.4122441669	 0.0668032137	 0.008509
O	-1.3269160564	-2.0073221985	-1.2050351929	-0.442102
C	-2.8765581449	-1.4038609948	 0.4536453867	 0.362499
C	-3.2160546092	-1.0179556676	 1.8683489578	-0.353002
C	-2.7099374093	 0.0382012492	 0.9197588038	-0.171362
C	-3.8162600965	 0.4627123222	-0.0955380864	 0.027528
O	-5.0319863555	-0.2490101329	 0.1886889928	-0.247415
C	-3.9880478201	-0.9117449838	-0.541034368	-0.031227
H	-2.7903719646	-4.1384925882	 0.9868165597	 0.126028
H	-3.229976811	-3.88847195	-0.7156867928	 0.126257
H	-1.6391370662	-4.5517109467	-0.292917823	 0.103244
H	-1.0351384303	-2.3857923801	 0.821987993	 0.063307
H	-0.7667718174	-2.7156625357	-1.5382586097	 0.280821
H	-4.2465331344	-1.0056785059	 2.199768877	 0.135509
H	-2.4917777813	-1.338370626	 2.6113740862	 0.109333
H	-1.7898999419	 0.5862941677	 1.0723313502	 0.097077
H	-3.8969101871	 1.4064829147	-0.619957971	 0.10788
H	-4.2278823377	-1.3338168624	-1.5083992008	 0.10817
72.1901	132.5368	172.9171	251.8254	291.3441	321.057	356.9391	417.8624	481.8938	507.2878	577.3217	648.5364	756.9599	803.2368	804.9345	834.2931	882.715	902.9655	920.8284	968.6438	984.074	1000.0458	1015.8233	1023.9352	1062.8683	1095.6174	1099.5413	1125.9164	1175.9902	1205.225	1238.027	1258.7055	1304.5243	1339.5933	1357.0014	1392.573	1403.4693	1436.8586	1474.9634	1491.4769	1504.4083	2953.4946	3027.4759	3095.693	3117.5314	3135.5255	3190.9457	3204.722	3210.1069	3230.0114	3816.1589
CC(O)C12CC1C1OC21	C[C@@H](O)[C@@]12C[C@@H]1[C@@H]1O[C@H]21	
InChI=1S/C7H10O2/c1-3(8)7-2-4(7)5-6(7)9-5/h3-6,8H,2H2,1H3	InChI=1S/C7H10O2/c1-3(8)7-2-4(7)5-6(7)9-5/h3-6,8H,2H2,1H3/t3-,4-,5+,6+,7+/m1/s1
