19
gdb 3003	2.5266211	1.6886528	1.3008035	2.7784	75.16	-0.22812	-0.0151	0.21302	1044.9072	0.155898	-422.567547	-422.558989	-422.558044	-422.600276	32.644	
C	-2.8695696082	-1.5862848187	 1.5371422621	-0.4299
C	-1.7420361213	-0.6273398898	 1.188964909	-0.029593
C	-1.9996205466	 0.3021420842	-0.0238766971	 0.064442
C	-0.7464426253	 1.1891893837	-0.1078250254	-0.349801
C	 0.2626733313	 0.0317620956	 0.0609605991	 0.421117
O	 1.4611550423	 0.0479940686	 0.1067081716	-0.330748
C	-0.6956380551	-1.171949493	 0.1574262255	 0.287028
C	-0.1289180787	-2.5561685206	 0.111623815	-0.512702
O	-1.6329584214	-0.7995353876	-0.9188221222	-0.335171
H	-2.5238106363	-2.3721256728	 2.2164731577	 0.122016
H	-3.6854098183	-1.0531145672	 2.0367061409	 0.118948
H	-3.2693884498	-2.0582934194	 0.6362912741	 0.138737
H	-1.3312140219	-0.1473437284	 2.0846678215	 0.077519
H	-2.9759060166	 0.7374071383	-0.2369387665	 0.086415
H	-0.6442726217	 1.6740347155	-1.0817355643	 0.136957
H	-0.6435907848	 1.9408905452	 0.6799571071	 0.124696
H	 0.6307629186	-2.6680835786	 0.8910903406	 0.138976
H	-0.9019964891	-3.3151189802	 0.2535470639	 0.12752
H	 0.3571004028	-2.7276983845	-0.8534403627	 0.143545
111.5953	149.1579	214.4019	233.1705	250.5354	259.6516	328.8982	417.9844	472.2322	547.7307	618.0996	655.2404	661.4237	781.6214	786.3091	820.3181	867.9865	928.4641	943.6452	966.4848	1028.4589	1045.6194	1069.6371	1080.5248	1114.3998	1142.7971	1171.7268	1229.1992	1240.8847	1275.7831	1291.0809	1337.4298	1390.0277	1404.4865	1416.6778	1450.469	1473.6927	1484.8063	1496.3844	1504.3357	1876.0843	3036.1471	3042.5766	3047.5617	3067.7002	3098.2942	3118.6828	3119.8178	3121.9193	3125.6538	3127.59
CC1C2CC(=O)C1(C)O2	C[C@@H]1[C@H]2CC(=O)[C@]1(C)O2	
InChI=1S/C7H10O2/c1-4-5-3-6(8)7(4,2)9-5/h4-5H,3H2,1-2H3	InChI=1S/C7H10O2/c1-4-5-3-6(8)7(4,2)9-5/h4-5H,3H2,1-2H3/t4-,5-,7-/m1/s1
