19
gdb 1331	2.5956791	1.4347331	1.1123434	1.6386	75.76	-0.2465	-0.03261	0.21389	1132.511	0.15572	-422.517229	-422.508425	-422.507481	-422.552488	32.246	
O	-0.9912315623	-1.2969967992	 1.5128909992	-0.422737
C	-1.0812904889	-0.2694021323	 0.5355567324	-0.133457
C	-2.5454736982	-0.0661716094	 0.1354371812	 0.127967
O	-2.9245608782	 0.4677301975	-0.8738181589	-0.241056
C	-0.1644535652	-0.4991470367	-0.6441825322	 0.357779
C	 0.0973732907	 0.4405674194	-1.8592804762	-0.252714
C	 0.9934293343	-0.810388613	-2.0900992752	-0.04865
C	 1.3746455167	-0.7331066427	-0.5838041404	-0.25977
C	-0.2270742187	-1.6790879771	-1.6710948451	-0.274264
H	-1.0617676914	-2.1428643141	 1.056193552	 0.287626
H	-0.7747708385	 0.6520101328	 1.0535990701	 0.120143
H	-3.2529724816	-0.4726466055	 0.8948851496	 0.086843
H	-0.7395185285	 0.5908274241	-2.5418676536	 0.114651
H	 0.6148085832	 1.3788858353	-1.6393889035	 0.089637
H	 1.6653377305	-0.9948322929	-2.9280976963	 0.076225
H	 1.7109523394	-1.6588607025	-0.1093755058	 0.091353
H	 1.9836269563	 0.1204099278	-0.2728013972	 0.091692
H	-1.0832969172	-1.6894287358	-2.3499721674	 0.105455
H	 0.0002765678	-2.6806677957	-1.2906176127	 0.083277
13.9263	74.5299	146.4764	186.1474	264.3782	297.0249	383.6738	449.8141	536.8808	544.172	610.6996	629.4737	786.1652	807.0525	880.6854	907.6488	944.0137	958.7329	962.2068	997.1712	998.0331	1053.9406	1074.3555	1096.2832	1102.7118	1135.2755	1148.1062	1155.2785	1165.5632	1226.6719	1232.5522	1236.8574	1261.7142	1287.2367	1325.9751	1386.2844	1407.9731	1496.2165	1500.3545	1555.2157	1831.7251	2872.3151	3005.0471	3038.1649	3049.3884	3059.9758	3111.5153	3114.5531	3115.8058	3139.6962	3800.0714
OC(C=O)C12CC(C1)C2	O[C@H](C=O)[C@@]12C[C@@H](C1)C2	
InChI=1S/C7H10O2/c8-4-6(9)7-1-5(2-7)3-7/h4-6,9H,1-3H2	InChI=1S/C7H10O2/c8-4-6(9)7-1-5(2-7)3-7/h4-6,9H,1-3H2/t5-,6-,7-/m1/s1
