19
gdb 2056	2.9332758	1.0978541	0.9205561	2.9886	76.39	-0.24754	-0.02171	0.22583	1299.4269	0.15444	-422.533539	-422.524316	-422.523372	-422.56852	33.097	
C	 0.0480440163	 3.3841372072	-1.3349888105	-0.505866
C	-0.2261140713	 3.1469762376	 0.1147570186	 0.406562
O	 0.734652763	 3.6118095407	 1.0759632615	-0.287202
C	-0.6271922319	 4.0491217081	 1.2094794849	-0.032421
C	-1.3877617616	 2.9406068354	 1.9400157725	-0.27642
C	-0.9634297825	 1.9571183145	 0.7865232118	-0.066436
C	-0.1340396206	 0.7314648655	 1.1921138778	-0.292878
C	 0.264529933	-0.1164834785	 0.0072102989	 0.152672
O	-0.0880457943	-1.2539084397	-0.1751680691	-0.240545
H	 0.8155042237	 2.6979299282	-1.7106176969	 0.134605
H	-0.8575520154	 3.2317649269	-1.9308424276	 0.128602
H	 0.4043177753	 4.4059089682	-1.4911530842	 0.137385
H	-0.7999759067	 5.1196381242	 1.2138663331	 0.104618
H	-1.0163378555	 2.7054334671	 2.9407711736	 0.112996
H	-2.4677297948	 3.099734604	 1.9779473042	 0.110991
H	-1.8367792348	 1.654923538	 0.1999186049	 0.088768
H	 0.7754935789	 1.0916372865	 1.6900689195	 0.132202
H	-0.6949661644	 0.1028398712	 1.8901840534	 0.118707
H	 0.9270860836	 0.3955155549	-0.7297214363	 0.073662
43.7637	65.4001	135.841	187.79	200.2385	279.1844	291.0431	363.4154	440.528	498.907	564.49	652.1052	718.1014	784.5383	842.6534	863.8144	904.389	921.0768	961.6486	988.1879	1026.3791	1051.2008	1071.3455	1106.3099	1110.5041	1162.9584	1196.502	1204.17	1242.4295	1263.0253	1269.768	1307.3071	1354.0714	1405.9071	1430.1401	1457.2622	1467.966	1478.5703	1485.4008	1494.903	1831.8185	2855.7728	3032.0571	3034.5631	3059.9164	3066.5098	3096.6733	3099.3149	3120.9319	3123.5795	3181.4146
CC12OC1CC2CC=O	C[C@@]12O[C@@H]1C[C@@H]2CC=O	
InChI=1S/C7H10O2/c1-7-5(2-3-8)4-6(7)9-7/h3,5-6H,2,4H2,1H3	InChI=1S/C7H10O2/c1-7-5(2-3-8)4-6(7)9-7/h3,5-6H,2,4H2,1H3/t5-,6+,7-/m0/s1
