19
gdb 2635	2.8347834	1.5004425	1.0955449	1.9688	77.29	-0.2418	0.02053	0.26233	1132.7924	0.156332	-422.556556	-422.547921	-422.546977	-422.589503	32.977	
C	 1.4285902995	 0.7972102466	 0.0122999825	-0.493478
C	 0.1173757976	 0.1305533948	 0.268262805	 0.298897
C	-0.1359822413	-1.1661999647	 0.4611355467	-0.179021
C	-1.6018598151	-1.4571643886	 0.6991499861	-0.3439
C	-2.2472174689	-0.1300150335	 0.3238936661	 0.366436
C	-3.6739358318	 0.1820951775	 0.3345689097	-0.244646
O	-2.999912902	-0.1076626061	-0.9028593431	-0.275244
C	-1.1578198241	 0.9554034255	 0.3862681644	-0.024408
O	-1.333296852	 1.9563944178	-0.5921886537	-0.438291
H	 1.6954531958	 1.4722442849	 0.8361201416	 0.1256
H	 2.2372482398	 0.07208834	-0.1112587479	 0.119234
H	 1.3675055112	 1.4188057202	-0.8874940722	 0.141439
H	 0.6163034059	-1.948050844	 0.4737786036	 0.090752
H	-1.9978231654	-2.2697971674	 0.0803574978	 0.122502
H	-1.8023145653	-1.7217261302	 1.7468032801	 0.112606
H	-4.396334415	-0.5696553771	 0.6486947756	 0.118023
H	-3.9925549406	 1.2168377006	 0.4513587221	 0.123499
H	-1.1773826565	 1.4676605271	 1.3604573052	 0.088693
H	-1.8262418618	 1.5315544468	-1.3096503697	 0.291308
80.4809	165.5366	221.9763	242.2772	259.77	285.392	349.4397	409.6867	453.7433	487.5877	513.27	616.4948	663.6745	759.472	822.3499	858.3052	882.0351	904.1859	959.4955	973.6552	1015.3031	1036.6517	1068.185	1103.3562	1120.0525	1157.8683	1181.2688	1195.6438	1229.2942	1263.8804	1291.8919	1310.5831	1342.0728	1408.2248	1424.9726	1443.3413	1474.3033	1477.604	1489.5613	1525.053	1721.3519	2987.226	3011.4046	3021.566	3065.8799	3077.3477	3085.7955	3116.8314	3174.3928	3184.5514	3724.2434
CC1=CCC2(CO2)C1O	CC1=CC[C@@]2(CO2)[C@@H]1O	
InChI=1S/C7H10O2/c1-5-2-3-7(4-9-7)6(5)8/h2,6,8H,3-4H2,1H3	InChI=1S/C7H10O2/c1-5-2-3-7(4-9-7)6(5)8/h2,6,8H,3-4H2,1H3/t6-,7-/m1/s1
