19
gdb 4150	2.9538595	1.3610357	1.0775934	1.7063	75.88	-0.24113	0.06813	0.30926	1161.6704	0.156081	-422.504026	-422.495474	-422.49453	-422.537301	32.432	
O	 0.6077571272	-0.3065654113	 3.5449890059	-0.435773
C	 0.054907679	 0.2621367697	 2.3786433187	 0.047499
C	-1.4626022295	 0.6625177959	 2.5019475032	-0.280259
C	-1.7830421112	-0.4616019837	 1.5128532413	-0.054063
O	-1.0237120058	-0.1850935211	 0.31994003	-0.298239
C	-0.3641872028	-0.8560362735	 1.3994707279	 0.439041
C	 0.3351261298	-2.1334028305	 1.1486013747	-0.134789
C	 1.2016983985	-2.2787135041	-0.0836798235	-0.264389
C	-0.102853266	-3.0255043454	 0.0155921712	-0.270325
H	 0.7659185675	 0.398494211	 4.1803523789	 0.288654
H	 0.7134229752	 1.0219011815	 1.9377836269	 0.073897
H	-1.8235206582	 0.4587525302	 3.513299364	 0.106113
H	-1.7522194674	 1.668054548	 2.1866185281	 0.10463
H	-2.6906659086	-1.0416654617	 1.3902735806	 0.102874
H	 0.6921618078	-2.609728175	 2.0553688515	 0.103463
H	 1.2407237731	-1.4368289102	-0.765574751	 0.12501
H	 2.1289053758	-2.8325996706	 0.0099825836	 0.111614
H	-0.9214394984	-2.6728706648	-0.6008612216	 0.125779
H	-0.077762056	-4.0972624843	 0.1766168797	 0.109263
76.1207	134.7937	152.3178	203.6411	262.5536	272.7689	432.4011	462.9418	491.4671	503.5422	641.3835	754.1994	793.6804	823.5456	846.1259	875.407	889.5389	917.878	935.1917	962.025	1001.8983	1035.6899	1064.5278	1088.597	1105.5017	1128.0695	1133.9748	1137.7555	1175.3951	1198.6111	1207.232	1217.8262	1231.7313	1254.1715	1301.1523	1379.0076	1406.3289	1452.7772	1460.8709	1489.3516	1509.2809	3017.4119	3060.9812	3123.7545	3137.7758	3141.7277	3170.8711	3183.8304	3221.0129	3235.6099	3822.4224
OC1CC2OC12C1CC1	O[C@@H]1C[C@H]2O[C@@]12C1CC1	
InChI=1S/C7H10O2/c8-5-3-6-7(5,9-6)4-1-2-4/h4-6,8H,1-3H2	InChI=1S/C7H10O2/c8-5-3-6-7(5,9-6)4-1-2-4/h4-6,8H,1-3H2/t5-,6-,7+/m1/s1
