19
gdb 5002	4.9181768	0.9013991	0.8727219	3.4342	78.05	-0.24352	-0.02446	0.21905999999999998	1352.1291	0.15584	-422.520076	-422.511095	-422.510151	-422.554279	32.735	
O	-3.3604282336	-2.6742207678	 5.4310410696	-0.421856
C	-3.5743533356	-1.5074537219	 6.2121003815	-0.218277
C	-3.0131849199	-0.3390044125	 5.455452492	 0.358622
C	-3.0015356993	 1.1552126946	 5.900103095	-0.313892
C	-2.3104550938	 1.1261519207	 4.5109632028	 0.246514
C	-3.4406576898	 0.150331661	 4.0377207483	-0.292679
C	-1.536733966	-0.1482370514	 4.9905983077	-0.292799
C	-1.7490720173	 2.2712841933	 3.7454324445	 0.031689
O	-1.7650702941	 3.4179750958	 4.1197118098	-0.249223
H	-3.7183344586	-3.4276585874	 5.9095797078	 0.290903
H	-4.6473916773	-1.3386011958	 6.4010670665	 0.089938
H	-3.0758579964	-1.5804044605	 7.1928294936	 0.089928
H	-3.9682323848	 1.6620882778	 5.950526034	 0.099947
H	-2.3671542592	 1.4109864682	 6.7522514002	 0.099829
H	-4.4393287138	 0.5860802321	 3.9466697839	 0.098738
H	-3.2054544587	-0.5121738035	 3.2024926494	 0.107838
H	-1.1778628101	-0.8303926529	 4.2174912272	 0.107845
H	-0.7903849014	 0.0135040056	 5.7731171666	 0.09861
H	-1.2963882504	 1.9916341448	 2.7648160997	 0.068325
61.8479	93.8069	116.1568	205.3283	213.6174	257.4534	352.3943	416.6636	449.4836	536.6586	554.182	655.2028	715.0029	756.8864	858.9323	913.1326	927.4504	962.5542	993.435	1020.9708	1036.7073	1074.9059	1082.3511	1103.5815	1129.4007	1138.607	1148.0876	1166.064	1170.896	1173.8109	1251.694	1276.1673	1298.1859	1346.4926	1421.0206	1467.0797	1495.7728	1498.0629	1511.9609	1558.2239	1816.8577	2853.0204	2959.5044	2988.0948	3054.8257	3055.6363	3064.1269	3124.3771	3129.3726	3132.689	3830.6537
OCC12CC(C1)(C2)C=O	OC[C@]12C[C@](C1)(C2)C=O	
InChI=1S/C7H10O2/c8-4-6-1-7(2-6,3-6)5-9/h4,9H,1-3,5H2	InChI=1S/C7H10O2/c8-4-6-1-7(2-6,3-6)5-9/h4,9H,1-3,5H2/t6-,7+
