19
gdb 1251	1.9618734	1.3446779	0.9034752	2.0285	78.49	-0.275	0.00442	0.27942	1334.9383	0.153247	-422.553198	-422.542772	-422.541827	-422.589385	36.775	
C	 1.8647606908	 2.6190379236	 1.2719024274	-0.403462
C	 0.4055667869	 2.6277582247	 0.7997802463	 0.01731
C	-0.4554658473	 3.5468080352	 1.6758480347	-0.401619
C	-0.1725933449	 1.1980866836	 0.7870649019	-0.062198
O	 0.6705777148	 0.3952576767	-0.0895904848	-0.214805
C	 0.8383735125	-0.8941114141	 0.2482416483	 0.185955
O	 0.3772545537	-1.4495421784	 1.2054005054	-0.298132
C	-1.5491129726	 1.1308611408	 0.3049913326	 0.341894
C	-2.679326087	 1.086332503	-0.0996142334	-0.444809
H	 1.9416240962	 2.2497111522	 2.3015969624	 0.117457
H	 2.4898614272	 1.9886927886	 0.6360004545	 0.127205
H	 2.2736929807	 3.6336733635	 1.2530928513	 0.11638
H	 0.3699726507	 2.9924477333	-0.2342514589	 0.094655
H	-0.4595175076	 3.2057704464	 2.717830846	 0.117983
H	-0.0534150879	 4.5641238742	 1.6624768116	 0.117798
H	-1.4904038129	 3.5832221071	 1.3276831144	 0.133365
H	-0.1169022895	 0.7605428407	 1.7898068403	 0.138067
H	 1.4871618999	-1.3653035554	-0.5063168192	 0.112524
H	-3.6810722838	 1.0350793143	-0.4491108809	 0.204432
31.8522	69.127	138.8816	169.0956	193.0813	225.344	251.0261	282.8249	331.4394	357.1444	408.338	436.3008	521.0002	571.6186	627.1959	673.7697	758.6484	874.7886	898.833	935.3509	953.4096	975.6593	1021.606	1045.4128	1137.2913	1168.4374	1190.115	1193.843	1286.4978	1344.3776	1360.2903	1379.5306	1401.2162	1406.79	1422.7206	1489.8478	1492.6498	1503.2028	1515.6698	1824.2826	2239.7472	3029.9752	3030.876	3033.1019	3039.0153	3062.83	3098.3447	3104.9102	3125.6968	3128.9671	3502.5368
CC(C)C(OC=O)C#C	CC(C)[C@H](OC=O)C#C	
InChI=1S/C7H10O2/c1-4-7(6(2)3)9-5-8/h1,5-7H,2-3H3	InChI=1S/C7H10O2/c1-4-7(6(2)3)9-5-8/h1,5-7H,2-3H3/t7-/m1/s1
