19
gdb 4752	3.7125147	0.6378688	0.5725958	3.3926	84.93	-0.25603	-0.0472	0.20883	1961.5567	0.15237	-422.526732	-422.515499	-422.514554	-422.565163	37.323	
C	-5.1069878329	 3.2333275148	 0.6403078916	-0.233821
O	-3.7526588103	 2.8444507939	 0.7221707368	-0.242026
C	-3.1590367358	 2.5414438507	-0.5335519328	-0.047504
C	-2.7691470755	 3.8060227894	-1.3197073861	-0.39569
C	-1.9870206554	 1.7026862486	-0.2909846866	 0.038098
C	-1.0046479824	 1.0180277177	-0.1395069817	 0.096069
C	 0.1730593201	 0.192876267	 0.0550632928	 0.242392
C	 0.5596855862	-0.0544873458	 1.498795444	-0.476971
O	 0.7938885239	-0.2592132609	-0.8836609709	-0.277266
H	-5.4659979046	 3.3399867173	 1.6663625391	 0.134948
H	-5.243770318	 4.1933016524	 0.1222475149	 0.110814
H	-5.7169823486	 2.4727564696	 0.1284291123	 0.109182
H	-3.871401034	 1.9549418009	-1.1397568584	 0.103395
H	-2.0670690989	 4.4051403714	-0.7350861709	 0.13897
H	-2.2979322028	 3.5328905172	-2.2673112778	 0.137394
H	-3.6546022257	 4.4089021335	-1.5369271784	 0.123005
H	-0.2651311757	-0.5408677523	 2.0305472147	 0.14867
H	 1.45182101	-0.6813332263	 1.5354212563	 0.14206
H	 0.7472323306	 0.8980717108	 2.0059077411	 0.14828
26.0982	60.2313	69.7241	101.8266	124.8536	178.0888	201.8135	226.3401	255.9573	327.382	364.7195	433.2688	532.8911	534.9425	601.5484	615.0469	709.5881	840.7969	937.7392	982.8169	1039.4737	1043.2108	1086.4053	1113.2484	1154.7023	1180.4504	1217.2034	1243.9812	1333.3041	1367.9146	1382.2012	1397.8956	1460.4364	1468.3122	1475.7186	1482.0669	1491.1107	1499.761	1510.9279	1767.9223	2331.3509	2952.1181	2980.2802	3031.4842	3040.2235	3052.6147	3104.6853	3120.1846	3128.7326	3137.6828	3152.1733
COC(C)C#CC(C)=O	CO[C@@H](C)C#CC(=O)C	
InChI=1S/C7H10O2/c1-6(8)4-5-7(2)9-3/h7H,1-3H3	InChI=1S/C7H10O2/c1-6(8)4-5-7(2)9-3/h7H,1-3H3/t7-/m0/s1
