19
gdb 2791	3.4642248	1.1391967	1.0071267	0.8345	75.28	-0.2104	0.06738	0.27778	1230.5983	0.154541	-422.476737	-422.46765	-422.466706	-422.509704	34.947	
C	 0.1331346234	 0.21752243	-0.094467445	-0.429914
C	 1.6361908761	 0.0425989857	-0.0048881085	-0.10091
C	 2.2237203824	-1.0884959773	-0.842253759	-0.132342
C	 3.7672087096	-1.211581472	-0.7631454387	-0.131604
C	 4.4492280383	-0.2082077683	 0.1309323818	 0.126814
O	 5.8456765458	-0.2550205475	 0.2103846067	-0.444379
C	 3.6780030376	-1.3387065472	 0.7638373105	-0.204834
C	 2.1277881779	-1.2223771609	 0.6587989757	 0.379879
O	 1.3035495461	-2.07289591	 1.3745513491	-0.454884
H	-0.2585989585	 0.7140509736	 0.8005639116	 0.111639
H	-0.1356455241	 0.8321576863	-0.9597998335	 0.119127
H	-0.3741002495	-0.7463613113	-0.1857593461	 0.131609
H	 2.17266687	 0.9798130522	 0.1083377631	 0.080982
H	 1.6323907391	-1.5675086047	-1.6127593428	 0.095224
H	 4.3451474859	-1.8110074624	-1.4576025306	 0.087578
H	 4.1402168854	 0.8281149562	 0.1985596242	 0.106106
H	 6.1273924763	-1.1738170141	 0.1409985341	 0.284998
H	 4.1573511153	-2.0615914963	 1.4141413198	 0.089278
H	 1.1048646629	-1.6587324321	 2.2228758675	 0.285632
177.0138	185.7377	195.1457	221.775	242.7009	262.8171	280.7424	300.6839	381.2557	416.8784	453.9326	564.6743	653.7178	761.7438	780.6336	818.5328	835.8017	899.9625	925.4508	962.31	969.4245	992.4311	1039.3916	1057.6291	1087.2951	1106.3797	1118.1238	1129.9797	1140.1608	1171.3669	1212.0679	1250.8115	1267.2591	1294.9486	1328.3173	1362.4374	1412.9676	1447.9556	1456.988	1493.5345	1505.678	3032.0552	3089.8794	3116.4429	3140.5167	3166.5372	3179.4221	3181.3197	3191.5113	3771.8181	3804.7224
CC1C2C3C(O)C3C12O	C[C@@H]1[C@H]2[C@H]3[C@H](O)[C@H]3[C@@]12O	
InChI=1S/C7H10O2/c1-2-4-3-5(6(3)8)7(2,4)9/h2-6,8-9H,1H3	InChI=1S/C7H10O2/c1-2-4-3-5(6(3)8)7(2,4)9/h2-6,8-9H,1H3/t2-,3-,4+,5+,6+,7-/m1/s1
