19
gdb 4651	2.7587877	0.7313546	0.6426879	2.4133	83.42	-0.25607	-0.05183	0.20424000000000003	1803.0037	0.153356	-422.543577	-422.532504	-422.531559	-422.582029	37.453	
C	 5.328516072	-2.5328721212	 0.3117465501	-0.388172
C	 4.9121065829	-2.5944156885	 1.7903505003	-0.276771
C	 3.4095589543	-2.7355648324	 1.9728929841	 0.242997
O	 2.8959645424	-3.6964401096	 2.5062225872	-0.283761
C	 2.6054760115	-1.6380625704	 1.4617616494	 0.010661
C	 1.9291548473	-0.7325663976	 1.0339762988	 0.08243
C	 1.1149321275	 0.3800008729	 0.5359985638	-0.035597
C	 0.1739585213	-0.0626547775	-0.5872922021	-0.374168
O	 1.9145711978	 1.4364768629	 0.0141764982	-0.412955
H	 5.0466744857	-3.4507505807	-0.2128562568	 0.132298
H	 4.8526039821	-1.69052654	-0.198035716	 0.135223
H	 6.4121303265	-2.4142209469	 0.2272357953	 0.124859
H	 5.3761007807	-3.4443605123	 2.2976974873	 0.124151
H	 5.2322832275	-1.6754087871	 2.2980590824	 0.117795
H	 0.5045295181	 0.7452665435	 1.378652212	 0.107707
H	-0.504470445	-0.8426291314	-0.2348175768	 0.133847
H	-0.4089077245	 0.7984854143	-0.923000026	 0.132359
H	 0.7527610741	-0.4469628017	-1.430326763	 0.138237
H	 2.5608579678	 1.6810026437	 0.6847446819	 0.288862
20.61	44.5083	72.7076	94.7951	182.5025	213.4866	237.3285	244.0862	275.3612	302.8441	371.503	425.3108	530.3826	556.7624	603.8881	671.7725	720.0281	811.8727	861.8875	932.887	982.054	1030.0678	1064.8204	1080.9137	1085.255	1144.2974	1227.1799	1278.0238	1287.3354	1329.6585	1353.8754	1390.2621	1407.3756	1409.4348	1467.9799	1482.6303	1495.4671	1499.4567	1506.5617	1763.2869	2317.5904	2963.7823	3030.8929	3044.9597	3055.7768	3099.2225	3117.9284	3124.7829	3137.438	3141.885	3818.0889
CCC(=O)C#CC(C)O	CCC(=O)C#C[C@H](C)O	
InChI=1S/C7H10O2/c1-3-7(9)5-4-6(2)8/h6,8H,3H2,1-2H3	InChI=1S/C7H10O2/c1-3-7(9)5-4-6(2)8/h6,8H,3H2,1-2H3/t6-/m0/s1
