19
gdb 3969	2.7998714	1.6210014	1.2589198	1.4296	77.48	-0.23984	0.00981	0.24964999999999998	1043.1417	0.158338	-422.540553	-422.532637	-422.531693	-422.572803	30.865	
O	-0.2254136938	 1.3584294924	 0.1248589852	-0.441286
C	-0.0085597889	-0.0168621952	-0.0773302283	 0.101846
C	 0.1762619608	-0.3453982498	-1.5959388066	-0.341538
C	-1.3115152229	-0.6387242805	-1.6228668599	 0.30408
C	-2.3795519829	-0.3960682774	-2.3684325464	-0.24366
C	-3.6977560122	-0.3843947937	-1.623923166	-0.262385
C	-3.4901361318	 0.3454991087	-0.2833230071	-0.067529
O	-2.4813182639	-0.2454978162	 0.5464953872	-0.286605
C	-1.3695900186	-0.7995767874	-0.1294433198	 0.039734
H	-0.9541981629	 1.419233247	 0.7567612068	 0.290886
H	 0.7581082995	-0.4090082013	 0.6034133085	 0.063966
H	 0.5359231108	 0.4783452844	-2.2156630443	 0.124587
H	 0.8125789576	-1.2229907927	-1.7494357856	 0.109014
H	-2.3277282555	-0.0948628332	-3.4101378947	 0.092867
H	-4.4705247908	 0.1438303665	-2.1917483459	 0.107544
H	-4.077107275	-1.3974991743	-1.43775769	 0.116771
H	-3.2316252442	 1.392308371	-0.4950464057	 0.099592
H	-4.4021915813	 0.3295804122	 0.3212340518	 0.106232
H	-1.2426772942	-1.8349259003	 0.2129278408	 0.085885
91.7109	160.0073	206.7283	283.5397	340.1779	374.3682	431.4701	473.3078	495.1314	541.5752	681.453	750.6375	769.0077	847.8244	858.7984	865.0469	915.4724	954.2651	961.3821	1008.9191	1032.6458	1071.2305	1085.3079	1111.6762	1135.9078	1153.2676	1188.1832	1226.7587	1253.3141	1255.9462	1286.5299	1325.5479	1341.6837	1350.8281	1366.5246	1392.4649	1414.4524	1461.2898	1473.8956	1505.1295	1766.8828	3004.1611	3007.7702	3020.9488	3024.8172	3053.8057	3079.337	3081.0022	3118.6199	3173.6706	3757.6219
OC1CC2=CCCOC12	O[C@@H]1C[C]2[CH]CCO[C@H]12	
InChI=1S/C7H10O2/c8-6-4-5-2-1-3-9-7(5)6/h2,6-8H,1,3-4H2	InChI=1S/C7H10O2/c8-6-4-5-2-1-3-9-7(5)6/h2,6-8H,1,3-4H2/t6-,7+/m1/s1
