19
gdb 4145	2.466637	1.5921865	1.0717922	2.1406	76.62	-0.24693	-0.02792	0.21901	1153.3103	0.154411	-422.542689	-422.533425	-422.532481	-422.576947	33.789	
C	 2.7499215781	 0.2191991888	-1.4738367717	-0.399458
C	 1.739858777	 0.5278764228	-0.3754051085	-0.06023
C	 2.1955130718	 1.6529363902	 0.6264511047	-0.259503
C	 2.1211961509	 0.6296775619	 1.7617653489	-0.039549
O	 0.8007502465	 0.1145614909	 1.7979851752	-0.276473
C	 1.6995002409	-0.4497173935	 0.8214425826	 0.328884
C	 1.9512965253	-1.9156453246	 0.8815654651	 0.270802
C	 1.6616710353	-2.6037600266	 2.1999884425	-0.4826
O	 2.3582719008	-2.5119953063	-0.093222557	-0.306178
H	 2.4600198321	-0.6672379645	-2.040437056	 0.14284
H	 2.8262375168	 1.0698983565	-2.1597266603	 0.110443
H	 3.7453571277	 0.0308365895	-1.0581815716	 0.114966
H	 0.7435138145	 0.6868380272	-0.7974436668	 0.086934
H	 3.2146109397	 1.9899537981	 0.4213384569	 0.111524
H	 1.5387795709	 2.5174774737	 0.7474743342	 0.114824
H	 2.7038587613	 0.5678356095	 2.6750894036	 0.110292
H	 2.1119563734	-2.0666232532	 3.0402229053	 0.13691
H	 0.5816043907	-2.6121869393	 2.3795436021	 0.156852
H	 2.0375582763	-3.6266520211	 2.1589397607	 0.13872
55.93	117.7857	133.7605	172.6056	220.9545	257.1227	300.859	382.8064	425.6915	484.848	518.3429	596.756	624.4807	735.7629	838.4056	853.6759	859.5826	906.5513	927.4086	971.8733	1009.6057	1028.5058	1043.3843	1088.2267	1116.6251	1133.8229	1196.6334	1214.4815	1242.3845	1276.7482	1309.0466	1346.8467	1382.4829	1405.5785	1415.2808	1455.7579	1470.1062	1473.4313	1489.8466	1495.7493	1786.419	3036.1194	3047.3613	3064.506	3068.4078	3099.7824	3110.2915	3124.1849	3137.1815	3155.3264	3173.3895
CC1CC2OC12C(C)=O	C[C@@H]1C[C@H]2O[C@@]12C(=O)C	
InChI=1S/C7H10O2/c1-4-3-6-7(4,9-6)5(2)8/h4,6H,3H2,1-2H3	InChI=1S/C7H10O2/c1-4-3-6-7(4,9-6)5(2)8/h4,6H,3H2,1-2H3/t4-,6-,7-/m1/s1
