19
gdb 1594	3.1695257	1.4573447	1.1787048	1.8519	74.44	-0.24974	0.07282	0.32255999999999996	1079.462	0.156634	-422.474087	-422.466199	-422.465255	-422.50684	31.25	
O	-1.9180863897	 1.5221514309	 0.7507548562	-0.490093
C	-0.6366115409	 1.016648625	 0.9746392344	 0.474134
C	-0.1481273365	 0.3585495765	-0.2906754738	-0.082621
C	-0.9890432129	-0.715342343	-0.9336101788	-0.255081
C	 0.3439717154	-1.0703647194	-0.3358399532	-0.266045
C	 0.2991442278	 1.9542957988	 1.8163144785	-0.027311
C	 1.1061257752	 0.7424569672	 2.3152562198	-0.231856
C	-0.3941713029	 0.3948228487	 2.4017601125	-0.037414
O	-0.6359823271	 1.7563294678	 2.9624157918	-0.343174
H	-2.1551861633	 1.9576928362	 1.5840934528	 0.283793
H	 0.3311344192	 1.0497242619	-0.9786291108	 0.092415
H	-1.8831391206	-1.0234175258	-0.4042348221	 0.12472
H	-1.0915770235	-0.7040038696	-2.0125539165	 0.113025
H	 0.3470335766	-1.6428032947	 0.5855617592	 0.11478
H	 1.1705362468	-1.3014466915	-0.9990483841	 0.112925
H	 0.6208136939	 2.9766971588	 1.6117692652	 0.094061
H	 1.7337741608	 0.2026559448	 1.6072869457	 0.11523
H	 1.5799312058	 0.895457177	 3.2845167884	 0.113072
H	-0.8936373041	-0.4365052796	 2.9016376648	 0.09544
42.6383	164.1232	196.0316	309.2297	341.89	431.8756	436.0421	546.6704	587.9633	635.2858	698.4634	753.9401	772.7312	822.4122	826.5763	874.9039	894.24	906.7609	915.494	944.1744	1018.7172	1024.8443	1038.5841	1062.5265	1083.0985	1124.8179	1131.906	1133.2126	1156.2513	1167.9838	1193.9117	1202.3191	1211.5224	1234.8845	1274.6473	1277.6702	1372.6081	1444.3455	1471.7626	1485.5239	1506.5738	3092.4118	3106.3254	3115.5719	3130.682	3140.0727	3144.9925	3171.0067	3209.9301	3231.1083	3711.892
OC1(C2CC2)C2CC1O2	O[C@@]1(C2CC2)[C@@H]2C[C@H]1O2	
InChI=1S/C7H10O2/c8-7(4-1-2-4)5-3-6(7)9-5/h4-6,8H,1-3H2	InChI=1S/C7H10O2/c8-7(4-1-2-4)5-3-6(7)9-5/h4-6,8H,1-3H2/t5-,6+,7-
