19
gdb 4406	3.3802617	1.06718	0.9713588	0.9572	76.82	-0.25336	0.04493	0.29828999999999994	1278.8576	0.153447	-422.51093	-422.500967	-422.500023	-422.545823	36.272	
C	 5.3802388522	-2.5782257045	-0.6598848209	-0.411298
C	 4.6090866378	-1.6062998135	 0.2138340185	 0.088769
O	 4.3588204654	-2.125276461	 1.5439169561	-0.29225
C	 2.9450692319	-2.2540536508	 1.2956413982	-0.131378
C	 3.0717953213	-1.4832807996	-0.0386333333	 0.320966
O	 2.5354173946	-2.0570545965	-1.2008547986	-0.461614
C	 2.5664835941	-0.0364964107	 0.0158414402	-0.387662
C	 1.1260666946	 0.0620716513	 0.2170657054	 0.312845
C	-0.0580340802	 0.1367676715	 0.4071437405	-0.448221
H	 6.3816353289	-2.7337501394	-0.2482226064	 0.132499
H	 4.8899634384	-3.5564905762	-0.7104588027	 0.10525
H	 5.4792462594	-2.1867099675	-1.6772740838	 0.1283
H	 5.1400262029	-0.6463268846	 0.2665401428	 0.076429
H	 2.6362619011	-3.3027852026	 1.1733847127	 0.089264
H	 2.3332705269	-1.7946306832	 2.0791150524	 0.118273
H	 2.7393640132	-2.997505203	-1.2061552921	 0.284419
H	 3.087937774	 0.4852768825	 0.8268545571	 0.140471
H	 2.8524416047	 0.4584219135	-0.9205325844	 0.138865
H	-1.1059297211	 0.206644114	 0.5628954884	 0.196074
62.6606	82.7091	118.1517	199.4764	229.7339	264.0801	288.4254	323.4054	351.7232	381.2751	432.6374	462.7498	565.6321	617.2155	645.5776	705.033	812.5812	876.8653	895.5942	923.8984	972.0956	1003.5157	1024.8284	1053.0143	1086.1862	1114.1012	1144.7079	1151.3158	1174.3736	1267.8907	1297.6321	1325.5558	1352.7245	1372.995	1399.1966	1413.4897	1458.1297	1480.5124	1496.8495	1521.6715	2241.3583	2991.9123	3012.7922	3030.8789	3034.3104	3068.6774	3072.1296	3103.6839	3117.4626	3506.5048	3823.3143
CC1OCC1(O)CC#C	C[C@@H]1OC[C@@]1(O)CC#C	
InChI=1S/C7H10O2/c1-3-4-7(8)5-9-6(7)2/h1,6,8H,4-5H2,2H3	InChI=1S/C7H10O2/c1-3-4-7(8)5-9-6(7)2/h1,6,8H,4-5H2,2H3/t6-,7-/m0/s1
