19
gdb 4535	3.1015126	1.3176535	1.020264	1.8247	78.33	-0.23687	0.00811	0.24498	1186.6793	0.157916	-422.547034	-422.538775	-422.537831	-422.579943	31.445	
O	 0.9668238089	-2.5924059461	 1.0889434643	-0.443253
C	 0.1143162173	-1.9554093837	 2.0307947378	 0.044381
C	-0.9607901582	-2.9356089975	 2.5282896516	-0.225845
C	-2.2153580331	-2.0672862633	 2.7874698049	-0.258108
C	-1.9667238592	-0.8515679717	 1.9256838416	-0.188244
C	-0.7107457543	-0.7985347199	 1.4782543989	 0.314261
C	-0.1131718717	 0.2405663793	 0.612904056	-0.055832
C	 0.5274335296	-0.0875677009	-0.676307879	-0.185884
O	 1.3231977323	 0.2177479466	 0.4729859025	-0.250794
H	 1.6631849191	-1.9531562956	 0.8935945188	 0.291872
H	 0.7222351823	-1.5806404487	 2.8712548613	 0.077691
H	-1.1521408265	-3.6387777046	 1.7114376098	 0.117952
H	-0.6410092407	-3.5117605692	 3.3992364954	 0.09962
H	-3.1494380885	-2.5823270257	 2.5368396879	 0.106428
H	-2.2980299083	-1.7828584704	 3.8460416001	 0.109451
H	-2.7321340466	-0.1074436087	 1.7275604782	 0.088973
H	-0.523554341	 1.2455694944	 0.7115087398	 0.103215
H	 0.5558207172	-1.1266120525	-0.9944593852	 0.133286
H	 0.5504578214	 0.6613784282	-1.466096565	 0.12083
99.6656	111.9232	192.3302	195.919	307.7183	334.9946	402.9925	453.7495	541.3714	595.0034	614.5211	682.5596	805.4245	835.2286	839.0761	884.1469	888.5157	935.3374	956.4741	1005.7476	1028.001	1055.0405	1095.1202	1101.5059	1147.1937	1161.8789	1174.269	1198.787	1239.0557	1267.1886	1280.716	1302.5601	1310.6061	1336.8191	1359.899	1407.2928	1433.1417	1483.8734	1500.2024	1508.7354	1714.1412	2954.7121	3009.1937	3052.2123	3064.6485	3094.4831	3110.1825	3113.8516	3176.6567	3195.8016	3783.854
OC1CCC=C1C1CO1	O[C@@H]1CCC=C1[C@@H]1CO1	
InChI=1S/C7H10O2/c8-6-3-1-2-5(6)7-4-9-7/h2,6-8H,1,3-4H2	InChI=1S/C7H10O2/c8-6-3-1-2-5(6)7-4-9-7/h2,6-8H,1,3-4H2/t6-,7+/m1/s1
