19
gdb 5771	3.7505176	1.1010207	1.089366	2.7498	75.79	-0.22768	-0.01836	0.20932	1207.7704	0.156958	-422.548696	-422.540425	-422.539481	-422.581665	31.336	
C	 0.5723435908	 0.9540166732	-0.0453543704	-0.381112
C	 0.7519599972	-0.563912812	-0.1535877706	-0.203379
C	 1.7979108569	-0.9479269582	-1.1924064995	 0.149419
O	 1.4429134293	-0.4275228765	-2.513903011	-0.297254
C	 1.5051151846	-1.5888602024	-3.3532263977	-0.014284
C	 0.7647809021	-2.6711639411	-2.5209612918	-0.262977
C	 1.9588684941	-2.4473146162	-1.5267549855	-0.212541
C	 2.7826938479	-2.2959012061	-2.8322434119	 0.438472
O	 3.8285659342	-2.6796458139	-3.2548478444	-0.312603
H	-0.1880578163	 1.2062214868	 0.6992223363	 0.113385
H	 1.5070113333	 1.442586503	 0.2509496085	 0.116304
H	 0.2655521625	 1.3732139313	-1.007025767	 0.139053
H	 1.071085486	-0.9762009724	 0.8124189981	 0.098716
H	-0.2061090269	-1.0353566823	-0.3979318841	 0.099326
H	 2.7649231253	-0.5137703559	-0.9006811216	 0.087839
H	 1.2902903869	-1.3352697339	-4.3878639609	 0.101531
H	-0.2330902141	-2.3975016316	-2.1774057952	 0.121345
H	 0.7715457629	-3.662036316	-2.9788324656	 0.123683
H	 2.2253351735	-3.133359276	-0.7266649157	 0.095078
86.2928	127.4105	174.0076	205.7172	247.8498	339.9166	445.5561	478.2376	490.3783	625.8848	663.2133	753.745	774.6443	825.018	845.0677	872.6904	920.5821	954.9903	978.8664	987.3197	1014.2358	1043.7987	1074.7809	1079.986	1101.0714	1121.4723	1150.7612	1198.1882	1223.3663	1246.9252	1271.986	1287.2476	1313.9538	1356.1717	1407.3304	1417.7358	1473.4381	1485.1001	1497.0558	1510.0499	1913.3422	2999.0876	3027.542	3039.4064	3070.8463	3083.6156	3106.6445	3125.7754	3152.2571	3158.7637	3168.2244
CCC1OC2CC1C2=O	CC[C@@H]1O[C@@H]2C[C@H]1C2=O	
InChI=1S/C7H10O2/c1-2-5-4-3-6(9-5)7(4)8/h4-6H,2-3H2,1H3	InChI=1S/C7H10O2/c1-2-5-4-3-6(9-5)7(4)8/h4-6H,2-3H2,1H3/t4-,5+,6-/m1/s1
