19
gdb 628	3.2786078	1.4756889	1.1008554	1.0508	77.97	-0.23128	0.01248	0.24376	1101.9821	0.159599	-422.563778	-422.556356	-422.555412	-422.595639	28.944	
C	 0.9554093379	 0.4215667993	 0.8093551326	-0.113741
O	 1.1047381248	 1.6860657789	 0.161451347	-0.284024
C	 0.1666073862	 1.7920590543	-0.9035347553	 0.053471
C	-0.6548551867	 3.0851853187	-0.8662453037	-0.225939
C	-1.8329495828	 2.934835849	-1.8399741283	-0.079833
O	-2.6626979892	 1.830329489	-1.5097279788	-0.242625
C	-1.983504451	 0.5800677833	-1.5918061386	-0.199267
C	-0.7508797435	 0.6072812782	-0.7449501727	 0.334157
C	-0.3058138665	-0.1694604158	 0.2349237417	-0.258033
H	 1.8385391102	-0.2126839819	 0.6235487384	 0.102065
H	 0.893789732	 0.5782929524	 1.8959995807	 0.110451
H	 0.6988522915	 1.7450496419	-1.8720384009	 0.073676
H	-1.0368275393	 3.232644267	 0.149237037	 0.111924
H	-0.0457928403	 3.9551619915	-1.1340972097	 0.10029
H	-2.4803626484	 3.8151035818	-1.8085845225	 0.113545
H	-1.4582827258	 2.8310640625	-2.87374482	 0.086646
H	-2.6927747383	-0.1831382124	-1.2620999008	 0.117755
H	-1.7199719274	 0.3694736347	-2.644005217	 0.095904
H	-0.7543377734	-1.0849181825	 0.6010345809	 0.103578
105.0293	165.1273	248.4054	321.8568	348.6069	368.2154	435.3345	509.0916	601.0624	690.3973	772.7926	805.6951	829.2982	875.0392	911.2406	938.6534	961.4834	995.685	1029.0617	1041.6172	1054.7367	1101.313	1119.6156	1140.3164	1194.136	1199.83	1203.1544	1237.2521	1282.3006	1308.4049	1335.5446	1355.1174	1364.8889	1383.8031	1389.2435	1410.8942	1480.9219	1487.0729	1497.9788	1522.2554	1743.1191	2920.4755	2943.0895	2953.9533	2961.9332	3007.3863	3045.3494	3091.449	3096.6998	3098.047	3209.8614
C1OC2CCOCC2=C1	C1O[C@@H]2CCOCC2=C1	
InChI=1S/C7H10O2/c1-4-9-7-2-3-8-5-6(1)7/h1,7H,2-5H2	InChI=1S/C7H10O2/c1-4-9-7-2-3-8-5-6(1)7/h1,7H,2-5H2/t7-/m1/s1
