19
gdb 445	3.5868839	1.1441047	1.1320552	2.0471	74.45	-0.2478	0.07862	0.32642	1161.816	0.158623	-422.512221	-422.504751	-422.503807	-422.54468	28.994	
C	 2.3817077205	-1.794803795	-1.9705292608	-0.185812
O	 3.3013732313	-0.9032881159	-1.3452395896	-0.235504
C	 2.0128999804	-1.0802712627	-0.7391795283	 0.047891
C	 1.1058282254	 0.1138983345	-0.7735082108	 0.001812
C	-0.3864335195	 0.0572510032	-0.3489788026	 0.051034
C	-0.371764072	-0.5308903158	 1.078853124	-0.223032
C	 0.7783197743	 0.3615353642	 1.6477193946	-0.224539
C	 1.0508188067	 1.1717538735	 0.3629230188	 0.056475
O	-0.3062421725	 1.490820859	-0.0799918004	-0.2986
H	 1.9787825039	-1.4579652074	-2.9251239033	 0.114948
H	 2.6443441474	-2.8508749749	-1.9245877544	 0.115897
H	 2.0489117465	-1.6465574299	 0.1911424547	 0.095523
H	 1.1936530107	 0.6255479762	-1.7340844669	 0.093393
H	-1.1877651391	-0.2268813758	-1.0312230619	 0.079745
H	-1.3259130294	-0.3580347969	 1.5799009642	 0.111107
H	-0.1560388046	-1.6026049572	 1.1053492501	 0.0993
H	 0.4439905409	 1.013966858	 2.4562294291	 0.111154
H	 1.6467225968	-0.2038984253	 1.9964385697	 0.103816
H	 1.7216800122	 2.0290140182	 0.4059277838	 0.085392
58.1588	171.8829	173.8989	311.4082	320.0563	458.2902	491.0903	555.748	736.509	804.0046	836.3088	840.5848	859.5327	868.0383	871.6632	897.5951	923.1106	953.7416	994.3057	1004.6267	1012.0587	1048.1425	1097.1592	1123.3315	1155.0057	1159.1699	1167.3463	1191.0317	1199.3386	1220.0112	1246.6938	1271.3114	1290.7615	1300.1738	1307.6825	1331.563	1341.4001	1464.7371	1481.2218	1501.0064	1529.4311	3064.2472	3071.7521	3080.9292	3096.8794	3111.2151	3114.3447	3122.2749	3127.4068	3133.1498	3167.9198
C1OC1C1C2CCC1O2	C1O[C@H]1[C@H]1[C@H]2CC[C@@H]1O2	
InChI=1S/C7H10O2/c1-2-5-7(4(1)9-5)6-3-8-6/h4-7H,1-3H2	InChI=1S/C7H10O2/c1-2-5-7(4(1)9-5)6-3-8-6/h4-7H,1-3H2/t4-,5+,6-,7+/m1/s1
