19
gdb 2212	2.8110751	1.7031367	1.5711272	1.8551	73.62	-0.23443	0.07631	0.31074	942.121	0.159604	-422.566334	-422.559131	-422.558186	-422.597465	29.528	
O	-0.7901737427	 0.6386574653	 0.4705160235	-0.480887
C	-2.0257981145	 0.0482905791	 0.2222536664	 0.407085
C	-2.2903322963	-1.3906645195	 0.6376289225	-0.300145
C	-3.7892857074	-1.5286235614	 0.3039615544	 0.093331
C	-4.4044718312	-0.1934002012	 0.7822945729	-0.235115
C	-3.3485124174	 0.8010299252	 0.3259638582	-0.142381
C	-2.7426044546	 0.4582858436	-1.0268983325	-0.102249
C	-3.4161195984	-0.6031107817	-1.8776731752	-0.094976
O	-3.9635971003	-1.6728539014	-1.1028251587	-0.278683
H	-0.6670989056	 0.6824624813	 1.4258396469	 0.277851
H	-1.6884363463	-2.1255448401	 0.0953515473	 0.109537
H	-2.1099440439	-1.5200625359	 1.7135400127	 0.085025
H	-4.2566629151	-2.4105645878	 0.7452856505	 0.079493
H	-5.3923669799	-0.0418794323	 0.3360287982	 0.104949
H	-4.517348874	-0.1784749849	 1.8732085256	 0.093565
H	-3.3717594704	 1.838025878	 0.6400490138	 0.082771
H	-2.2930171534	 1.2796363614	-1.5753238101	 0.097048
H	-4.228352063	-0.1522725232	-2.4660186835	 0.100359
H	-2.6974085853	-1.0293011542	-2.5919218828	 0.103423
142.0238	237.6518	304.3579	356.0213	362.9623	420.8242	470.0599	488.6764	585.42	647.4118	695.615	785.3375	820.8742	856.9872	877.414	906.6074	921.9155	935.5481	994.0429	1015.4325	1047.8205	1063.3571	1095.3627	1100.3281	1116.2791	1156.6343	1183.4265	1216.2056	1240.66	1252.8406	1267.4622	1300.4629	1323.0915	1342.7824	1351.2608	1365.6204	1410.8359	1464.6551	1483.1246	1502.8125	1528.5726	2991.2446	3015.0849	3017.2629	3031.491	3080.4365	3089.8469	3099.6845	3167.5712	3180.6864	3784.0496
OC12CC3CC1C2CO3	O[C@@]12C[C@H]3C[C@@H]1[C@@H]2CO3	
InChI=1S/C7H10O2/c8-7-2-4-1-5(7)6(7)3-9-4/h4-6,8H,1-3H2	InChI=1S/C7H10O2/c8-7-2-4-1-5(7)6(7)3-9-4/h4-6,8H,1-3H2/t4-,5-,6+,7+/m1/s1
