19
gdb 2954	2.7045017	1.3890505	1.2570241	3.5511	75.83	-0.23408	-0.00733	0.22675	1090.7273	0.157203	-422.565326	-422.557065	-422.556121	-422.597632	32.231	
C	-2.6939216325	-1.6359530294	-1.5496534197	-0.442468
C	-1.6121596688	-0.6712465261	-1.0803336738	 0.037848
C	-1.9726981878	 0.4616684362	-0.0609593993	-0.094718
C	-0.6552409588	 1.2608489614	-0.0308763532	-0.348164
C	 0.3155490605	 0.0539487321	 0.0657264967	 0.426063
O	 1.5154037466	 0.0645271876	 0.1030290676	-0.334508
C	-0.649570754	-1.1242265443	 0.0901369768	-0.15721
C	-1.7016213278	-0.5550171732	 1.0956632536	 0.143973
O	-2.7053786169	-1.4898198912	 1.4081937102	-0.438352
H	-3.2633772836	-2.0558340933	-0.7226809293	 0.14527
H	-3.3844601908	-1.1166133885	-2.2247745274	 0.11027
H	-2.244950448	-2.4599597608	-2.1150311242	 0.116975
H	-1.0746039588	-0.3013565227	-1.9620760432	 0.075815
H	-2.9083897089	 1.0199059508	-0.1231765013	 0.064073
H	-0.4723067514	 1.849129436	-0.9348472538	 0.128592
H	-0.5430281743	 1.9211697925	 0.8354057499	 0.122608
H	-0.2291645328	-2.1232932911	 0.1817739375	 0.085193
H	-1.2917891615	-0.1178966388	 2.0186385743	 0.072915
H	-3.3998596504	-1.0280946373	 1.8899945885	 0.285826
126.9206	199.7435	248.7602	258.2395	277.7355	297.0443	314.6963	428.9664	461.6039	544.9644	596.3834	602.195	775.4892	785.5629	807.639	878.9369	913.8072	949.3146	951.3813	985.1094	1050.0127	1059.4741	1079.03	1104.3993	1117.0618	1154.1994	1166.0808	1203.4745	1214.6262	1226.7784	1249.0113	1271.3823	1287.8619	1328.0945	1399.5986	1412.0452	1449.1914	1463.8883	1494.0989	1513.2533	1871.9699	2981.5139	3020.0888	3034.2353	3054.2277	3086.1486	3100.149	3102.3692	3150.9659	3169.7239	3806.8633
CC1C2CC(=O)C1C2O	C[C@H]1[C@@H]2CC(=O)[C@H]1[C@@H]2O	
InChI=1S/C7H10O2/c1-3-4-2-5(8)6(3)7(4)9/h3-4,6-7,9H,2H2,1H3	InChI=1S/C7H10O2/c1-3-4-2-5(8)6(3)7(4)9/h3-4,6-7,9H,2H2,1H3/t3-,4-,6-,7+/m0/s1
