19
gdb 2498	2.6732998	2.0055668	1.3588366	1.8766	74.54	-0.23286	0.07233	0.30519	971.7696	0.15783	-422.502537	-422.495179	-422.494235	-422.533784	29.857	
C	 0.155410914	-0.2317813071	-0.0343698611	-0.466756
C	 1.5386985221	 0.2590330762	 0.3313368376	 0.434583
O	 2.3075576384	-0.8523351104	 0.7247802779	-0.313847
C	 3.4076121271	-0.5383933463	 1.5664003728	-0.074598
C	 4.1732319071	 0.6823530485	 1.0564664035	-0.265746
C	 3.1557416362	 1.7161238053	 0.5866673006	-0.015351
C	 1.6904850537	 1.6202063806	 1.1133133783	-0.042609
O	 1.2376713433	 2.3204409364	-0.0999153066	-0.30966
C	 2.2185959681	 1.3302050386	-0.5866749543	-0.006737
H	-0.3259539436	-0.6835668361	 0.8382408834	 0.118998
H	-0.4558026238	 0.5925119586	-0.401247	 0.140127
H	 0.2299367111	-1.002670763	-0.8074821317	 0.12363
H	 3.0400874987	-0.3340971896	 2.5849282632	 0.094787
H	 4.030326075	-1.4357896412	 1.6099885492	 0.109674
H	 4.8026660029	 1.0836914268	 1.8583093786	 0.105525
H	 4.8384860513	 0.4139983993	 0.2268445313	 0.109618
H	 3.5250466046	 2.7410316541	 0.5191002025	 0.082769
H	 1.2611504426	 1.9454262822	 2.0625456546	 0.088633
H	 2.4264268213	 1.304112997	-1.6577633898	 0.086962
188.0223	211.3637	224.4243	325.6941	335.6185	432.447	441.8883	502.4653	579.6165	655.9719	696.2871	767.2416	812.8257	837.2285	870.6856	884.6538	915.4825	933.93	955.711	1020.7567	1062.5069	1091.9607	1109.1878	1121.2232	1143.5035	1150.7448	1183.5119	1195.1011	1220.2812	1259.2061	1262.1883	1270.0423	1325.409	1349.5999	1376.6569	1401.787	1415.6604	1483.7925	1490.6908	1492.2243	1509.5832	2974.5932	3031.5915	3048.4061	3073.7482	3092.2414	3097.7707	3101.1303	3108.9903	3111.7841	3158.302
CC12OCCC3C1OC23	C[C@]12OCC[C@@H]3[C@H]1O[C@H]23	
InChI=1S/C7H10O2/c1-7-5-4(2-3-8-7)6(7)9-5/h4-6H,2-3H2,1H3	InChI=1S/C7H10O2/c1-7-5-4(2-3-8-7)6(7)9-5/h4-6H,2-3H2,1H3/t4-,5-,6+,7+
