19
gdb 2798	3.0452085	1.3929484	1.2176469	1.001	74.46	-0.23887	0.06929	0.30816	1090.024	0.15616	-422.498169	-422.489981	-422.489037	-422.530276	32.26	
C	-4.3232543033	 2.4365959989	 0.3134139239	-0.476856
C	-3.2874912357	 1.4984891972	 0.871099186	 0.438105
O	-3.1833910786	 1.5677794377	 2.3299067418	-0.340451
C	-3.4188813357	 0.1411962012	 2.459289267	-0.114726
C	-3.4036216389	-0.0436267741	 0.9301294911	-0.13496
C	-2.0445229428	-0.1553943062	 0.2089577107	-0.08664
C	-0.9454453222	 0.5801082241	 0.9084824328	 0.080824
O	 0.3013833426	 0.3792649534	 0.303594727	-0.441102
C	-1.9430182597	 1.3846108267	 0.1182149249	-0.153366
H	-5.290613748	 2.2822718798	 0.8000148339	 0.122479
H	-4.0184407217	 3.4759683595	 0.4812732194	 0.129156
H	-4.4406707215	 2.2872824731	-0.7648203652	 0.121569
H	-2.6367420789	-0.362078372	 3.0386383013	 0.103346
H	-4.3930942143	-0.0566742554	 2.9233513651	 0.100659
H	-4.2289255251	-0.5770172312	 0.4599199954	 0.07955
H	-1.7928482521	-0.8919650885	-0.543600062	 0.099042
H	-0.9215053229	 0.6709614395	 1.9919344154	 0.104445
H	 0.813588064	 1.1871521253	 0.4143035701	 0.287419
H	-1.6246934451	 2.006311551	-0.7114062088	 0.081508
172.8888	204.3641	211.8153	236.3306	298.1759	306.7649	332.0195	398.8942	474.7166	516.3212	618.4698	735.1936	804.1703	822.017	864.0929	872.8562	885.5779	928.6991	936.6459	980.6425	991.7868	1036.2738	1059.2566	1080.8847	1109.9121	1125.6262	1135.3106	1164.7614	1172.4364	1192.1698	1221.5537	1278.5505	1302.1984	1314.7242	1328.2384	1351.5052	1405.9466	1454.1464	1480.3106	1486.7988	1521.7754	3016.4378	3031.2124	3063.5841	3099.1993	3113.9297	3119.2099	3130.5999	3170.1522	3195.6029	3807.2849
CC12OCC1C1C(O)C21	C[C@@]12OC[C@@H]1[C@@H]1[C@@H](O)[C@H]21	
InChI=1S/C7H10O2/c1-7-3(2-9-7)4-5(7)6(4)8/h3-6,8H,2H2,1H3	InChI=1S/C7H10O2/c1-7-3(2-9-7)4-5(7)6(4)8/h3-6,8H,2H2,1H3/t3-,4+,5-,6-,7-/m1/s1
