19
gdb 2649	2.464101	1.4108127	1.117569	2.2442	75.88	-0.2417	0.07614	0.31784	1157.14	0.155218	-422.495333	-422.486533	-422.485589	-422.528542	33.22	
C	 0.6501092272	 0.9758680025	-0.0112253747	-0.411857
C	 0.8523403311	-0.5168334733	-0.1478136302	-0.129564
C	 1.9960675573	-1.2170220098	 0.5557169201	 0.00396
O	 1.8252651777	-2.5158794787	 1.0502110087	-0.424886
C	 2.0144937979	-1.07674968	-0.9316987178	 0.333197
C	 3.0928653384	-0.3684962054	-1.7936099123	-0.353801
C	 3.0209233054	-1.5828244252	-2.7409571926	 0.036583
O	 1.6707903266	-1.6935759724	-3.2008261559	-0.251821
C	 1.9968963753	-2.2355589229	-1.9089620027	-0.055349
H	 0.0575602998	 1.2187990321	 0.8779871968	 0.114866
H	 1.6077068038	 1.4995538156	 0.0750198307	 0.116839
H	 0.1295655347	 1.3857748941	-0.8832924162	 0.12736
H	-0.0589202207	-1.1075553896	-0.2168806671	 0.089614
H	 2.6872350963	-0.5935586387	 1.127231291	 0.081033
H	 1.2486142662	-2.467575922	 1.8199909058	 0.287574
H	 2.8203804561	 0.5865949374	-2.2501308603	 0.110866
H	 4.0533527344	-0.2746901327	-1.2792785184	 0.109153
H	 3.7993600043	-2.0028375014	-3.3668368622	 0.103818
H	 1.7746470282	-3.2784975997	-1.7247874028	 0.112417
108.7876	149.114	177.7369	198.2507	223.0198	287.6278	310.9272	383.054	455.6315	501.9046	554.2157	596.5049	783.9432	820.2908	845.8498	858.4072	874.0687	930.1675	950.9849	976.0619	1015.9132	1047.3141	1063.9024	1074.395	1104.6593	1120.2636	1163.8594	1167.4457	1178.6184	1220.446	1226.4913	1261.8626	1296.49	1316.6247	1357.884	1377.2954	1415.5789	1469.0191	1483.0871	1492.8422	1506.8168	3027.7447	3056.5391	3073.9998	3090.1434	3097.5854	3113.0965	3133.59	3186.6048	3211.8731	3803.6699
CC1C(O)C11CC2OC12	C[C@@H]1[C@@H](O)[C@@]21C[C@@H]1O[C@H]21	
InChI=1S/C7H10O2/c1-3-5(8)7(3)2-4-6(7)9-4/h3-6,8H,2H2,1H3	InChI=1S/C7H10O2/c1-3-5(8)7(3)2-4-6(7)9-4/h3-6,8H,2H2,1H3/t3-,4+,5-,6+,7+/m1/s1
