19
gdb 3718	3.7149825	1.2012301	1.1113348	1.6562	74.52	-0.24645	0.07799	0.32444	1139.5325	0.157321	-422.53524	-422.527237	-422.526293	-422.56768	31.308	
O	 0.2778800328	-0.0761691716	 0.8198644003	-0.421309
C	-0.9040960515	 0.523974252	 0.3707694075	 0.032024
C	-2.2263030131	-0.176165272	 0.5621570787	-0.365725
C	-1.5721001399	-0.1220574724	-0.8034283674	 0.349617
C	-2.1868240587	 0.7163967016	-1.9329713816	-0.332421
C	-2.4553217856	-0.2955647576	-3.0295232443	 0.051605
O	-3.1687818772	-1.4539187544	-2.5783828921	-0.258607
C	-1.7437709129	-1.5437889588	-2.7267337104	 0.042586
C	-0.9869398789	-1.3992115791	-1.4223918486	-0.306828
H	 0.2900641737	-0.0278209611	 1.7813726159	 0.288227
H	-0.9007650215	 1.6148204302	 0.4071175814	 0.080024
H	-2.2100342724	-1.1304251264	 1.0793473641	 0.112651
H	-3.1123389156	 0.4252404107	 0.7408816268	 0.108516
H	-3.0942051806	 1.2428502475	-1.6194408968	 0.10895
H	-1.4795016963	 1.4695317159	-2.3058022257	 0.104009
H	-2.6816889193	 0.0285813372	-4.0424740144	 0.090322
H	-1.3989355567	-2.2290089773	-3.4973311212	 0.090724
H	-1.1004264334	-2.2723928533	-0.7740702682	 0.111118
H	 0.0843221271	-1.2858094812	-1.628800144	 0.114517
78.4367	163.0963	223.4838	288.2989	329.5064	358.894	387.9911	458.3363	480.2058	594.2465	668.1193	770.0943	821.7254	825.0992	861.7738	879.6067	918.3965	935.2878	962.3838	986.3422	1009.9707	1031.6238	1045.1921	1087.2728	1099.4427	1106.8303	1165.5032	1186.0573	1219.6359	1237.667	1266.7948	1279.0809	1296.2284	1302.5564	1339.0811	1356.4947	1428.0997	1442.5185	1476.9701	1486.3149	1491.9581	3020.2026	3040.4622	3073.3319	3081.106	3090.4377	3121.111	3137.7084	3150.5918	3210.7438	3806.6592
OC1CC11CC2OC2C1	O[C@@H]1C[C@]21C[C@@H]1O[C@@H]1C2	
InChI=1S/C7H10O2/c8-6-3-7(6)1-4-5(2-7)9-4/h4-6,8H,1-3H2	InChI=1S/C7H10O2/c8-6-3-7(6)1-4-5(2-7)9-4/h4-6,8H,1-3H2/t4-,5+,6-,7-/m1/s1
