19
gdb 5659	2.3919027	1.4356215	1.034754	2.9308	78.05	-0.23738	-0.01264	0.22474	1200.9793	0.156353	-422.575277	-422.566344	-422.5654	-422.609646	32.459	
C	 1.4259890318	-0.097683124	-0.1328482779	-0.238112
O	 0.0538112805	 0.2273503346	-0.081974138	-0.245716
C	-0.372651998	 0.8040205549	 1.1481990661	 0.077308
C	-0.003377686	 2.2990881484	 1.2468909483	-0.336053
C	-0.8695697041	 3.1489362666	 0.3358105393	 0.401262
O	-0.4169976221	 3.9407603227	-0.4549920222	-0.310145
C	-2.3703543928	 2.9478782065	 0.5149347926	-0.35719
C	-2.7454081115	 1.5578197708	 0.9540947667	-0.044684
C	-1.8634448771	 0.6015260981	 1.2350652222	-0.077036
H	 1.7096226001	-0.7839654586	 0.6804588365	 0.103571
H	 1.600038778	-0.5943277705	-1.090259184	 0.132476
H	 2.0744040442	 0.788479006	-0.0792267554	 0.113248
H	 0.1181365714	 0.2694070214	 1.9780600939	 0.068743
H	-0.1801897045	 2.6221937566	 2.2819304246	 0.119767
H	 1.0477649052	 2.4781177708	 1.011440828	 0.121076
H	-2.7173297786	 3.6837589551	 1.2578552772	 0.135273
H	-2.8680411711	 3.2212034777	-0.4219480673	 0.139888
H	-3.8101235706	 1.3461388849	 1.0204628878	 0.099034
H	-2.2009437848	-0.3942782719	 1.5058548018	 0.097293
57.6791	78.7926	104.6568	198.8801	232.6899	322.8674	392.3845	431.3203	451.2924	485.2543	568.1661	584.0378	713.7781	741.9384	793.5215	889.9766	925.1523	955.3016	970.4793	1003.7999	1035.1676	1068.0342	1111.6795	1141.9975	1176.7485	1181.4897	1209.862	1224.6914	1244.6244	1291.8149	1336.0554	1369.368	1384.9824	1419.0632	1437.5575	1455.1389	1476.0482	1493.3115	1507.877	1728.6863	1827.0702	2960.1125	2978.6014	2994.4254	3027.5744	3031.65	3070.0256	3114.3107	3117.5349	3149.9135	3180.4849
COC1CC(=O)CC=C1	CO[C@H]1CC(=O)CC=C1	
InChI=1S/C7H10O2/c1-9-7-4-2-3-6(8)5-7/h2,4,7H,3,5H2,1H3	InChI=1S/C7H10O2/c1-9-7-4-2-3-6(8)5-7/h2,4,7H,3,5H2,1H3/t7-/m1/s1
