19
gdb 6041	2.8969536	0.8896853	0.7414925	1.7666	78.64	-0.25806	0.02307	0.28113	1549.851	0.153142	-422.504914	-422.494527	-422.493582	-422.54069	37.062	
C	-4.312849425	-0.4667114611	 2.5078729263	-0.472607
C	-2.9139314888	 0.1162529215	 2.4956375374	 0.193052
O	-1.8502419839	-0.8497593132	 2.6245272697	-0.285373
C	-1.9931357874	-0.1755284784	 1.3699067875	 0.014791
C	-0.86282017	 0.7247929919	 0.9425149399	-0.259103
C	 0.3774856038	-0.0745580057	 0.5236922509	-0.055746
O	 1.4294140964	 0.757975968	 0.0649893888	-0.417932
C	-2.7499854476	 1.3298811968	 3.2638293725	 0.303313
C	-2.6705501634	 2.3394818421	 3.9118532355	-0.435835
H	-4.6100633229	-0.7154415254	 3.5307384797	 0.139385
H	-5.0333883543	 0.2537893892	 2.1095941143	 0.133471
H	-4.3450859905	-1.3766119364	 1.9038305804	 0.130057
H	-2.4034497621	-0.8115149068	 0.5811719292	 0.091198
H	-1.1896745387	 1.3439630407	 0.0983668963	 0.112102
H	-0.6074007405	 1.4001600045	 1.7662429509	 0.107869
H	 0.6991351189	-0.7149885049	 1.3580499236	 0.108674
H	 0.1343695442	-0.734038349	-0.3170048924	 0.109847
H	 1.7298820709	 1.2878108712	 0.8103054216	 0.282734
H	-2.587838259	 3.2297845751	 4.4852608577	 0.200103
60.1657	89.7573	99.6958	167.4163	182.1904	211.6565	262.4856	302.0634	327.2632	337.4417	429.1894	538.4527	560.1325	602.0758	631.4817	663.0222	675.419	776.5392	808.3306	903.7328	969.0653	1011.1296	1058.3873	1074.0664	1098.7601	1107.8942	1120.9099	1191.2249	1247.2568	1294.6545	1315.314	1333.9222	1396.3621	1409.8241	1420.9442	1458.844	1476.0468	1481.6151	1494.8351	1513.4477	2235.9356	3000.084	3037.8436	3045.1564	3062.4621	3073.652	3095.557	3117.3709	3130.5946	3500.4402	3815.4824
CC1(OC1CCO)C#C	C[C@]1(O[C@@H]1CCO)C#C	
InChI=1S/C7H10O2/c1-3-7(2)6(9-7)4-5-8/h1,6,8H,4-5H2,2H3	InChI=1S/C7H10O2/c1-3-7(2)6(9-7)4-5-8/h1,6,8H,4-5H2,2H3/t6-,7+/m1/s1
