19
gdb 2966	3.4284028	1.1676927	1.0084175	2.5166	78.1	-0.20935	0.02049	0.22984000000000002	1231.9837	0.155797	-422.558148	-422.549284	-422.54834	-422.590965	34.315	
C	 1.316729044	 0.8633147177	 0.2018154605	-0.486651
C	-0.0790047797	 0.327830638	 0.2423090146	 0.318723
C	-1.2141311491	 0.9965899893	 0.0089854471	-0.252962
C	-2.4209812694	 0.1558779952	 0.2209396532	 0.41989
O	-3.5267328867	 0.3695685786	-0.5857362842	-0.484676
C	-2.6282897904	-0.3566233372	 1.6254745873	 0.014238
O	-3.9650768565	-0.692695296	 1.8908073518	-0.44069
C	-1.8780484629	-1.2204634762	 0.6283250221	-0.19678
C	-0.3583951439	-1.1267109341	 0.6006886476	-0.327737
H	 1.8009598864	 0.7960800173	 1.1845439865	 0.124575
H	 1.9415207883	 0.2846455921	-0.4910839023	 0.124151
H	 1.337808928	 1.9100561464	-0.1127980882	 0.126142
H	-1.2892607504	 2.0416394917	-0.269003552	 0.094323
H	-4.2938462634	 0.1069926561	-0.05785743	 0.290224
H	-2.095762464	 0.1047748726	 2.4578948834	 0.087473
H	-4.0001331033	-1.5940835686	 2.2278746262	 0.292546
H	-2.3820286257	-2.121265261	 0.2945320263	 0.085187
H	 0.0956783541	-1.3933723462	 1.5654261374	 0.104044
H	 0.0810564548	-1.8067364457	-0.1421995273	 0.107978
125.7593	173.9951	235.1529	247.6233	271.6328	286.2845	298.3283	389.1753	427.774	438.3087	468.4857	501.0726	635.4136	689.2922	761.2059	814.4587	855.1828	892.141	910.7455	966.2994	988.4151	1017.0787	1050.3429	1071.2923	1084.3876	1124.5589	1158.4956	1187.8301	1196.3712	1246.3048	1281.6614	1288.3108	1320.8358	1338.3152	1413.8239	1422.8894	1439.1749	1473.7831	1478.7098	1489.6055	1709.2862	3004.149	3015.5089	3030.8676	3058.9396	3091.528	3111.8245	3169.6929	3199.8514	3745.3733	3802.6558
CC1=CC2(O)C(O)C2C1	CC1=C[C@]2(O)[C@@H](O)[C@@H]2C1	
InChI=1S/C7H10O2/c1-4-2-5-6(8)7(5,9)3-4/h3,5-6,8-9H,2H2,1H3	InChI=1S/C7H10O2/c1-4-2-5-6(8)7(5,9)3-4/h3,5-6,8-9H,2H2,1H3/t5-,6-,7+/m0/s1
