19
gdb 3600	2.5147182	1.4505334	1.0360966	3.4406	78.36	-0.23971	-0.05721	0.1825	1176.6375	0.15698	-422.597552	-422.588614	-422.58767	-422.631114	33.339	
C	-0.0197677913	 2.505694575	 0.330471336	-0.407949
C	-0.8568878747	 1.2635825159	 0.0292516016	-0.093583
C	-2.0676424461	 1.104438883	 0.9651691295	-0.222545
C	-2.9205575364	-0.1091353354	 0.6021037893	 0.066043
O	-3.6346625006	 0.2190298812	-0.5962860142	-0.431957
C	-2.0705389959	-1.3427467991	 0.397154639	-0.090233
C	-0.7602234509	-1.2910719157	 0.1384361245	-0.129796
C	-0.0142781236	-0.0111045595	 0.030569947	 0.373446
O	 1.1949936891	-0.0038916668	-0.0862905646	-0.333729
H	 0.3545186114	 2.4867538581	 1.3596816382	 0.11741
H	 0.8465692634	 2.5571819784	-0.3316625017	 0.13553
H	-0.617906952	 3.4129084394	 0.2024774346	 0.109009
H	-1.2563728052	 1.3364251082	-0.9934100608	 0.119546
H	-1.7239205858	 0.9952957869	 2.000964814	 0.104117
H	-2.6971132353	 1.9988903883	 0.9236043962	 0.11319
H	-3.6389327285	-0.3024747858	 1.4138067639	 0.072409
H	-4.0679041657	-0.5771801626	-0.9211671349	 0.284446
H	-2.5774622511	-2.3055941959	 0.4483603562	 0.103511
H	-0.1635504407	-2.1879785134	-0.0000957838	 0.111137
70.509	128.984	191.0466	225.1158	248.292	286.9828	322.8894	371.7773	422.6217	455.49	532.6599	562.9366	679.6597	728.6708	804.0545	822.6562	857.5955	910.3461	954.0224	995.9067	1031.1144	1053.0823	1085.0572	1112.2135	1130.9033	1150.567	1214.5099	1227.8837	1249.1106	1304.0501	1344.8754	1364.9129	1389.9394	1404.3556	1410.4095	1426.2378	1479.4246	1491.6832	1499.1778	1690.561	1775.9677	2974.9892	3006.2411	3037.82	3042.4026	3086.4368	3105.285	3134.6382	3135.1735	3182.463	3813.6234
CC1CC(O)C=CC1=O	C[C@@H]1C[C@@H](O)C=CC1=O	
InChI=1S/C7H10O2/c1-5-4-6(8)2-3-7(5)9/h2-3,5-6,8H,4H2,1H3	InChI=1S/C7H10O2/c1-5-4-6(8)2-3-7(5)9/h2-3,5-6,8H,4H2,1H3/t5-,6+/m1/s1
