19
gdb 2159	3.0836986	1.4774538	1.4725551	1.7507	74.46	-0.25003	0.07672	0.32675	986.6334	0.157839	-422.541855	-422.534342	-422.533398	-422.573005	31.406	
O	-3.7989379328	-1.4929532722	 1.0173887916	-0.487271
C	-2.7043595168	-0.649553187	 1.1691859221	 0.41267
C	-1.9098578697	-0.4988344839	 2.4971098901	-0.31141
C	-1.4281242424	 0.8019703133	 1.8371156959	-0.101627
C	-2.7835318457	 0.9489773036	 1.0852190556	-0.103784
C	-2.0532806043	 1.4319973967	-0.1764368158	-0.275384
C	-0.9374179998	 0.4989710611	 0.3388780149	 0.418737
O	 0.359692556	 0.7254390685	-0.1063322441	-0.488485
C	-1.5780966742	-0.8938373856	 0.1526347337	-0.315175
H	-4.4309046651	-1.2970675842	 1.7169143366	 0.277134
H	-2.5604222957	-0.2846885494	 3.3530516623	 0.087576
H	-1.1985690823	-1.2881426704	 2.7632392602	 0.08808
H	-0.9484973941	 1.6240058452	 2.3649280124	 0.072506
H	-3.6549594365	 1.437907216	 1.5196298641	 0.062216
H	-2.4702804716	 1.2277796283	-1.1673041137	 0.094721
H	-1.7750364428	 2.4866934737	-0.0943387624	 0.10265
H	 0.9201119492	 0.0063684346	 0.2044295922	 0.277172
H	-1.9374315106	-1.0608499017	-0.8657853017	 0.105153
H	-0.9302144509	-1.7271041766	 0.4460545761	 0.08452
222.2294	242.7329	290.6447	308.5637	343.3335	402.7449	467.2014	475.9223	492.1614	550.429	652.621	664.1909	710.7883	817.117	865.2223	896.3534	900.4583	905.5263	969.5067	982.2576	986.8496	1001.2846	1023.6861	1080.7951	1103.334	1108.4033	1127.1234	1169.7697	1180.9951	1190.7847	1219.9094	1232.2702	1239.0598	1268.9747	1306.5288	1338.5155	1376.4205	1403.9432	1482.9105	1499.3051	1520.098	3028.6134	3043.7654	3048.1226	3082.2831	3102.7451	3107.835	3119.3997	3138.3827	3806.5069	3811.2675
OC12CC3C1CC3(O)C2	O[C@]12C[C@@H]3[C@H]1C[C@]3(O)C2	
InChI=1S/C7H10O2/c8-6-1-4-5(6)2-7(4,9)3-6/h4-5,8-9H,1-3H2	InChI=1S/C7H10O2/c8-6-1-4-5(6)2-7(4,9)3-6/h4-5,8-9H,1-3H2/t4-,5-,6+,7+/m1/s1
