19
gdb 3403	3.1198356	1.4096797	1.1621656	1.1149	74.24	-0.22086	0.07825	0.29911	1092.5003	0.158613	-422.523248	-422.51553	-422.514586	-422.555017	30.784	
O	 0.4158159786	-0.1397568564	 0.4489554666	-0.428973
C	-0.6416616104	 0.6517602646	 0.9100109952	 0.021431
C	-1.4246198707	 0.1773770482	 2.1090959067	 0.059143
O	-2.7990620579	 0.3657542711	 2.3073723651	-0.256548
C	-3.3297291344	 1.6037120345	 1.8621786261	-0.108552
C	-2.5276658071	 2.8124276349	 2.308194559	-0.032331
C	-1.9302759929	 2.8815808978	 3.6873084554	-0.29473
C	-1.0320657309	 2.6713627055	 2.4831216142	-0.048859
C	-0.4434945949	 1.3146733021	 2.2602848356	-0.098722
H	 0.040957481	-0.8972498793	-0.0133715852	 0.286308
H	-1.1458400617	 1.2475655104	 0.1497359747	 0.089968
H	-1.1343529773	-0.7907167759	 2.503649897	 0.104283
H	-3.4171869443	 1.6072449431	 0.7636047441	 0.093101
H	-4.3457601165	 1.6417768163	 2.269181953	 0.111436
H	-2.8869720127	 3.7440181522	 1.8796804742	 0.085822
H	-1.9068159528	 3.8435117989	 4.1872961888	 0.108874
H	-2.0826543648	 2.0311241637	 4.3429640781	 0.125489
H	-0.4162670036	 3.5121286904	 2.175305369	 0.086022
H	 0.4920406934	 1.0902932279	 2.7649940925	 0.096839
151.1207	190.8831	268.297	290.331	319.9505	361.7519	373.8798	412.3711	549.8322	599.0986	720.3495	767.9094	785.7941	844.386	845.9706	911.7252	936.6656	962.3184	980.5035	1042.4476	1065.1331	1074.5449	1094.0581	1101.4164	1105.8662	1132.1932	1141.2285	1158.3743	1178.164	1211.1206	1233.245	1289.1887	1298.718	1331.6441	1345.9148	1383.8951	1396.7777	1422.4945	1472.279	1492.2848	1512.581	2972.3548	3064.8187	3105.2234	3133.4178	3134.6892	3146.473	3148.8934	3170.3212	3223.0872	3798.7612
OC1C2OCC3CC3C12	O[C@H]1[C@@H]2OC[C@H]3C[C@H]3[C@H]12	
InChI=1S/C7H10O2/c8-6-5-4-1-3(4)2-9-7(5)6/h3-8H,1-2H2	InChI=1S/C7H10O2/c8-6-5-4-1-3(4)2-9-7(5)6/h3-8H,1-2H2/t3-,4-,5-,6-,7-/m1/s1
