19
gdb 3726	2.5987492	1.4417285	1.0829383	1.4362	76.65	-0.24729	0.01591	0.2632	1143.0985	0.156822	-422.552905	-422.544233	-422.543288	-422.586243	33.289	
O	-3.0192429426	 0.2260341434	 3.9626381264	-0.424264
C	-2.40409348	-0.0727270425	 2.7427742595	 0.051715
C	-1.2639443747	-1.0533641161	 2.6967895439	-0.378306
C	-1.002867845	 0.4328426733	 2.5536571652	 0.288206
C	-0.3141699053	 1.239864503	 3.6603934132	-0.340244
C	 0.4756056135	 2.2661059335	 2.8888716374	-0.068299
C	 0.3270061433	 2.1537302349	 1.5700176891	-0.110036
C	-0.5656463727	 0.9995449328	 1.1835447068	 0.005658
O	 0.078851321	 0.0590506772	 0.3246319854	-0.423841
H	-3.5287792065	-0.5433280336	 4.2368148751	 0.288863
H	-3.0664237986	-0.0280160747	 1.876773772	 0.085414
H	-0.9751339059	-1.5161186224	 3.6357672727	 0.107198
H	-1.1435717616	-1.6688212427	 1.8117675761	 0.123361
H	-1.0481193345	 1.7031481927	 4.3295527396	 0.133032
H	 0.3349890453	 0.6261694308	 4.2991869132	 0.102518
H	 1.0839516977	 3.0146167872	 3.3859991252	 0.097376
H	 0.7926009671	 2.7812967173	 0.8185152112	 0.097373
H	-1.4318495924	 1.3283893853	 0.5963942642	 0.090113
H	 0.8921589619	-0.2133257694	 0.7651067135	 0.274163
50.3983	170.8823	205.7056	246.6717	272.7533	317.3166	349.8793	390.3523	456.8891	506.9653	523.4697	613.2361	728.8313	777.6314	789.9759	848.0811	888.1334	926.8378	972.5066	974.5024	989.2131	1016.2602	1024.0524	1051.9197	1070.1592	1094.52	1133.7495	1168.6158	1191.2788	1230.4546	1260.0453	1265.936	1287.0685	1302.2969	1354.6008	1370.6022	1418.9043	1429.338	1480.4833	1490.8956	1686.7262	3016.4353	3031.842	3059.9532	3086.9348	3124.0759	3179.9979	3207.7276	3218.6305	3793.3598	3809.702
OC1CC11CC=CC1O	O[C@@H]1C[C@@]21CC=C[C@H]2O	
InChI=1S/C7H10O2/c8-5-2-1-3-7(5)4-6(7)9/h1-2,5-6,8-9H,3-4H2	InChI=1S/C7H10O2/c8-5-2-1-3-7(5)4-6(7)9/h1-2,5-6,8-9H,3-4H2/t5-,6-,7+/m1/s1
