19
gdb 1351	2.6400839	1.0502108	0.7974228	1.3466	78.4	-0.25563	-0.02898	0.22665000000000002	1425.5945	0.152731	-422.540371	-422.529836	-422.528892	-422.576224	37.405	
C	-1.8959778177	 3.7376906536	-1.1204416523	-0.415258
C	-1.2427533393	 2.3562634629	-1.3383304663	-0.091933
C	 0.239503089	 2.5641248615	-1.5724802844	 0.154759
O	 1.1367148707	 2.081795368	-0.927025759	-0.249689
C	-1.5540973525	 1.3807815315	-0.1973415611	 0.142572
O	-2.9631547671	 1.3776329413	-0.0418942626	-0.447
C	-1.0322111023	-0.050518355	-0.4749491972	-0.381575
C	-1.4819782115	-0.9748188303	 0.5588094499	 0.256744
C	-1.9011917263	-1.6845341943	 1.4354339639	-0.419925
H	-1.5361526156	 4.1963745482	-0.1934964595	 0.128418
H	-1.662826637	 4.4152993102	-1.9479110522	 0.116349
H	-2.97783312	 3.6272919364	-1.0499220711	 0.155166
H	-1.6516402157	 1.9447869348	-2.274729877	 0.102355
H	 0.4603240823	 3.2555879805	-2.4185557009	 0.084938
H	-1.0631229339	 1.7453453693	 0.7182872408	 0.087755
H	-3.1747390313	 0.6918420661	 0.603749632	 0.287978
H	-1.4053059166	-0.383792102	-1.4520229429	 0.12751
H	 0.0600687326	-0.031463959	-0.520602477	 0.161104
H	-2.240064218	-2.3389336538	 2.2001937966	 0.199731
72.0793	74.5267	105.5453	124.1182	189.5522	217.0299	279.0235	316.1145	351.1513	377.6514	397.9025	404.6213	464.2419	557.0335	622.2343	657.6856	692.6582	818.844	878.9223	922.9508	937.4601	955.6185	1017.3071	1059.9461	1104.4298	1125.0468	1156.7975	1235.2439	1269.0455	1285.1726	1308.6289	1342.615	1372.8313	1398.9938	1419.3216	1450.7287	1468.6632	1491.7867	1506.2299	1822.0837	2230.0506	2864.3442	2982.4199	2997.5142	3030.3252	3041.6628	3100.2924	3105.2281	3154.3719	3504.3992	3771.9077
CC(C=O)C(O)CC#C	C[C@@H](C=O)[C@@H](O)CC#C	
InChI=1S/C7H10O2/c1-3-4-7(9)6(2)5-8/h1,5-7,9H,4H2,2H3	InChI=1S/C7H10O2/c1-3-4-7(9)6(2)5-8/h1,5-7,9H,4H2,2H3/t6-,7-/m0/s1
