19
gdb 1130	3.7392438	1.0831638	0.9758646	1.3451	74.88	-0.24664	-0.01363	0.23301	1250.3373	0.156568	-422.575601	-422.566953	-422.566009	-422.609822	31.666	
C	 3.1187037612	-0.5571871218	-3.9364766589	-0.47998
C	 2.2362582097	-1.0167993283	-2.7909002624	 0.370654
O	 1.8136215206	-2.1491083404	-2.7256025573	-0.305002
C	 1.8910597143	 0.0359922357	-1.74252975	-0.086321
C	 0.6526344302	 0.8823514412	-2.192323188	-0.261186
C	-0.0034412871	 1.2814432444	-0.8864292178	 0.051442
O	 0.9140600105	 1.8017143464	 0.083583896	-0.260522
C	 0.5007425267	 0.4279526595	 0.1941336866	 0.046405
C	 1.5043864784	-0.5541073033	-0.3663298159	-0.261675
H	 4.1284076684	-0.354710629	-3.5591991751	 0.144846
H	 3.1688231296	-1.3276548963	-4.7066467589	 0.14167
H	 2.7490204719	 0.3811953909	-4.3638324507	 0.138069
H	 2.7356685555	 0.7202307172	-1.6302143899	 0.094237
H	 0.9371856485	 1.7413028526	-2.8070994201	 0.114358
H	-0.0517147262	 0.2718565558	-2.7708401036	 0.118548
H	-0.9954537516	 1.7263397636	-0.8812028256	 0.095852
H	-0.0835462156	 0.1899775684	 1.0791609434	 0.096565
H	 2.3757549737	-0.6875449811	 0.2818176364	 0.110647
H	 1.0350450613	-1.5339067655	-0.5045858184	 0.131392
39.3969	94.4309	128.9704	184.1519	280.8674	322.1378	331.3886	423.7903	577.4299	596.7747	635.3426	668.588	811.3017	826.252	863.1597	902.8747	910.9708	940.0342	957.2172	977.3221	1013.12	1033.9553	1085.6419	1091.954	1104.5457	1177.9102	1180.1723	1228.7859	1265.2387	1295.2506	1301.1649	1314.5409	1332.8125	1368.2468	1385.2801	1442.4009	1461.9032	1475.0159	1478.6236	1490.3751	1808.0499	3034.032	3036.8766	3053.8306	3072.9964	3091.7134	3094.8249	3102.0135	3142.13	3152.1278	3155.6634
CC(=O)C1CC2OC2C1	CC(=O)[C@H]1C[C@@H]2O[C@@H]2C1	
InChI=1S/C7H10O2/c1-4(8)5-2-6-7(3-5)9-6/h5-7H,2-3H2,1H3	InChI=1S/C7H10O2/c1-4(8)5-2-6-7(3-5)9-6/h5-7H,2-3H2,1H3/t5-,6-,7+
