19
gdb 2862	3.1650681	1.543976	1.3102633	2.2465	74.34	-0.21297	0.06548	0.27845	1014.6545	0.158128	-422.517748	-422.510193	-422.509249	-422.549037	31.273	
O	 0.3627676284	 0.3094035129	 0.235840618	-0.447982
C	-0.9698729867	-0.0006790748	 0.5682116641	-0.043513
C	-2.029643264	 0.8669293046	-0.107353008	-0.178493
C	-3.5240103764	 0.6752757194	 0.2153655747	-0.046265
C	-3.995090606	-0.0768356938	-1.0802723322	-0.213355
C	-3.0753709479	-1.2042740171	-0.48914569	-0.089121
C	-3.5904211212	-0.7228240718	 0.8946161181	-0.238739
C	-1.7038172573	-0.5318909898	-0.6324281152	 0.469647
O	-1.0078169905	-0.823106127	-1.7944142885	-0.487881
H	 0.568106586	 1.186620401	 0.5748951873	 0.293856
H	-1.0847418808	-0.3913769485	 1.5770197812	 0.089582
H	-1.6951272811	 1.7596079514	-0.6259045765	 0.084973
H	-4.0666233224	 1.5300756875	 0.6210578086	 0.060122
H	-5.0571047475	-0.3370275054	-1.0661495126	 0.089932
H	-3.7103137874	 0.3456579972	-2.046805463	 0.103672
H	-3.1386548086	-2.2444144372	-0.8069651807	 0.069646
H	-4.6231468938	-1.0353371945	 1.0620766995	 0.098765
H	-3.0075747242	-0.9217488879	 1.7949519653	 0.095413
H	-0.1070611985	-0.5023191163	-1.64926906	 0.289739
203.9079	234.0013	268.6709	274.9857	359.1554	412.6053	427.5352	472.9459	504.7495	575.2579	663.8369	715.2395	801.7797	829.5186	838.6995	864.0107	906.4935	946.2098	967.0929	990.7086	1005.6699	1025.0034	1049.4803	1064.5028	1074.4484	1104.1708	1106.2835	1128.9428	1160.3182	1218.2536	1230.334	1241.5634	1258.3321	1272.2661	1277.8569	1298.6526	1335.1979	1415.3111	1441.2683	1490.4529	1533.6611	3056.3701	3073.8142	3102.6154	3107.5451	3121.7717	3125.1969	3129.2336	3165.9193	3753.624	3812.9525
OC1C2C3CC(C3)C12O	O[C@H]1[C@@H]2[C@H]3C[C@H](C3)[C@]12O	
InChI=1S/C7H10O2/c8-6-5-3-1-4(2-3)7(5,6)9/h3-6,8-9H,1-2H2	InChI=1S/C7H10O2/c8-6-5-3-1-4(2-3)7(5,6)9/h3-6,8-9H,1-2H2/t3-,4+,5-,6-,7+/m0/s1
