19
gdb 3509	2.2286311	1.7669391	1.2605816	1.2098	76.47	-0.25145	0.01354	0.26499	1058.9958	0.157495	-422.55402	-422.545743	-422.544799	-422.586638	31.97	
O	 0.1923991283	 0.0654497758	 0.2986505958	-0.432834
C	-0.5136817911	 0.9679458406	 1.156178784	-0.005613
C	-1.2428263559	 1.9456731786	 0.2738152967	-0.047999
C	-0.9237903831	 3.2363152654	 0.1901559479	-0.048741
C	 0.2171605812	 3.8699103087	 0.9415811806	-0.254935
C	 1.2053231792	 2.8159881022	 1.4661350006	-0.290221
C	 0.4380397185	 1.6841940523	 2.1069518635	 0.412601
C	 0.9270811718	 0.9830080378	 3.2997573183	-0.259749
O	-0.108170279	 1.9631569711	 3.4074731239	-0.282549
H	 0.5570960885	-0.6347023263	 0.8510688261	 0.279812
H	-1.2448334614	 0.4204514631	 1.7714702965	 0.078994
H	-2.0608461283	 1.5369883992	-0.3122823756	 0.093988
H	-1.5123134009	 3.890154128	-0.4494525499	 0.090978
H	 0.7356487484	 4.5871668921	 0.2946832278	 0.105209
H	-0.1800909981	 4.4555964313	 1.7823197028	 0.126926
H	 1.7803313177	 2.4034062057	 0.6291408686	 0.118773
H	 1.9073849951	 3.2564025084	 2.1796292782	 0.098081
H	 0.6165944879	-0.0435103725	 3.5010867855	 0.10335
H	 1.8867149511	 1.2629439083	 3.7331871686	 0.113929
87.9947	144.5736	228.9031	264.973	311.392	319.7623	380.6088	411.5831	498.8319	519.9855	571.8666	697.1035	743.8473	764.0379	846.9223	877.2215	899.714	944.5699	989.3096	1004.54	1007.9419	1039.2935	1056.8725	1070.038	1126.558	1154.7042	1165.8244	1202.4057	1236.0779	1253.1772	1296.298	1314.02	1353.0455	1370.2243	1386.9373	1425.6925	1451.5893	1467.3078	1478.9984	1530.1806	1723.7956	2979.5311	3015.7275	3042.038	3057.4287	3067.4991	3096.8169	3148.3145	3152.311	3176.7428	3801.5219
OC1C=CCCC11CO1	O[C@@H]1C=CCC[C@@]21CO2	
InChI=1S/C7H10O2/c8-6-3-1-2-4-7(6)5-9-7/h1,3,6,8H,2,4-5H2	InChI=1S/C7H10O2/c8-6-3-1-2-4-7(6)5-9-7/h1,3,6,8H,2,4-5H2/t6-,7+/m1/s1
