19
gdb 2172	2.9035934	1.7462475	1.6036776	2.668	73.38	-0.23326	0.07465	0.30791	925.732	0.159775	-422.560566	-422.553625	-422.552681	-422.591365	28.919	
O	 0.5844867029	 0.6720393597	 0.5205905335	-0.490757
C	-0.7736182847	 0.9698543429	 0.503659107	 0.387791
C	-1.8811882806	-0.045892262	 0.9281557188	-0.317356
C	-2.763466576	 0.8274516081	 0.0135559816	-0.068193
C	-1.5186410485	 1.0609499507	-0.8748767435	 0.10581
O	-1.5920738181	 2.3249353845	-1.5031740332	-0.281763
C	-2.5668560218	 3.0774462518	-0.7595319044	-0.078463
C	-2.6946868765	 2.2937482559	 0.5508349155	-0.057956
C	-1.2713028019	 2.260795932	 1.1873997465	-0.28763
H	 0.9135863765	 0.7797739878	 1.419523111	 0.278658
H	-1.7116281755	-1.0411478304	 0.5105390943	 0.104944
H	-2.13281202	-0.1169553747	 1.9897944267	 0.089279
H	-3.7138390518	 0.4864754914	-0.3932509218	 0.070688
H	-1.2390712737	 0.2895803147	-1.5923467327	 0.087885
H	-2.1976775728	 4.0988844753	-0.6189638631	 0.104605
H	-3.5148236876	 3.1196943326	-1.316692381	 0.08997
H	-3.5038665735	 2.6220637332	 1.2039486858	 0.068609
H	-0.6709657414	 3.1338309528	 0.9173278007	 0.106993
H	-1.284164015	 2.1633506236	 2.2780514983	 0.086886
213.5045	230.4048	262.7198	361.4763	390.6916	456.9834	482.1664	562.6985	636.8294	728.4388	767.1735	815.2792	839.1251	866.3475	883.217	914.881	937.1922	970.9275	976.8372	997.9555	1008.7884	1073.0345	1081.2359	1103.8957	1120.4725	1128.6934	1163.9234	1182.93	1206.9857	1224.8332	1231.9937	1256.649	1273.3056	1312.7165	1319.3211	1339.47	1384.0141	1396.3511	1489.1245	1512.3754	1523.6171	2990.6245	3042.3833	3058.0148	3067.1854	3096.7306	3108.7706	3118.6652	3124.1899	3134.8037	3802.427
OC12CC3C1OCC3C2	O[C@]12C[C@@H]3[C@H]1OC[C@@H]3C2	
InChI=1S/C7H10O2/c8-7-1-4-3-9-6(7)5(4)2-7/h4-6,8H,1-3H2	InChI=1S/C7H10O2/c8-7-1-4-3-9-6(7)5(4)2-7/h4-6,8H,1-3H2/t4-,5-,6+,7+/m0/s1
