19
gdb 3819	2.4597915	1.6751836	1.2773899	1.8859	74.23	-0.24089	0.07026	0.31115	1046.1247	0.155698	-422.499455	-422.491192	-422.490248	-422.531833	32.375	
C	-2.8371321606	 1.6160492345	-1.7639929385	-0.496725
C	-2.552988986	 1.2210510636	-0.3331683548	 0.329107
C	-1.8165499785	-0.1188274471	-0.0316314895	-0.29936
C	-0.7802339715	 0.6268559906	 0.8504947293	 0.144757
O	 0.5121081399	 0.515368384	 0.2852130431	-0.442237
C	-1.5056983328	 1.9817261419	 0.5567914837	-0.169078
C	-2.655554332	 2.3708353369	 1.5122546541	 0.006572
O	-3.2556205895	 1.1564318858	 1.993516706	-0.240121
C	-3.6404829018	 1.635017312	 0.7012294722	-0.033757
H	-3.6123065084	 0.976314157	-2.2040470871	 0.118585
H	-3.187233109	 2.6531744617	-1.8295646211	 0.114512
H	-1.93794232	 1.5260488419	-2.3817576326	 0.126403
H	-2.4023071189	-0.8862682588	 0.4760944357	 0.107048
H	-1.3351127677	-0.5437770807	-0.9158311584	 0.109499
H	-0.7869033964	 0.3360075123	 1.9069723233	 0.077136
H	 1.1176029607	 1.0351696685	 0.8239645384	 0.278523
H	-0.905142053	 2.7964015864	 0.1500635659	 0.069646
H	-2.7589198478	 3.2449372617	 2.1458472401	 0.102382
H	-4.7006904368	 1.7975420377	 0.5334637902	 0.097107
95.1547	225.026	233.4558	260.5678	289.9149	301.6596	350.334	360.7838	488.1691	537.9314	625.6761	709.1919	803.5455	811.2299	844.9474	867.1291	894.7889	905.3879	938.8125	972.1387	996.4956	1000.6621	1022.0198	1051.7532	1109.0592	1132.9821	1167.6419	1199.4874	1211.1549	1224.5112	1233.7097	1258.7725	1267.3212	1309.5561	1323.8601	1375.7441	1408.4604	1413.0515	1457.4414	1491.6828	1493.2401	3017.625	3035.4581	3070.9068	3077.5648	3097.7844	3109.3383	3135.2991	3160.0405	3178.6224	3809.2025
CC12CC(O)C1C1OC21	C[C@@]12C[C@@H](O)[C@@H]1[C@@H]1O[C@H]21	
InChI=1S/C7H10O2/c1-7-2-3(8)4(7)5-6(7)9-5/h3-6,8H,2H2,1H3	InChI=1S/C7H10O2/c1-7-2-3(8)4(7)5-6(7)9-5/h3-6,8H,2H2,1H3/t3-,4-,5+,6+,7-/m1/s1
