19
gdb 4543	2.499101	1.7444328	1.1454866	2.4284	78.09	-0.24265	0.00404	0.24669	1088.3233	0.156804	-422.542004	-422.533741	-422.532796	-422.574639	31.772	
C	 0.1756956893	 0.5854966126	 0.0965317834	-0.407834
C	 1.3099164932	-0.4269220536	 0.063056858	 0.020994
O	 1.4282724363	-0.862178801	-1.2888655401	-0.256002
C	 2.3506279195	-1.91597489	-1.4621791579	-0.131045
C	 3.6831760685	-1.6277651617	-0.8304111712	-0.099383
C	 3.8226501234	-0.6612284423	 0.0742739417	-0.100638
C	 2.6533507059	 0.1121055704	 0.5565976216	 0.399203
C	 2.7505765433	 0.84879578	 1.8283111558	-0.243724
O	 2.8345472765	 1.545501586	 0.5886119187	-0.271439
H	-0.0401357576	 0.9094712777	 1.1177444124	 0.114931
H	 0.4370474145	 1.4626629063	-0.497942289	 0.145024
H	-0.7256668671	 0.1273238677	-0.3170726191	 0.122344
H	 1.0565875642	-1.2970886948	 0.6957859049	 0.069338
H	 1.9401780455	-2.8657064533	-1.0679777819	 0.096948
H	 2.4629827112	-2.0466624151	-2.5445062318	 0.120864
H	 4.5289825922	-2.2309294334	-1.1486490692	 0.100027
H	 4.7901449877	-0.4100884178	 0.4991869119	 0.095783
H	 1.8543870715	 1.0387894604	 2.4176765669	 0.113263
H	 3.674781182	 0.7981837019	 2.404328435	 0.111347
76.3115	192.5189	207.3194	270.1219	288.1832	308.7226	370.5842	442.4962	481.117	502.8338	578.1623	689.4913	735.8238	805.874	842.1889	867.8939	913.9682	941.1353	978.3888	989.329	1034.0671	1049.0036	1101.6663	1124.5884	1130.4487	1155.3333	1166.2632	1192.5344	1264.2986	1279.3828	1345.9349	1364.7545	1377.4288	1402.6597	1407.826	1436.6378	1483.3398	1485.8327	1490.3074	1528.6168	1719.2683	2920.3912	2937.0973	3058.1609	3058.7854	3074.7863	3129.2966	3147.2365	3158.2631	3160.5581	3181.6161
CC1OCC=CC11CO1	C[C@H]1OCC=C[C@@]21CO2	
InChI=1S/C7H10O2/c1-6-7(5-9-7)3-2-4-8-6/h2-3,6H,4-5H2,1H3	InChI=1S/C7H10O2/c1-6-7(5-9-7)3-2-4-8-6/h2-3,6H,4-5H2,1H3/t6-,7+/m1/s1
