19
gdb 3342	2.8666894	1.4495777	1.1352223	2.7157	75.77	-0.23038	0.06839	0.29877	1114.4368	0.157116	-422.496937	-422.488796	-422.487852	-422.529642	31.445	
O	 1.0819942237	-2.8519368769	-1.0238754943	-0.457301
C	-0.273078117	-2.5745920607	-1.1904270718	 0.085741
C	-1.1723426143	-2.54754516	 0.0206406921	-0.155816
C	-2.6366675745	-2.4329371427	-0.4079946441	-0.229837
C	-2.2930769218	-1.12065798	-1.1884583222	-0.304442
C	-0.8264394459	-1.2439019163	-0.7471838398	 0.303967
C	 0.0061229267	-0.0829188015	-0.3446946422	-0.062594
C	 1.1873801288	 0.3608971565	-1.1054360724	-0.184023
O	 1.3415422409	-0.3582672934	 0.1286417723	-0.249708
H	 1.4532940608	-2.1750493638	-0.4359800106	 0.298697
H	-0.6412390189	-3.0239165667	-2.1133702503	 0.088919
H	-0.7967721821	-2.8894729666	 0.9783895459	 0.093992
H	-3.0241051319	-3.2679948432	-1.0015448674	 0.100573
H	-3.3219988207	-2.2515212188	 0.4224914994	 0.107561
H	-2.467181609	-1.124663272	-2.269702379	 0.099702
H	-2.7891351709	-0.2441330508	-0.7622986037	 0.10584
H	-0.5081774239	 0.6697724935	 0.2561561735	 0.098469
H	 1.4796322367	-0.194066022	-1.9936235284	 0.135332
H	 1.5018971335	 1.4018443253	-1.066358237	 0.124928
69.4866	158.3197	234.8916	261.3529	272.6041	344.2885	349.7884	483.853	529.9548	570.0756	679.1247	706.6917	776.1928	836.4776	852.6412	885.356	922.1969	951.1839	965.1522	994.6637	1017.2813	1080.5605	1097.2507	1103.69	1117.9565	1149.2795	1160.8187	1176.0554	1195.1939	1219.417	1240.4346	1252.5112	1281.2339	1285.7686	1336.2698	1396.6764	1441.5215	1476.5461	1482.0978	1505.5508	1515.5992	3039.0243	3047.0644	3086.281	3088.3566	3095.7859	3099.7541	3109.8748	3180.4255	3195.5021	3669.703
OC1C2CCC12C1CO1	O[C@H]1[C@@H]2CC[C@]12[C@@H]1CO1	
InChI=1S/C7H10O2/c8-6-4-1-2-7(4,6)5-3-9-5/h4-6,8H,1-3H2	InChI=1S/C7H10O2/c8-6-4-1-2-7(4,6)5-3-9-5/h4-6,8H,1-3H2/t4-,5-,6-,7-/m0/s1
