19
gdb 1336	3.0469043	0.9832541	0.8957004	1.9061	79.46	-0.23184	-0.03193	0.19990999999999998	1366.7125	0.155274	-422.565108	-422.555602	-422.554658	-422.600878	32.913	
C	-2.9828560818	 0.8975964645	 1.5035413479	-0.418434
C	-1.9809004942	 1.5652477308	 0.5369580873	-0.172132
C	-2.5955544079	 2.8570621503	 0.0047235694	 0.165045
O	-2.9217940412	 3.0356377028	-1.1383891681	-0.242513
C	-0.6517834476	 1.8593858641	 1.1813471086	 0.298896
C	 0.5588875248	 1.593329022	 0.6952677399	-0.221733
C	 1.6191693035	 2.0592759958	 1.6481776751	-0.102687
O	 0.909450725	 2.6499250298	 2.7350572286	-0.26381
C	-0.4918024061	 2.534719273	 2.526282904	-0.156195
H	-3.253319456	 1.5653872535	 2.3283766979	 0.12889
H	-3.9009122079	 0.6263312563	 0.9749118984	 0.134823
H	-2.5502582423	-0.0100734871	 1.9332172484	 0.13464
H	-1.8248903832	 0.9206954725	-0.3330068948	 0.10204
H	-2.7422816767	 3.6492715194	 0.7756492445	 0.076401
H	 0.7794149325	 1.1069459357	-0.2469597071	 0.108626
H	 2.2494094522	 1.2324331203	 2.0140020392	 0.106567
H	 2.2948503188	 2.8035501458	 1.1980630579	 0.110101
H	-0.9462483915	 1.9478665633	 3.3408427995	 0.105394
H	-0.9533696305	 3.5347891471	 2.5592572035	 0.10608
40.7179	56.9797	99.6366	151.0477	189.8354	233.4504	287.4027	307.3436	413.7198	450.3017	520.2229	674.9357	776.8071	826.9964	880.0046	904.0769	925.3481	944.9768	972.6065	1023.8346	1038.5567	1061.1394	1089.4253	1117.1579	1141.2731	1178.1008	1208.1815	1230.3444	1266.6835	1297.5992	1342.9539	1370.1845	1397.5145	1402.4437	1427.9957	1497.6189	1498.3108	1516.9437	1529.4326	1717.0911	1836.1047	2858.4078	2965.4731	2973.1959	2981.5	2988.5823	3039.0186	3071.6273	3110.4176	3121.1831	3212.5177
CC(C=O)C1=CCOC1	C[C@@H](C=O)C1=CCOC1	
InChI=1S/C7H10O2/c1-6(4-8)7-2-3-9-5-7/h2,4,6H,3,5H2,1H3	InChI=1S/C7H10O2/c1-6(4-8)7-2-3-9-5-7/h2,4,6H,3,5H2,1H3/t6-/m0/s1
