19
gdb 1525	3.0453587	1.3601027	1.1754848	2.5988	79.27	-0.21306	0.00841	0.22147	1121.8216	0.155391	-422.544328	-422.535573	-422.534629	-422.577348	33.594	
C	-0.1163495575	-0.2141847526	-0.029643129	-0.440215
C	 1.3799889146	-0.0409357478	 0.0234637394	 0.371805
O	 1.9604935157	-0.8116888995	 1.0348158361	-0.477063
C	 2.1824508009	 0.1773017908	-1.2492003001	-0.411522
C	 2.0559739243	 1.2944403593	-0.2331729402	 0.354794
O	 3.1951127728	 1.5327611236	 0.5861705252	-0.325828
C	 3.2223259822	 2.9124259616	 0.9732848747	-0.133175
C	 2.0525774492	 3.5354973272	 0.2623882988	-0.111413
C	 1.4000371921	 2.6017868568	-0.425406537	-0.163801
H	-0.5756041615	 0.0967171812	 0.9139840233	 0.122639
H	-0.5594215337	 0.3670525334	-0.8429710897	 0.108482
H	-0.3622609758	-1.268549579	-0.1951780301	 0.129326
H	 2.6689059561	-0.2711610784	 1.4129773692	 0.29138
H	 3.1520252801	-0.3065423285	-1.3014022785	 0.123406
H	 1.6614885433	 0.2820031433	-2.1961079798	 0.109817
H	 3.1460034167	 2.9962191656	 2.068396465	 0.111821
H	 4.1876524016	 3.3492170977	 0.6779486913	 0.114763
H	 1.8081063582	 4.5871136211	 0.3321820966	 0.110103
H	 0.5181395607	 2.7387148642	-1.0358696552	 0.11468
93.1448	153.6726	171.6818	206.1451	262.9668	342.165	378.7655	416.3059	432.1717	463.7694	533.3225	596.9077	699.7403	780.0252	785.1162	835.1892	878.5748	895.9405	915.1835	947.4238	957.0205	976.7491	1027.1163	1035.6166	1045.0213	1102.088	1115.8455	1166.3168	1198.1937	1211.9509	1255.5066	1322.7844	1379.597	1391.9307	1400.6459	1429.6853	1466.6306	1480.3545	1503.6295	1520.4963	1675.8909	2982.0552	3005.6659	3035.8325	3101.3645	3115.7912	3121.6739	3216.7909	3219.5914	3240.9621	3728.3988
CC1(O)CC11OCC=C1	C[C@@]1(O)C[C@@]21OCC=C2	
InChI=1S/C7H10O2/c1-6(8)5-7(6)3-2-4-9-7/h2-3,8H,4-5H2,1H3	InChI=1S/C7H10O2/c1-6(8)5-7(6)3-2-4-9-7/h2-3,8H,4-5H2,1H3/t6-,7+/m1/s1
