19
gdb 5569	2.9038713	1.5486283	1.1822275	1.8916	75.39	-0.22707	0.07148	0.29855	1084.1503	0.156337	-422.488044	-422.479726	-422.478782	-422.520614	32.012	
C	 1.4660533941	-0.0371241517	-0.0008426527	-0.243319
O	 0.0574759847	-0.0396046849	 0.1271204995	-0.255677
C	-0.4111735118	 0.6921211247	 1.2323158997	 0.069804
C	-1.9440058429	 0.489533258	 1.3617677152	-0.098446
C	-2.3523200742	 1.3629236818	 2.5782705201	-0.247114
C	-1.5424136879	 0.3710881445	 3.4108958772	-0.137953
C	-1.6616690267	-0.7121445767	 2.3533126628	-0.120393
C	-0.3264789271	-0.0619801441	 2.5657068628	 0.363721
O	 0.7815844516	-0.6583163084	 3.1377392097	-0.462385
H	 1.9545975917	-0.535337957	 0.8450400895	 0.125141
H	 1.7039809885	-0.5744742931	-0.9222841857	 0.122616
H	 1.8592329134	 0.9892895427	-0.0816968101	 0.095678
H	-0.0362887967	 1.7296044602	 1.190486951	 0.047299
H	-2.534093669	 0.4413949357	 0.4502432529	 0.082113
H	-2.0556786531	 2.4186658315	 2.5655800475	 0.086959
H	-3.4223431995	 1.2880588361	 2.7928462572	 0.102176
H	-1.5179880062	 0.2351157899	 4.4857681533	 0.085036
H	-1.9850147988	-1.7405375941	 2.3987951108	 0.098752
H	 1.23212653	-0.0042658252	 3.6840727895	 0.285993
103.1278	168.6815	183.396	246.4334	280.4541	335.7151	358.567	397.1482	443.3556	541.9829	644.6307	729.5497	819.7259	833.899	841.7626	901.3687	927.5419	944.7587	956.709	974.7838	1006.2213	1027.512	1068.101	1094.9549	1133.3215	1155.2466	1162.5375	1186.539	1191.8163	1223.5229	1234.4745	1249.5907	1280.2985	1299.0789	1305.4267	1379.3041	1447.425	1479.7893	1488.0121	1501.595	1516.7498	2948.1122	2976.79	3027.1718	3057.741	3087.7531	3115.3444	3152.9914	3184.0534	3239.7461	3786.0051
COC1C2CC3C2C13O	CO[C@H]1[C@@H]2C[C@H]3[C@@H]2[C@@]13O	
InChI=1S/C7H10O2/c1-9-6-3-2-4-5(3)7(4,6)8/h3-6,8H,2H2,1H3	InChI=1S/C7H10O2/c1-9-6-3-2-4-5(3)7(4,6)8/h3-6,8H,2H2,1H3/t3-,4+,5-,6+,7-/m1/s1
