19
gdb 4658	2.2598909	0.8809939	0.7854994	3.6463	81.26	-0.23246	-0.01878	0.21368	1614.513	0.152133	-422.546301	-422.534625	-422.533681	-422.5863	38.291	
C	-3.4929328421	 3.4965195113	-1.5002272767	-0.38029
C	-3.1482624814	 2.4692278913	-0.4256013717	-0.286046
C	-3.0920107575	 1.0479595001	-0.952048051	 0.372505
O	-3.3768276152	 0.7409152769	-2.0830758839	-0.300536
C	-2.632432538	-0.0452030822	 0.0555491357	-0.092174
O	-3.1374723083	 0.1991169261	 1.3661183317	-0.421753
C	-1.1765150727	-0.1323547918	 0.0224082758	 0.048098
C	 0.0288450822	-0.1426858008	 0.0195230614	 0.036763
C	 1.4831566728	-0.1867834445	 0.0019425612	-0.498911
H	-3.5392689475	 4.50202725	-1.0728981426	 0.109218
H	-2.7470604781	 3.4941565181	-2.2995933751	 0.128779
H	-4.4589578371	 3.2698318	-1.9580918838	 0.134203
H	-2.1807529545	 2.6871858127	 0.0479481534	 0.116988
H	-3.8747186589	 2.4800242945	 0.3960070195	 0.140792
H	-3.077255528	-0.9822723371	-0.2983930776	 0.131785
H	-2.4225428604	 0.5702152047	 1.8924678195	 0.291356
H	 1.8701305627	-0.8335635721	 0.7966858016	 0.155502
H	 1.8475221528	-0.5794878998	-0.9533787739	 0.161121
H	 1.9159875292	 0.8099099326	 0.1390814865	 0.152601
11.5108	38.3885	58.5668	93.7665	135.935	157.9887	190.0246	198.5538	246.2485	292.0009	322.308	397.4298	458.8424	521.5973	588.062	646.7959	735.2275	785.5636	829.9547	996.7441	1036.2765	1050.3242	1053.9013	1070.6599	1083.847	1147.3527	1169.6262	1247.9842	1266.1238	1296.0214	1367.4655	1390.0931	1413.516	1414.3092	1451.6189	1474.8009	1476.8106	1493.4607	1498.3702	1819.75	2359.413	3023.7649	3030.7997	3048.6174	3050.1433	3062.5312	3093.2989	3095.4058	3120.6344	3126.6757	3828.9709	11.4728	38.389	58.566	93.7662	135.9351	157.9892	190.025	198.5538	246.2482	292.001	322.3071	397.4286	458.8421	521.5972	588.0616	646.796	735.2274	785.5635	829.9548	996.7443	1036.2766	1050.3245	1053.9017	1070.6602	1083.8473	1147.3531	1169.6261	1247.9838	1266.1241	1296.0213	1367.466	1390.0928	1413.5165	1414.3094	1451.6196	1474.8019	1476.8117	1493.4607	1498.3702	1819.7513	2359.4131	3023.7649	3030.7997	3048.6175	3050.1432	3062.5311	3093.2988	3095.4058	3120.6344	3126.6757	3828.9712
CCC(=O)C(O)C#CC	CCC(=O)[C@H](O)C#CC	
InChI=1S/C7H10O2/c1-3-5-7(9)6(8)4-2/h7,9H,4H2,1-2H3	InChI=1S/C7H10O2/c1-3-5-7(9)6(8)4-2/h7,9H,4H2,1-2H3/t7-/m1/s1
