19
gdb 2374	2.7807701	1.4602589	1.1838206	1.4047	75.22	-0.24051	0.06522	0.30573	1094.734	0.156644	-422.495503	-422.48714	-422.486195	-422.52837	31.637	
O	-2.3859086658	 1.5213952714	 1.2001377694	-0.454589
C	-1.4185843488	 2.1669314805	 0.4508669374	 0.324369
C	-1.1620640479	 3.6781650286	 0.4741190133	-0.301847
C	-0.9418597901	 3.6321071644	-1.0758556121	-0.228464
C	-1.2393922029	 2.1261285083	-1.068772174	-0.198419
C	-0.2691916188	 1.4272171048	-0.1616365127	 0.240114
C	 1.2449145858	 1.5298078316	 0.0198372404	-0.150619
O	 1.3351614641	 0.0957102615	 0.1802952877	-0.27706
C	-0.0807449626	-0.0814189521	-0.0456778989	-0.153058
H	-1.9962489034	 1.2532556263	 2.0406163215	 0.287891
H	-2.0636706404	 4.2336332922	 0.7408043413	 0.114941
H	-0.3310104496	 4.0310395084	 1.0941270189	 0.093204
H	-1.6873292241	 4.2152219843	-1.6194103214	 0.110708
H	 0.0524917835	 3.9167416717	-1.4333974154	 0.101087
H	-1.7994697438	 1.5810704031	-1.820241476	 0.094434
H	 1.8081748839	 1.8793452143	-0.8559190671	 0.101298
H	 1.5997437306	 2.0660136021	 0.9101379432	 0.098221
H	-0.2831383695	-0.6642583854	-0.9540186075	 0.103368
H	-0.5807932903	-0.566076516	 0.8035108022	 0.094423
92.3726	162.8753	170.9339	216.0314	247.5263	285.8934	377.4623	424.866	511.6919	550.8963	664.4337	707.8032	797.3699	857.8678	909.601	926.8794	948.1464	966.2936	977.5784	989.2842	1027.9615	1040.5503	1080.5986	1108.5663	1138.4671	1149.4001	1161.2848	1178.0603	1210.8945	1215.5403	1251.5047	1252.0628	1296.0706	1303.9975	1337.3201	1371.6689	1468.1105	1480.3486	1510.2061	1512.0292	1537.224	2994.0048	3005.481	3037.6154	3038.6715	3043.6781	3056.2694	3104.0321	3121.2985	3177.0907	3781.5213
OC12CCC1C21COC1	O[C@]12CC[C@H]1C12COC1	
InChI=1S/C7H10O2/c8-7-2-1-5(7)6(7)3-9-4-6/h5,8H,1-4H2	InChI=1S/C7H10O2/c8-7-2-1-5(7)6(7)3-9-4-6/h5,8H,1-4H2/t5-,7+/m0/s1
