19
gdb 3026	2.3689945	1.6589236	1.4349681	4.4177	75.18	-0.25893	0.01587	0.2748	1027.5726	0.156967	-422.593478	-422.585205	-422.584261	-422.625807	31.994	
C	-1.5740204873	 0.2349953455	 2.4523964444	-0.440936
C	-1.989245204	 0.5908659089	 1.0354336826	-0.009349
C	-0.9303719868	 0.9862924187	-0.0587515755	-0.208817
C	-2.0030491036	 0.541180854	-1.1096113889	-0.278415
C	-2.287516926	-0.519916326	-0.0186047896	 0.42002
C	-3.4581194667	-1.4580030352	 0.0101089291	-0.496195
O	-1.0243334606	-1.2778938283	-0.0237396684	-0.283341
C	-0.0821869796	-0.2770966662	-0.0515538711	 0.454037
O	 1.0972728976	-0.4610561957	-0.0622282061	-0.356136
H	-0.8017123107	-0.5385447934	 2.4703586784	 0.146583
H	-1.1849244519	 1.1153954257	 2.9739544299	 0.125723
H	-2.4326172627	-0.1336318344	 3.0237114747	 0.121461
H	-2.8002889365	 1.3258232904	 1.0383043369	 0.083038
H	-0.4019527524	 1.9354222135	-0.0844701735	 0.094551
H	-2.8067001337	 1.2701528987	-1.228883871	 0.110677
H	-1.654740293	 0.1761847609	-2.0781825803	 0.117681
H	-3.4336112421	-2.0799252711	 0.9098861318	 0.137664
H	-4.3939202732	-0.8916471897	 0.0038712467	 0.12351
H	-3.4454619868	-2.1189667062	-0.8614899704	 0.138246
148.4053	184.2384	201.4551	203.1816	252.8185	292.9318	361.5069	482.1725	498.7225	578.1792	602.5169	686.3046	742.7012	767.1711	816.1531	844.3375	886.1048	893.1826	937.4739	994.4757	1028.5118	1043.3887	1059.4251	1099.4388	1117.5806	1146.3433	1165.9802	1203.5568	1231.5345	1248.6525	1292.3849	1330.7634	1390.9412	1415.3256	1422.89	1480.7678	1490.7909	1492.8177	1497.7923	1504.1196	1908.601	3038.466	3043.6952	3060.2828	3073.3961	3100.6079	3117.2336	3119.7259	3120.877	3138.662	3162.6388
CC1C2CC1(C)OC2=O	C[C@H]1[C@@H]2C[C@@]1(C)OC2=O	
InChI=1S/C7H10O2/c1-4-5-3-7(4,2)9-6(5)8/h4-5H,3H2,1-2H3	InChI=1S/C7H10O2/c1-4-5-3-7(4,2)9-6(5)8/h4-5H,3H2,1-2H3/t4-,5-,7+/m0/s1
