19
gdb 3301	3.9100013	1.2495248	1.0706922	0.3617	74.24	-0.22261	0.07174	0.29435	1145.2336	0.157936	-422.527933	-422.520197	-422.519253	-422.560147	30.357	
O	 0.4107559606	-0.2855297532	 0.2317978565	-0.424726
C	-0.5830847781	 0.5895178184	 0.6761994479	 0.036256
C	-2.0306121897	 0.1654141656	 0.6125291779	 0.022869
O	-2.9033542619	 0.8362020612	 1.4896597844	-0.266788
C	-3.2007890563	 2.1158162556	 0.9424109507	 0.127935
C	-4.3392691824	 2.1829273049	-0.1180840265	-0.241391
C	-3.3336871136	 2.7928036722	-1.1357792738	-0.23913
C	-2.1603263036	 2.4673979797	-0.1660076944	-0.070595
C	-1.4790011286	 1.1310394921	-0.4098438197	-0.091178
H	 0.5459456844	-0.9507762389	 0.9154441244	 0.289133
H	-0.3088798382	 1.2583124964	 1.494383823	 0.089179
H	-2.2998135414	-0.8605260196	 0.3823536788	 0.098621
H	-3.3060957323	 2.8189559971	 1.771362515	 0.080178
H	-4.6888437783	 1.184484369	-0.3901475264	 0.111009
H	-5.2047752028	 2.7963269461	 0.1417825074	 0.100826
H	-3.286882251	 2.3229570981	-2.1213436863	 0.099906
H	-3.4689633716	 3.8679328753	-1.2747179379	 0.102722
H	-1.4528231471	 3.2768014051	 0.033470547	 0.073212
H	-1.2667688279	 0.8026342048	-1.421279978	 0.101963
83.0277	168.4707	238.402	270.9197	338.2883	370.0628	389.9724	470.0305	633.744	708.4088	732.0899	766.7716	854.3928	866.147	892.8954	917.059	936.0875	949.0551	956.7899	1001.6568	1026.7309	1058.4027	1073.0467	1084.2566	1133.2695	1148.3033	1162.1744	1177.9928	1193.577	1234.1029	1253.7119	1259.2521	1269.1801	1276.0954	1289.6165	1312.9791	1333.6231	1367.8907	1447.6342	1473.6623	1493.2719	3059.123	3064.8434	3070.5143	3083.5787	3089.0167	3107.205	3129.1158	3160.2662	3177.165	3799.2823
OC1C2OC3CCC3C12	O[C@@H]1[C@H]2O[C@@H]3CC[C@@H]3[C@@H]12	
InChI=1S/C7H10O2/c8-6-5-3-1-2-4(3)9-7(5)6/h3-8H,1-2H2	InChI=1S/C7H10O2/c8-6-5-3-1-2-4(3)9-7(5)6/h3-8H,1-2H2/t3-,4+,5-,6-,7-/m0/s1
