19
gdb 1676	2.3678457	1.6421959	1.3490238	3.1701	74.83	-0.24245	-0.01937	0.22308	1043.7475	0.155692	-422.533189	-422.524521	-422.523577	-422.566868	31.887	
C	-0.1067199327	-0.0671916641	-0.0374612592	-0.470895
C	 1.4156310531	 0.0535774297	 0.0416868759	 0.203972
C	 2.2107258718	-0.6858085323	-1.077374729	-0.302733
C	 2.7502471826	 0.6672597823	-1.6055641772	-0.071867
C	 3.9905124734	 1.2063340397	-0.8627664779	-0.086606
O	 3.1679703846	 1.8671642676	 0.1356344003	-0.284307
C	 1.9619545394	 1.4248230314	-0.5049654249	 0.070494
C	 1.8928359066	-0.2081401654	 1.4527235028	 0.134592
O	 2.7154402959	-1.0305657855	 1.7638549281	-0.256793
H	-0.5942090277	 0.5487495123	 0.7271938202	 0.124073
H	-0.4698177905	 0.2670631025	-1.0150338085	 0.124388
H	-0.4283342488	-1.1045350725	 0.1021672653	 0.132056
H	 2.9622226919	-1.3860870994	-0.7066551745	 0.125897
H	 1.5609911764	-1.203025922	-1.7872233622	 0.102362
H	 2.6709942744	 0.8782039252	-2.6706521857	 0.080608
H	 4.6530631187	 0.4542526917	-0.4191982043	 0.117994
H	 4.5876133565	 1.9371243465	-1.420526392	 0.106968
H	 1.2377409603	 2.2314344395	-0.6526532256	 0.073245
H	 1.409721184	 0.4391655429	 2.2204395284	 0.076553
52.7469	98.324	181.544	229.9149	255.869	285.868	297.5472	387.2349	464.0364	531.2072	655.494	775.8139	788.0985	852.7553	889.7972	899.395	909.8602	938.9028	974.4909	993.2925	1008.7114	1035.7569	1057.9437	1140.9374	1146.2429	1172.5667	1187.2946	1208.8743	1218.7358	1260.8917	1273.8008	1303.2981	1318.2015	1360.3967	1403.4663	1424.7266	1475.2596	1492.766	1497.6556	1519.2531	1825.1936	2867.4646	3022.583	3024.8848	3064.0202	3066.9745	3072.3019	3093.6371	3100.7169	3118.9094	3127.5814
CC1(CC2COC12)C=O	C[C@]1(C[C@@H]2CO[C@H]12)C=O	
InChI=1S/C7H10O2/c1-7(4-8)2-5-3-9-6(5)7/h4-6H,2-3H2,1H3	InChI=1S/C7H10O2/c1-7(4-8)2-5-3-9-6(5)7/h4-6H,2-3H2,1H3/t5-,6+,7+/m1/s1
