19
gdb 2987	2.6173384	1.6794244	1.2652353	2.1387	75.93	-0.23035	0.0003	0.23065	1045.8809	0.157707	-422.549695	-422.541607	-422.540663	-422.581866	31.7	
C	 1.1323893059	 0.6153322918	-0.8054977699	-0.478408
C	-0.1453016905	 0.0087792693	-0.3080719961	 0.271606
C	-0.2979392295	-1.2593558188	 0.0865189911	-0.169466
C	-1.6670050614	-1.6599597984	 0.5884450164	 0.05245
C	-2.7402048048	-1.2466369245	-0.4495472342	-0.254564
C	-2.5817344055	 0.106022576	 0.2782561009	 0.054253
O	-2.1629558292	-0.6029700148	 1.4755866733	-0.292393
C	-1.3754106287	 0.9113508764	-0.2400833769	 0.039294
O	-1.6570704088	 1.5396396771	-1.4891553869	-0.433294
H	 1.478702321	 1.4047375429	-0.1255244995	 0.129888
H	 1.9255336169	-0.1318901594	-0.8922177063	 0.118911
H	 0.9850143619	 1.0919215549	-1.7804156583	 0.133057
H	 0.5131551789	-1.9810672955	 0.0612087539	 0.088944
H	-1.7089500974	-2.6464604612	 1.053372008	 0.07712
H	-2.4901053538	-1.332823516	-1.5094354607	 0.087773
H	-3.7149208194	-1.6927819889	-0.2459874391	 0.111969
H	-3.4588899814	 0.7382568424	 0.4355787161	 0.082014
H	-1.1854347035	 1.7421828135	 0.4508665854	 0.099865
H	-1.7833953405	 0.8428445533	-2.1431765471	 0.280982
119.9765	176.0886	219.8797	252.0849	316.0364	361.8039	399.1363	427.0089	472.0112	539.705	615.1982	653.1531	777.7295	832.868	848.2914	868.3171	912.6042	934.603	969.3076	987.2327	1039.7871	1054.2786	1068.1894	1077.1543	1090.83	1104.2994	1193.5586	1201.6594	1245.0508	1247.3492	1293.9057	1313.4489	1324.9836	1350.5414	1375.8828	1405.5155	1412.7862	1472.8853	1484.8379	1491.1068	1714.3046	3022.064	3036.7167	3066.367	3078.173	3086.2668	3098.1315	3117.4358	3132.3139	3170.726	3797.269
CC1=CC2CC(O2)C1O	CC1=C[C@@H]2C[C@@H](O2)[C@@H]1O	
InChI=1S/C7H10O2/c1-4-2-5-3-6(9-5)7(4)8/h2,5-8H,3H2,1H3	InChI=1S/C7H10O2/c1-4-2-5-3-6(9-5)7(4)8/h2,5-8H,3H2,1H3/t5-,6-,7-/m1/s1
