19
gdb 4724	1.765669	1.1790352	0.7920059	3.9478	81.89	-0.23674	-0.0141	0.22264	1519.2803	0.151721	-422.527677	-422.51613	-422.515186	-422.566777	37.699	
C	-2.7599486952	-0.1422516547	-2.5184934199	-0.234709
O	-3.0993589525	-0.7421601594	-1.2855453949	-0.210641
C	-2.6643327847	-0.0174061427	-0.1651871544	-0.12281
C	-1.2028964791	 0.0321728911	-0.0255172601	 0.109095
C	-0.0033467619	 0.0399062425	 0.0893591924	 0.00185
C	 1.4456790576	 0.0486207837	 0.2259610031	-0.499254
C	-3.2819357819	-0.6739530725	 1.1016156224	 0.367742
C	-3.1616616591	 0.1438435745	 2.372291657	-0.485551
O	-3.8273318995	-1.7425958632	 1.0491855012	-0.271553
H	-3.1725207463	-0.7813747701	-3.3019105847	 0.13305
H	-3.1964032247	 0.8648485342	-2.6122527663	 0.101783
H	-1.6723475378	-0.0643966995	-2.650077416	 0.117056
H	-3.0470079943	 1.0205258481	-0.2083379425	 0.09412
H	 1.7435114967	-0.0519292278	 1.2753194237	 0.153734
H	 1.8958997146	-0.7834138542	-0.3259593459	 0.157604
H	 1.8797010956	 0.9785316343	-0.157051408	 0.151211
H	-3.4371016428	-0.4701150707	 3.230373097	 0.145742
H	-2.1492146003	 0.5382143013	 2.4931707293	 0.148298
H	-3.8419376143	 1.0024423252	 2.3156694866	 0.143233
29.7009	35.9655	78.4199	93.4296	104.6743	133.5485	184.9387	213.6933	267.0325	320.5309	360.1671	391.7837	423.2321	532.4527	573.6177	605.9786	782.79	866.7459	930.2081	1028.9113	1040.9316	1052.3917	1054.9184	1147.6254	1158.9897	1178.5638	1184.9583	1222.3563	1286.2106	1351.785	1379.5014	1414.0058	1464.6877	1474.7507	1475.839	1477.7836	1478.5915	1484.5812	1509.4269	1846.0879	2357.5782	2916.992	2979.0033	3030.273	3039.2505	3042.2605	3091.8759	3094.4585	3109.4369	3124.4161	3157.2201
COC(C#CC)C(C)=O	CO[C@H](C#CC)C(=O)C	
InChI=1S/C7H10O2/c1-4-5-7(9-3)6(2)8/h7H,1-3H3	InChI=1S/C7H10O2/c1-4-5-7(9-3)6(2)8/h7H,1-3H3/t7-/m1/s1
