19
gdb 5526	3.729761	1.0956329	1.0493188	2.6364	77.8	-0.22825	0.00954	0.23779	1249.8161	0.155644	-422.500475	-422.491774	-422.49083	-422.533967	32.191	
C	 1.4926495722	-0.198076089	-0.2163192211	-0.244166
O	 0.1127225225	-0.0018542739	 0.0104356264	-0.248323
C	-0.1648823326	 0.6759014481	 1.1893625655	 0.187804
C	-0.2157898242	 2.259720161	 1.1285239345	-0.031267
O	-1.4948840964	 2.1208720789	 0.4314095267	-0.279611
C	-1.6821625534	 1.0060318841	 1.3543903775	-0.085316
C	-1.6665492914	 1.7011163779	 2.7287287847	 0.350358
C	-2.5586569331	 1.4015415303	 3.8813807139	-0.517203
C	-0.6536481906	 2.5630309658	 2.559772646	-0.205364
H	 1.9651368798	-0.7473256046	 0.612766842	 0.106517
H	 1.5888587893	-0.7856165886	-1.1318048176	 0.132528
H	 2.0264228781	 0.7542890162	-0.3489338546	 0.110051
H	 0.3614499344	 0.235201652	 2.0484808377	 0.064226
H	 0.518600504	 2.8813712714	 0.6185305248	 0.079615
H	-2.4760340446	 0.3103652901	 1.0841192868	 0.08069
H	-2.4806208319	 0.3499031682	 4.1850519427	 0.130354
H	-2.3139479418	 2.0217160724	 4.7481601838	 0.129192
H	-3.6113316151	 1.5746429648	 3.6246391111	 0.135617
H	-0.2121719852	 3.267583625	 3.2500099091	 0.104298
74.5989	150.1008	161.474	170.5071	205.6254	284.0565	337.9421	423.6584	487.5589	561.1081	592.6329	671.8295	785.6976	817.9899	849.6765	887.7021	918.2198	927.4001	953.325	1011.7763	1019.1772	1060.4405	1067.2327	1139.5099	1150.0688	1179.7356	1184.3208	1202.5592	1224.1766	1235.6819	1248.5334	1295.0523	1303.808	1384.5259	1414.0774	1478.5245	1482.0949	1485.6994	1489.7606	1507.0976	1678.1364	2978.5698	3003.2197	3018.0576	3029.7788	3064.4396	3108.9866	3122.2144	3132.9133	3136.9827	3233.672
COC1C2OC1C(C)=C2	CO[C@H]1[C@H]2O[C@@H]1C(=C2)C	
InChI=1S/C7H10O2/c1-4-3-5-7(8-2)6(4)9-5/h3,5-7H,1-2H3	InChI=1S/C7H10O2/c1-4-3-5-7(8-2)6(4)9-5/h3,5-7H,1-2H3/t5-,6+,7-/m0/s1
