19
gdb 2617	3.0359732	1.3015764	1.0823782	4.2275	75.2	-0.26627	0.01396	0.28023	1167.6562	0.156708	-422.581665	-422.573109	-422.572165	-422.615007	31.927	
C	-0.9406519542	-2.0567791567	 1.2640223291	-0.412667
C	-0.9586153938	-1.1093612958	 0.0713962831	-0.27651
C	 0.0486426581	 0.041787398	 0.1049963032	 0.444815
O	 1.2267458391	 0.1793595016	 0.1946452784	-0.330956
O	-0.9073933313	 1.0198033711	 0.0107920215	-0.282435
C	-1.9967474197	 0.0391985298	-0.0099994844	 0.456922
C	-3.0177611334	 0.1227427862	-1.1582359783	-0.290396
C	-4.134550611	-0.1851018363	-0.1203863478	-0.215292
C	-3.1391247342	 0.2040819303	 1.0095984319	-0.288453
H	-1.7798213832	-2.7581653492	 1.2242307587	 0.124433
H	-0.0134561272	-2.6367182566	 1.2633029613	 0.143055
H	-0.9923322303	-1.5126882731	 2.2113350034	 0.132305
H	-0.8876870267	-1.6680680141	-0.8673103387	 0.111248
H	-3.0824142994	 1.1469811204	-1.5349408215	 0.125127
H	-2.8858804659	-0.5589018037	-2.0021629463	 0.105177
H	-5.0542795993	 0.3967366572	-0.1935936982	 0.111004
H	-4.3932932202	-1.2464731519	-0.0942964238	 0.110132
H	-3.2360862821	 1.2545745519	 1.2961278245	 0.12498
H	-3.1134821855	-0.4080405091	 1.9133831341	 0.10751
80.9814	103.7316	195.908	201.627	233.3565	305.5275	346.8594	446.6814	467.2142	548.9229	691.5824	700.8714	776.0062	783.5592	836.3398	843.5042	899.9192	926.9197	949.2195	997.6507	1040.1853	1067.8569	1083.9931	1109.3958	1155.2673	1180.4814	1199.4662	1207.2614	1246.4963	1249.9286	1274.8707	1287.7803	1309.3284	1354.2659	1411.5922	1469.0703	1483.5545	1494.6158	1497.4649	1504.595	1933.6605	3041.6636	3061.506	3064.0129	3068.7565	3073.0518	3112.1859	3112.6775	3118.1314	3122.0404	3134.3214
CC1C(=O)OC11CCC1	C[C@@H]1C(=O)OC21CCC2	
InChI=1S/C7H10O2/c1-5-6(8)9-7(5)3-2-4-7/h5H,2-4H2,1H3	InChI=1S/C7H10O2/c1-5-6(8)9-7(5)3-2-4-7/h5H,2-4H2,1H3/t5-/m1/s1
