19
gdb 4140	3.0076758	1.696919	1.3875925	0.9866	74.55	-0.24555	0.05864	0.30418999999999996	986.9183	0.158022	-422.478942	-422.471693	-422.470749	-422.51009	29.72	
C	-0.0400951462	 0.0742385278	-0.1448164855	-0.418349
C	 1.4711452312	 0.0144688231	-0.0177055429	 0.075207
O	 2.0398447945	 1.3495436465	 0.2410960372	-0.313777
C	 2.8171431318	 1.2005758173	 1.482135051	 0.064151
C	 1.8423228573	 0.4107298521	 2.3501623523	-0.301952
C	 2.1234261998	-0.6340170296	 1.1962568175	 0.404719
O	 2.4902353761	-1.9519154298	 1.5761444739	-0.351241
C	 3.8059906133	-1.4097551725	 1.9603460633	-0.158022
C	 3.5694437265	-0.1046744283	 1.1369275285	-0.085857
H	-0.5184221008	 0.3963504949	 0.782949957	 0.121482
H	-0.3209576139	 0.7775692684	-0.9341541404	 0.129672
H	-0.4304032062	-0.9132431139	-0.413617699	 0.12327
H	 1.9064483549	-0.3759310021	-0.9454445194	 0.083459
H	 3.2526631435	 2.1695164922	 1.7214735359	 0.080692
H	 2.240785281	 0.080147631	 3.3079890443	 0.109783
H	 0.8401437867	 0.8211987868	 2.466557858	 0.105415
H	 3.9018673376	-1.3211514163	 3.0462124867	 0.116786
H	 4.6059490569	-2.0420923612	 1.5687614245	 0.121323
H	 4.0916715259	-0.1010647364	 0.1799292073	 0.093237
196.659	215.8092	225.5475	326.7147	366.4863	459.4675	494.6865	507.1429	544.891	643.9323	755.6931	788.6788	796.0723	837.1683	878.3182	898.89	920.1363	937.6654	973.627	1008.7696	1033.6763	1068.0641	1081.9829	1090.1687	1121.5909	1138.3581	1156.0481	1175.2975	1204.887	1243.5188	1251.7792	1283.4446	1307.1662	1331.7703	1345.2994	1398.6095	1414.504	1483.7816	1489.166	1494.9826	1516.0879	3030.2626	3042.6724	3053.2604	3099.8371	3103.5803	3110.3788	3118.2572	3129.0338	3132.1546	3165.2994
CC1OC2CC11OCC21	C[C@H]1O[C@H]2C[C@]31OC[C@H]23	
InChI=1S/C7H10O2/c1-4-7-2-6(9-4)5(7)3-8-7/h4-6H,2-3H2,1H3	InChI=1S/C7H10O2/c1-4-7-2-6(9-4)5(7)3-8-7/h4-6H,2-3H2,1H3/t4-,5-,6+,7-/m1/s1
