19
gdb 5372	2.9486588	1.2113133	0.9331085	2.9089	78.94	-0.24425	-0.04984	0.19441	1286.9442	0.156474	-422.599548	-422.590319	-422.589375	-422.634111	33.492	
C	 1.0388188691	-0.6336903481	-0.8218222687	-0.381066
C	 1.0527180041	 0.0985085849	 0.5314539611	-0.294055
C	 1.7856861575	 1.4035709696	 0.4756535566	 0.223817
C	 2.9065342876	 1.785108501	 1.1131913722	-0.169547
C	 3.3086954835	 3.2181698179	 0.8569249665	-0.291823
C	 2.3821651251	 3.6401680168	-0.2955558464	 0.061624
O	 1.8486193656	 4.933444406	-0.1701562105	-0.440063
C	 1.2847872109	 2.5682113066	-0.2890509626	 0.294173
O	 0.1908211367	 2.7300318962	-0.7893990834	-0.358944
H	 0.4780690514	-1.5699079765	-0.7471633417	 0.117288
H	 0.5658395642	-0.0149978755	-1.5891575175	 0.142722
H	 2.0551337077	-0.871526845	-1.1515101378	 0.115668
H	 0.0169245047	 0.2987820537	 0.8324900485	 0.12534
H	 1.4942927144	-0.540886785	 1.3034338368	 0.102616
H	 3.4757345483	 1.144741605	 1.7807687419	 0.110985
H	 3.1092794303	 3.8475350114	 1.7326969199	 0.139317
H	 4.3738865342	 3.3189192753	 0.625342133	 0.116969
H	 2.9277364427	 3.5280047255	-1.2498936916	 0.093247
H	 0.9650000222	 4.8873491401	-0.5637856964	 0.291732
53.1214	70.8171	155.8246	192.139	246.0465	272.4409	294.814	377.4306	409.8455	493.3142	524.7761	570.5064	668.59	721.624	791.2639	824.463	867.2674	923.1818	947.7298	980.3887	1030.6672	1041.7515	1089.559	1100.9228	1136.651	1181.5366	1220.6945	1248.5457	1277.0659	1304.6343	1349.9186	1352.8465	1377.0611	1405.4772	1415.6613	1474.3849	1476.351	1497.996	1509.1014	1679.8407	1797.5765	2940.5557	3030.3007	3040.5477	3041.4217	3071.6452	3079.5172	3111.2873	3124.3797	3178.1033	3730.0394
CCC1=CCC(O)C1=O	CCC1=CC[C@H](O)C1=O	
InChI=1S/C7H10O2/c1-2-5-3-4-6(8)7(5)9/h3,6,8H,2,4H2,1H3	InChI=1S/C7H10O2/c1-2-5-3-4-6(8)7(5)9/h3,6,8H,2,4H2,1H3/t6-/m0/s1
