19
gdb 5235	2.5646975	1.4418732	1.1910261	2.7702	74.87	-0.22752	0.06099	0.28851	1126.2591	0.15588	-422.488204	-422.479642	-422.478698	-422.521356	32.598	
C	 1.3961451491	 1.392669757	 0.0835654482	-0.372354
C	 1.0425424512	-0.1009242011	 0.0681360926	-0.308912
C	 1.7437378412	-0.8675602704	-1.0163396115	 0.215665
C	 3.2340983894	-1.1777617989	-1.1863623639	-0.284938
C	 2.8039627799	-2.1011042938	-2.3535654922	-0.009069
O	 2.3070137557	-1.1738901202	-3.3562522744	-0.287694
C	 1.2050669331	-0.9353346421	-2.4868633395	-0.006543
C	 1.3483067318	-2.1796946248	-1.6947374019	 0.26283
O	 0.449425322	-3.1696678746	-1.4060225012	-0.448399
H	 0.8653274831	 1.9137654971	 0.8861352723	 0.111963
H	 2.469300155	 1.5431667513	 0.2395746803	 0.120914
H	 1.130034748	 1.8684959779	-0.8655331079	 0.121799
H	 1.2834873525	-0.5411938876	 1.0457275867	 0.094377
H	-0.0417501033	-0.222212278	-0.0555595	 0.104081
H	 3.9195979417	-0.3684272368	-1.4563861191	 0.102178
H	 3.6254963497	-1.7433739577	-0.3350789303	 0.09327
H	 3.4309654884	-2.8921415093	-2.7594408538	 0.088193
H	 0.3462955686	-0.3830594774	-2.8449394427	 0.110621
H	 0.666367143	-3.5455808705	-0.5447811716	 0.292017
76.8295	120.4217	196.8641	231.0461	275.3444	310.5694	354.9772	415.2879	467.9073	552.0019	601.2913	689.4061	720.925	786.4264	800.2218	838.2674	919.3955	929.6393	959.197	967.4733	993.6801	1027.2599	1040.9691	1070.5705	1097.9622	1134.0916	1145.7817	1189.9164	1222.1814	1232.5024	1277.796	1286.7628	1318.0923	1344.1232	1384.5256	1411.5456	1476.0824	1483.6007	1497.5164	1503.8154	1507.5802	3006.0627	3036.3369	3038.7891	3043.5401	3101.4101	3105.931	3109.0764	3146.264	3211.3781	3778.7229
CCC12CC3OC1C23O	CC[C@]12C[C@@H]3O[C@H]1[C@]23O	
InChI=1S/C7H10O2/c1-2-6-3-4-7(6,8)5(6)9-4/h4-5,8H,2-3H2,1H3	InChI=1S/C7H10O2/c1-2-6-3-4-7(6,8)5(6)9-4/h4-5,8H,2-3H2,1H3/t4-,5+,6-,7-/m0/s1
