19
gdb 3890	3.1933221	1.2262914	0.9887913	2.7195	75.4	-0.25125	-0.02837	0.22287999999999997	1213.9242	0.156739	-422.577766	-422.569361	-422.568417	-422.6108	32.436	
O	-0.4281577611	 2.4955201829	-0.0486100542	-0.445236
C	-1.0819306542	 1.2644188882	 0.059841939	 0.067384
C	-1.8671381971	 0.8040720678	-1.1763247332	-0.324412
C	-2.0264827702	-0.698010749	-0.9263380855	 0.368475
C	-2.8295394688	-1.5740645213	-1.8426572724	-0.32793
C	-3.3564938089	-1.2470183981	-0.4651316859	-0.308026
C	-0.7258914871	-1.1729463452	-0.2749246139	-0.41255
C	-0.1043188447	 0.107994627	 0.2746059732	 0.370281
O	 1.0056200544	 0.2627444617	 0.7216474408	-0.330154
H	 0.4504222167	 2.3584332385	 0.3374425538	 0.290775
H	-1.7702910526	 1.2532843462	 0.9272111443	 0.094817
H	-2.822245954	 1.3200631991	-1.2985277573	 0.109769
H	-1.260690783	 0.9962726119	-2.0706103911	 0.112457
H	-3.3108996074	-1.1110540168	-2.6979960015	 0.116105
H	-2.4739810988	-2.582888598	-2.0260177445	 0.114677
H	-4.194957728	-0.5623905652	-0.3887015928	 0.116386
H	-3.355554083	-2.0354816521	 0.2806199645	 0.113226
H	-0.8630610898	-1.9176354487	 0.5154670863	 0.13444
H	-0.0219769523	-1.6033785189	-0.9982214098	 0.139516
72.2708	111.1769	241.6907	271.8371	315.4358	362.1899	373.4164	407.4832	471.6452	491.4496	590.414	624.1698	745.311	766.9743	780.9442	861.5454	906.2308	945.2806	952.7171	976.8939	992.2084	1050.0977	1057.7215	1083.9287	1107.8297	1151.6985	1176.9167	1177.5537	1188.5922	1245.4664	1266.8406	1274.7142	1294.1831	1371.9386	1381.0493	1417.5605	1445.8668	1466.7762	1497.1949	1504.819	1838.1296	2920.4184	3033.254	3037.6412	3083.5456	3103.2101	3123.6275	3128.0069	3202.3329	3216.9568	3710.8657
OC1CC2(CC2)CC1=O	O[C@H]1CC2(CC2)CC1=O	
InChI=1S/C7H10O2/c8-5-3-7(1-2-7)4-6(5)9/h5,8H,1-4H2	InChI=1S/C7H10O2/c8-5-3-7(1-2-7)4-6(5)9/h5,8H,1-4H2/t5-/m0/s1
