19
gdb 771	2.4771185	1.547076	1.0676742	4.3424	77.48	-0.24585	-0.00841	0.23744	1141.6541	0.158811	-422.589323	-422.581221	-422.580277	-422.621949	31.066	
O	 1.9323761284	-1.5236575876	-0.4704343451	-0.316191
C	 1.2315044791	-0.9065175203	 0.2834526769	 0.410572
C	 1.7552919495	 0.2371482276	 1.151236832	-0.382593
C	 1.4765046407	 1.5405846455	 0.4394947117	-0.052416
C	 0.3555834092	 2.2485628735	 0.5682198006	-0.040896
C	-0.7994092575	 1.905651081	 1.4781810217	-0.259908
C	-1.6297026681	 0.671376245	 1.0588417776	-0.196097
C	-1.003126544	-0.7031990361	 1.3134515414	-0.07361
O	-0.0986638273	-1.1711574275	 0.3034730305	-0.22021
H	 1.3026451517	 0.2300491396	 2.1464246482	 0.114888
H	 2.8280717942	 0.0730960494	 1.2594221801	 0.133099
H	 2.2357368346	 1.8608238478	-0.2681450204	 0.107807
H	 0.2449487642	 3.1465981294	-0.0347128453	 0.095465
H	-0.4393340103	 1.7487974823	 2.5048769662	 0.109138
H	-1.474763677	 2.7652464081	 1.5291451102	 0.1075
H	-2.5667509246	 0.6868219847	 1.6298450345	 0.104697
H	-1.9064853241	 0.7380636793	 0.0009121368	 0.121871
H	-0.5315459079	-0.7461520711	 2.3022623149	 0.110522
H	-1.7972993709	-1.4547714207	 1.3048864474	 0.126362
90.6156	154.5405	196.1142	257.3983	282.9523	353.4836	443.1676	467.2587	490.0344	575.0971	598.1231	700.7447	720.7474	798.4971	841.2847	886.9118	924.8695	943.0567	986.8554	1001.4725	1022.2109	1068.3214	1097.0261	1112.8046	1134.2694	1214.9502	1253.1577	1275.299	1285.1583	1293.3628	1321.5976	1362.62	1385.8867	1415.9456	1421.3554	1469.5085	1478.6258	1491.8884	1512.2374	1722.704	1839.7258	3010.3711	3027.3851	3036.8358	3067.9231	3074.0231	3081.3209	3093.7637	3128.7842	3151.525	3178.9013
O=C1CC=CCCCO1	O=C1CC=CCCCO1	
InChI=1S/C7H10O2/c8-7-5-3-1-2-4-6-9-7/h1,3H,2,4-6H2/b3-1-	InChI=1S/C7H10O2/c8-7-5-3-1-2-4-6-9-7/h1,3H,2,4-6H2/b3-1-
