19
gdb 3208	3.1367841	1.3371703	1.1553199	2.2509	76.44	-0.22103	0.06122	0.28225	1139.8937	0.154613	-422.490672	-422.481748	-422.480804	-422.523715	34.034	
C	 1.7366525672	-0.6686046403	-1.1707203702	-0.433399
C	 1.4306758524	-0.0601358405	 0.1816272343	-0.10834
C	 2.0710317712	 1.2696294069	 0.5037815278	 0.015385
O	 1.5564548867	 1.8023442918	 1.7313547797	-0.318662
C	 2.0973869818	 0.6778542776	 2.4508831314	 0.412423
C	 2.8381555176	 0.8434595908	 3.7303407551	-0.340667
C	 1.484987817	 0.1378649691	 3.6975690642	-0.346058
C	 2.5791836827	 0.0199163867	 1.1779190971	 0.220166
O	 3.779382285	-0.6492864259	 1.0488407439	-0.450758
H	 1.6650154919	-1.76207008	-1.1435335955	 0.114162
H	 1.0304208267	-0.3104900932	-1.9265024742	 0.125621
H	 2.7475942378	-0.4144524734	-1.502602285	 0.130885
H	 0.4261685451	-0.2311230714	 0.5654854234	 0.089965
H	 2.4973936095	 1.9559545212	-0.2178436816	 0.11127
H	 3.7334967082	 0.2474748019	 3.8720599288	 0.123481
H	 2.8727377151	 1.8392067199	 4.1583270834	 0.125832
H	 1.4503121937	-0.9377051062	 3.8410930942	 0.110528
H	 0.6361928269	 0.6770701904	 4.1038979863	 0.126121
H	 3.5984564836	-1.5947121056	 1.006009847	 0.292043
112.9559	172.9175	194.0952	208.4023	224.3052	267.6515	278.5789	391.0921	449.1747	462.777	528.7685	601.544	680.8818	758.7919	814.5757	838.0586	874.4246	924.8371	954.4339	958.5987	989.8488	1003.4367	1031.4635	1046.9529	1057.4813	1065.9671	1126.373	1141.8794	1145.1115	1186.2228	1226.3076	1250.1512	1297.1494	1346.8343	1399.9291	1415.0399	1447.4275	1458.0438	1492.3608	1504.5302	1509.8871	3030.6114	3089.0267	3106.6384	3122.915	3126.5369	3134.0683	3189.2642	3211.9611	3228.4066	3794.0558
CC1C2OC3(CC3)C12O	C[C@@H]1[C@H]2OC3(CC3)[C@@]12O	
InChI=1S/C7H10O2/c1-4-5-7(4,8)6(9-5)2-3-6/h4-5,8H,2-3H2,1H3	InChI=1S/C7H10O2/c1-4-5-7(4,8)6(9-5)2-3-6/h4-5,8H,2-3H2,1H3/t4-,5-,7-/m1/s1
