19
gdb 1432	3.5518383	1.2073403	1.1768637	4.2131	75.19	-0.26437	0.01126	0.27563	1138.8433	0.156561	-422.595052	-422.586481	-422.585537	-422.627942	32.502	
C	-1.4164936604	 0.1553957422	 2.5757387862	-0.469246
C	-2.3743122724	 0.0245433851	 1.4085170943	 0.273447
C	-3.8406623031	 0.0583986273	 1.8030416915	-0.451076
C	-2.0570855624	-0.8628490659	 0.2050321487	-0.126688
C	-0.6264475059	-1.2756050395	-0.0595408612	-0.392443
C	 0.1333687309	 0.0412125609	-0.2593762174	 0.419329
O	 1.3021766572	 0.2025493341	-0.4441555467	-0.329194
O	-0.7423478623	 1.0910796956	-0.1700657428	-0.213627
C	-2.0609749031	 0.6421625646	 0.0689129721	 0.047665
H	-1.5225776694	-0.6975462805	 3.2554017343	 0.12085
H	-0.3692261893	 0.2137303906	 2.2734569249	 0.139645
H	-1.6385009362	 1.0637533525	 3.146242663	 0.126321
H	-4.0877228222	-0.784550623	 2.4582863657	 0.122949
H	-4.0790753465	 0.9827969617	 2.3405866115	 0.123731
H	-4.4964679305	 0.0007684559	 0.928274057	 0.116474
H	-2.8581687666	-1.461390629	-0.2122566748	 0.096578
H	-0.1451040449	-1.8388305568	 0.7450593176	 0.143572
H	-0.533592358	-1.874263271	-0.9708652858	 0.143058
H	-2.7942373249	 1.2134987651	-0.487717048	 0.108655
96.4604	157.8735	185.2915	217.3014	256.8207	285.3161	342.3433	440.3374	483.6034	498.9431	567.7933	679.4345	696.3652	740.8889	823.8637	836.9482	867.5553	957.4952	975.3038	996.6733	1020.967	1030.2044	1076.3967	1096.8899	1130.4111	1140.9501	1166.9181	1185.0311	1232.9024	1291.1881	1318.6188	1340.6967	1412.9673	1417.5308	1437.4142	1461.3391	1482.327	1491.0473	1501.8831	1512.8833	1886.3634	3026.0557	3035.6357	3063.4635	3090.032	3092.8342	3099.212	3101.1937	3129.3246	3175.6947	3185.4509
CC1(C)C2CC(=O)OC12	CC1(C)[C@@H]2CC(=O)O[C@H]12	
InChI=1S/C7H10O2/c1-7(2)4-3-5(8)9-6(4)7/h4,6H,3H2,1-2H3	InChI=1S/C7H10O2/c1-7(2)4-3-5(8)9-6(4)7/h4,6H,3H2,1-2H3/t4-,6+/m1/s1
