19
gdb 824	3.2482155	1.1924277	1.0357593	1.8274	76.56	-0.25086	-0.02794	0.22292000000000003	1192.9808	0.157117	-422.555497	-422.546969	-422.546025	-422.590056	31.105	
O	 0.6081927935	 0.241744593	-0.6886283563	-0.275451
C	 0.1202825009	-0.2197098598	 0.3188795559	 0.140034
C	-1.0519956034	 0.3475450759	 1.0191585657	-0.157187
C	-1.3117258653	 1.8464894765	 0.9009180207	-0.336449
C	-2.2265977351	 0.9134235908	 0.2005348439	 0.323104
C	-2.3085451279	 0.7798826008	-1.3246596451	-0.2961
C	-3.8278825038	 0.7021085122	-1.55713785	-0.089029
O	-4.3581952705	 0.1027224419	-0.3809325529	-0.240146
C	-3.6606705607	 0.688489332	 0.7014773497	-0.145256
H	 0.5423399736	-1.1388686355	 0.7820989085	 0.080171
H	-1.3111870595	-0.1356868987	 1.9562607242	 0.091716
H	-1.6613342918	 2.3550368385	 1.7941845592	 0.118608
H	-0.5880624629	 2.3918027043	 0.3038646381	 0.139649
H	-1.8429523028	 1.6181844326	-1.8464807889	 0.116001
H	-1.8187896968	-0.1328238091	-1.670220541	 0.123788
H	-4.2538699616	 1.7089145155	-1.7003889432	 0.090521
H	-4.1138824297	 0.0811698158	-2.4089498197	 0.113497
H	-4.1154355747	 1.6547787482	 0.981330769	 0.09139
H	-3.7307419615	 0.0139678352	 1.5595543023	 0.111141
18.9544	115.7181	153.6661	201.6623	256.7252	308.3467	354.721	424.5515	493.0937	645.2962	710.5038	747.5193	789.8788	853.6436	881.7695	916.0505	935.8617	965.5943	983.245	1031.4237	1055.5029	1071.2006	1080.5721	1107.2071	1113.6164	1128.2196	1202.1992	1219.6737	1252.3626	1277.2665	1299.354	1324.0293	1354.9935	1395.0661	1418.7603	1430.6136	1473.1083	1483.8422	1505.9145	1520.7278	1797.1491	2884.9912	2950.6102	2969.761	3077.6317	3081.0329	3103.4581	3122.4298	3124.0591	3157.5179	3217.1885
O=CC1CC11CCOC1	O=C[C@H]1C[C@]21CCOC2	
InChI=1S/C7H10O2/c8-4-6-3-7(6)1-2-9-5-7/h4,6H,1-3,5H2	InChI=1S/C7H10O2/c8-4-6-3-7(6)1-2-9-5-7/h4,6H,1-3,5H2/t6-,7-/m1/s1
