19
gdb 1601	3.2364053	1.4325673	1.2648148	2.3416	76.2	-0.26103	-0.03569	0.22533999999999998	1047.2262	0.158341	-422.57061	-422.562963	-422.562019	-422.602398	30.684	
O	 0.9741728906	 2.4471283096	-0.0193365315	-0.498798
C	 1.1783583729	 1.1782031305	-0.5484290451	 0.393003
C	 1.7626394264	 0.2877912067	 0.5143440309	 0.082377
O	 1.9816314657	 0.7090215147	 1.6295068139	-0.289136
C	 1.8934209119	 1.0809846884	-1.9531476718	-0.091199
C	 1.0757239909	-0.217517456	-2.1934650262	-0.250022
C	-0.0066648044	 0.5299750433	-1.3675787983	-0.091272
C	-0.3651571911	 1.7000228742	-2.3066478297	-0.211901
C	 1.0764808447	 2.1179692591	-2.7511395853	-0.211915
H	 1.2701821374	 2.3948953557	 0.9046667053	 0.291737
H	 1.9873357192	-0.7610760282	 0.2535007468	 0.101914
H	 2.9798811119	 1.1154001143	-2.0389692954	 0.069901
H	 0.8226860777	-0.4476980528	-3.2312285298	 0.101133
H	 1.4814169357	-1.1094319309	-1.7163319495	 0.102313
H	-0.8247790409	 0.012052782	-0.866199499	 0.069918
H	-0.9883762405	 1.3632728626	-3.1397415191	 0.095721
H	-0.8849502437	 2.5019024105	-1.780918969	 0.120231
H	 1.2403544145	 2.0090800249	-3.8268395079	 0.095722
H	 1.318932011	 3.1409373512	-2.4607328094	 0.120273
100.629	234.0745	238.7781	297.0733	358.1549	407.7868	415.6163	484.9056	530.3085	563.9264	696.5213	803.2784	825.1762	833.9488	840.1751	861.739	908.9343	950.4349	952.2756	975.6779	990.8532	1033.9539	1051.8599	1056.1445	1104.6677	1148.6821	1161.9767	1211.1807	1215.8036	1244.1563	1255.5361	1260.2086	1290.9911	1311.4537	1334.7155	1387.7983	1445.0789	1481.3362	1497.3463	1520.3522	1786.1729	2979.5045	3060.6345	3069.6302	3074.2913	3110.994	3114.4362	3119.1964	3133.4669	3136.7223	3664.8409
OC1(C=O)C2CC1CC2	O[C@]1(C=O)[C@H]2C[C@@H]1CC2	
InChI=1S/C7H10O2/c8-4-7(9)5-1-2-6(7)3-5/h4-6,9H,1-3H2	InChI=1S/C7H10O2/c8-4-7(9)5-1-2-6(7)3-5/h4-6,9H,1-3H2/t5-,6+,7-
