19
gdb 5139	2.8534354	1.240951	1.0695454	3.8969	75.41	-0.23599	-0.01152	0.22447	1183.4834	0.156737	-422.579887	-422.571278	-422.570334	-422.613261	32.554	
O	-0.4568456274	-0.4241585287	 0.4252393956	-0.421846
C	 0.1186507421	 0.8241470653	 0.0567825855	-0.179326
C	-0.4518812717	 1.2318934417	-1.2733521006	 0.363333
C	 0.372814838	 2.0884111402	-2.2030165252	-0.355273
C	 0.0881895566	 0.6530890589	-2.5752274094	-0.066704
C	-1.06276804	 0.3965962393	-3.5244130092	-0.33137
C	-2.281304282	 1.0712192223	-2.8716702824	 0.378643
O	-3.3156973283	 1.3312468312	-3.4277811931	-0.306996
C	-1.9593434587	 1.3616783536	-1.4000886738	-0.391843
H	-0.2428418498	-0.5952755865	 1.3469100199	 0.289769
H	-0.1017485129	 1.595421449	 0.8123923026	 0.089688
H	 1.215134891	 0.7477177877	-0.0223933957	 0.083718
H	-0.1238442252	 2.8829732771	-2.7539120163	 0.11613
H	 1.384562577	 2.3331986175	-1.8965667691	 0.112968
H	 0.9099291559	-0.0533542623	-2.5452812503	 0.091247
H	-0.9220445996	 0.7773168976	-4.540667365	 0.127566
H	-1.2765524071	-0.6768727076	-3.6088222603	 0.133236
H	-2.3679172537	 2.3347218543	-1.109821029	 0.121354
H	-2.4492622843	 0.5981445794	-0.7831698144	 0.145704
77.8338	102.3278	172.4836	239.7827	265.9131	318.1006	381.8135	461.0499	478.2492	508.7316	551.975	625.8652	716.005	787.6729	813.8965	837.0568	902.9474	922.2379	960.3332	1004.3087	1045.713	1058.3095	1069.8577	1074.1335	1100.4077	1147.166	1161.7129	1203.7333	1222.4675	1243.953	1253.2563	1285.227	1315.3555	1352.5943	1397.4766	1450.6177	1456.3974	1464.4867	1495.332	1514.1978	1847.7294	2962.0993	2991.547	3034.2145	3041.8136	3086.6062	3088.5853	3116.6949	3173.6504	3202.4204	3832.7879
OCC12CC1CC(=O)C2	OC[C@@]12C[C@@H]1CC(=O)C2	
InChI=1S/C7H10O2/c8-4-7-2-5(7)1-6(9)3-7/h5,8H,1-4H2	InChI=1S/C7H10O2/c8-4-7-2-5(7)1-6(9)3-7/h5,8H,1-4H2/t5-,7-/m0/s1
