19
gdb 4867	2.7193645	1.2727264	1.0271644	0.875	78.66	-0.24245	0.03841	0.28086	1205.6479	0.153241	-422.511508	-422.501267	-422.500323	-422.545829	38.279	
C	 0.2241087229	-0.2181726521	-0.7070728634	-0.481204
C	 1.5532388033	 0.0808691374	-0.0270819826	 0.073812
C	 2.6554544932	 0.803979396	-0.8160948637	-0.385146
C	 1.9605520265	 1.5212992948	 0.3076603069	 0.358301
O	 2.6557919138	 1.7541452303	 1.4962450573	-0.470421
C	 1.0306611391	 2.7036786071	 0.0449289671	-0.150095
O	 0.6379778657	 2.8707261341	-1.3060942847	-0.401873
C	 1.986610169	-0.8973361265	 0.9333840019	 0.249153
C	 2.3410342323	-1.6684829411	 1.7893630194	-0.442155
H	-0.5705091747	-0.3468514618	 0.034513358	 0.124684
H	-0.0539542752	 0.5968263371	-1.3767763447	 0.151923
H	 0.2944863204	-1.1438068929	-1.2870958019	 0.123849
H	 3.6801940625	 0.4959353878	-0.6443828259	 0.124541
H	 2.4069990374	 1.0595926341	-1.8406585587	 0.111588
H	 2.7127564949	 0.9201347107	 1.9829453227	 0.287224
H	 0.1063736263	 2.5876264343	 0.6200063217	 0.121629
H	 1.5439745043	 3.5951486442	 0.4305163091	 0.115114
H	 1.4086192425	 3.1655279281	-1.801308572	 0.289746
H	 2.6556561159	-2.3810675518	 2.5113327535	 0.199331
97.8771	125.5685	151.0284	202.8667	235.6721	246.9849	285.0517	287.3087	344.5842	386.0334	405.555	445.3051	513.6539	553.2679	587.1916	607.4934	657.956	671.0833	711.8156	844.4908	925.9704	940.9591	982.1051	1008.5554	1052.374	1085.3464	1109.9612	1158.3197	1191.4998	1219.4021	1287.5098	1318.3465	1388.82	1399.8066	1415.0052	1424.0075	1468.0715	1496.1325	1504.1965	1507.5286	2216.9731	3015.0636	3041.3382	3080.1133	3102.5757	3133.4268	3145.3536	3231.1047	3499.593	3728.6369	3822.6814
CC1(CC1(O)CO)C#C	C[C@]1(C[C@@]1(O)CO)C#C	
InChI=1S/C7H10O2/c1-3-6(2)4-7(6,9)5-8/h1,8-9H,4-5H2,2H3	InChI=1S/C7H10O2/c1-3-6(2)4-7(6,9)5-8/h1,8-9H,4-5H2,2H3/t6-,7-/m1/s1
