19
gdb 4727	1.7122657	1.6050943	1.2449906	3.258	77.62	-0.24695	-0.0332	0.21375	1160.7543	0.152737	-422.547049	-422.536431	-422.535486	-422.582397	38.288	
C	 2.533976126	-0.2694306541	-2.5465772266	-0.481499
C	 3.0447128017	-0.7908639701	-1.2199912112	 0.393914
O	 3.7291329264	-1.7886716458	-1.1558452318	-0.323694
C	 2.6757742764	 0.0058502985	 0.0650189941	-0.075513
C	 3.1273253378	 1.4799602642	-0.0853197567	-0.433359
C	 3.4027457845	-0.6199853324	 1.2892151245	-0.07043
O	 3.0558750076	-1.9559114495	 1.5381870058	-0.422006
C	 1.2246570991	-0.0643800199	 0.2336967019	 0.359854
C	 0.0297474075	-0.1111964073	 0.3595485798	-0.501014
H	 2.6089425015	-1.0573546081	-3.2968338054	 0.147497
H	 1.5044978414	 0.0860876367	-2.4622628441	 0.155369
H	 3.1519154435	 0.5768026214	-2.867953011	 0.150294
H	 2.9108304308	 2.0240915718	 0.8379585384	 0.139198
H	 4.2044910681	 1.5341909127	-0.2736554508	 0.126625
H	 2.6017535738	 1.9815423775	-0.8999404983	 0.133415
H	 4.4851979914	-0.4985750752	 1.1283560408	 0.091375
H	 3.128180143	-0.0455228204	 2.1794460215	 0.111164
H	 3.3870525671	-2.4529109573	 0.7791434204	 0.29606
H	-1.0231341876	-0.1652037126	 0.4888788288	 0.20275
56.8956	129.4396	132.9172	141.029	192.6709	218.7731	241.5413	281.5788	292.6782	384.029	414.7638	467.479	537.4082	571.4489	592.2815	625.5573	630.4138	641.2757	678.8645	835.8717	916.1747	960.4549	1002.3068	1025.1171	1091.5188	1110.1034	1139.0355	1190.4264	1229.6893	1280.4679	1382.6596	1390.7609	1407.425	1443.4938	1463.2168	1474.9984	1488.5281	1495.4316	1502.4252	1792.2847	2227.6743	2985.8391	3042.6204	3047.0559	3080.3445	3116.3286	3117.3478	3135.046	3159.0354	3500.4665	3771.8026
CC(=O)C(C)(CO)C#C	CC(=O)[C@](C)(CO)C#C	
InChI=1S/C7H10O2/c1-4-7(3,5-8)6(2)9/h1,8H,5H2,2-3H3	InChI=1S/C7H10O2/c1-4-7(3,5-8)6(2)9/h1,8H,5H2,2-3H3/t7-/m0/s1
