19
gdb 3178	2.9353764	1.3671239	1.102491	2.8359	74.56	-0.24939	-0.01688	0.23251	1127.7463	0.157337	-422.57072	-422.562317	-422.561372	-422.603871	31.802	
O	 1.8277958442	-1.918719227	-1.4265331822	-0.427571
C	 0.5136247981	-1.4538370759	-1.7203517389	 0.11034
C	 0.3565475868	-1.1438437977	-3.1967105294	-0.057951
C	-0.8631601476	-0.3791907234	-3.6490761724	-0.300584
C	 0.4209329961	 0.362090775	-3.3828174963	-0.036818
C	 0.5732337294	 1.0080322183	-2.0132468728	-0.238496
C	 0.1949177171	-0.0982117558	-1.0050304634	-0.151147
C	 0.9094825197	-0.0203193274	 0.3262889486	 0.154044
O	 1.731886965	 0.8107579893	 0.6164019832	-0.249088
H	 2.4570227508	-1.3049855381	-1.8229730855	 0.286612
H	-0.1453537169	-2.254922931	-1.3720165019	 0.093419
H	 0.8271429574	-1.8352212425	-3.887059373	 0.093356
H	-1.1566729696	-0.5099699463	-4.6847838188	 0.115723
H	-1.7017907899	-0.256579946	-2.9706233743	 0.111522
H	 0.9448026622	 0.8004784345	-4.2248146045	 0.087708
H	 1.6088495358	 1.3198208855	-1.8410810668	 0.119812
H	-0.047422745	 1.9005725434	-1.8877439698	 0.108513
H	-0.8798873989	-0.0773682761	-0.7817729852	 0.097914
H	 0.6169703651	-0.8120007887	 1.0504856534	 0.082692
70.2848	119.5975	203.8992	217.8503	266.6065	336.5316	342.0242	435.1248	480.5018	617.0645	663.3645	714.4648	797.2706	812.2311	830.1916	873.8699	914.1	938.0743	971.2022	1011.1732	1031.9589	1050.957	1070.1448	1078.2611	1105.5922	1116.4566	1145.8092	1182.348	1201.0856	1233.8984	1271.8698	1300.406	1309.2737	1336.3148	1359.9457	1386.4494	1425.9286	1433.6836	1492.8709	1503.6296	1826.6255	2890.8939	3024.9811	3050.9579	3068.4364	3088.0294	3128.6578	3168.37	3176.2893	3211.97	3798.5749
OC1C2CC2CC1C=O	O[C@@H]1[C@H]2C[C@H]2C[C@@H]1C=O	
InChI=1S/C7H10O2/c8-3-5-1-4-2-6(4)7(5)9/h3-7,9H,1-2H2	InChI=1S/C7H10O2/c8-3-5-1-4-2-6(4)7(5)9/h3-7,9H,1-2H2/t4-,5-,6+,7+/m1/s1
