19
gdb 4884	2.4067604	1.6220244	1.1785399	3.3231	75.31	-0.24196	-0.02129	0.22067	1083.7913	0.154781	-422.493357	-422.484464	-422.48352	-422.52754	32.599	
C	 2.7850677502	 0.906531109	 0.0943403938	-0.382532
C	 1.5166118715	 0.0564067406	-0.0562803592	-0.295943
C	 1.5285835052	-0.8417607762	-1.2986734771	 0.268263
C	 1.2722731543	-0.0411957157	-2.5699804043	 0.114025
O	 2.0359609175	 0.785853188	-3.0011891596	-0.260871
C	 0.8375330363	-2.241208192	-1.3286822879	-0.016672
C	 1.950014423	-2.8390422013	-0.4357179265	-0.241959
C	 2.5984952277	-1.9563949569	-1.5227019019	 0.024118
O	 1.6673809176	-2.5653933606	-2.5149486188	-0.316428
H	 2.7010623294	 1.574297854	 0.9569001937	 0.112982
H	 3.6651603907	 0.2725713203	 0.2473148946	 0.114664
H	 2.9602512304	 1.5093069518	-0.7991244348	 0.15402
H	 1.3684401838	-0.551621845	 0.8419264582	 0.103844
H	 0.6390820014	 0.7139950015	-0.115963013	 0.106121
H	 0.2958825251	-0.2302269777	-3.0679428151	 0.084232
H	-0.2238710602	-2.488701795	-1.3800252354	 0.098478
H	 2.020351553	-2.5340695557	 0.6091384342	 0.106416
H	 2.106529472	-3.9092372254	-0.5729099601	 0.117301
H	 3.6424210311	-1.8514816936	-1.8155731307	 0.109941
41.1062	93.8089	171.8597	208.2016	222.1719	250.6241	336.3093	392.8931	467.4727	558.0566	607.3352	692.9833	769.1273	794.8651	826.0343	875.0946	909.8166	917.7782	965.9091	989.715	997.2601	1038.8846	1045.9961	1098.1563	1121.8827	1135.8306	1170.1888	1199.7122	1209.7757	1218.069	1273.7074	1277.8653	1336.9628	1356.0401	1413.5481	1423.3669	1477.8632	1496.8691	1502.6725	1514.2532	1818.1982	2883.5327	3021.0978	3039.6869	3064.6818	3083.325	3102.9235	3109.0223	3131.861	3137.0872	3156.2399	41.1058	93.809	171.8594	208.2016	222.1719	250.6241	336.3093	392.8929	467.4726	558.0566	607.3349	692.983	769.1268	794.8648	826.0342	875.0937	909.8165	917.778	965.9089	989.7149	997.2598	1038.8843	1045.9958	1098.1561	1121.8825	1135.8304	1170.1885	1199.7119	1209.7755	1218.0688	1273.7072	1277.8651	1336.9624	1356.0399	1413.5479	1423.3664	1477.8628	1496.8689	1502.6722	1514.2529	1818.1978	2883.5325	3021.0979	3039.687	3064.6818	3083.3249	3102.9236	3109.0222	3131.8609	3137.0872	3156.2399
CCC1(C=O)C2CC1O2	CC[C@]1(C=O)[C@@H]2C[C@H]1O2	
InChI=1S/C7H10O2/c1-2-7(4-8)5-3-6(7)9-5/h4-6H,2-3H2,1H3	InChI=1S/C7H10O2/c1-2-7(4-8)5-3-6(7)9-5/h4-6H,2-3H2,1H3/t5-,6+,7-
