19
gdb 2699	3.3114837	0.8801813	0.7519922	0.2744	78.46	-0.24847	-0.04638	0.20209	1485.1764	0.154221	-422.567826	-422.558146	-422.557202	-422.603558	33.757	
C	 3.4038536281	 0.0252741295	-0.5629889455	-0.415656
C	 1.9827391207	-0.3001665866	-0.1374335195	-0.004786
C	 1.5730754827	-0.1011323522	 1.3600254608	-0.073664
C	 0.1942504602	 0.405493035	 0.8472892114	-0.283556
C	 0.8246747227	 0.6682728923	-0.5506750119	-0.073671
C	 0.0190098596	 0.2846176657	-1.7591654774	 0.153832
O	-0.155100563	 0.9744385404	-2.730389273	-0.245812
C	 1.5831183767	-1.3232751693	 2.2335285977	 0.153825
O	 2.1941787184	-1.4401641543	 3.2642486537	-0.245812
H	 4.118230279	-0.6676305451	-0.1060337091	 0.131382
H	 3.5134353906	-0.0458933731	-1.6502735874	 0.131369
H	 3.681305837	 1.0408561278	-0.2627596451	 0.125094
H	 1.717969531	-1.3211146907	-0.4448546651	 0.083371
H	 2.1578771659	 0.6900904241	 1.8354584308	 0.09567
H	-0.5392506204	-0.4084885147	 0.806823954	 0.112743
H	-0.2532647281	 1.2549704718	 1.364624505	 0.127592
H	 1.1796350794	 1.695746845	-0.6618644909	 0.095668
H	-0.4230450076	-0.7403146921	-1.696218417	 0.066206
H	 0.9603305372	-2.1627596632	 1.8369623086	 0.066206
54.8446	63.8078	68.9355	208.4001	215.1985	218.6182	296.2492	308.6837	374.4198	381.9265	469.162	533.2212	644.3133	796.4659	853.9335	892.7927	893.6638	951.6064	1010.8147	1049.2682	1081.0219	1086.0231	1091.8135	1115.882	1170.1217	1176.5366	1213.6952	1248.0348	1267.6465	1272.1946	1308.7494	1332.6908	1378.893	1412.8779	1427.46	1432.7185	1486.0056	1490.5835	1495.3537	1828.4341	1831.4935	2829.822	2832.839	3014.0606	3032.4652	3042.3487	3087.3898	3089.9127	3103.2406	3105.6768	3125.7847
CC1C(CC1C=O)C=O	C[C@H]1[C@@H](C[C@@H]1C=O)C=O	
InChI=1S/C7H10O2/c1-5-6(3-8)2-7(5)4-9/h3-7H,2H2,1H3	InChI=1S/C7H10O2/c1-5-6(3-8)2-7(5)4-9/h3-7H,2H2,1H3/t5-,6-,7+
