19
gdb 5978	3.6443246	1.2048313	1.0227064	0.7581	75.84	-0.23138	0.07756	0.30894	1217.9624	0.155551	-422.458264	-422.449957	-422.449012	-422.491737	31.24	
C	 0.3646878086	-0.7278061776	 0.0000665776	-0.387536
C	 0.9271308962	 0.6453768319	 0.3177822833	-0.060725
O	 1.6421281364	 1.1043346255	-0.8331850508	-0.294855
C	 2.2116282959	 2.3334665704	-0.7077156685	 0.412243
C	 3.0242858888	 3.0273416555	-1.8074552836	-0.339348
C	 3.0537336481	 4.0467451365	-0.6479303369	-0.086969
C	 1.6088048031	 3.7017845951	-0.1812665636	 0.001509
O	 1.9865743767	 3.4777323208	 1.2089980375	-0.323923
C	 3.1092598567	 2.9423219725	 0.4483164318	 0.001512
H	-0.1915400783	-1.1155803562	 0.8587067457	 0.118162
H	-0.3115370237	-0.6788171519	-0.8581819343	 0.126896
H	 1.1696846221	-1.4291070505	-0.2374817313	 0.1269
H	 0.1264695712	 1.3556977729	 0.5633913929	 0.108043
H	 1.6031425485	 0.6076211906	 1.182387084	 0.108007
H	 3.9766411654	 2.5614449538	-2.0734525619	 0.104823
H	 2.4733370989	 3.3223573027	-2.7042360822	 0.104824
H	 3.5246774574	 5.024334195	-0.5910558017	 0.091715
H	 0.6668658833	 4.2047479268	-0.398689037	 0.094362
H	 3.9655342248	 2.535111626	 0.9854079189	 0.094361
62.561	85.272	138.6955	243.972	313.0068	347.1039	388.4162	434.3714	551.0811	700.6064	708.4087	785.8531	812.6769	844.0011	856.5529	875.7815	884.3858	914.1099	945.2245	978.6163	1051.9515	1061.9976	1076.5914	1085.7234	1115.4527	1135.5405	1149.5152	1162.0416	1165.8541	1181.8025	1225.4725	1254.2478	1297.8282	1309.0035	1363.3764	1403.6613	1434.4292	1483.6506	1496.1729	1515.8958	1522.9436	3009.9623	3043.827	3044.9293	3057.9293	3116.3381	3119.9048	3120.9585	3122.3911	3126.2968	3164.0593
CCOC12CC3C1OC23	CCO[C@@]12C[C@H]3[C@@H]1O[C@@H]23	
InChI=1S/C7H10O2/c1-2-8-7-3-4-5(7)9-6(4)7/h4-6H,2-3H2,1H3	InChI=1S/C7H10O2/c1-2-8-7-3-4-5(7)9-6(4)7/h4-6H,2-3H2,1H3/t4-,5-,6+,7-
