19
gdb 2727	2.863283	1.2638716	1.0490063	3.3976	77.88	-0.24125	-0.02733	0.21392	1193.0181	0.154984	-422.527176	-422.51803	-422.517086	-422.56099	33.892	
C	 3.4566608387	-2.9550310071	 4.9473753738	-0.510487
C	 2.9731332801	-2.9670223206	 3.5229162422	 0.266504
C	 2.7860269666	-1.7502054348	 2.562906029	-0.292757
C	 2.3479318537	-2.9723062622	 1.7213045054	 0.210938
C	 1.5934719399	-3.4860254376	 2.9888237754	-0.342615
C	 1.88519454	-2.9917518648	 0.3103610148	 0.026876
O	 1.9028957461	-2.0350922709	-0.4262009761	-0.251108
C	 3.6353196438	-3.6908499898	 2.3069861073	 0.113341
O	 3.7975696222	-5.074468118	 2.2762126437	-0.442721
H	 3.5516708357	-3.9740503476	 5.338544979	 0.120504
H	 4.4389036636	-2.4762686458	 5.0217996725	 0.126966
H	 2.7650876163	-2.4078957916	 5.5967749939	 0.124315
H	 1.9905525177	-1.0505081903	 2.8261383672	 0.104286
H	 3.6908534006	-1.2282404	 2.2416915846	 0.103853
H	 0.7126824952	-2.9093066658	 3.2831788261	 0.107433
H	 1.3758200608	-4.5567589994	 3.0598717086	 0.081691
H	 1.5244974819	-3.9840529085	-0.0468819511	 0.070752
H	 4.5787391187	-3.2661618298	 1.9537056452	 0.095554
H	 3.0507088685	-5.4999934157	 2.7098211586	 0.286677
68.3376	140.6959	183.9767	195.0196	204.3342	258.3993	311.1909	353.9637	403.8389	498.7092	529.0683	592.356	643.2904	710.1958	762.6469	825.3747	859.3785	910.1437	976.9402	1007.6602	1018.5946	1033.9645	1056.5102	1101.5279	1140.5353	1153.3376	1155.7368	1172.5992	1183.2301	1207.691	1275.3499	1293.676	1355.9111	1411.7348	1424.7655	1448.8286	1488.123	1488.8455	1505.6711	1548.3506	1809.4951	2863.2659	3028.4063	3041.9388	3064.1056	3085.365	3095.3639	3099.5107	3103.8259	3131.898	3814.6102
CC12CC(C1)(C=O)C2O	C[C@]12C[C@@](C1)(C=O)[C@@H]2O	
InChI=1S/C7H10O2/c1-6-2-7(3-6,4-8)5(6)9/h4-5,9H,2-3H2,1H3	InChI=1S/C7H10O2/c1-6-2-7(3-6,4-8)5(6)9/h4-5,9H,2-3H2,1H3/t5-,6-,7+/m1/s1
