19
gdb 5781	3.1028286	1.337428	1.0500819	2.8632	76.05	-0.22283	-0.01602	0.20681	1175.6412	0.157254	-422.559654	-422.551179	-422.550234	-422.592853	31.675	
C	 1.0143704364	 0.4950415923	-0.5372834	-0.247832
O	 0.6682499205	-0.3077928357	 0.5794049187	-0.24207
C	-0.1615249652	 0.3245829433	 1.5175026465	 0.006604
C	-0.1600104099	-0.463275068	 2.8390398351	-0.252639
C	-1.5599709624	-0.3029540569	 3.4262734463	-0.044402
C	-2.1085599276	 1.0807743492	 3.5168880178	-0.290084
C	-2.491715165	 0.2012826282	 2.3271611544	-0.136428
C	-1.661277208	 0.3578176885	 1.1015773974	 0.398784
O	-2.0596016996	 0.4111106512	-0.0365485374	-0.333887
H	 1.5182515622	 1.4209337828	-0.2164819873	 0.097357
H	 1.7112114313	-0.0924431181	-1.1399391025	 0.124165
H	 0.1374927541	 0.7529273563	-1.1380064228	 0.143175
H	 0.1708129082	 1.3658809369	 1.6751874302	 0.082188
H	 0.0261736709	-1.5133647607	 2.5915662799	 0.127717
H	 0.6275544946	-0.1360946795	 3.5241888841	 0.107709
H	-1.9120494603	-1.0466849898	 4.131613843	 0.099642
H	-2.9060534048	 1.2634744082	 4.2282653133	 0.127223
H	-1.4586792576	 1.9342148908	 3.353614453	 0.124191
H	-3.5211984278	-0.1137114189	 2.2157523403	 0.108585
78.0182	127.7406	183.9348	194.5034	260.1212	319.5706	348.1175	428.7799	467.3802	592.0302	615.6499	679.7938	794.5982	810.8914	835.3262	894.2755	931.6622	960.0744	987.8332	1034.7415	1040.3535	1067.0554	1106.7721	1117.8785	1162.3562	1176.7398	1179.6884	1203.9551	1208.5929	1240.8741	1290.187	1306.1956	1329.0382	1373.2555	1393.5903	1475.722	1480.93	1487.997	1498.3374	1518.8428	1829.9623	2943.9	2980.0975	3052.4218	3083.0452	3096.8686	3126.8583	3133.8216	3178.1648	3200.5524	3220.1821
COC1CC2CC2C1=O	CO[C@@H]1C[C@H]2C[C@H]2C1=O	
InChI=1S/C7H10O2/c1-9-6-3-4-2-5(4)7(6)8/h4-6H,2-3H2,1H3	InChI=1S/C7H10O2/c1-9-6-3-4-2-5(4)7(6)8/h4-6H,2-3H2,1H3/t4-,5-,6-/m1/s1
