19
gdb 5045	2.4236155	1.5425722	1.13608	2.0186	75.02	-0.22857	0.05805	0.28662	1133.487	0.15507	-422.487372	-422.478532	-422.477587	-422.520808	33.604	
C	-3.122305121	-1.1482025611	 0.7687433081	-0.505968
C	-2.0665816105	-0.6356790987	 1.6913786981	 0.331227
O	-1.0717246926	-1.5527116551	 2.1871441965	-0.33333
C	-0.6425159976	-0.3220428973	 1.5521093091	 0.314872
C	 0.3485121628	-0.4466728423	 0.4416170234	-0.182254
O	 1.6468185823	-0.7582202062	 0.9241033227	-0.413695
C	-0.7563114057	 0.8362817057	 2.5934860441	-0.121572
C	-1.3077009992	 0.3601440566	 3.9095798593	-0.290751
C	-2.240035713	 0.5178397361	 2.7385153523	-0.129516
H	-2.6933140251	-1.8194373496	 0.0206874872	 0.133827
H	-3.884758255	-1.7012648112	 1.3293815513	 0.134648
H	-3.6203250036	-0.3191575389	 0.2553459208	 0.128282
H	-0.0092793218	-1.19759236	-0.2783958957	 0.095447
H	 0.4425913442	 0.5086463559	-0.0859171412	 0.113737
H	 1.5647823126	-1.5655635683	 1.4440600494	 0.29369
H	-0.2884467945	 1.8018554543	 2.4561014087	 0.096023
H	-1.0607411786	-0.6257018923	 4.281813401	 0.132991
H	-1.3995354277	 1.1330431193	 4.6662806028	 0.110902
H	-3.0758201759	 1.205218063	 2.7289588022	 0.091441
68.7337	122.0072	194.0432	212.6834	273.2122	286.0812	340.6771	400.6823	446.0158	540.8729	566.5548	608.8379	709.379	739.801	770.621	777.811	892.1001	916.722	927.9528	940.9239	978.7337	1004.1008	1048.0141	1052.1745	1088.9621	1099.3086	1115.0493	1155.105	1191.5498	1199.6836	1255.9982	1294.9685	1309.1618	1371.0166	1407.5127	1424.1829	1460.4697	1475.3729	1487.3087	1488.9597	1528.3174	2995.8548	3033.4262	3073.862	3094.9377	3123.971	3140.3415	3196.0834	3207.4409	3233.7079	3804.9353
CC12OC1(CO)C1CC21	C[C@@]12O[C@]1(CO)[C@@H]1C[C@H]21	
InChI=1S/C7H10O2/c1-6-4-2-5(4)7(6,3-8)9-6/h4-5,8H,2-3H2,1H3	InChI=1S/C7H10O2/c1-6-4-2-5(4)7(6,3-8)9-6/h4-5,8H,2-3H2,1H3/t4-,5+,6-,7+/m0/s1
