19
gdb 679	3.1929172	1.3668587	1.0976237	2.4542	75.15	-0.23834	-0.01637	0.22197	1116.48	0.1588	-422.567691	-422.559995	-422.559051	-422.599975	29.804	
O	 1.1387257536	-0.136254783	 0.6767745813	-0.303476
C	 0.0146110264	-0.0871591591	 0.2699781655	 0.404172
C	-1.0838114355	-1.134561579	 0.0262475482	-0.362706
C	-2.1098957074	 0.0376257695	 0.0926660103	-0.009718
C	-3.240488742	 0.1093801847	-0.9270841552	-0.108467
O	-2.7796118678	 0.3849652711	-2.237472754	-0.241174
C	-2.0838784632	 1.6202841283	-2.2937465469	-0.07658
C	-0.7459041788	 1.5196318873	-1.5629728963	-0.221384
C	-0.9372943882	 1.0677591276	-0.092608756	-0.146576
H	-1.0094349564	-1.5564189515	-0.9821965318	 0.140749
H	-1.1626590686	-1.9494803975	 0.7488958248	 0.125184
H	-2.5271272075	 0.1157931395	 1.1008282676	 0.084717
H	-3.7785309808	-0.8425993495	-0.9836205927	 0.111237
H	-3.9622875063	 0.8853208248	-0.6186006675	 0.088465
H	-1.9305315259	 1.8415749686	-3.3539206234	 0.110993
H	-2.7068454794	 2.4240999436	-1.8653140818	 0.087053
H	-0.1258789529	 0.7968438518	-2.1054938056	 0.115168
H	-0.2128935255	 2.4746039311	-1.5941948685	 0.112436
H	-0.9302249539	 1.9236471015	 0.5865337819	 0.089909
90.2946	145.7777	195.7886	294.1733	349.1907	406.5818	469.354	510.1438	523.5468	645.9222	669.1265	752.5229	792.5911	836.9341	868.8601	916.8746	941.4637	995.9992	1032.4305	1046.8249	1067.8103	1091.9493	1110.64	1134.7319	1149.9857	1194.6716	1217.2163	1234.3956	1249.1917	1287.9848	1310.4973	1334.2062	1351.7612	1372.9191	1386.5966	1423.3121	1442.2484	1484.632	1489.284	1501.2367	1891.1218	2955.9598	2963.0634	3040.4034	3054.3232	3063.5462	3071.451	3077.4942	3085.7052	3094.5132	3120.6965
O=C1CC2COCCC12	O=C1C[C@@H]2COCC[C@H]12	
InChI=1S/C7H10O2/c8-7-3-5-4-9-2-1-6(5)7/h5-6H,1-4H2	InChI=1S/C7H10O2/c8-7-3-5-4-9-2-1-6(5)7/h5-6H,1-4H2/t5-,6+/m1/s1
