19
gdb 4302	2.6318637	1.5470837	1.1906018	2.6131	76.5	-0.24097	0.00073	0.2417	1098.3987	0.157333	-422.555505	-422.547112	-422.546168	-422.588418	32.189	
C	 1.2866095612	 0.6229674537	-0.2437553745	-0.491729
C	 0.0075678289	-0.113521524	 0.0415595369	 0.312591
C	-0.0502338926	-1.3903390804	 0.4307076847	-0.152765
C	-1.3397616589	-2.1185769058	 0.7196447385	-0.283346
C	-2.4587107227	-1.1918380063	 1.2337381319	 0.098271
O	-2.2915387235	-0.9063895212	 2.6092527184	-0.437736
C	-2.5127228147	 0.1146996116	 0.4230286626	-0.006363
O	-1.8609160459	 1.2262001743	 1.053995429	-0.265229
C	-1.2632616666	 0.6457277142	-0.1354854904	-0.036143
H	 1.3953655515	 1.493538764	 0.4150353019	 0.136389
H	 2.1585541716	-0.0212786612	-0.1042990644	 0.124576
H	 1.3058110356	 1.0047924697	-1.2726304901	 0.124031
H	 0.8742801265	-1.9529117944	 0.5425642673	 0.089138
H	-1.6786073215	-2.6447865265	-0.1860108213	 0.106255
H	-1.1773608377	-2.8899417128	 1.4788366933	 0.118755
H	-3.4192569319	-1.7098813458	 1.1314836655	 0.078837
H	-1.8284713208	-0.0578782656	 2.6463010348	 0.291745
H	-3.4598232511	 0.3693437752	-0.0489705867	 0.098566
H	-1.3106397174	 1.3166084712	-0.9936925674	 0.094157
61.8902	176.1616	196.5627	255.6235	298.3048	339.9463	355.9228	431.0336	466.7063	545.2853	566.1419	620.2545	742.8513	760.4484	826.0245	873.2895	892.3555	917.5243	941.3285	970.3264	1020.4831	1069.6777	1081.9738	1100.8305	1105.3066	1136.9465	1190.3979	1218.0282	1281.132	1295.1395	1302.9359	1343.9352	1388.0294	1391.487	1413.7854	1446.6288	1462.7379	1465.3239	1477.6231	1492.2977	1732.9363	2993.4095	3017.8172	3038.389	3065.9198	3077.9574	3105.5456	3114.0634	3127.7686	3148.5466	3739.5916
CC1=CCC(O)C2OC12	CC1=CC[C@@H](O)[C@H]2O[C@@H]12	
InChI=1S/C7H10O2/c1-4-2-3-5(8)7-6(4)9-7/h2,5-8H,3H2,1H3	InChI=1S/C7H10O2/c1-4-2-3-5(8)7-6(4)9-7/h2,5-8H,3H2,1H3/t5-,6+,7-/m1/s1
