19
gdb 4513	2.50573	1.6514694	1.191911	3.5641	75.17	-0.24786	-0.01911	0.22875	1070.0691	0.158839	-422.582161	-422.574285	-422.57334	-422.614539	30.996	
O	-0.8996258056	-2.3644871226	 0.5969279586	-0.441925
C	-0.822446427	-1.300054908	-0.316355364	 0.048183
C	-2.1468083157	-1.1583514945	-1.1147664855	-0.247759
C	-2.9395645004	 0.1228698733	-0.8112292031	-0.229072
C	-2.0787217529	 1.3737809103	-0.8437638911	-0.015134
C	-0.844748956	 1.453236207	-1.6777033181	-0.308971
C	-0.7014285846	 1.2833815337	-0.1699837479	-0.118408
C	-0.4083792482	-0.0268914557	 0.4385963381	 0.376612
O	 0.100328222	-0.1410158846	 1.5391566834	-0.363331
H	-0.4124443803	-2.0545747981	 1.3788334948	 0.289265
H	-0.0051194026	-1.4817441854	-1.0400073697	 0.088644
H	-1.9306308615	-1.2040425686	-2.1866615077	 0.104189
H	-2.751064302	-2.0378314316	-0.8802904855	 0.127924
H	-3.7601788694	 0.2186464211	-1.531760171	 0.106569
H	-3.4032368707	 0.0468602003	 0.1804581337	 0.116785
H	-2.6080770535	 2.305509094	-0.6692129844	 0.101871
H	-0.5766374169	 0.6207763676	-2.3173523543	 0.128853
H	-0.5483143437	 2.4201023932	-2.0680100843	 0.127389
H	-0.3507128609	 2.1298883986	 0.4083232381	 0.108316
71.6497	149.7444	247.9164	319.3275	352.3565	400.7144	465.9971	491.1943	513.1307	537.7528	598.1583	654.9608	755.9706	815.999	836.8314	849.5887	906.4534	944.8287	965.5764	1014.7327	1043.2775	1058.9835	1074.1299	1113.5117	1128.2022	1144.0073	1201.8288	1216.9687	1234.7133	1256.2613	1291.1208	1345.6181	1367.0466	1368.7382	1384.7923	1405.8442	1434.8212	1482.2815	1489.9603	1502.2526	1769.9613	2914.5432	3026.1015	3050.4824	3067.3213	3108.4838	3145.6421	3155.893	3186.99	3229.233	3663.3382
OC1CCC2CC2C1=O	O[C@H]1CC[C@@H]2C[C@@H]2C1=O	
InChI=1S/C7H10O2/c8-6-2-1-4-3-5(4)7(6)9/h4-6,8H,1-3H2	InChI=1S/C7H10O2/c8-6-2-1-4-3-5(4)7(6)9/h4-6,8H,1-3H2/t4-,5+,6+/m1/s1
