19
gdb 4055	2.7433814	1.8710276	1.3753119	1.9544	74.39	-0.23646	0.05855	0.29501	978.7602	0.157292	-422.526383	-422.518651	-422.517707	-422.557999	31.057	
C	-0.0949830437	 0.0614436129	-0.1352881531	-0.405971
C	 1.4143841773	-0.0107999434	 0.0234872668	 0.095347
O	 1.9809921246	 1.2848852484	 0.2982447502	-0.297086
C	 2.663099677	 1.0713617116	 1.5172063334	 0.148071
C	 3.3877052519	-0.3049766161	 1.5181422678	-0.156342
C	 3.1287617202	-0.4043706385	 3.0395802787	-0.289136
C	 1.8152426638	 0.1963547084	 2.4847361004	-0.156691
C	 1.9103607325	-0.7801844876	 1.2491343559	 0.394201
O	 1.5030854909	-2.1044097832	 1.2695036376	-0.490703
H	-0.5652355347	 0.4535076471	 0.771530714	 0.116221
H	-0.3593723978	 0.7173611202	-0.9693757525	 0.122133
H	-0.4973570065	-0.9364490309	-0.3333641085	 0.128709
H	 1.8701590649	-0.41361548	-0.8915244861	 0.080736
H	 3.162578685	 1.9746386467	 1.8619829068	 0.090455
H	 4.2812182044	-0.5829921842	 0.9580832472	 0.074675
H	 3.0734288511	-1.4095724353	 3.4698589309	 0.08202
H	 3.7308254421	 0.2402387969	 3.6859085058	 0.099619
H	 0.920318971	 0.4921174925	 3.0326241415	 0.075682
H	 1.8408523061	-2.5272551755	 2.0663897732	 0.28806
147.1686	212.0379	235.593	265.5832	320.6385	373.8509	432.2743	486.7507	488.8139	648.1169	674.0692	704.0533	773.3644	848.7522	866.1971	901.0759	906.8648	935.5234	939.4084	1000.606	1039.4073	1081.6729	1086.7615	1090.4389	1096.1025	1108.3505	1138.0436	1148.8333	1169.9674	1203.8838	1234.6354	1247.7515	1283.0981	1304.0905	1364.8102	1368.6119	1405.5605	1411.662	1487.5745	1494.2914	1530.738	3011.0624	3041.7126	3042.668	3096.426	3109.1972	3113.304	3118.7437	3121.0971	3148.9838	3805.9223
CC1OC2C3CC2C13O	C[C@H]1O[C@@H]2[C@H]3C[C@@H]2[C@@]13O	
InChI=1S/C7H10O2/c1-3-7(8)4-2-5(7)6(4)9-3/h3-6,8H,2H2,1H3	InChI=1S/C7H10O2/c1-3-7(8)4-2-5(7)6(4)9-3/h3-6,8H,2H2,1H3/t3-,4-,5+,6-,7-/m1/s1
