19
gdb 5753	4.4752615	1.1662367	1.0764984	2.7835	75.01	-0.22791	0.07894	0.30685	1163.5059	0.157566	-422.489169	-422.481535	-422.480591	-422.521455	29.479	
C	 1.5034357688	 0.0180059011	-0.1274340984	-0.235902
O	 0.1130675665	-0.1129007438	 0.059063102	-0.250529
C	-0.3887691686	 0.6310110869	 1.15259116	 0.114886
C	-0.1308723373	-0.0367314728	 2.5454150609	-0.282956
C	-1.5630891255	-0.3395073481	 2.9635477868	-0.033766
C	-2.4063607811	-0.7451722376	 1.7188658231	 0.063789
O	-3.6007748577	-0.0856468819	 2.2725272569	-0.320297
C	-2.4876182808	 0.836269718	 2.5309626478	 0.042413
C	-1.9065087271	 0.5958372712	 1.1076773335	-0.060391
H	 2.078484506	-0.3576135489	 0.7324673554	 0.105884
H	 1.7695987093	-0.5708117429	-1.008565336	 0.128621
H	 1.7915907607	 1.067023694	-0.3002222888	 0.105016
H	 0.0065347355	 1.6580579325	 1.1119349415	 0.063981
H	 0.4747685123	-0.9411185144	 2.4333192232	 0.111057
H	 0.3784375021	 0.6281367434	 3.2501700013	 0.100865
H	-1.7738265329	-0.8369339231	 3.9094121735	 0.079159
H	-2.5318515224	-1.7177557002	 1.2443627109	 0.095885
H	-2.7087048781	 1.7748880584	 3.0410647607	 0.089317
H	-2.4274802196	 1.008222318	 0.2457084658	 0.08297
97.1863	120.4815	188.3466	258.0244	346.7602	406.8949	465.6232	521.8228	674.1957	738.6267	772.218	797.0022	842.2275	887.8549	897.8435	905.3307	960.9385	973.6694	989.2152	994.5975	1052.695	1061.3194	1119.4343	1128.2599	1158.1396	1165.279	1182.6761	1184.5767	1216.2538	1232.3258	1244.2399	1249.0293	1271.7853	1281.1023	1326.9828	1368.4143	1395.7021	1479.8571	1483.8721	1489.6359	1509.3794	2971.4149	2979.7586	3020.8601	3050.1917	3095.9054	3106.4576	3114.3844	3123.8489	3136.1327	3149.2849
COC1CC2C3OC2C13	CO[C@@H]1C[C@@H]2[C@H]3O[C@@H]2[C@@H]13	
InChI=1S/C7H10O2/c1-8-4-2-3-6-5(4)7(3)9-6/h3-7H,2H2,1H3	InChI=1S/C7H10O2/c1-8-4-2-3-6-5(4)7(3)9-6/h3-7H,2H2,1H3/t3-,4-,5+,6-,7+/m1/s1
