19
gdb 409	3.0633248	1.6094149	1.2946497	2.1067	75.06	-0.23748	0.07493	0.31240999999999997	1025.4091	0.158391	-422.52474	-422.517269	-422.516325	-422.556635	29.326	
C	 1.1919016932	 1.2548174234	-0.0243746931	-0.333077
C	 1.3368083722	-0.2429588496	-0.2323412864	-0.341789
C	-0.0019412392	 0.37729954	 0.0951260547	 0.451388
O	-0.9775443001	 0.4615463982	-0.9201641293	-0.288659
C	-1.9481132103	-0.5413045961	-0.6216857269	-0.110259
C	-2.0707972086	-0.547259693	 0.9037525574	-0.101671
C	-2.6946694744	 0.7105673827	 1.543221605	-0.075801
O	-1.4043655726	 1.2077615712	 1.9543169528	-0.288381
C	-0.726272224	 0.0678131652	 1.3819420209	 0.029489
H	 1.5896458104	 1.7023238286	 0.8796648713	 0.125187
H	 1.2413982272	 1.8867197116	-0.9038096116	 0.128524
H	 1.4747940877	-0.5892284266	-1.2504237976	 0.120726
H	 1.8469534589	-0.8278771676	 0.5262191367	 0.111363
H	-2.8727503753	-0.2738531975	-1.1408790588	 0.110515
H	-1.6130782494	-1.5262443446	-0.9822339647	 0.094206
H	-2.3817491272	-1.5053045344	 1.3190278314	 0.083852
H	-3.1960131061	 1.3932640918	 0.845891618	 0.106756
H	-3.3506118814	 0.5253436044	 2.4024607949	 0.099802
H	-0.1116307808	-0.4542828377	 2.1212617753	 0.077829
99.9289	161.9209	212.6808	289.5851	338.2496	373.8667	480.0931	574.9019	668.4889	764.8361	793.0774	822.3782	862.7187	883.654	890.8572	918.4217	947.565	967.1961	1003.0822	1009.565	1026.9084	1029.2358	1054.4058	1077.1783	1084.823	1127.8944	1166.0548	1187.3947	1195.9133	1230.5931	1240.6992	1281.0766	1299.0294	1329.7384	1351.5422	1386.0729	1396.7733	1453.5855	1494.6856	1508.5675	1519.9284	2984.1726	3014.0307	3057.9164	3066.477	3089.3853	3120.2077	3129.0397	3140.1703	3217.2201	3232.095
C1CC11OCC2COC12	C1CC21OC[C@@H]1CO[C@H]21	
InChI=1S/C7H10O2/c1-2-7(1)6-5(3-8-6)4-9-7/h5-6H,1-4H2	InChI=1S/C7H10O2/c1-2-7(1)6-5(3-8-6)4-9-7/h5-6H,1-4H2/t5-,6-/m0/s1
