19
gdb 2950	2.9106514	1.4241724	1.1154018	2.0905	76.91	-0.22206	0.01826	0.24032	1120.4401	0.157346	-422.556007	-422.547621	-422.546677	-422.588438	32.981	
O	 0.3323749869	-0.0726464441	 0.1473916894	-0.43539
C	-0.8188203777	 0.5585697004	 0.6390370345	-0.00666
C	-2.1818651874	-0.0760855334	 0.3584897149	-0.210815
C	-3.3127522206	 0.1183797612	 1.2980988895	-0.062837
C	-4.1128052486	 1.1826906279	 1.2111302233	-0.069647
C	-3.9257518453	 2.2452197732	 0.153636091	-0.252731
C	-2.4408374512	 2.4443190462	-0.208449431	-0.27842
C	-1.7059041245	 1.1290546584	-0.4348277035	 0.432826
O	-1.2830154887	 0.9472459898	-1.7539733122	-0.486977
H	 0.4165531846	-0.9360464706	 0.5648079658	 0.294777
H	-0.6851869251	 1.1091419583	 1.5702160453	 0.091319
H	-2.1235425303	-1.030212202	-0.1620588873	 0.090554
H	-3.4748667312	-0.634910376	 2.0660987256	 0.082507
H	-4.9403668157	 1.2981786987	 1.906065795	 0.08755
H	-4.4899300433	 1.9632492673	-0.7468438213	 0.120256
H	-4.3549456087	 3.1950143002	 0.4901928106	 0.098983
H	-2.34107149	 3.0400646146	-1.1198662667	 0.115566
H	-1.953714551	 3.0046655383	 0.5980675604	 0.101695
H	-0.4502029623	 0.4572108515	-1.7027201832	 0.287444
110.1241	174.9134	254.9844	256.8703	278.4159	371.2341	387.9696	411.7736	451.5493	472.9136	498.5204	637.7485	702.9522	719.5419	758.2515	858.2947	886.2824	932.9633	954.76	976.528	992.7031	1016.7724	1039.3023	1061.6323	1092.4087	1124.8688	1158.86	1191.4103	1227.3936	1239.5903	1274.3788	1285.6028	1330.799	1347.0431	1359.9714	1414.2403	1418.6622	1458.7361	1475.4185	1486.2931	1706.4163	3009.164	3034.1897	3064.3357	3096.9893	3101.4205	3126.4831	3140.3589	3168.2566	3739.4437	3810.3517
OC1C2C=CCCC12O	O[C@@H]1[C@H]2C=CCC[C@@]12O	
InChI=1S/C7H10O2/c8-6-5-3-1-2-4-7(5,6)9/h1,3,5-6,8-9H,2,4H2	InChI=1S/C7H10O2/c8-6-5-3-1-2-4-7(5,6)9/h1,3,5-6,8-9H,2,4H2/t5-,6-,7+/m1/s1
