19
gdb 5982	3.8742673	1.0178974	0.9348828	1.5782	75.26	-0.23198	0.07498	0.30696	1296.4663	0.156207	-422.468266	-422.459932	-422.458988	-422.501714	31.447	
O	 1.394071074	 0.7570610843	 0.0631243006	-0.41768
C	 0.322475237	-0.0730028747	 0.4800216758	-0.064021
C	-0.8642753711	 0.7327470741	 1.024499313	-0.372456
C	-1.9928433916	-0.1407251885	 1.4754537507	 0.498467
O	-1.7495014552	-1.0946765162	 2.565956469	-0.366669
C	-3.1456279227	-1.2957053595	 2.2051015185	 0.08812
C	-3.4424633295	 0.2136866134	 1.9538834417	-0.14459
C	-4.0463916397	-0.0688935857	 0.5615644477	-0.2804
C	-2.9235416989	-1.1222389163	 0.6736638981	-0.134541
H	 1.7724518847	 1.1655110788	 0.8481446685	 0.282438
H	 0.0137072281	-0.6303885116	-0.4105628388	 0.114386
H	 0.6420393001	-0.8094702787	 1.230208287	 0.11423
H	-0.5342702729	 1.3422857797	 1.8766576233	 0.104108
H	-1.2224648409	 1.4239579551	 0.2527227747	 0.117521
H	-3.7249193767	-2.0421776089	 2.7474239579	 0.094341
H	-3.7135806806	 0.9585431659	 2.702484653	 0.081005
H	-5.0711587049	-0.4495541184	 0.5437455783	 0.100431
H	-3.9174433426	 0.7079348028	-0.1970794727	 0.102275
H	-2.6095367366	-1.8934187255	-0.0300155762	 0.083036
77.0018	88.6048	128.711	255.4452	297.341	338.7767	360.2383	460.9063	544.7234	696.8374	732.7039	768.4398	776.8187	813.6762	854.6531	878.313	901.381	925.2802	969.9512	994.6258	1028.8719	1049.101	1072.0246	1076.6925	1101.6079	1105.2183	1142.8897	1162.7835	1177.8502	1190.6323	1233.7898	1249.5519	1277.0476	1292.4795	1326.1997	1381.8743	1407.0535	1420.882	1467.5347	1513.1155	1514.9514	3013.095	3020.2018	3053.4435	3065.0216	3086.3205	3108.6937	3114.3786	3116.1024	3132.2182	3817.0148
OCCC12OC3C1CC23	OCC[C@@]12O[C@H]3[C@@H]1C[C@@H]23	
InChI=1S/C7H10O2/c8-2-1-7-4-3-5(7)6(4)9-7/h4-6,8H,1-3H2	InChI=1S/C7H10O2/c8-2-1-7-4-3-5(7)6(4)9-7/h4-6,8H,1-3H2/t4-,5+,6-,7+
