19
gdb 4678	5.1257252	0.8330658	0.8011941	1.9719	77.89	-0.23784	-0.01286	0.22497999999999999	1490.1092	0.155304	-422.529393	-422.520337	-422.519393	-422.563994	32.522	
C	 1.0478916694	-0.9474660302	 0.2674517586	-0.377925
C	 0.8988521611	 0.3513082011	-0.5194446473	-0.291052
C	 1.5129487126	 1.5583284855	 0.1744187932	 0.370657
O	 2.0414955917	 1.4807477613	 1.2673368726	-0.338268
C	 1.4539846693	 2.8455742265	-0.5710135147	-0.171185
C	 1.5067614145	 4.1076694525	 0.2886614702	-0.123765
C	 1.5131146765	 5.3233550192	-0.6301008911	-0.109229
O	 2.653589963	 4.7935092727	-1.3704504817	-0.288426
C	 2.7184185568	 3.6946167408	-0.4739740126	 0.127275
H	 0.5818834054	-0.8616464231	 1.2521907089	 0.132166
H	 0.5812012581	-1.7793230084	-0.2673642977	 0.109281
H	 2.1020828227	-1.1868552711	 0.4287170042	 0.131046
H	 1.3530125152	 0.2709167451	-1.5170728568	 0.124786
H	-0.1589621506	 0.5831714062	-0.7098594256	 0.123376
H	 0.9136717501	 2.8604594976	-1.5136306189	 0.093008
H	 1.3024980764	 4.0683503441	 1.3486549719	 0.125368
H	 0.6417153255	 5.4935809464	-1.2720550501	 0.112514
H	 1.7919440752	 6.2515306101	-0.1205920306	 0.121761
H	 3.6805993671	 3.2933610236	-0.1820275025	 0.12861
53.3306	79.9303	133.0724	163.8476	205.4529	270.4815	317.1312	347.547	414.0284	561.4908	665.6418	746.2108	801.5841	817.2668	893.2176	899.5986	926.2199	952.5785	977.0165	1010.1118	1016.1212	1033.6465	1052.6425	1069.8148	1091.4366	1094.514	1134.0448	1156.2096	1206.5756	1235.4624	1276.2278	1279.1896	1329.9863	1371.4902	1404.5967	1414.1286	1452.0788	1491.6131	1497.7618	1511.0857	1773.1279	3013.3607	3034.4202	3040.012	3051.7474	3087.6168	3122.6956	3127.7639	3146.7508	3201.3978	3227.4693
CCC(=O)C1C2COC12	CCC(=O)[C@H]1[C@@H]2CO[C@H]12	
InChI=1S/C7H10O2/c1-2-5(8)6-4-3-9-7(4)6/h4,6-7H,2-3H2,1H3	InChI=1S/C7H10O2/c1-2-5(8)6-4-3-9-7(4)6/h4,6-7H,2-3H2,1H3/t4-,6+,7-/m0/s1
