19
gdb 3651	2.900016	0.8928955	0.7689764	1.8314	77.89	-0.24298	0.04106	0.28404	1501.664	0.153336	-422.505892	-422.495654	-422.49471	-422.541375	37.521	
O	 0.5418247355	 3.2269072587	-0.3360370161	-0.410996
C	 0.0099044388	 2.6557651675	-1.4969398209	 0.031538
C	-1.0814470496	 3.4409366848	-2.1701372587	-0.345044
C	-1.4121291856	 2.1226166291	-1.5211623179	 0.354551
O	-1.6830257694	 1.095288626	-2.4447574851	-0.46709
C	-2.2416367751	 2.100418453	-0.2545650332	-0.241496
C	-2.1072545522	 0.7664072996	 0.5137655246	-0.378421
C	-2.8803357765	 0.7406056584	 1.7478824467	 0.293454
C	-3.5277028054	 0.7469178309	 2.7605264837	-0.428413
H	 0.8810341281	 2.5199401646	 0.2231287241	 0.288065
H	 0.7252494564	 2.1503232872	-2.1465596656	 0.088392
H	-1.4085862369	 4.3442040459	-1.6670905318	 0.12693
H	-1.0896424414	 3.4746352409	-3.2529278068	 0.125636
H	-1.2675740225	 0.2854909545	-2.129338727	 0.282263
H	-1.9261721048	 2.9225088277	 0.3926812816	 0.125121
H	-3.2960354996	 2.2606697679	-0.5037475779	 0.11767
H	-2.434183941	-0.0567273014	-0.1342417888	 0.130249
H	-1.0486845395	 0.5792673918	 0.7434880576	 0.112997
H	-4.0971128394	 0.7410729329	 3.6565153417	 0.194595
55.3783	71.8897	116.8567	191.2952	236.8025	253.5963	295.7938	332.0703	351.0468	385.1996	428.8967	472.4035	499.445	532.5643	620.6528	637.6214	760.4055	776.5554	839.1693	913.871	923.3444	965.1706	974.9444	1029.2309	1047.4447	1058.3013	1111.5034	1167.8469	1190.1613	1249.5752	1272.3051	1279.7218	1309.6522	1322.5688	1340.7024	1386.473	1419.58	1472.1294	1482.7481	1485.769	2240.3237	3003.6812	3042.1847	3054.1485	3097.3979	3112.4674	3142.6542	3237.8507	3507.861	3801.0359	3803.7603
OC1CC1(O)CCC#C	O[C@@H]1C[C@]1(O)CCC#C	
InChI=1S/C7H10O2/c1-2-3-4-7(9)5-6(7)8/h1,6,8-9H,3-5H2	InChI=1S/C7H10O2/c1-2-3-4-7(9)5-6(7)8/h1,6,8-9H,3-5H2/t6-,7-/m1/s1
