19
gdb 5893	2.1686876	0.7783897	0.5924628	3.35	80.6	-0.23786	-0.01746	0.22039999999999998	1860.4106	0.152812	-422.545468	-422.5341	-422.533156	-422.585448	37.4	
C	 1.4582285394	-0.4930144247	 0.4192572757	-0.497336
C	 0.0854967364	-0.1333069516	 0.0927673704	 0.058641
C	-1.0481107889	 0.1613947029	-0.1870930978	 0.062142
C	-2.4232201132	 0.5080841633	-0.5166249667	-0.442094
C	-3.2503127648	 1.1433806835	 0.6199776418	 0.38314
O	-4.4358608416	 0.9223649158	 0.6954572461	-0.296949
C	-2.5319661394	 2.0734161167	 1.5766015165	-0.317572
C	-3.4686406134	 2.7619668495	 2.5696229712	-0.062063
O	-2.7810765434	 3.6837170315	 3.401281817	-0.419657
H	 1.5261746964	-0.9525183507	 1.4114439908	 0.148862
H	 1.860990332	-1.209880261	-0.3046686357	 0.152897
H	 2.112747991	 0.3854429289	 0.413973213	 0.150005
H	-2.4374118591	 1.2377593663	-1.3408515234	 0.152759
H	-2.9878409637	-0.3611390051	-0.869004043	 0.15372
H	-1.7631165199	 1.4868910853	 2.0982530272	 0.128607
H	-1.9717609453	 2.8204425335	 0.9987106494	 0.132802
H	-4.2200750445	 3.3434578787	 2.0287214093	 0.125667
H	-4.0135238688	 2.0085780082	 3.1542723368	 0.105821
H	-2.1928058093	 3.1836498591	 3.9756494315	 0.280609
17.3788	28.7818	59.5066	76.3154	100.6433	163.5959	205.0285	259.2612	301.0201	350.2851	381.0504	408.8101	450.8694	482.6803	611.0867	734.4314	794.5863	844.6654	880.2603	1023.6356	1050.8587	1054.2968	1059.5	1074.9659	1127.4655	1143.111	1168.9588	1223.5272	1296.9194	1305.8172	1327.5518	1395.962	1415.243	1418.2247	1443.2374	1446.5893	1478.1469	1478.6284	1504.679	1807.8206	2372.3756	3001.9033	3016.905	3026.1414	3028.3103	3055.6872	3077.2238	3089.1387	3090.0866	3099.5374	3817.9683
CC#CCC(=O)CCO	CC#CCC(=O)CCO	
InChI=1S/C7H10O2/c1-2-3-4-7(9)5-6-8/h8H,4-6H2,1H3	InChI=1S/C7H10O2/c1-2-3-4-7(9)5-6-8/h8H,4-6H2,1H3
