19
gdb 5114	2.5387848	1.6820586	1.2336072	0.8732	74.97	-0.2021	0.07269	0.27479	1063.6395	0.155164	-422.465501	-422.456814	-422.45587	-422.498359	33.573	
C	 1.4042128705	-0.0512551236	 0.0725660353	-0.262763
O	 0.04503427	 0.2649989211	-0.2160881001	-0.282308
C	-0.3919055094	 1.4025842589	 0.428645387	 0.354665
C	-0.8026870123	 1.4632134481	 1.8739738902	-0.370087
C	-1.8037729581	 1.7797984635	 0.7706987541	-0.153089
C	-1.6155214017	 3.1706983374	 0.0925859455	-0.152439
C	-0.4277055098	 3.9664954941	 0.6225661066	-0.346284
C	-0.1813535484	 2.7967048479	-0.2584409313	 0.357373
O	 0.5561448105	 2.897774977	-1.4197506111	-0.458262
H	 1.546647738	-0.2399986758	 1.1446866925	 0.115386
H	 1.6440335551	-0.9574054093	-0.4882681466	 0.125409
H	 2.0757467631	 0.7582237609	-0.239295011	 0.12706
H	-0.9577837064	 0.4816337122	 2.3143353631	 0.117238
H	-0.4397923341	 2.2061447714	 2.5762720401	 0.113228
H	-2.7018952348	 1.1888705798	 0.6476996836	 0.099999
H	-2.3842911544	 3.6441237581	-0.5041486903	 0.09369
H	-0.3019192628	 4.9145258298	 0.1062901264	 0.12134
H	-0.1491723307	 4.0035823566	 1.6712887055	 0.109636
H	 0.3213838258	 2.1383248219	-1.9676780995	 0.290208
102.7322	142.2649	175.2118	229.4047	260.9768	380.2948	393.5723	411.6612	440.5506	465.5804	490.2412	605.9492	657.1194	778.6529	811.0253	834.6256	892.2641	925.7383	948.6958	963.513	979.2987	1010.0726	1025.2431	1049.31	1067.6593	1079.7564	1100.9489	1152.1299	1180.3011	1212.2865	1241.171	1243.8981	1257.4677	1339.889	1364.8505	1419.7825	1470.9879	1488.1751	1500.6508	1507.768	1511.3552	3006.4022	3069.2322	3110.3147	3123.8114	3125.1783	3189.3822	3196.9158	3200.5314	3206.1733	3777.0722
COC12CC1C1CC21O	CO[C@]12C[C@H]1[C@H]1C[C@@]21O	
InChI=1S/C7H10O2/c1-9-7-3-5(7)4-2-6(4,7)8/h4-5,8H,2-3H2,1H3	InChI=1S/C7H10O2/c1-9-7-3-5(7)4-2-6(4,7)8/h4-5,8H,2-3H2,1H3/t4-,5+,6+,7-/m1/s1
