19
gdb 1580	3.6947159	0.987659	0.9427904	3.325	81.69	-0.2463	-0.06373	0.18257	1324.8783	0.154589	-422.581867	-422.572424	-422.57148	-422.616378	34.119	
C	-1.6118038178	-3.3643810027	-1.2786545751	-0.405519
C	-1.2081457488	-2.6065195582	-0.0040047454	 0.346104
C	-1.5808865504	-3.4063916902	 1.2543243812	-0.40551
O	-1.9046769992	-1.3453972475	 0.0252813925	-0.313201
C	-0.9943204642	-0.2488637709	 0.0336433474	-0.174859
C	 0.3730108868	-0.88046024	 0.0060988868	 0.208369
C	 1.6264322336	-0.1258664657	 0.0037827182	 0.073794
O	 1.6841457751	 1.0840574871	 0.0239245173	-0.264543
C	 0.2459994193	-2.2098878688	-0.0150505748	-0.23162
H	-1.1121954139	-4.3368708899	-1.3352051629	 0.113342
H	-2.6928686797	-3.5308497774	-1.2788595703	 0.130593
H	-1.3517740694	-2.7849728455	-2.1683128942	 0.122792
H	-1.08030745	-4.3799516264	 1.2664893274	 0.113345
H	-1.2991180339	-2.8566302861	 2.1560976773	 0.122785
H	-2.6616714246	-3.5733540395	 1.2753153161	 0.130587
H	-1.16626822	 0.3992616162	-0.8371087232	 0.120717
H	-1.1448472462	 0.3682287433	 0.9305431152	 0.120669
H	 2.5472981847	-0.7493334642	-0.0181868791	 0.072942
H	 1.0554284086	-2.9307048636	-0.0371836443	 0.119214
49.1778	111.777	166.1302	188.4558	208.6635	248.0562	309.8374	345.1208	367.7601	395.0925	494.3756	521.894	636.5445	717.4876	823.0353	875.132	884.6547	914.0187	924.4937	947.6727	1007.1472	1017.2882	1058.2146	1080.0981	1141.099	1176.4131	1203.2026	1210.5133	1277.3439	1329.7971	1387.2265	1388.8998	1408.3822	1422.3827	1473.8795	1481.1007	1494.1068	1503.3422	1521.3022	1693.2037	1783.7683	2888.1493	3002.475	3025.0208	3036.8194	3041.6154	3110.4723	3116.8519	3122.4101	3124.5678	3205.5237
CC1(C)OCC(C=O)=C1	CC1(C)OCC(=C1)C=O	
InChI=1S/C7H10O2/c1-7(2)3-6(4-8)5-9-7/h3-4H,5H2,1-2H3	InChI=1S/C7H10O2/c1-7(2)3-6(4-8)5-9-7/h3-4H,5H2,1-2H3
