19
gdb 1248	2.2609853	1.1634829	1.0193658	1.7528	78.78	-0.25556	-0.06381	0.19175	1294.9833	0.152468	-422.538511	-422.527617	-422.526672	-422.575508	38.227	
C	-0.6666095426	 3.7500630131	-1.2357201218	-0.395046
C	-0.5232794589	 2.2345008162	-1.039773361	 0.024702
C	-0.1781055368	 1.8954769946	 0.416366689	-0.400945
C	-1.8056089033	 1.5136816834	-1.5036612441	 0.022085
O	-2.0412188263	 1.8787143627	-2.8549195242	-0.427509
C	-1.6699498156	-0.0079741093	-1.3728637382	 0.192507
O	-2.1751027213	-0.6314148146	-0.464226449	-0.291467
C	-0.8960692106	-0.667846448	-2.4130268819	 0.309583
C	-0.2437625507	-1.2389749832	-3.2482923109	-0.450188
H	-1.4592266254	 4.1516029841	-0.5930711432	 0.110373
H	 0.2664037132	 4.2560508149	-0.9682628439	 0.11096
H	-0.9108803782	 3.9937495863	-2.2708058236	 0.136313
H	 0.2866938784	 1.8778863005	-1.6898139568	 0.09265
H	-0.0297487314	 0.8239692595	 0.5746149878	 0.130439
H	 0.7417686065	 2.4086620888	 0.7122694383	 0.115692
H	-0.9742895292	 2.2224813605	 1.0947238365	 0.120651
H	-2.6415068039	 1.8042241328	-0.8500337025	 0.09011
H	-2.8862375111	 1.5098221273	-3.1310637391	 0.291712
H	 0.3314723571	-1.7440542097	-3.9859670114	 0.217378
20.5138	55.4583	139.0722	152.2549	207.6353	224.6179	253.1303	281.8151	300.3312	315.2316	357.1679	386.0584	427.1889	532.3494	649.2062	669.3854	714.2808	732.3101	766.8122	859.6367	930.5641	938.7011	970.2643	1072.6691	1104.5008	1135.8665	1192.4717	1204.6888	1262.3057	1309.7472	1346.1385	1356.1628	1394.4218	1399.6555	1426.683	1487.4463	1489.309	1504.1162	1511.8901	1762.2261	2208.8923	3000.8434	3024.8102	3032.0609	3038.6023	3094.7554	3103.8238	3116.9937	3138.6466	3493.4736	3820.0427
CC(C)C(O)C(=O)C#C	CC(C)[C@@H](O)C(=O)C#C	
InChI=1S/C7H10O2/c1-4-6(8)7(9)5(2)3/h1,5,7,9H,2-3H3	InChI=1S/C7H10O2/c1-4-6(8)7(9)5(2)3/h1,5,7,9H,2-3H3/t7-/m1/s1
