19
gdb 2334	2.708511	1.6842952	1.2885944	1.7576	77.9	-0.24004	0.0127	0.25274	1030.2917	0.158067	-422.544311	-422.536451	-422.535507	-422.576196	31.215	
O	 0.1801112259	 1.3616484262	-0.013371687	-0.493211
C	 0.0501946654	-0.0532495677	-0.0124037383	 0.381154
C	 0.1434157028	-0.568559118	-1.4754862365	-0.280597
C	-1.426574186	-0.6445136855	-1.5183878209	-0.328695
C	-1.3848094548	-0.5556648851	-0.0084900871	 0.29805
C	-1.978125414	-1.0667287289	 1.059960757	-0.266638
C	-1.2479756737	-1.0166346331	 2.3820197693	-0.11151
O	 0.0059270983	-0.3460321756	 2.3275459143	-0.271553
C	 0.7859854929	-0.6652660272	 1.1695791845	-0.170598
H	-0.0900904306	 1.6510795043	 0.8673096944	 0.279155
H	 0.6259799195	 0.1196465099	-2.1709885193	 0.114693
H	 0.6078680374	-1.5548750773	-1.5446609282	 0.105705
H	-1.855710883	 0.2454483863	-1.9884324051	 0.123639
H	-1.8834170346	-1.5333646986	-1.9606129324	 0.108054
H	-2.9239261218	-1.6029211392	 1.0298433669	 0.091875
H	-1.8301598143	-0.4902031913	 3.147748191	 0.120628
H	-1.1051734474	-2.050488958	 2.7467903717	 0.10099
H	 0.9021481742	-1.7536151967	 1.057706805	 0.088027
H	 1.7673233638	-0.2106733146	 1.3317048806	 0.110834
121.9873	207.2419	227.264	274.3924	323.5841	389.536	433.717	451.8302	488.9548	545.7072	635.3685	708.2337	755.5168	805.2852	822.9701	882.9843	908.0517	942.0294	962.9457	972.1893	1028.3698	1041.7047	1082.3188	1097.9689	1131.5493	1168.9983	1193.3088	1218.0866	1239.2576	1259.4876	1263.447	1300.9151	1325.7614	1350.7476	1386.3654	1406.1754	1462.1112	1477.2342	1481.7917	1489.652	1769.6242	2938.9556	2994.189	3048.2465	3054.5358	3072.9104	3092.6937	3104.7759	3138.4591	3153.4604	3778.4139
OC12CCC1=CCOC2	O[C@]12CC[C]1[CH]COC2	
InChI=1S/C7H10O2/c8-7-3-1-6(7)2-4-9-5-7/h2,8H,1,3-5H2	InChI=1S/C7H10O2/c8-7-3-1-6(7)2-4-9-5-7/h2,8H,1,3-5H2/t7-/m0/s1
