19
gdb 1442	3.0679616	1.5022643	1.3677597	1.7884	76.02	-0.23619	0.0591	0.29529	1021.3201	0.15595	-422.426449	-422.418429	-422.417485	-422.458241	32.357	
C	-0.1246941117	-0.3686654875	 0.0962225207	-0.490049
C	 1.3758220409	-0.1193516205	 0.0724988709	 0.363141
O	 2.0118376002	-1.0146999097	 0.9480818205	-0.464897
C	 2.196696777	 0.0128682032	-1.3260842133	-0.131298
C	 3.3139996636	 0.7048409354	-0.5251359018	-0.282864
C	 1.9609096678	 1.3474376414	-0.0671021199	 0.337514
O	 1.8926264227	 2.7667268991	 0.153625104	-0.356676
C	 1.9726232274	 2.8871726779	-1.3222446892	-0.162853
C	 1.5020531093	 1.4021451694	-1.5144334632	-0.091103
H	-0.5029202153	-0.2279959577	 1.1169382849	 0.119271
H	-0.6971451257	 0.2938883183	-0.5508611106	 0.134354
H	-0.3283095779	-1.4034218954	-0.195640925	 0.133152
H	 1.4562796842	-1.1305864149	 1.7250624642	 0.283604
H	 2.3032999985	-0.8072660718	-2.037785301	 0.081451
H	 3.8511090352	 0.1041662527	 0.2024448607	 0.121294
H	 3.9776635265	 1.3461676718	-1.1029792179	 0.093874
H	 1.2438274524	 3.6154316128	-1.6843666856	 0.116382
H	 2.9791552904	 3.1719483037	-1.6360975767	 0.118886
H	 0.4314516243	 1.3790338918	-1.7030144417	 0.076818
170.0681	198.5448	235.3664	244.3693	287.1621	390.3403	436.5833	454.9211	509.3297	540.6903	584.7439	637.6603	718.058	768.4831	788.2475	857.0064	865.6145	948.1861	958.147	964.3969	1000.8665	1013.0411	1053.4967	1063.3943	1096.5471	1121.6585	1142.3292	1149.4263	1167.1918	1184.9156	1199.4056	1211.3246	1229.224	1306.0258	1358.3546	1374.0109	1413.7027	1489.3592	1495.7855	1496.5965	1525.2383	3029.4863	3063.1615	3094.396	3097.1693	3110.4328	3120.933	3132.2318	3158.2987	3190.4006	3822.1518
CC1(O)C2CC11OCC21	C[C@@]1(O)[C@@H]2C[C@@]31OC[C@@H]23	
InChI=1S/C7H10O2/c1-6(8)4-2-7(6)5(4)3-9-7/h4-5,8H,2-3H2,1H3	InChI=1S/C7H10O2/c1-6(8)4-2-7(6)5(4)3-9-7/h4-5,8H,2-3H2,1H3/t4-,5+,6-,7-/m1/s1
