19
gdb 2618	2.9579071	1.3288201	1.1275765	2.232	75.87	-0.24869	-0.02692	0.22177	1135.0984	0.155838	-422.55081	-422.542032	-422.541088	-422.584378	32.813	
O	-1.5097421414	-2.3099987182	 0.623832876	-0.429097
C	-1.1877135146	-1.2017344151	-0.1601736602	 0.009195
C	-0.0552710355	-0.2992214672	 0.3219162176	 0.340225
O	 0.8314123123	-0.5166482853	 1.1021030147	-0.310064
C	-0.7661350452	 0.9584986403	-0.1815606085	-0.422776
C	-2.0697720259	 0.1068771213	-0.1471071524	 0.293911
C	-3.0653831466	 0.2152254584	 1.0366905216	-0.265523
C	-4.2144861188	-0.1022356857	 0.0402474554	-0.202873
C	-3.2521081863	 0.2322251037	-1.1332057256	-0.30031
H	-0.8912969316	-2.3175908703	 1.3659379862	 0.298508
H	-1.0367873803	-1.5112324638	-1.2051879689	 0.102601
H	-0.7055879937	 1.8403134909	 0.459935003	 0.130644
H	-0.4680483494	 1.228987339	-1.2001208764	 0.129377
H	-2.9175871677	-0.4852153336	 1.8614324904	 0.10712
H	-3.1219830703	 1.2332633103	 1.4326823151	 0.099318
H	-4.4801803348	-1.1617271075	 0.0595870937	 0.118923
H	-5.1267124151	 0.4918747012	 0.1226995637	 0.098914
H	-3.2460750124	-0.4380473363	-1.997959243	 0.09921
H	-3.3769275027	 1.2596757778	-1.4894915624	 0.102697
76.7135	92.1094	172.4944	224.2306	242.7301	289.1127	336.5706	384.5582	490.4109	520.0145	628.0971	687.591	750.863	759.4685	795.7006	847.1329	868.8018	880.6689	939.5139	959.6678	1010.5848	1054.6962	1086.5388	1106.0999	1139.6451	1161.2022	1189.5051	1207.0803	1216.9098	1242.6436	1256.2533	1272.2341	1282.4132	1298.7239	1337.1652	1403.3082	1442.2658	1467.4245	1479.7126	1502.152	1869.3681	2999.4061	3044.2406	3054.38	3058.0973	3069.9778	3092.1005	3112.3431	3120.2415	3128.8734	3766.3622
OC1C(=O)CC11CCC1	O[C@@H]1C(=O)CC21CCC2	
InChI=1S/C7H10O2/c8-5-4-7(6(5)9)2-1-3-7/h6,9H,1-4H2	InChI=1S/C7H10O2/c8-5-4-7(6(5)9)2-1-3-7/h6,9H,1-4H2/t6-/m1/s1
