19
gdb 2150	2.625449	2.0399953	1.471505	1.7822	73.59	-0.24622	0.09014	0.33636	941.7794	0.1584	-422.531842	-422.524546	-422.523601	-422.562986	29.765	
C	 0.1042042336	-0.1046317997	-0.0054433518	-0.453316
C	 1.5838554712	 0.1690174659	 0.1663002959	 0.418977
C	 2.0152839477	 1.6726196593	 0.0078950968	-0.273038
C	 2.9875851514	 1.260699087	-1.0948353102	-0.096017
C	 3.880096907	 0.1654305927	-0.5882749443	 0.097826
O	 4.1912515044	 0.0649325015	 0.7806404502	-0.251509
C	 3.3221584449	-0.8439515516	 1.418216083	 0.01337
O	 1.9842142594	-0.4112052723	 1.4115785765	-0.305264
C	 2.4949154333	-0.1969398622	-1.0267147827	-0.193014
H	-0.4540666614	 0.3086842713	 0.8402095914	 0.127828
H	-0.27030922	 0.348748688	-0.9277718257	 0.115919
H	-0.0830210294	-1.1822711848	-0.0445819975	 0.120108
H	 1.1921828955	 2.289933677	-0.3592418639	 0.099805
H	 2.4529972409	 2.1292068725	 0.8982167064	 0.109375
H	 3.2515778787	 1.8413675577	-1.9698605941	 0.088367
H	 4.7022840885	-0.1278127386	-1.2357153602	 0.097111
H	 3.403697773	-1.8287390745	 0.9288021039	 0.081738
H	 3.6332675219	-0.915833512	 2.4627269744	 0.116191
H	 2.2725188394	-0.9139408273	-1.807996488	 0.085542
169.0041	239.0123	259.5706	307.4654	343.6087	413.463	464.9177	511.1699	580.9871	634.6665	739.0487	759.2997	796.8761	847.6299	901.5235	911.4516	927.6447	963.2765	983.6267	1007.9493	1013.682	1039.0031	1077.8671	1096.0853	1129.4403	1161.1844	1170.5901	1183.5127	1226.4721	1231.5012	1245.4643	1297.0372	1315.9676	1341.9203	1401.7491	1410.1811	1446.6249	1476.8792	1483.1108	1493.5949	1520.205	2959.4821	3037.6722	3066.2776	3106.5643	3110.72	3115.9494	3124.6862	3143.8602	3176.9039	3193.4072
CC12CC3C(OCO1)C23	C[C@@]12C[C@H]3[C@@H](OCO1)[C@@H]23	
InChI=1S/C7H10O2/c1-7-2-4-5(7)6(4)8-3-9-7/h4-6H,2-3H2,1H3	InChI=1S/C7H10O2/c1-7-2-4-5(7)6(4)8-3-9-7/h4-6H,2-3H2,1H3/t4-,5+,6-,7+/m1/s1
