19
gdb 4320	2.4406892	1.6086862	1.2478318	3.1098	76.88	-0.24263	-0.03388	0.20875000000000002	1063.5975	0.157505	-422.587919	-422.579495	-422.578551	-422.620904	31.977	
O	 4.3714496203	-0.5439315751	-1.0349357192	-0.451714
C	 4.2849862101	 0.6658335801	-1.7726002145	 0.137809
C	 3.6543914771	 0.3270811721	-3.1286433503	-0.25677
C	 2.1595567502	 0.1693662809	-3.0497290652	-0.030774
C	 1.4151602319	 0.6052533894	-2.0351021496	-0.079377
C	 1.9998322597	 1.3241841106	-0.8350999873	-0.115071
C	 3.4634290688	 1.7401087572	-1.0471047744	-0.28738
C	 1.7767634242	 0.4750692035	 0.4062750429	 0.164833
O	 2.6401525458	 0.0757894532	 1.1502798106	-0.257719
H	 4.1948370619	-0.354612574	-0.1046243209	 0.295181
H	 5.2969903988	 1.0655748784	-1.9442007879	 0.06085
H	 3.9066961518	 1.102109955	-3.8668284296	 0.103371
H	 4.1089518995	-0.6003200586	-3.4947146233	 0.121495
H	 1.6715618049	-0.3208597486	-3.8889758798	 0.092855
H	 0.3389624216	 0.4521340146	-2.0377197364	 0.091243
H	 1.3869733949	 2.2238315376	-0.6570605086	 0.101022
H	 3.4864559147	 2.656761664	-1.6466491149	 0.10506
H	 3.9257116235	 1.9744516072	-0.0824322249	 0.112869
H	 0.7094384404	 0.2353346126	 0.6077536933	 0.092217
77.2912	129.586	179.8198	248.7273	260.1989	357.1849	386.164	448.2679	464.3889	542.5468	587.5582	662.4198	722.687	754.2932	822.7074	870.2229	922.0343	928.9525	960.0565	1001.9808	1008.2469	1022.0373	1069.5256	1099.9888	1123.6878	1161.5802	1212.5405	1252.5617	1271.1383	1290.9828	1335.1345	1360.98	1383.8845	1388.2061	1403.7233	1426.2138	1453.0042	1457.5782	1479.1866	1721.1229	1810.2281	2892.3008	2965.8409	2967.6947	3009.7213	3045.1426	3065.1339	3085.2036	3144.1506	3167.5436	3759.5577
OC1CC=CC(C1)C=O	O[C@H]1CC=C[C@H](C1)C=O	
InChI=1S/C7H10O2/c8-5-6-2-1-3-7(9)4-6/h1-2,5-7,9H,3-4H2	InChI=1S/C7H10O2/c8-5-6-2-1-3-7(9)4-6/h1-2,5-7,9H,3-4H2/t6-,7+/m1/s1
