19
gdb 3125	2.6209476	1.4022033	1.1991645	1.8594	75.34	-0.23661	-0.02763	0.20898	1119.2794	0.156255	-422.581275	-422.572546	-422.571602	-422.614607	33.245	
C	-3.3012303653	 1.57301874	-0.4398597361	-0.482967
C	-2.2239087098	 0.7278722659	 0.1948351341	 0.34899
C	-2.5173945622	-0.0512913466	 1.4545068924	-0.3491
C	-2.2683553576	-0.7947270509	 0.162868227	-0.079547
C	-0.8819598437	-1.3487507764	-0.0275739702	 0.035886
O	-0.7457891592	-1.8020852287	-1.3722555786	-0.441168
C	 0.052509005	-0.1257063747	 0.1545292553	 0.347873
O	 1.2466191202	-0.2040340935	 0.2883895212	-0.31957
C	-0.7735528248	 1.157392756	 0.0374407973	-0.387603
H	-3.3486133639	 2.5688830244	 0.015980405	 0.119715
H	-3.1190362338	 1.7055158065	-1.5125415048	 0.121655
H	-4.2857153345	 1.1087072234	-0.3232876493	 0.117333
H	-1.7653131103	-0.0957552348	 2.2388011524	 0.113621
H	-3.5357553665	-0.0386681397	 1.8274195802	 0.116453
H	-3.0887101022	-1.3193306452	-0.3134611859	 0.097438
H	-0.6199692972	-2.1425577818	 0.686487409	 0.08452
H	 0.1750355072	-2.0634485361	-1.4906690037	 0.293395
H	-0.4310970014	 1.9017868145	 0.7634892711	 0.127825
H	-0.59683567	 1.5787362075	-0.9614508165	 0.13525
56.2254	137.1888	224.5377	233.2287	280.4833	333.3697	370.4163	375.7833	439.9683	470.3896	520.8235	611.6674	646.1946	743.5896	786.8887	826.865	870.6633	915.2661	966.0129	984.6726	1040.6887	1053.4463	1058.694	1084.6952	1089.0582	1104.1896	1163.5957	1185.9525	1218.1381	1240.2223	1293.8078	1313.1164	1330.9073	1393.2034	1418.6979	1429.4965	1449.2084	1489.7775	1494.6203	1504.1129	1843.9389	3002.8165	3023.0242	3028.2891	3080.9562	3083.8524	3098.7928	3113.4401	3179.1343	3203.5053	3796.7971
CC12CC1C(O)C(=O)C2	C[C@@]12C[C@@H]1[C@@H](O)C(=O)C2	
InChI=1S/C7H10O2/c1-7-2-4(7)6(9)5(8)3-7/h4,6,9H,2-3H2,1H3	InChI=1S/C7H10O2/c1-7-2-4(7)6(9)5(8)3-7/h4,6,9H,2-3H2,1H3/t4-,6-,7+/m1/s1
