19
gdb 1502	2.5826705	1.5096635	1.2444056	3.0463	74.65	-0.24183	-0.02925	0.21258	1082.1846	0.155705	-422.576897	-422.568294	-422.56735	-422.609724	32.986	
C	-2.9578026299	-1.1299744826	-1.1707124341	-0.43143
C	-2.3039419168	-0.7915167277	 0.1791730187	 0.250496
C	-3.1285010358	-1.3534634253	 1.3431732134	-0.436017
C	-0.8240923397	-1.2726013806	 0.2061113619	-0.378324
C	 0.0137448192	-0.0896329509	-0.2922988322	 0.413632
O	 1.0688076564	-0.1380307019	-0.8701820406	-0.316212
C	-0.7801092242	 1.1587612549	-0.0023784883	-0.092573
O	-1.3028256667	 1.1434725062	 1.3439501562	-0.258714
C	-2.1610011215	 0.7297135046	 0.2886369094	 0.041684
H	-3.0563777799	-2.2135114992	-1.2900759413	 0.123713
H	-3.9601635738	-0.6938166586	-1.243240665	 0.117441
H	-2.3657706369	-0.7531226828	-2.0120205802	 0.122559
H	-3.153515708	-2.4477315369	 1.3110778137	 0.117925
H	-2.700233577	-1.0480532517	 2.3022813942	 0.132726
H	-4.1633633737	-0.9955258821	 1.3026970064	 0.113213
H	-0.5061756851	-1.5107804593	 1.226678328	 0.1376
H	-0.6411892229	-2.1533735689	-0.4127639287	 0.125935
H	-0.4935784154	 2.124504309	-0.405113375	 0.115143
H	-3.0133902382	 1.3774993938	 0.0916360337	 0.101203
85.7943	166.6607	234.1717	243.3907	267.4093	317.7671	342.2362	359.7306	467.4163	492.363	550.3201	567.9354	656.8706	790.4877	821.6989	857.732	878.1661	918.2322	928.4127	956.3508	965.1869	1011.828	1039.1582	1092.0458	1122.1701	1180.2148	1211.5302	1235.6772	1244.0621	1262.8714	1289.7905	1326.5606	1399.8384	1402.0349	1424.6225	1454.2005	1486.1267	1489.4265	1504.1136	1510.1433	1846.0382	3026.7419	3031.4707	3058.8779	3093.9772	3096.8719	3103.3863	3112.4911	3119.2524	3133.2397	3182.1159
CC1(C)CC(=O)C2OC12	CC1(C)CC(=O)[C@@H]2O[C@H]12	
InChI=1S/C7H10O2/c1-7(2)3-4(8)5-6(7)9-5/h5-6H,3H2,1-2H3	InChI=1S/C7H10O2/c1-7(2)3-4(8)5-6(7)9-5/h5-6H,3H2,1-2H3/t5-,6-/m0/s1
