19
gdb 569	3.252846	1.7299345	1.7188391	0.9906	72.52	-0.23168	0.08914	0.32082	891.4967	0.16162	-422.570852	-422.564592	-422.563648	-422.601103	26.458	
C	-1.1340929595	 1.1823171641	-2.776969202	-0.08185
O	-1.5645298263	 1.2971438957	-1.4018051739	-0.291104
C	-0.3929116892	 1.2349835774	-0.6054222142	 0.109615
C	 0.1804014915	-0.1996887476	-0.4268466506	-0.084493
C	 1.5955414936	 0.1500911365	 0.0289257093	-0.081849
O	 1.9738450069	 1.2280753022	-0.8567252498	-0.291103
C	 0.7863008808	 1.6549886871	-1.5034341615	 0.109624
C	 0.3164850596	 0.72028466	-2.6542879383	-0.084499
C	 0.2882491666	-0.6521977664	-1.9150082228	-0.215358
H	-1.776738335	 0.4602114316	-3.2920942831	 0.105298
H	-1.2322746898	 2.1559812932	-3.2789277948	 0.094158
H	-0.550016004	 1.7941990093	 0.3178888331	 0.081519
H	-0.3660779246	-0.8710199305	 0.2353309327	 0.072749
H	 1.636174024	 0.4956173678	 1.0722771141	 0.094161
H	 2.3057541693	-0.6751381839	-0.0909983353	 0.105296
H	 0.8728568063	 2.7106733007	-1.7640977468	 0.081519
H	 0.8910329614	 0.7494677772	-3.5799474451	 0.072749
H	-0.5668816763	-1.2558686091	-2.2301171329	 0.101786
H	 1.1951955446	-1.2374861053	-2.087768478	 0.101781
216.161	274.1462	357.3982	381.7324	435.5636	541.1809	631.3645	717.653	768.5783	811.5712	846.8917	859.9261	902.0988	908.3232	941.8846	945.5156	971.7214	985.4736	988.1157	1038.4928	1052.9639	1079.1633	1098.0259	1110.8588	1145.8927	1181.942	1182.5589	1217.6363	1223.0638	1249.8582	1260.5592	1282.2726	1309.6103	1330.8828	1335.004	1338.1399	1382.5168	1399.6419	1499.2628	1525.4454	1526.6315	2994.8534	2995.8485	3057.6383	3060.6208	3062.4992	3102.3348	3106.4586	3112.0025	3120.7003	3125.4113
C1OC2C3COC2C1C3	C1O[C@H]2[C@@H]3CO[C@H]2[C@H]1C3	
InChI=1S/C7H10O2/c1-4-2-8-7-5(1)3-9-6(4)7/h4-7H,1-3H2	InChI=1S/C7H10O2/c1-4-2-8-7-5(1)3-9-6(4)7/h4-7H,1-3H2/t4-,5-,6-,7-/m0/s1
