19
gdb 3412	2.2811391	1.5289697	1.0277864	2.386	76.16	-0.23165	-0.0085	0.22315	1173.0124	0.158032	-422.578546	-422.57029	-422.569345	-422.611316	31.802	
O	-2.2622732409	-3.0351850688	-0.9578808067	-0.423887
C	-2.0398329483	-1.6822331496	-0.7228967763	 0.095578
C	-2.3885379246	-1.1669522776	 0.6241317623	-0.066405
C	-3.0053255466	 0.2239561697	 0.7865516998	-0.232125
C	-1.9585986339	 1.3426868657	 0.9028004342	-0.201962
C	-0.8800249124	 1.2232093919	-0.1898541773	-0.311833
C	-0.0965199222	-0.0725701735	-0.0197854845	 0.39834
O	 1.1161966945	-0.1056631568	-0.0469390749	-0.339417
C	-0.907948757	-1.29255379	 0.2346652509	-0.183851
H	-1.5809139924	-3.3536484211	-1.5601159342	 0.292843
H	-2.2190166392	-1.0251533514	-1.5751909613	 0.091817
H	-2.7272500643	-1.9324498572	 1.3143524205	 0.10892
H	-3.6633651033	 0.4320280469	-0.0666227861	 0.105977
H	-3.6453118866	 0.2301086602	 1.6741456351	 0.109122
H	-2.4476352209	 2.3207122821	 0.8445757288	 0.103047
H	-1.4732681647	 1.2927702277	 1.8853609537	 0.111841
H	-1.3587312509	 1.2327782692	-1.1797341631	 0.112775
H	-0.1665986028	 2.0499921933	-0.1626374656	 0.121236
H	-0.3491704737	-2.1305423106	 0.6361151648	 0.107985
84.8236	154.0782	222.1807	262.847	295.819	342.4205	387.1572	429.0707	463.8015	504.8759	568.7721	709.3287	747.0748	787.0451	845.1548	881.1556	924.9941	940.7627	956.5062	1015.2147	1030.6636	1077.4912	1080.0365	1108.0339	1134.1048	1184.9594	1188.5323	1203.1308	1248.6081	1276.2562	1295.2683	1319.8466	1338.3865	1354.2426	1364.6979	1375.3182	1466.8205	1472.8672	1491.5065	1499.6367	1790.3086	3011.0273	3024.6668	3032.1344	3073.4075	3080.9384	3089.8881	3107.6233	3167.3744	3183.2294	3801.5252
OC1C2CCCC(=O)C12	O[C@H]1[C@@H]2CCCC(=O)[C@H]12	
InChI=1S/C7H10O2/c8-5-3-1-2-4-6(5)7(4)9/h4,6-7,9H,1-3H2	InChI=1S/C7H10O2/c8-5-3-1-2-4-6(5)7(4)9/h4,6-7,9H,1-3H2/t4-,6-,7+/m1/s1
