19
gdb 5889	2.285359	0.9501074	0.7618629	2.4346	77.58	-0.2434	-0.02258	0.22082000000000002	1534.4231	0.15274	-422.540143	-422.529216	-422.528272	-422.577617	37.817	
C	 0.8632614263	 2.9869808209	 2.9745664924	-0.39335
C	-0.0961747099	 1.769063503	 2.9844875762	-0.252177
C	 0.5731967689	 0.5589926365	 3.4453761603	 0.324113
C	 1.1358131781	-0.4300138761	 3.8341506129	-0.469568
C	-0.7360690234	 1.6492696082	 1.5801376056	 0.38176
O	-1.676980489	 2.3559456948	 1.3025161793	-0.308124
C	-0.1203589696	 0.6871494699	 0.5857407844	-0.324934
C	-0.7074142102	 0.8145284222	-0.8205333367	-0.063622
O	-0.0594520019	-0.0411426124	-1.7485177143	-0.41924
H	 1.2721819694	 3.1499796701	 3.9742356664	 0.135938
H	 1.6991651379	 2.8214229264	 2.2888827046	 0.131829
H	 0.3174672026	 3.8799797194	 2.6611129006	 0.14126
H	-0.9290310741	 2.003853397	 3.657165091	 0.133477
H	 1.6257982636	-1.3066278293	 4.1797957991	 0.201616
H	 0.9670111434	 0.8347540861	 0.5622407193	 0.136506
H	-0.255824011	-0.330059724	 0.9792549391	 0.130948
H	-1.7917105555	 0.6432717301	-0.7907190337	 0.107098
H	-0.5601274712	 1.8322181347	-1.1923676298	 0.125125
H	-0.2756324644	-0.9497201173	-1.5165153067	 0.281347
23.695	70.86	96.019	105.7367	175.0227	213.5083	226.8736	248.9611	296.8262	332.5481	403.3273	480.0007	525.6035	576.2882	610.1798	634.5188	652.0874	786.3881	808.6721	889.4961	966.6463	1004.3011	1042.397	1072.4549	1086.4313	1107.9051	1138.6122	1171.9135	1274.839	1297.6653	1321.1891	1327.4232	1395.8861	1400.2055	1418.6784	1443.3371	1494.0539	1497.1454	1505.3405	1801.5507	2233.365	3019.5506	3025.2035	3046.1967	3049.7107	3058.3831	3098.7477	3125.915	3137.1642	3501.9094	3817.6841
CC(C#C)C(=O)CCO	C[C@H](C#C)C(=O)CCO	
InChI=1S/C7H10O2/c1-3-6(2)7(9)4-5-8/h1,6,8H,4-5H2,2H3	InChI=1S/C7H10O2/c1-3-6(2)7(9)4-5-8/h1,6,8H,4-5H2,2H3/t6-/m1/s1
