19
gdb 1412	2.2948543	1.8772227	1.6234754	0.7229	73.8	-0.22244	0.06806	0.2905	958.2327	0.154662	-422.50536	-422.496803	-422.495859	-422.537553	33.768	
C	-0.0795655217	-0.2335048262	-0.0264822917	-0.474275
C	 1.4206796599	 0.0028397597	-0.0144415098	 0.390971
O	 2.0299357198	-0.4942362606	 1.1697549644	-0.480379
C	 1.9738655955	 1.3986980679	-0.2776734304	-0.157051
C	 2.0980323451	 1.4888596758	-1.8051247508	 0.079318
O	 1.5710383556	 0.2855942331	-2.3714878858	-0.329287
C	 2.2550160416	-0.4166130254	-1.2853548687	 0.371008
C	 2.6359626876	-1.8307517544	-1.5832629348	-0.533756
C	 3.1796682764	 0.8375176768	-1.0270632459	-0.199217
H	-0.5564625034	 0.2968576083	 0.8038151056	 0.12129
H	-0.5102255272	 0.1108669015	-0.9683499312	 0.141067
H	-0.3097988309	-1.3019934476	 0.0807446607	 0.100204
H	 1.6807810677	-1.3782709868	 1.3256147944	 0.276333
H	 1.9265956707	 2.2651547287	 0.3696941009	 0.090407
H	 2.0492153987	 2.4066896762	-2.3756907053	 0.109923
H	 3.1120733659	-2.280020832	-0.706558236	 0.127765
H	 1.7474684873	-2.417338738	-1.8423600277	 0.130408
H	 3.3334765662	-1.8816693042	-2.4237889158	 0.1347
H	 4.2445847151	 0.9902741373	-0.9288147521	 0.100571
179.2103	201.4742	212.8561	233.1766	241.1307	297.9714	323.5281	382.196	427.2886	535.6657	598.5717	638.7498	653.905	778.6123	793.5906	800.9556	809.829	859.0069	908.7247	946.832	955.1582	993.3648	1028.5323	1034.2155	1050.8995	1115.9539	1121.7537	1134.1387	1167.9108	1185.5391	1200.6582	1273.1135	1332.5977	1367.9591	1389.0599	1404.5581	1413.9404	1480.2525	1486.6341	1490.7739	1500.1599	3019.6373	3036.4407	3089.4511	3106.3237	3119.159	3139.6815	3198.101	3206.2259	3223.6335	3805.4743
CC1(O)C2C3OC1(C)C23	C[C@]1(O)[C@@H]2[C@@H]3O[C@@]1(C)[C@H]23	
InChI=1S/C7H10O2/c1-6(8)3-4-5(3)9-7(4,6)2/h3-5,8H,1-2H3	InChI=1S/C7H10O2/c1-6(8)3-4-5(3)9-7(4,6)2/h3-5,8H,1-2H3/t3-,4+,5-,6-,7-/m0/s1
