19
gdb 1396	3.4241751	0.6807145	0.5885669	2.9188	78.95	-0.25685	-0.02814	0.22871000000000002	1848.6708	0.151908	-422.517653	-422.506741	-422.505797	-422.555353	36.834	
C	 3.1965464873	-2.5075350266	-0.2592449757	-0.396912
C	 1.7991756177	-2.1897369223	-0.8270125114	-0.167364
C	 1.081193525	-1.1568516654	 0.0526877328	-0.044031
O	-0.1093197382	-0.7608631711	-0.5906848346	-0.245335
C	-0.891255917	 0.1278814131	 0.1623102326	-0.144456
C	-2.1516598823	 0.4355006152	-0.6283756925	 0.139065
O	-2.9869591284	 1.2214815876	-0.2693568597	-0.237486
C	 1.0000503774	-3.4044783499	-0.9770157786	 0.347876
C	 0.3669069109	-4.4210090975	-1.0777914595	-0.486071
H	 3.1202484232	-2.9380103021	 0.7437781928	 0.129873
H	 3.7123702491	-3.2295472008	-0.8958841446	 0.134461
H	 3.8042647153	-1.5991310949	-0.2024796689	 0.11757
H	 1.9189273736	-1.729971728	-1.8169764187	 0.118285
H	 0.8623417386	-1.592278991	 1.0409401518	 0.099665
H	 1.741797289	-0.2877746169	 0.2081130016	 0.090959
H	-1.1839118307	-0.303141529	 1.1354245721	 0.124111
H	-0.3641215521	 1.0732017388	 0.375482147	 0.121098
H	-2.2333943592	-0.1417744086	-1.5752641872	 0.100849
H	-0.2018507092	-5.3118363006	-1.1799402292	 0.197844
39.1744	57.0772	81.1943	106.8878	127.2185	184.1234	208.911	250.5077	265.8505	327.6436	433.3264	527.9138	543.5847	599.8227	630.2182	641.4533	740.6351	805.1372	928.4352	960.5612	1014.2083	1058.6709	1102.4037	1110.7478	1123.2718	1174.0639	1180.9467	1234.5676	1258.8796	1299.9575	1344.3823	1364.397	1395.8642	1407.4709	1429.9241	1480.018	1492.3941	1500.462	1519.8773	1845.4081	2238.0502	2904.5922	2956.1175	2965.9238	2988.2362	2997.9701	3027.6997	3042.8789	3114.0675	3129.9841	3504.7624
CC(COCC=O)C#C	C[C@H](COCC=O)C#C	
InChI=1S/C7H10O2/c1-3-7(2)6-9-5-4-8/h1,4,7H,5-6H2,2H3	InChI=1S/C7H10O2/c1-3-7(2)6-9-5-4-8/h1,4,7H,5-6H2,2H3/t7-/m0/s1
