19
gdb 4573	3.2633957	1.0602435	0.8903087	1.0299	76.49	-0.25192	0.0531	0.30501999999999996	1315.0264	0.156549	-422.528127	-422.519008	-422.518064	-422.562488	33.648	
O	 5.2690772073	-0.9743002498	 0.088451954	-0.433636
C	 4.6694548234	-0.8295681785	-1.1901640711	 0.108281
C	 4.8371846635	-2.1045878414	-2.0142252446	-0.120893
O	 3.8949320967	-2.9910093807	-1.4191564228	-0.266843
C	 2.6984109228	-2.2325626397	-1.1949697929	-0.091053
C	 3.1224772899	-0.7385871633	-1.1239884935	-0.037882
C	 2.5928600048	 0.0205941477	 0.1047091219	-0.369565
C	 1.1356946617	 0.0620343416	 0.1523918195	 0.288555
C	-0.0664136341	 0.0781487872	 0.1679583592	-0.438663
H	 5.0789179225	-1.8746862957	 0.3810165174	 0.288793
H	 5.1209650246	 0.055271497	-1.6459293041	 0.087234
H	 4.6141411305	-1.9299782017	-3.0795124542	 0.091852
H	 5.8321553403	-2.5467710178	-1.9228771648	 0.117026
H	 1.9836969582	-2.4064943189	-2.009552016	 0.105929
H	 2.244976776	-2.5907623983	-0.2659157631	 0.116576
H	 2.7737750892	-0.2225245437	-2.0244524709	 0.090347
H	 2.986919035	-0.4464598796	 1.0137206217	 0.135586
H	 2.9907907357	 1.0429670563	 0.0987900176	 0.133566
H	-1.1274711378	 0.1016272793	 0.1966291466	 0.19479
65.1562	78.924	116.925	194.2831	242.7876	328.315	350.3902	398.6916	447.2345	485.4793	519.3787	621.7879	640.4585	710.5587	787.4105	830.7463	884.7975	893.0394	930.2367	953.01	975.4269	1008.6827	1067.2906	1078.6632	1121.6122	1138.1878	1208.5734	1224.4514	1247.4375	1254.8976	1273.8953	1313.1801	1334.303	1364.929	1370.3475	1399.535	1431.2339	1467.1122	1503.4604	1522.0119	2237.0643	2974.6204	3017.7956	3032.9548	3050.3459	3073.6505	3084.4934	3090.3822	3105.5207	3507.0124	3776.3189
OC1COCC1CC#C	O[C@H]1COC[C@H]1CC#C	
InChI=1S/C7H10O2/c1-2-3-6-4-9-5-7(6)8/h1,6-8H,3-5H2	InChI=1S/C7H10O2/c1-2-3-6-4-9-5-7(6)8/h1,6-8H,3-5H2/t6-,7+/m1/s1
