19
gdb 2483	3.0539514	1.3291848	1.1136593	2.6592	77.79	-0.23598	-0.02259	0.21339	1139.3315	0.156551	-422.563724	-422.555161	-422.554217	-422.596606	32.086	
C	-1.0613750102	 0.8387412145	 0.1681000864	-0.481982
C	-0.5657060973	 0.3982126594	-1.1772061696	 0.447201
O	-1.2684289464	 0.9909112638	-2.2331314713	-0.287222
C	-1.1089289637	 0.1968351459	-3.4138300933	-0.096278
C	-0.7096216571	-1.2203410935	-2.9459744921	-0.258486
C	-0.1198520283	-0.9573682993	-1.5728526131	-0.114004
C	 0.950139109	 0.1369098335	-1.474848405	-0.208296
C	 1.9130269441	 0.0665859374	-0.3640314389	 0.124475
O	 1.7523824149	-0.567370942	 0.6582022937	-0.281839
H	-0.468114857	 0.3850342047	 0.962185503	 0.159669
H	-1.0066425485	 1.9278872159	 0.2578351757	 0.128984
H	-2.1076493881	 0.5411794355	 0.2897048014	 0.12598
H	-2.0514671909	 0.2262649482	-3.9666512814	 0.116573
H	-0.3307618698	 0.6354942011	-4.0523170306	 0.106528
H	-1.5874068348	-1.866673295	-2.8425971102	 0.117309
H	-0.0191705711	-1.7008535145	-3.6447838294	 0.113081
H	-0.0361615886	-1.7504346171	-0.8387661473	 0.118588
H	 1.3284237628	 0.5829213518	-2.3888331913	 0.092541
H	 2.840120151	 0.6620839397	-0.5166536068	 0.077178
126.5118	168.9427	203.3957	214.0019	214.9765	234.9529	328.5904	351.8378	419.8449	619.5843	653.8571	682.6779	720.2737	798.9579	869.0359	896.6067	922.9244	951.5023	966.2395	1022.5404	1036.9443	1045.5898	1087.7718	1099.929	1105.3951	1124.2507	1214.4243	1217.0169	1235.7168	1262.3513	1322.3037	1340.1173	1393.5503	1409.1743	1429.8046	1445.0646	1491.2176	1492.7437	1502.2131	1527.7382	1783.3946	2884.2076	3013.9935	3046.7758	3050.0181	3087.2763	3100.2287	3107.3886	3157.4643	3167.2072	3187.5195
CC12OCCC1C2C=O	C[C@]12OCC[C@H]1[C@@H]2C=O	
InChI=1S/C7H10O2/c1-7-5(2-3-9-7)6(7)4-8/h4-6H,2-3H2,1H3	InChI=1S/C7H10O2/c1-7-5(2-3-9-7)6(7)4-8/h4-6H,2-3H2,1H3/t5-,6-,7-/m0/s1
