19
gdb 4056	2.6892811	1.8593772	1.3444584	1.6594	73.99	-0.23551	0.07342	0.30893	992.9678	0.156377	-422.504693	-422.496852	-422.495907	-422.536501	31.062	
C	 0.4687903994	 0.6375581328	 0.2958718723	-0.403795
C	 0.8091899757	-0.7001285589	-0.3429948684	 0.068624
O	 2.1141586334	-0.6312757439	-0.9776034902	-0.289545
C	 2.8159917901	-1.6790889874	-0.3699736908	 0.094515
C	 1.9047488526	-2.9161232036	-0.1373090739	-0.029972
O	 2.6244825181	-3.2476690984	 1.0949756553	-0.320011
C	 2.4796201014	-1.7896629779	 1.144293276	-0.025305
C	 1.0017879962	-1.8752569564	 0.6157710153	 0.305659
C	-0.1178765388	-2.3370503681	 1.5115431208	-0.51606
H	 1.1728210122	 0.8807173036	 1.0979706257	 0.119449
H	 0.5172011764	 1.4329783182	-0.4528341744	 0.131105
H	-0.543239327	 0.6226287349	 0.713139046	 0.118923
H	 0.0657244171	-0.9429511024	-1.1155528406	 0.081191
H	 3.8341410063	-1.7779426043	-0.7393104385	 0.101651
H	 1.6187495477	-3.7311271886	-0.8029504642	 0.089888
H	 2.8852082874	-1.2631407857	 2.0084358862	 0.090704
H	-0.4319303549	-1.5474991435	 2.2022345146	 0.121997
H	-0.995641521	-2.6373482868	 0.9282093511	 0.119027
H	 0.2164809975	-3.1959622737	 2.0998552875	 0.141957
136.275	217.1964	231.3512	248.2077	283.9016	322.9091	443.32	482.7622	509.2792	663.6729	677.1123	705.7729	784.207	811.4948	841.8466	882.9844	887.8902	904.021	942.6122	1011.4824	1045.2174	1073.6359	1083.0933	1105.131	1119.7104	1139.7606	1160.9981	1177.278	1199.2522	1244.4594	1253.2507	1291.6522	1325.2893	1370.2432	1386.5552	1406.3054	1408.9869	1486.7339	1490.0442	1495.5061	1500.131	3003.1668	3032.1538	3038.6583	3092.9913	3110.003	3113.3799	3117.3008	3118.1493	3119.3922	3161.9066
CC1OC2C3OC2C13C	C[C@H]1O[C@@H]2[C@H]3O[C@@H]2[C@@]13C	
InChI=1S/C7H10O2/c1-3-7(2)5-4(8-3)6(7)9-5/h3-6H,1-2H3	InChI=1S/C7H10O2/c1-3-7(2)5-4(8-3)6(7)9-5/h3-6H,1-2H3/t3-,4-,5-,6+,7+/m1/s1
