19
gdb 5810	1.9478208	1.6695593	1.0267607	1.7106	77.47	-0.24102	-0.0268	0.21422000000000002	1194.5352	0.155464	-422.563239	-422.553985	-422.553041	-422.598473	32.638	
C	 1.5755171442	-0.0771062037	 0.1167996569	-0.238344
O	 0.1839269972	 0.1252893662	-0.0067020626	-0.247314
C	-0.3960604787	 0.820520427	 1.0791540501	 0.116737
C	-1.9325867491	 0.6440434047	 1.0234333093	-0.298092
C	-2.4778627766	 2.0330733828	 1.2181092979	-0.068262
C	-1.5255888351	 2.9628810962	 1.2131424503	-0.091607
C	-0.1463581272	 2.3581188955	 1.0426033711	-0.147218
C	 0.8362600194	 2.8753436568	 2.0776782201	 0.148568
O	 1.4975182116	 2.1884615323	 2.8136926708	-0.244056
H	 1.8248321556	-0.6323576217	 1.0327417711	 0.116115
H	 1.891800915	-0.6584755726	-0.7527771462	 0.123474
H	 2.1379371006	 0.8680798931	 0.132136138	 0.105215
H	 0.0076477332	 0.4306716955	 2.0229127147	 0.094401
H	-2.2074012955	 0.2380638725	 0.0418013792	 0.126993
H	-2.2978795845	-0.067620766	 1.7717470477	 0.11147
H	-3.538817857	 2.2353854204	 1.315801702	 0.101525
H	-1.683281153	 4.0320034506	 1.305350984	 0.100289
H	 0.2715835554	 2.6459822545	 0.0628736511	 0.111851
H	 0.9146012645	 3.9868402458	 2.1153388945	 0.078255
37.8873	75.3716	95.5666	187.9845	189.7442	245.6869	291.9296	410.2104	418.5349	475.0717	602.4309	663.2922	734.3988	770.078	816.6966	909.6788	965.3176	974.3435	993.2325	1022.702	1053.7035	1055.1114	1093.815	1129.3689	1152.9703	1178.4128	1183.6456	1224.8936	1240.8349	1268.7755	1314.4525	1316.9595	1378.3841	1404.1937	1427.3533	1478.6647	1482.9726	1490.4095	1506.4563	1688.584	1826.5194	2860.3519	2970.2597	2985.5436	3019.6697	3033.4345	3034.3928	3069.7213	3114.0737	3181.3695	3206.3866
COC1CC=CC1C=O	CO[C@@H]1CC=C[C@H]1C=O	
InChI=1S/C7H10O2/c1-9-7-4-2-3-6(7)5-8/h2-3,5-7H,4H2,1H3	InChI=1S/C7H10O2/c1-9-7-4-2-3-6(7)5-8/h2-3,5-7H,4H2,1H3/t6-,7+/m0/s1
