19
gdb 2071	2.3921477	1.910111	1.3246581	2.3081	75.17	-0.23305	0.08208	0.31513	1017.1137	0.156232	-422.52919	-422.521032	-422.520087	-422.561482	31.799	
C	-1.2694839515	 0.9904326735	 2.2451203901	-0.505271
C	-0.9148740564	-0.0833795547	 1.2566749427	 0.321237
O	-0.5651550717	-1.3755165933	 1.8003602213	-0.293846
C	-1.7179496541	-1.2757413915	 0.9591734265	-0.044848
C	-1.4325792915	-1.6630033655	-0.4745762199	-0.123441
O	-0.2593235474	-0.9368813629	-0.8337207155	-0.303217
C	-0.1403719942	 0.197754275	-0.0020150102	 0.42404
C	 1.1568240363	 0.9320174247	-0.0756915102	-0.327623
C	-0.1011718776	 1.5585970883	-0.6530363177	-0.340903
H	-1.8138137793	 0.5536559439	 3.0851948381	 0.136516
H	-0.3682972733	 1.4710639052	 2.6417808601	 0.132159
H	-1.8930524995	 1.7633001779	 1.7864997988	 0.130411
H	-2.6806477148	-1.4884539597	 1.4175681976	 0.097072
H	-1.2184055173	-2.7282918008	-0.6070839331	 0.119354
H	-2.2910751545	-1.3925736058	-1.1105018203	 0.095485
H	 1.5705707364	 1.3448575084	 0.8380220227	 0.118136
H	 1.8904440219	 0.5431475388	-0.7723920015	 0.130174
H	-0.5362613769	 2.4122100875	-0.144572414	 0.110948
H	-0.1978500846	 1.570138951	-1.7326821254	 0.123617
104.44	187.5329	221.0169	227.986	266.3853	364.9993	379.325	445.7301	483.8581	579.071	620.7476	727.1601	765.4379	808.8035	856.5012	886.1778	903.835	933.6754	958.6733	975.4534	983.089	1043.454	1053.4006	1073.3681	1083.4038	1108.6283	1117.4473	1168.4245	1189.602	1230.4849	1278.5205	1291.096	1371.9654	1391.1374	1409.8892	1449.1354	1459.8087	1488.2588	1496.1834	1501.2887	1507.5232	2978.0143	3040.5051	3075.4976	3103.9588	3131.3537	3134.3223	3137.6989	3147.8131	3218.9897	3233.0103
CC12OC1COC21CC1	C[C@@]12O[C@@H]1COC12CC1	
InChI=1S/C7H10O2/c1-6-5(9-6)4-8-7(6)2-3-7/h5H,2-4H2,1H3	InChI=1S/C7H10O2/c1-6-5(9-6)4-8-7(6)2-3-7/h5H,2-4H2,1H3/t5-,6-/m1/s1
