19
gdb 1788	3.4011719	1.4247124	1.2114455	3.1799	74.52	-0.22681	-0.01709	0.20972000000000002	1069.246	0.157266	-422.578842	-422.57076	-422.569816	-422.611247	31.345	
C	-4.2286018844	-0.7339919777	 0.1799170175	-0.471669
C	-2.7482644609	-0.4446888318	 0.2511691287	 0.415192
C	-1.8473699218	-1.298562186	 1.1779325495	-0.294931
C	-0.8924769649	-1.2406401668	-0.0335474031	-0.014347
O	-2.0136148433	-0.9662243789	-0.9119315238	-0.32663
C	-0.0551569332	 0.0258792096	 0.0929557388	 0.400281
O	 1.1383830601	 0.0273379433	 0.2675694933	-0.319118
C	-0.9131181523	 1.2880187652	-0.0100863887	-0.31153
C	-2.3944971928	 1.0469491606	 0.3861075578	-0.264506
H	-4.7323185999	-0.3779168511	 1.0851563938	 0.122556
H	-4.6767735816	-0.2266069939	-0.6806042862	 0.130075
H	-4.4082756542	-1.8075433318	 0.0791193849	 0.125134
H	-1.5163720415	-0.8687512103	 2.1263989198	 0.110976
H	-2.2442335098	-2.3033928103	 1.3340991937	 0.114618
H	-0.3053684822	-2.1138125556	-0.3220246541	 0.096424
H	-0.4406819288	 2.0879693529	 0.5639986131	 0.125524
H	-0.8667380697	 1.5860247657	-1.0639513651	 0.145759
H	-2.5809453836	 1.3683537091	 1.4170176946	 0.108587
H	-3.052327035	 1.6415115176	-0.2554130043	 0.107606
86.2929	156.8672	199.5156	266.6591	332.0844	386.7472	425.7963	448.9664	458.0672	561.7662	631.6874	669.9638	732.7311	799.9958	844.0987	899.302	915.2488	934.9898	964.8644	999.5137	1015.6198	1031.14	1040.3544	1106.4166	1186.4804	1199.4977	1220.5147	1227.5999	1248.2005	1272.3127	1301.6759	1308.0808	1312.1735	1372.1388	1409.6811	1450.0986	1477.299	1484.2615	1492.4362	1497.9781	1832.2602	3034.7803	3041.4229	3049.5774	3066.7065	3082.1784	3105.4681	3109.832	3114.236	3119.3954	3129.7235
CC12CC(O1)C(=O)CC2	C[C@@]12C[C@@H](O1)C(=O)CC2	
InChI=1S/C7H10O2/c1-7-3-2-5(8)6(4-7)9-7/h6H,2-4H2,1H3	InChI=1S/C7H10O2/c1-7-3-2-5(8)6(4-7)9-7/h6H,2-4H2,1H3/t6-,7-/m1/s1
