19
gdb 2526	2.2617806	1.5212985	0.969857	5.3327	80.26	-0.25385	-0.0345	0.21935000000000002	1227.1761	0.157797	-422.599638	-422.591016	-422.590072	-422.633045	32.004	
C	 1.3828094156	 0.7705328417	 0.146596987	-0.460291
C	 0.0315735906	 0.1398361714	-0.0878060698	 0.269221
C	-0.1159895451	-1.1796414728	 0.1131200323	-0.253012
C	-1.2351379515	-2.1364842523	-0.0928219267	 0.384897
O	-0.9968301315	-3.3113731448	-0.2335590202	-0.337736
O	-2.5330510281	-1.7472798255	-0.1118940796	-0.228576
C	-2.9310230571	-0.4006315496	 0.1440024046	-0.072355
C	-2.3935533001	 0.5785137757	-0.8953403457	-0.233268
C	-1.0141891625	 1.1275246899	-0.5356240732	-0.282869
H	 1.3066655472	 1.5972875976	 0.8639086573	 0.129938
H	 2.1112074241	 0.0510233527	 0.5250743216	 0.133443
H	 1.7752832499	 1.2018176815	-0.7828123118	 0.134322
H	 0.7667839157	-1.7401076275	 0.4067312864	 0.111701
H	-4.0220533403	-0.4415170036	 0.1130874419	 0.124042
H	-2.6331699349	-0.1049242245	 1.1587539257	 0.110739
H	-2.3749060933	 0.065300712	-1.8631067134	 0.125412
H	-3.0899604016	 1.4179994257	-0.9979021332	 0.107591
H	-0.6086528587	 1.6986717226	-1.3819886008	 0.118067
H	-1.1199337185	 1.8689324399	 0.2713807377	 0.118733
80.283	139.2625	146.6724	209.4565	283.3922	302.0858	364.9854	408.2927	443.6332	505.5498	544.3679	653.8424	705.3401	789.8433	840.6203	873.1711	904.0539	919.576	977.1613	1041.8197	1044.3759	1077.2739	1107.7675	1128.0252	1139.0962	1218.7619	1264.2985	1284.1243	1313.2502	1355.1389	1384.207	1409.037	1416.0574	1424.4741	1463.4651	1480.0854	1480.978	1487.9486	1505.8108	1703.8404	1795.962	2994.4516	3022.7067	3023.0375	3028.2427	3044.3887	3070.9335	3084.9751	3104.1494	3129.5723	3171.1157
CC1=CC(=O)OCCC1	CC1=CC(=O)OCCC1	
InChI=1S/C7H10O2/c1-6-3-2-4-9-7(8)5-6/h5H,2-4H2,1H3	InChI=1S/C7H10O2/c1-6-3-2-4-9-7(8)5-6/h5H,2-4H2,1H3
