19
gdb 4271	2.5101969	1.5617771	1.4499895	2.8893	73.49	-0.23433	-0.01375	0.22058	1007.361	0.159443	-422.594612	-422.586833	-422.585889	-422.626814	30.444	
O	-3.0799235675	 1.4749710549	-1.3217980657	-0.436739
C	-1.815342609	 0.8510727232	-1.2476125744	 0.144753
C	-1.8586960674	-0.7204491121	-1.2508931921	-0.273036
C	-1.009750935	-1.1312568721	-0.0246139594	-0.10865
C	-1.7965777081	-0.7732663998	 1.2572017354	-0.227993
C	-1.7799227888	 0.799492798	 1.2801790589	-0.24064
C	-0.9757358124	 1.1841584112	 0.01871112	-0.140247
C	 0.0165925722	 0.0140534978	-0.0334123133	 0.414584
O	 1.2141126922	-0.0024068186	-0.081374121	-0.326886
H	-3.6612476428	 1.0742678949	-0.6676515579	 0.280007
H	-1.2806476165	 1.2154457037	-2.1291518336	 0.102633
H	-2.8919902203	-1.0757867428	-1.1692911474	 0.100435
H	-1.4503748657	-1.1231398665	-2.1815378673	 0.11646
H	-0.5942642301	-2.1370050599	-0.0545064313	 0.082471
H	-2.812035018	-1.1799097331	 1.2298972201	 0.099933
H	-1.3059831828	-1.1817728408	 2.1446334157	 0.114355
H	-2.7821633829	 1.2371206597	 1.2686034566	 0.097573
H	-1.2857588051	 1.1754669195	 2.1792324047	 0.116759
H	-0.5392094819	 2.1808425528	 0.023744842	 0.084227
90.8168	141.9903	227.5196	298.8786	311.9548	393.7263	448.4644	511.0094	539.4168	633.6114	708.7556	759.6808	781.9792	832.4215	866.0933	870.5497	879.4193	943.979	987.1491	1003.7394	1040.5593	1062.4017	1082.3078	1117.6776	1128.0754	1151.9627	1175.6706	1203.5764	1245.6374	1260.5759	1270.1718	1306.2781	1314.0887	1322.1158	1341.2323	1349.3729	1437.8713	1484.4269	1496.3824	1516.4551	1879.8601	3042.0568	3049.1228	3062.302	3068.2638	3087.0251	3097.5884	3106.7818	3133.8352	3141.7493	3817.9035
OC1CC2CCC1C2=O	O[C@@H]1C[C@@H]2CC[C@H]1C2=O	
InChI=1S/C7H10O2/c8-6-3-4-1-2-5(6)7(4)9/h4-6,8H,1-3H2	InChI=1S/C7H10O2/c8-6-3-4-1-2-5(6)7(4)9/h4-6,8H,1-3H2/t4-,5+,6+/m0/s1
