19
gdb 798	3.2586848	1.4012172	1.1779827	2.8937	74.68	-0.24816	-0.03532	0.21284	1083.8511	0.158112	-422.562667	-422.554797	-422.553852	-422.595101	30.235	
O	 0.5545877131	-1.0561333959	 0.4809056926	-0.24996
C	 0.6424614504	 0.0703346379	 0.0648858021	 0.086274
C	 0.3165947593	 1.3028453679	 0.8701115438	 0.322112
C	-0.9515147258	 2.0854255354	 0.4322139152	-0.280222
C	-0.0383738691	 3.2929373813	 0.7103177381	 0.098268
C	-0.0735296919	 3.6846185634	 2.1927930309	-0.224097
C	 0.5513192069	 2.5409618997	 3.0322000817	-0.194108
C	 0.3513689097	 1.14324305	 2.3951786254	-0.26895
O	 1.1311515143	 2.4467888213	 0.4702451336	-0.330651
H	 0.9525972439	 0.2969913283	-0.9797964651	 0.086419
H	-1.1675224792	 1.9643965176	-0.6316742146	 0.110894
H	-1.8573387088	 1.9546898456	 1.0270906823	 0.108675
H	-0.0735720058	 4.1441658491	 0.0262054721	 0.080848
H	 0.4861435389	 4.6102710762	 2.3600617537	 0.105856
H	-1.1121084492	 3.8864557218	 2.4816944242	 0.101306
H	 1.6261646599	 2.7258545211	 3.0925999199	 0.120824
H	 0.171825771	 2.5570249134	 4.0575417477	 0.098523
H	 1.1624541372	 0.4715700198	 2.6902010088	 0.116515
H	-0.5791903249	 0.6688595161	 2.7233679176	 0.111474
82.2474	159.0321	189.6653	229.6516	357.3364	396.8248	414.7615	442.1753	565.5052	627.8482	723.0894	764.0839	821.3964	843.6856	880.442	915.8394	928.6852	941.2845	979.7951	993.9172	1029.9073	1044.9292	1091.4706	1110.1029	1167.9764	1194.4679	1224.2931	1236.8	1248.2409	1274.5498	1315.1516	1338.2674	1350.5223	1365.4308	1382.8546	1403.972	1478.5441	1488.5214	1490.0524	1506.4348	1828.8169	2889.1521	3034.7463	3052.5138	3063.7872	3066.9744	3075.27	3085.9221	3090.8082	3111.5924	3132.1567
O=CC12CC(CCC1)O2	O=C[C@@]12C[C@@H](CCC1)O2	
InChI=1S/C7H10O2/c8-5-7-3-1-2-6(4-7)9-7/h5-6H,1-4H2	InChI=1S/C7H10O2/c8-5-7-3-1-2-6(4-7)9-7/h5-6H,1-4H2/t6-,7+/m1/s1
