19
gdb 2607	2.260131	1.6848343	1.2529406	2.5865	75.58	-0.24713	-0.0262	0.22093	1071.5923	0.155705	-422.550327	-422.541409	-422.540465	-422.583732	33.398	
C	-3.1257395786	 0.0591150317	-1.2212511315	-0.47738
C	-2.1939232567	 0.1724239272	-0.0396613968	 0.292378
C	-2.6840363051	 0.7301575363	 1.3160634444	-0.275333
C	-1.3448802318	 1.5043688496	 1.4831364381	-0.243601
C	-0.9457202395	 1.1797480626	 0.0084278181	-0.186829
C	-0.0802247753	-0.0370517544	-0.2200073965	 0.353515
O	 0.9089641313	-0.2367129033	-0.8766972211	-0.329012
C	-1.1845770506	-1.0349441288	 0.1551701465	 0.009524
O	-1.2686437021	-2.1439545994	-0.6911887897	-0.435219
H	-3.8912605536	-0.7026411238	-1.0366178395	 0.130782
H	-3.6311064667	 1.0106859846	-1.414983762	 0.113637
H	-2.5879033661	-0.2370459619	-2.1266874297	 0.124171
H	-3.5352875771	 1.4066698334	 1.1980640914	 0.106146
H	-2.9357760498	-0.0104179538	 2.0814322369	 0.102682
H	-1.4503811146	 2.5725166694	 1.678018214	 0.117539
H	-0.6633363416	 1.0912216202	 2.2307271566	 0.114544
H	-0.7977423242	 2.0233883434	-0.6663276018	 0.09096
H	-1.1660864246	-1.3621305139	 1.2035162975	 0.094448
H	-0.4934154132	-2.1088314092	-1.2683908951	 0.297047
68.3254	167.7337	183.0874	205.5871	236.606	289.905	320.9726	338.1541	409.6408	453.4709	592.3281	660.1743	694.1795	754.714	798.6526	817.8019	847.0105	908.7942	938.9458	955.6956	1004.7832	1043.0044	1083.2682	1113.86	1133.087	1166.1379	1205.5562	1211.8468	1229.3633	1250.8246	1267.2733	1283.064	1318.6877	1343.7126	1404.1038	1415.4331	1477.8631	1484.4685	1489.6731	1495.328	1846.4136	3010.2722	3032.9655	3047.5775	3069.473	3095.1804	3098.5994	3109.8876	3111.7754	3127.9207	3745.9458
CC12CCC1C(=O)C2O	C[C@]12CC[C@H]1C(=O)[C@@H]2O	
InChI=1S/C7H10O2/c1-7-3-2-4(7)5(8)6(7)9/h4,6,9H,2-3H2,1H3	InChI=1S/C7H10O2/c1-7-3-2-4(7)5(8)6(7)9/h4,6,9H,2-3H2,1H3/t4-,6-,7-/m0/s1
