19
gdb 2831	3.179596	1.2483302	1.0340817	1.5623	76.57	-0.25057	0.06859	0.31916	1199.7871	0.1551	-422.504548	-422.495732	-422.494788	-422.537585	33.619	
C	 3.0587444507	 1.0038183134	 1.1197666437	-0.433024
C	 2.1518086328	-0.118998521	 0.6631236295	-0.071373
C	 2.5626497662	-1.5367623643	 1.0398659153	-0.225927
C	 2.6601392185	-1.0458794925	-0.4071091036	 0.384317
O	 3.8277170936	-0.8239602539	-1.1145566441	-0.458973
C	 1.5614817576	-2.0265393506	-0.855254944	-0.403674
C	 1.485201103	-2.4995947883	 0.6123298697	 0.476298
C	 1.1665884037	-3.8280637014	 1.1281701739	-0.272994
O	 0.2758251983	-2.7184731714	 1.3245685247	-0.277407
H	 2.8462334279	 1.2813785965	 2.1570895846	 0.123523
H	 4.1110788541	 0.7156458216	 1.0501879362	 0.130923
H	 2.9180395973	 1.898742303	 0.5027785393	 0.112533
H	 1.0887293102	 0.1191277909	 0.6809107312	 0.089272
H	 3.3465946391	-1.7207043924	 1.7648675301	 0.093116
H	 3.6822078101	-0.0870268796	-1.7186911505	 0.28826
H	 0.6479819061	-1.5930621767	-1.2749213425	 0.103259
H	 1.9457547231	-2.8003631688	-1.5248728581	 0.114796
H	 0.8094271015	-4.6018523217	 0.4488602467	 0.112946
H	 1.6591154662	-4.1946726927	 2.0285634279	 0.114128
99.8513	181.5189	199.366	210.008	257.4898	286.5732	316.5233	392.842	424.8589	438.7777	496.2577	591.2589	690.2401	773.1033	804.7227	837.1082	899.8823	942.1562	949.6999	970.6488	1003.6301	1037.383	1062.6728	1102.7875	1123.9341	1139.9353	1143.3046	1156.9929	1170.2322	1216.967	1224.9348	1244.5093	1304.012	1370.6233	1413.8545	1432.1677	1444.2998	1482.907	1494.1712	1506.6558	1540.0875	3032.1527	3047.4011	3074.4661	3090.5143	3100.9251	3108.5918	3121.3871	3159.3817	3186.6922	3789.0651
CC1C2C1(O)CC21CO1	C[C@@H]1[C@@H]2[C@@]1(O)C[C@]12CO1	
InChI=1S/C7H10O2/c1-4-5-6(3-9-6)2-7(4,5)8/h4-5,8H,2-3H2,1H3	InChI=1S/C7H10O2/c1-4-5-6(3-9-6)2-7(4,5)8/h4-5,8H,2-3H2,1H3/t4-,5+,6-,7-/m1/s1
