19
gdb 4936	2.0649638	1.5288643	1.1421434	3.2926	77.27	-0.24087	-0.0332	0.20767	1147.2596	0.156091	-422.579388	-422.570146	-422.569202	-422.61435	33.299	
O	 0.3998408516	-0.9864636563	-0.4699673708	-0.426932
C	 0.7159824405	 0.3052467459	 0.0195810269	-0.106325
C	-0.2338156935	 0.7569763461	 1.1454638993	 0.145063
C	-1.7459663703	 0.6469497472	 0.7557651047	-0.2846
C	-2.465445793	-0.0816715818	 1.9232542759	-0.257318
C	-1.3314917557	-0.5901611566	 2.7751431631	-0.061708
C	-0.1442512188	-0.1426554248	 2.3688692467	-0.145296
C	 0.0969235587	 2.1813786169	 1.5719050267	 0.129432
O	 1.031600592	 2.8272823987	 1.172476442	-0.259428
H	 0.4087758512	-1.5923718541	 0.2796133756	 0.280875
H	 1.7541158983	 0.3623623619	 0.3752805599	 0.102626
H	 0.6321962031	 0.9852270889	-0.8327168781	 0.120584
H	-2.1879982179	 1.6253330942	 0.5465470811	 0.105727
H	-1.807106118	 0.0539667464	-0.1589167846	 0.136766
H	-3.1081096852	 0.5955790486	 2.5009127555	 0.115022
H	-3.1180468803	-0.8898102363	 1.5730407209	 0.114182
H	-1.4891359539	-1.2334047925	 3.6347275214	 0.105304
H	 0.8072779513	-0.350377997	 2.848405024	 0.107173
H	-0.6167568502	 2.6014489946	 2.3187819999	 0.078852
35.0929	72.1485	132.8071	188.1678	221.5605	282.2846	323.6746	372.823	393.3329	446.9857	587.9352	665.9008	726.4014	768.3772	793.8663	827.7259	890.4739	939.675	969.5547	983.9584	998.7538	1013.0228	1079.3542	1091.1526	1115.5101	1132.8656	1166.3826	1216.7133	1242.2942	1272.5937	1312.1561	1320.7296	1368.4693	1382.4292	1415.1474	1425.8107	1475.9697	1494.6688	1499.8552	1677.7051	1820.197	2857.6793	3010.6698	3022.0628	3053.2064	3062.8742	3093.6652	3116.8416	3174.2551	3200.2176	3795.2933
OCC1(CCC=C1)C=O	OC[C@]1(CCC=C1)C=O	
InChI=1S/C7H10O2/c8-5-7(6-9)3-1-2-4-7/h1,3,5,9H,2,4,6H2	InChI=1S/C7H10O2/c8-5-7(6-9)3-1-2-4-7/h1,3,5,9H,2,4,6H2/t7-/m1/s1
