19
gdb 1588	2.238613	1.7989939	1.2841891	3.0542	78.03	-0.23174	-0.05496	0.17678	1055.028	0.155769	-422.588483	-422.579585	-422.578641	-422.621603	33.621	
C	-1.127515291	 1.7372157964	 1.488551141	-0.426706
C	-0.8743117663	 1.2998010718	 0.0338844633	 0.235096
C	-0.1752982368	 2.4015036027	-0.7579016308	-0.410039
O	-2.1056381539	 1.0547664436	-0.6624582938	-0.28947
C	-2.8673877824	-0.0487476311	-0.2343800919	-0.134246
C	-2.0598780475	-1.2977906733	-0.0652689274	-0.066998
C	-0.7262364213	-1.2602087077	 0.0179778883	-0.146348
C	-0.0050173144	 0.0257434728	 0.0557084739	 0.354269
O	 1.2027353005	 0.0856231767	 0.1746487975	-0.342157
H	-1.6096377202	 0.9498120441	 2.0762925289	 0.117207
H	-0.1783618213	 1.9799127115	 1.9731872064	 0.139112
H	-1.7695119297	 2.6227547582	 1.4995097083	 0.124803
H	 0.8269798092	 2.5658156725	-0.3599707501	 0.139376
H	-0.0915535137	 2.1124604633	-1.8086453955	 0.124282
H	-0.7514377031	 3.3287043363	-0.6982195644	 0.114836
H	-3.4107916009	 0.1629168499	 0.7056494267	 0.111003
H	-3.6359777699	-0.2006495228	-1.0017717812	 0.128138
H	-2.6053835678	-2.2369235426	-0.0045772351	 0.114742
H	-0.1175320593	-2.153058792	 0.1191179459	 0.113101
75.4233	187.8029	208.5698	223.0608	247.3423	299.6179	335.5028	345.6907	399.5512	474.0445	504.973	533.2396	651.5241	668.38	809.1518	828.6981	835.3208	921.8062	940.0339	955.2116	1010.031	1014.9889	1043.8668	1102.7126	1156.9455	1180.5139	1193.6896	1226.7002	1263.4998	1308.2101	1386.1005	1391.7155	1406.6191	1407.9331	1473.5323	1478.2529	1484.7862	1495.494	1509.7996	1688.979	1774.4661	2934.4437	3041.0498	3050.333	3054.2824	3111.488	3125.194	3127.8311	3152.1438	3156.0181	3191.035
CC1(C)OCC=CC1=O	CC1(C)OCC=CC1=O	
InChI=1S/C7H10O2/c1-7(2)6(8)4-3-5-9-7/h3-4H,5H2,1-2H3	InChI=1S/C7H10O2/c1-7(2)6(8)4-3-5-9-7/h3-4H,5H2,1-2H3
