19
gdb 4989	2.4460041	1.285896	0.9486768	3.5719	77.28	-0.24065	-0.00914	0.23151	1257.5461	0.155521	-422.549118	-422.539886	-422.538942	-422.583179	34.057	
C	-2.9310179222	-1.933382821	-1.5931037318	-0.434661
C	-1.9093654824	-0.8765980482	-1.2255711078	-0.058538
C	-0.9932206601	-1.1969458598	-0.0391084207	-0.247527
C	 0.0870593091	-0.1646057873	 0.0528551868	 0.426415
O	 1.2667997767	-0.2171649653	 0.2577131775	-0.320341
C	-0.9283782848	 1.0079635923	 0.0161543064	-0.416502
C	-2.0490703636	-0.0512953713	 0.0135265456	 0.304456
C	-3.275231053	 0.0593618978	 0.8733667224	-0.177326
O	-4.1066740863	 1.1428542266	 0.4770528611	-0.408852
H	-3.338575201	-2.4357510704	-0.7112698611	 0.127016
H	-3.7682965223	-1.4970407628	-2.1491306674	 0.120905
H	-2.4762679221	-2.6997753648	-2.228340034	 0.135023
H	-1.4513062485	-0.3975708468	-2.0899948079	 0.094692
H	-0.9986617512	-2.1862376627	 0.4039614101	 0.106421
H	-0.8709923421	 1.5866128622	 0.9430656932	 0.134786
H	-0.8902532778	 1.6934339507	-0.8351579338	 0.119132
H	-3.8296422853	-0.8903489926	 0.886289215	 0.093026
H	-2.9875033299	 0.2788091184	 1.907260535	 0.117941
H	-4.3807043431	 0.983074585	-0.4319494685	 0.283935
76.5524	100.9724	160.0704	219.5062	243.3559	257.1032	296.9021	367.3555	394.8586	458.7341	492.4707	539.7104	643.367	713.9526	780.3154	841.2179	916.7359	933.4359	941.7275	976.1884	1028.4025	1049.3679	1055.4563	1082.92	1110.7198	1125.7451	1145.8789	1188.7754	1206.6799	1223.4931	1269.8003	1359.0245	1377.3745	1417.6303	1421.8402	1428.5801	1459.9688	1491.0161	1500.9927	1508.4908	1880.9186	2998.7211	3034.7137	3057.2107	3069.9829	3095.9785	3101.0892	3111.2895	3118.9264	3186.7981	3815.0043
CC1C2C(=O)CC12CO	C[C@@H]1[C@H]2C(=O)C[C@@]12CO	
InChI=1S/C7H10O2/c1-4-6-5(9)2-7(4,6)3-8/h4,6,8H,2-3H2,1H3	InChI=1S/C7H10O2/c1-4-6-5(9)2-7(4,6)3-8/h4,6,8H,2-3H2,1H3/t4-,6+,7-/m1/s1
