19
gdb 4922	2.6569862	0.9989828	0.8231775	2.009	78.27	-0.25609	0.02635	0.28243999999999997	1432.412	0.153637	-422.488269	-422.478226	-422.477282	-422.52425	36.2	
O	-3.2024569409	 2.1717942465	-2.303982093	-0.422669
C	-1.9772213475	 1.4991311915	-2.5202681065	-0.113504
C	-1.0753476185	 1.5999946375	-1.3095905513	 0.417394
C	 0.4195301724	 1.4649556145	-1.4319066264	-0.332425
C	-0.2131093124	 2.8064562815	-1.1136489953	-0.307833
O	-1.6963065729	 1.1389764892	-0.129062271	-0.304131
C	-1.7427268258	-0.2817358821	-0.0049371277	-0.234114
C	-2.3421737857	-0.634414848	 1.27410906	 0.286076
C	-2.8367659354	-0.9510835424	 2.3213597782	-0.420677
H	-3.4563304487	 1.9777931859	-1.3933830091	 0.28972
H	-2.1474457796	 0.4403470443	-2.7807603715	 0.084142
H	-1.4917952202	 1.9652993186	-3.38395009	 0.105548
H	 0.9441977774	 0.965008462	-0.6253435811	 0.122553
H	 0.8474256835	 1.3056534301	-2.4161102627	 0.118572
H	-0.1128143323	 3.1698416614	-0.0978779046	 0.129348
H	-0.2291500467	 3.5742713818	-1.8787894726	 0.122269
H	-2.3287977411	-0.7308083908	-0.8204567058	 0.129131
H	-0.727677983	-0.6999478225	-0.0737093772	 0.126885
H	-3.2739949125	-1.2264974392	 3.2491867875	 0.203715
28.7648	71.785	127.0376	146.6416	214.7868	248.5057	322.3602	329.0799	355.6482	400.4518	441.0535	505.702	576.5201	612.8711	678.7663	764.8798	777.398	902.98	913.5822	925.8603	966.8221	1006.323	1033.4408	1050.5768	1059.9996	1073.5584	1078.7978	1083.422	1186.7133	1198.7619	1249.0304	1292.1588	1340.4163	1360.6136	1403.7342	1443.2946	1454.6578	1496.9393	1500.7204	1513.6979	2248.7623	2955.2734	2989.6508	3014.8308	3071.3513	3132.8198	3143.8349	3217.2947	3236.9639	3505.6971	3783.3195
OCC1(CC1)OCC#C	OCC1(CC1)OCC#C	
InChI=1S/C7H10O2/c1-2-5-9-7(6-8)3-4-7/h1,8H,3-6H2	InChI=1S/C7H10O2/c1-2-5-9-7(6-8)3-4-7/h1,8H,3-6H2
