19
gdb 760	2.1704188	1.584109	1.1003074	1.9798	75.25	-0.2408	-0.03697	0.20382999999999998	1139.2309	0.157619	-422.610048	-422.601544	-422.6006	-422.643808	31.628	
O	-3.090772544	 1.9263356784	-0.0016695408	-0.304577
C	-2.1625306442	 1.4013327982	 0.5669614667	 0.373629
C	-2.3399744673	 0.7139841269	 1.9144038353	-0.288748
C	-2.6678830561	-0.7873840906	 1.7296219198	-0.198117
C	-1.494192858	-1.6602271802	 1.2623761276	-0.19815
C	-0.8413116838	-1.2272321208	-0.072574597	-0.288795
C	-0.0242070547	 0.045070358	 0.1092748255	 0.37367
O	 1.1514824705	 0.0067956557	 0.3865180019	-0.304526
C	-0.7632878646	 1.3739926901	-0.0478662097	-0.392034
H	-1.4374509762	 0.8250501613	 2.5280702834	 0.112889
H	-3.1726919554	 1.2057472519	 2.4233506458	 0.126527
H	-3.0329556289	-1.1783068073	 2.6853457191	 0.110082
H	-3.5012730101	-0.8726360927	 1.0213582105	 0.119064
H	-0.7154002446	-1.6826811182	 2.0346669825	 0.119035
H	-1.8495421859	-2.6902413214	 1.1514615235	 0.110105
H	-0.1557758194	-2.0086686352	-0.409719551	 0.126518
H	-1.6155883256	-1.084698624	-0.8365562793	 0.112966
H	-0.1476711305	 2.1536070177	 0.4144067199	 0.145224
H	-0.8631789613	 1.6105233223	-1.1130260935	 0.145241
51.8066	82.185	158.205	270.3211	290.6549	331.083	407.3999	429.6756	469.5031	522.4178	626.2193	629.8375	779.3267	786.1527	830.2416	856.7731	902.6353	923.486	955.0253	992.7454	1020.9248	1078.9549	1131.1068	1147.6871	1178.3417	1194.0631	1249.2676	1250.7093	1286.9969	1292.2594	1338.9361	1348.3393	1378.4863	1382.068	1432.5869	1476.5276	1478.2642	1489.9306	1496.3089	1797.6751	1823.2264	3030.3405	3031.3428	3034.9809	3035.8289	3045.3743	3072.3032	3081.296	3097.7733	3107.0861	3107.1848
O=C1CCCCC(=O)C1	O=C1CCCCC(=O)C1	
InChI=1S/C7H10O2/c8-6-3-1-2-4-7(9)5-6/h1-5H2	InChI=1S/C7H10O2/c8-6-3-1-2-4-7(9)5-6/h1-5H2
