19
gdb 3933	3.5787448	1.3407093	1.2706733	1.6294	75.04	-0.23821	0.07345	0.31166	1050.327	0.158613	-422.494794	-422.487568	-422.486623	-422.525965	29.815	
O	 0.3049181747	-0.0951096125	 0.3661995704	-0.431673
C	-0.8897756198	 0.4597011723	 0.8581768938	 0.086808
C	-2.1059495925	 0.1465633606	-0.0731553361	-0.344794
C	-2.5289102362	 1.6091677936	 0.1032155319	 0.270579
C	-3.0018292043	 2.0549086645	 1.543182043	-0.272161
C	-1.8857451212	 3.079886072	 1.3203378653	 0.063501
O	-2.4133056518	 3.8463696148	 0.192686491	-0.293213
C	-2.941013391	 2.8191290085	-0.708919721	-0.164174
C	-1.0849707773	 2.0012668852	 0.5671053783	-0.055148
H	 1.0239648649	 0.1739581801	 0.9477330651	 0.283086
H	-1.0607564633	 0.1662284804	 1.90077518	 0.074429
H	-1.7337761906	-0.0632838194	-1.0802509265	 0.121157
H	-2.8019750231	-0.6387086393	 0.2312858719	 0.101298
H	-4.0159069737	 2.4491607549	 1.6400911026	 0.100151
H	-2.8029436563	 1.314888069	 2.3174170519	 0.103469
H	-1.5110943389	 3.7904393811	 2.0578503095	 0.070976
H	-4.0190564674	 2.9702667334	-0.8368614292	 0.098182
H	-2.4441111912	 2.8872829653	-1.682431927	 0.103803
H	-0.370039911	 2.3499346456	-0.1818275949	 0.083723
162.401	264.6018	281.6791	322.0608	368.1113	412.9396	476.6497	491.8861	539.1814	649.3447	714.7373	821.1865	850.6839	856.8699	880.2031	914.4122	918.6005	948.1459	969.8051	995.8666	1031.7766	1054.2645	1060.0391	1102.3223	1119.3238	1138.6148	1168.9487	1207.1897	1220.101	1230.1078	1243.9447	1246.8724	1263.3635	1279.1716	1300.6568	1325.9581	1361.4306	1428.1511	1479.1286	1496.5999	1528.4241	3018.8047	3026.2309	3058.0572	3072.5073	3076.9197	3089.484	3114.2936	3117.3895	3147.1293	3808.08
OC1CC23CC(OC2)C13	O[C@@H]1C[C@]23C[C@H](OC2)[C@@H]13	
InChI=1S/C7H10O2/c8-4-1-7-2-5(6(4)7)9-3-7/h4-6,8H,1-3H2	InChI=1S/C7H10O2/c8-4-1-7-2-5(6(4)7)9-3-7/h4-6,8H,1-3H2/t4-,5+,6-,7+/m1/s1
