19
gdb 2612	2.4652581	1.4996551	1.1752552	3.4616	77.52	-0.23757	-0.04888	0.18869	1116.5194	0.155342	-422.600683	-422.591393	-422.590449	-422.634709	34.841	
C	-0.5649737033	-2.1632926095	 1.2044547371	-0.411669
C	-0.8602036581	-1.158676775	 0.0909147653	-0.155313
C	-0.0126948654	 0.1207278091	 0.2234690912	 0.380752
O	 1.1748365752	 0.1559404851	 0.4464777203	-0.335751
C	-0.9194315643	 1.2764234364	 0.0244375587	-0.197497
C	-2.1804688612	 0.8570070002	-0.0932141771	-0.045317
C	-2.3338560048	-0.6509850774	-0.0121534547	 0.306881
C	-3.0746550599	-1.2123763379	-1.2314548886	-0.446639
O	-3.0976384983	-0.8874570439	 1.1731536646	-0.459783
H	-1.048323809	-3.1282810798	 1.0171068621	 0.101378
H	 0.5138939769	-2.3278241488	 1.2620353664	 0.14096
H	-0.9118837383	-1.7874128593	 2.169701451	 0.135136
H	-0.570582365	-1.605597443	-0.8692984178	 0.097763
H	-0.5641854361	 2.2991489546	 0.0142296216	 0.120274
H	-3.0564849617	 1.4861378958	-0.2122136791	 0.119504
H	-3.1466001876	-2.3050132292	-1.1653097967	 0.114881
H	-4.0886602384	-0.8046345759	-1.282114724	 0.125664
H	-2.5514348398	-0.9696290988	-2.1613173642	 0.127176
H	-3.3161597709	-1.8254330727	 1.2026930639	 0.2816
34.5734	189.8015	220.1349	241.2022	258.6885	273.5936	280.7342	324.5188	354.4595	395.3122	516.9144	536.3495	583.9118	689.7082	705.6261	759.9817	805.506	856.8052	925.2298	944.7549	1003.4805	1010.6844	1044.1942	1084.9291	1105.4657	1117.908	1146.0736	1195.8941	1223.19	1277.5627	1324.2976	1347.9493	1388.1081	1400.1374	1405.9916	1487.9987	1494.2296	1497.4198	1505.5405	1661.8417	1815.55	3021.9547	3025.8413	3039.9741	3093.7202	3109.7928	3116.0066	3135.0916	3190.5436	3224.9775	3803.536
CC1C(=O)C=CC1(C)O	C[C@@H]1C(=O)C=C[C@]1(C)O	
InChI=1S/C7H10O2/c1-5-6(8)3-4-7(5,2)9/h3-5,9H,1-2H3	InChI=1S/C7H10O2/c1-5-6(8)3-4-7(5,2)9/h3-5,9H,1-2H3/t5-,7+/m1/s1
