19
gdb 5992	4.4902091	0.8659169	0.8403903	0.4666	76.82	-0.22746	0.00498	0.23244	1420.9877	0.15714	-422.510252	-422.501789	-422.500845	-422.544141	31.478	
O	 1.6687549223	 0.8563901181	-0.0557603254	-0.417462
C	 0.3249564533	 0.5154952717	 0.2436295176	-0.065814
C	-0.5351780517	 0.9577034646	-0.9450935212	-0.332453
C	-1.9889601395	 0.7209112171	-0.7224819447	 0.366166
C	-2.8656850787	-0.1270284445	-1.2702455919	-0.21708
C	-4.157148112	 0.2209380357	-0.5102582293	 0.02913
C	-4.152004604	 1.7780535133	-0.5787975821	-0.216079
C	-2.9021856732	 1.454986705	 0.2931122158	-0.03382
O	-3.6658085897	 0.3453292865	 0.8697574114	-0.286337
H	 2.2239085795	 0.5571191496	 0.6700284062	 0.287514
H	 0.2038791975	-0.5674771948	 0.3970218143	 0.097711
H	-0.0208195653	 1.0160258055	 1.1619858923	 0.091163
H	-0.3401041122	 2.0252955542	-1.1140303923	 0.114894
H	-0.1933014577	 0.4265703708	-1.8394664581	 0.114528
H	-2.7381834052	-0.8661028078	-2.0478490469	 0.106642
H	-5.0483950025	-0.3946294906	-0.6226789479	 0.080123
H	-4.010713488	 2.2618373085	-1.5475503887	 0.09718
H	-4.9617138628	 2.2315474145	-0.0019492121	 0.106521
H	-2.4713299601	 2.1416823324	 1.0216896828	 0.077473
66.2824	86.5801	99.8843	252.7642	264.0861	322.6903	358.0074	495.1207	593.4483	608.873	702.5963	777.9911	789.9112	820.0794	843.8128	853.2077	890.8137	914.5823	934.7923	1003.4254	1022.4111	1044.4887	1063.4936	1079.4974	1093.8632	1156.739	1189.656	1207.8638	1230.3551	1234.0733	1241.8069	1259.5854	1295.8175	1297.7452	1322.8338	1333.5416	1454.9571	1485.222	1487.5181	1526.4282	1683.6597	2972.9938	3004.1877	3022.7403	3062.2654	3080.4832	3123.915	3134.222	3137.3437	3238.4738	3831.3997
OCCC1=CC2CC1O2	OCCC1=C[C@@H]2C[C@H]1O2	
InChI=1S/C7H10O2/c8-2-1-5-3-6-4-7(5)9-6/h3,6-8H,1-2,4H2	InChI=1S/C7H10O2/c8-2-1-5-3-6-4-7(5)9-6/h3,6-8H,1-2,4H2/t6-,7-/m1/s1
