19
gdb 5088	3.7486522	0.8972561	0.8655356	3.5265	76.88	-0.24654	-0.02147	0.22507000000000002	1385.808	0.155758	-422.533184	-422.524103	-422.523158	-422.567664	33.07	
O	 1.5069399212	-0.1239333686	 0.2704976657	-0.408033
C	 0.257386799	 0.3824677704	 0.7115570205	-0.19558
C	-0.5970839181	 0.9234603031	-0.4061271356	 0.357614
C	-0.5752249051	 0.3926747187	-1.8101830475	-0.344678
C	-0.227620462	 1.8401816385	-1.574230015	-0.098873
C	-1.515908895	 2.663036271	-1.3879298176	-0.072548
C	-1.8897252283	 1.717877533	-0.1825165576	-0.335245
C	-1.2648822668	 4.0725624968	-0.9274052051	 0.1581
O	-1.759637499	 5.0586667694	-1.4095175988	-0.256688
H	 1.3508880524	-0.9817976627	-0.1356096521	 0.28839
H	-0.3071942077	-0.3778926603	 1.2760919303	 0.094085
H	 0.4930657661	 1.1884140827	 1.4172536241	 0.113199
H	 0.2820125352	-0.2248035538	-2.0578064319	 0.109656
H	-1.4943366972	 0.1173465329	-2.3229433672	 0.107543
H	 0.7399925463	 2.2406793646	-1.8517473679	 0.102817
H	-2.2079184999	 2.6810306837	-2.2340387798	 0.089516
H	-1.8971297185	 2.2577078027	 0.7699325933	 0.112178
H	-2.8321290622	 1.170636724	-0.2782955666	 0.10843
H	-0.5595941808	 4.1466928639	-0.0643958413	 0.070117
59.334	80.5765	109.6132	204.2871	291.3935	298.8969	322.7346	359.8621	405.4834	434.4348	515.2352	658.3699	759.7111	817.9042	846.212	865.3743	931.4329	970.4008	982.1166	1012.4046	1030.3556	1037.4838	1074.4973	1083.4293	1089.711	1119.4287	1176.1432	1210.3911	1227.7845	1235.2075	1255.924	1269.7703	1302.9722	1392.1852	1399.8918	1417.7917	1430.4935	1476.8099	1496.5923	1503.6895	1832.0623	2840.0759	2968.2167	3043.5019	3049.4057	3076.7086	3095.3387	3105.7147	3185.0951	3202.2711	3828.0312
OCC12CC1C(C2)C=O	OC[C@]12C[C@H]1[C@@H](C2)C=O	
InChI=1S/C7H10O2/c8-3-5-1-7(4-9)2-6(5)7/h3,5-6,9H,1-2,4H2	InChI=1S/C7H10O2/c8-3-5-1-7(4-9)2-6(5)7/h3,5-6,9H,1-2,4H2/t5-,6-,7-/m0/s1
