19
gdb 5964	4.0284428	0.9227603	0.8608151	2.2163	74.47	-0.22854	0.05936	0.2879	1372.9543	0.155786	-422.472403	-422.463815	-422.462871	-422.506063	32.439	
O	 1.3373795563	 0.7135205576	 0.0365037867	-0.415951
C	 0.32094297	-0.1004316498	 0.5980865111	-0.053096
C	-0.9164195685	 0.7019920467	 1.0230229135	-0.338608
C	-2.0370863408	-0.1708458825	 1.5108686551	 0.331742
C	-2.166601557	-0.7284668822	 2.9057227899	-0.331288
C	-3.2509873054	 0.1718033423	 2.3687388312	-0.176675
C	-4.1567625562	-0.5836566393	 1.3469342473	 0.024168
O	-3.7244433481	-1.9485501879	 1.2382997504	-0.238702
C	-3.0026959985	-0.9324333043	 0.5298334798	-0.038625
H	 1.6431740658	 1.3166031102	 0.7215126419	 0.280681
H	 0.0509143393	-0.8170100438	-0.1853961541	 0.113879
H	 0.6947701646	-0.6860949732	 1.4522447025	 0.093689
H	-0.6338042539	 1.4078339188	 1.8164994255	 0.088897
H	-1.2444818863	 1.3087067965	 0.168776695	 0.106596
H	-2.3650489502	-1.7804601754	 3.0669927502	 0.136595
H	-1.5177486968	-0.2605839538	 3.6401798961	 0.107865
H	-3.5088181178	 1.1251548945	 2.8113596987	 0.093403
H	-5.1849087359	-0.3612892768	 1.0895205271	 0.109058
H	-2.8795802606	-1.0525613775	-0.5403891779	 0.106372
74.4634	99.8579	113.2533	280.0812	291.1735	321.8046	346.8956	419.286	451.9079	578.9056	690.2055	753.6668	779.9628	799.3975	810.133	869.4699	888.876	917.0851	942.434	979.2779	979.9395	1012.688	1032.4259	1056.8036	1073.297	1092.7307	1104.0988	1136.4926	1198.4059	1225.3271	1255.2023	1274.1408	1304.669	1323.7394	1360.3333	1393.256	1404.6928	1421.4594	1473.0778	1482.5585	1511.1204	2985.7769	3007.3895	3045.1021	3073.6745	3135.7822	3179.6689	3194.7703	3203.5403	3229.6727	3815.1945
OCCC12CC1C1OC21	OCC[C@@]12C[C@@H]1[C@@H]1O[C@H]21	
InChI=1S/C7H10O2/c8-2-1-7-3-4(7)5-6(7)9-5/h4-6,8H,1-3H2	InChI=1S/C7H10O2/c8-2-1-7-3-4(7)5-6(7)9-5/h4-6,8H,1-3H2/t4-,5+,6+,7-/m1/s1
