19
gdb 3093	2.9877252	1.4233371	1.0953465	2.3068	77.67	-0.2602	-0.04259	0.21760999999999997	1105.8856	0.15623	-422.516743	-422.508315	-422.507371	-422.549542	32.565	
C	-0.1667194526	-0.1982113811	-0.0200315604	-0.451018
C	 1.3420133986	-0.103246677	-0.1959641485	 0.062822
C	 2.2285961195	-1.1469806514	-0.9689814903	-0.131377
C	 3.4434598195	-0.4343708499	-0.3060604563	-0.252516
C	 2.4063554532	-0.6202599594	 0.8398145274	-0.13138
C	 2.1647628305	-2.0865621088	 0.3007168848	 0.388018
O	 0.9636339972	-2.7179307809	 0.6026004628	-0.491271
C	 3.2713741541	-3.1053004242	 0.4886265983	 0.085727
O	 3.0141605327	-4.2356197281	 0.8430535641	-0.285921
H	-0.5091450526	-1.1778704067	 0.2990341991	 0.159043
H	-0.4933346122	 0.5450600845	 0.7167831746	 0.110249
H	-0.6587719993	 0.0546203208	-0.9665971605	 0.110252
H	 1.5813774523	 0.9179525889	-0.5168661281	 0.066704
H	 2.1312495009	-1.4660600243	-2.0082241899	 0.079995
H	 4.3976014579	-0.9545394836	-0.2483563132	 0.095598
H	 3.5978080679	 0.5981748428	-0.6219054575	 0.105815
H	 2.5140486141	-0.3317878563	 1.8869531297	 0.079995
H	 1.2082189402	-3.6277929471	 0.8435229461	 0.292609
H	 4.3143696882	-2.8076881282	 0.2994666678	 0.106657
92.6409	133.0384	188.547	244.6559	309.0487	355.1223	400.8888	406.7035	484.0515	533.0815	549.1057	634.9009	745.537	774.1646	782.7856	836.0203	875.063	885.6964	1004.2926	1009.253	1020.0371	1023.9949	1062.2407	1070.3951	1087.4722	1140.071	1154.864	1164.112	1188.9726	1204.8633	1238.3171	1250.8393	1277.9096	1397.3711	1408.7132	1444.2489	1458.9758	1495.477	1509.6802	1547.0705	1784.03	3005.9854	3018.7546	3034.5123	3080.2366	3087.3351	3096.845	3105.2692	3152.5346	3197.0137	3640.1591	92.641	133.0389	188.547	244.6559	309.0487	355.1223	400.8888	406.7037	484.0515	533.0815	549.1059	634.9009	745.5371	774.1646	782.7856	836.0204	875.0631	885.6965	1004.2926	1009.2531	1020.0371	1023.9949	1062.2407	1070.3952	1087.4722	1140.071	1154.864	1164.1119	1188.9726	1204.8633	1238.3171	1250.8393	1277.9096	1397.3713	1408.7131	1444.2489	1458.976	1495.4769	1509.68	1547.0705	1784.0302	3005.9854	3018.7547	3034.5123	3080.2366	3087.3351	3096.845	3105.2692	3152.5346	3197.0137	3640.1592
CC1C2CC1C2(O)C=O	C[C@@H]1[C@H]2C[C@@H]1[C@]2(O)C=O	
InChI=1S/C7H10O2/c1-4-5-2-6(4)7(5,9)3-8/h3-6,9H,2H2,1H3	InChI=1S/C7H10O2/c1-4-5-2-6(4)7(5,9)3-8/h3-6,9H,2H2,1H3/t4-,5-,6+,7+
