19
gdb 2604	2.532219	1.746317	1.2772892	2.3336	75.19	-0.23581	-0.0156	0.22021	1030.7595	0.157125	-422.576338	-422.568037	-422.567093	-422.608737	32.297	
C	-3.7251067457	-1.2055850902	-0.0390618075	-0.503971
C	-2.3702970208	-0.5398950491	-0.017938273	 0.320091
C	-1.9820106826	 0.5418282499	 1.0390739487	-0.269963
C	-0.8706230189	 0.9188228799	-0.0071610639	-0.140792
C	-1.9191958922	 0.50358471	-1.0885650271	-0.28327
C	-0.0494208906	-0.3459384968	 0.0877780016	 0.400428
O	 1.1226433228	-0.5171967416	 0.3031808267	-0.351715
C	-1.1299064479	-1.4539289857	 0.002823624	 0.014534
O	-1.0829645634	-2.3048787018	 1.1275811298	-0.452715
H	-3.8479325342	-1.8519677099	 0.8355330441	 0.139624
H	-4.5313279256	-0.4646730974	-0.0346914131	 0.111758
H	-3.8439852248	-1.8287267027	-0.9328325264	 0.118191
H	-2.7330582888	 1.331112599	 1.1204965892	 0.106146
H	-1.6706382963	 0.2017132582	 2.0287808052	 0.118129
H	-0.3450897542	 1.8709525019	-0.0034815714	 0.085467
H	-2.670878251	 1.2816225934	-1.2399097702	 0.110703
H	-1.5541172117	 0.1407326899	-2.0545466899	 0.102785
H	-1.0406052781	-2.0282190476	-0.9338726136	 0.080378
H	-0.149555176	-2.4663645093	 1.3150237166	 0.294192
99.9099	206.7461	213.949	243.7524	279.0676	305.7008	358.0567	468.1442	491.6837	515.5319	555.6518	670.893	709.9901	789.6401	835.7561	862.5503	869.1524	926.7605	944.9991	978.9857	1010.096	1025.0402	1054.8926	1096.2916	1134.9411	1145.0242	1165.1076	1210.7254	1228.4609	1233.0851	1267.4107	1288.1381	1297.7237	1344.2603	1409.9209	1416.3241	1483.6962	1490.4977	1496.234	1518.406	1861.2669	2968.4465	3029.4368	3050.4417	3066.85	3093.9411	3107.8133	3115.5102	3130.7815	3149.4459	3774.5297
CC12CC(C1)C(=O)C2O	C[C@]12C[C@H](C1)C(=O)[C@H]2O	
InChI=1S/C7H10O2/c1-7-2-4(3-7)5(8)6(7)9/h4,6,9H,2-3H2,1H3	InChI=1S/C7H10O2/c1-7-2-4(3-7)5(8)6(7)9/h4,6,9H,2-3H2,1H3/t4-,6-,7+/m1/s1
