19
gdb 5853	2.4746281	1.2484585	0.9777688	2.4978	77.4	-0.2548	0.0369	0.2917	1272.2059	0.155722	-422.509392	-422.500058	-422.499114	-422.544414	33.613	
C	 1.5371075379	 0.087886262	-0.2918545777	-0.238522
O	 0.1462367475	 0.3173332825	-0.2968714659	-0.245867
C	-0.3856926098	 0.6048159694	 0.9802632744	 0.123379
C	-0.0717568616	 2.0422782811	 1.476365459	-0.255695
C	-1.4579020747	 2.6297790497	 1.7789775433	-0.087463
O	-2.3398867715	 1.9684897951	 0.8797834287	-0.230345
C	-1.9386093431	 0.6023449511	 0.8540890098	-0.126602
C	-2.5801550037	-0.1692465788	 1.9245739356	 0.344019
C	-3.1023332761	-0.7935956419	 2.8092914112	-0.478708
H	 1.8065886494	-0.7450651282	 0.3764768851	 0.107219
H	 1.8243797011	-0.1703274448	-1.3137717614	 0.131431
H	 2.1065132858	 0.9763277264	 0.019339317	 0.10762
H	-0.0526311084	-0.1567553129	 1.6975683114	 0.084394
H	 0.5950018503	 2.0643194109	 2.3412220178	 0.104793
H	 0.4006635826	 2.5885932907	 0.6553185753	 0.120607
H	-1.7522756364	 2.435676725	 2.8215185379	 0.102267
H	-1.5354908181	 3.7026711289	 1.5894800282	 0.114067
H	-2.2172997761	 0.1962970964	-0.1221021727	 0.124065
H	-3.575335235	-1.3485943925	 3.5814862931	 0.19934
31.538	102.9273	146.1852	160.164	205.1688	253.1464	295.9939	380.9269	409.2796	521.8343	569.0232	614.5192	630.7442	671.0672	753.2676	862.8367	888.2006	945.412	957.306	970.7067	997.914	1049.6208	1094.8911	1112.8293	1156.1908	1185.2342	1214.6198	1222.9083	1243.8531	1264.5025	1296.9307	1316.655	1346.7828	1391.963	1398.3531	1476.1499	1480.8961	1491.0925	1510.8663	1514.165	2231.3788	2975.9526	2992.7475	3017.3128	3024.9129	3064.5553	3080.9602	3103.1727	3117.3394	3120.288	3501.5125
COC1CCOC1C#C	CO[C@H]1CCO[C@@H]1C#C	
InChI=1S/C7H10O2/c1-3-6-7(8-2)4-5-9-6/h1,6-7H,4-5H2,2H3	InChI=1S/C7H10O2/c1-3-6-7(8-2)4-5-9-6/h1,6-7H,4-5H2,2H3/t6-,7+/m1/s1
