19
gdb 5069	2.9174822	1.2572913	1.0417819	3.2625	76.08	-0.23761	-0.02575	0.21186	1212.1089	0.154502	-422.540669	-422.53131	-422.530366	-422.574962	33.967	
C	 1.646480576	-0.459464291	 1.0683237344	-0.383333
C	 0.9906329589	 0.0759051528	-0.2128233281	-0.304025
C	 1.494334718	-0.6000191194	-1.4510317434	 0.428416
O	 2.782661508	-0.2454707967	-1.9566769311	-0.281366
C	 1.6437574577	-0.0671288157	-2.8346799075	-0.203279
C	 1.3669451121	-1.4570631104	-3.3908928921	 0.430362
O	 1.1764363806	-1.905114311	-4.4822135281	-0.305927
C	 1.2410070922	-2.0468428522	-1.9494998163	-0.186722
C	 2.1873466699	-3.1629645852	-1.5271262798	-0.41703
H	 1.4351564434	-1.5238528082	 1.2106356359	 0.12462
H	 2.7322231502	-0.3328517081	 1.0294198753	 0.136743
H	 1.2719540395	 0.0761218124	 1.9451299905	 0.120205
H	-0.0971094748	-0.0554572568	-0.1606068644	 0.109762
H	 1.180544947	 1.1507697777	-0.3063993668	 0.117046
H	 1.4816634849	 0.9218603207	-3.2479133406	 0.119518
H	 0.1913731393	-2.3381612987	-1.8107345392	 0.101395
H	 1.9840166812	-3.4984850029	-0.5053887943	 0.119869
H	 2.0723727602	-4.0238510978	-2.192799457	 0.13504
H	 3.2246004057	-2.8235876395	-1.5828176076	 0.138703
66.5348	97.3981	166.1255	204.1702	208.5234	226.5875	253.7833	327.8642	398.554	496.3541	543.272	612.452	680.8835	711.3705	766.3136	786.4413	859.4241	872.4295	959.9515	1001.0168	1016.579	1052.5239	1061.6827	1076.2778	1102.4803	1139.4913	1192.5444	1213.3829	1224.9618	1307.374	1334.3426	1352.5682	1403.0774	1409.512	1440.0326	1471.6302	1491.5156	1500.0279	1504.0362	1508.4091	1897.1274	3031.0147	3034.8114	3041.4136	3043.5812	3074.2763	3106.8351	3114.671	3120.6863	3127.3555	3189.4661
CCC12OC1C(=O)C2C	CC[C@]12O[C@H]1C(=O)[C@H]2C	
InChI=1S/C7H10O2/c1-3-7-4(2)5(8)6(7)9-7/h4,6H,3H2,1-2H3	InChI=1S/C7H10O2/c1-3-7-4(2)5(8)6(7)9-7/h4,6H,3H2,1-2H3/t4-,6+,7-/m1/s1
