19
gdb 3072	3.2991118	1.2711438	1.193632	1.0582	74.93	-0.2528	-0.02527	0.22753	1094.6971	0.15807	-422.565846	-422.557851	-422.556907	-422.598422	30.802	
O	 0.3159761403	 3.9534385808	-2.0352411208	-0.446311
C	 1.6425135269	 3.5103834886	-2.0239855771	 0.175448
C	 2.5634192876	 3.6808126895	-0.7785540781	-0.067332
C	 3.3987339061	 2.5234483389	-1.3964393146	-0.239303
C	 2.0058530685	 1.99901189	-1.8450809744	-0.087407
C	 1.3198570666	 1.6820509217	-0.4809883536	-0.087198
C	 1.7697583242	 2.9431705443	 0.3200582543	-0.266394
C	 1.7840490521	 0.3593743996	 0.0759648585	 0.13358
O	 2.5937731729	 0.2201594164	 0.9591674421	-0.244402
H	-0.0762726765	 3.7998282882	-1.1699209706	 0.286425
H	 2.1044938121	 3.9107665341	-2.9294948852	 0.092769
H	 3.0066992648	 4.6411785064	-0.5161953616	 0.067225
H	 4.0149160136	 2.8433615773	-2.2390340792	 0.10408
H	 3.9794162403	 1.9022932677	-0.712773153	 0.121696
H	 1.8786193327	 1.2729291063	-2.6482585428	 0.070692
H	 0.2336181229	 1.6157152429	-0.6235085007	 0.081311
H	 0.9234406592	 3.5225379411	 0.7054127342	 0.091547
H	 2.3942661939	 2.6620925445	 1.1703686541	 0.13405
H	 1.334663172	-0.5295453583	-0.4235096415	 0.079525
78.7539	150.5354	209.7897	259.9284	270.0975	328.2682	428.7794	474.7231	592.2276	649.2153	696.5941	785.2784	815.6267	822.9007	836.3732	869.707	936.8327	963.1684	995.2824	1004.021	1017.1714	1032.6003	1068.1764	1102.7954	1118.3167	1141.7913	1174.3067	1185.4159	1207.1459	1238.1003	1262.2503	1278.0411	1294.449	1302.174	1326.6497	1369.4424	1425.9692	1443.6091	1501.7352	1516.8152	1819.1491	2868.2983	3023.3933	3046.9395	3076.5311	3091.1818	3113.8629	3115.704	3122.1281	3139.0577	3821.6496
OC1C2CC1C(C2)C=O	O[C@H]1[C@@H]2C[C@H]1[C@H](C2)C=O	
InChI=1S/C7H10O2/c8-3-5-1-4-2-6(5)7(4)9/h3-7,9H,1-2H2	InChI=1S/C7H10O2/c8-3-5-1-4-2-6(5)7(4)9/h3-7,9H,1-2H2/t4-,5+,6-,7-/m0/s1
