19
gdb 3450	2.543798	1.4668533	1.1921269	2.5224	76.52	-0.24651	-0.02774	0.21877000000000002	1118.9184	0.155031	-422.593051	-422.583642	-422.582698	-422.626925	34.946	
C	-0.6807707807	 1.8666534627	 1.3335834818	-0.422604
C	-0.9677360374	 1.1973602287	-0.0308555076	 0.116717
C	-0.6618385632	 2.1735888463	-1.1767671773	-0.422283
C	-2.362703899	 0.6024787871	-0.0944660396	-0.094612
C	-2.3854093227	-0.730308284	-0.0326956059	-0.111965
C	-1.0076173013	-1.3106406897	 0.1465455902	 0.011952
O	-0.7077347376	-2.3924090445	-0.7059533558	-0.44198
C	-0.1276474366	-0.0852833364	-0.1592838979	 0.344528
O	 1.0110187004	-0.1735234158	-0.5444143389	-0.336221
H	-0.861920814	 1.1810982303	 2.1667253443	 0.122415
H	 0.3589921957	 2.2050921946	 1.3815554282	 0.133143
H	-1.3309105341	 2.7372518234	 1.4681396975	 0.12268
H	-0.9014624586	 1.7321679771	-2.1482546613	 0.125144
H	-1.2465448267	 3.0923614319	-1.0641187728	 0.113705
H	 0.399816147	 2.4352654595	-1.1759550483	 0.136507
H	-3.2406599451	 1.2352866576	-0.1775449933	 0.102766
H	-3.2714049915	-1.3529744718	-0.0629446548	 0.112855
H	-0.8497570284	-1.6032297829	 1.2022570414	 0.094311
H	 0.2291536837	-2.2990291143	-0.9290780799	 0.292942
56.4186	176.0948	190.5709	205.4695	233.8631	270.2387	293.943	329.8296	349.7641	357.7575	518.122	540.9514	580.7842	681.4461	702.161	756.8126	858.56	865.009	949.9618	955.2531	982.799	996.3544	1016.4931	1050.5758	1104.8439	1157.2189	1169.3011	1219.9422	1240.1373	1256.3477	1334.5885	1373.7669	1391.1981	1410.3775	1420.7785	1482.1455	1484.5972	1499.2822	1507.8861	1671.903	1840.9113	2915.9141	3032.561	3038.7742	3105.0082	3110.4994	3112.6041	3122.0159	3179.4574	3213.8277	3743.8529
CC1(C)C=CC(O)C1=O	CC1(C)C=C[C@@H](O)C1=O	
InChI=1S/C7H10O2/c1-7(2)4-3-5(8)6(7)9/h3-5,8H,1-2H3	InChI=1S/C7H10O2/c1-7(2)4-3-5(8)6(7)9/h3-5,8H,1-2H3/t5-/m1/s1
