19
gdb 3090	2.5753588	2.0051057	1.6338684	2.5711	73.04	-0.24734	0.06998	0.31732	904.9192	0.160874	-422.530412	-422.523855	-422.522911	-422.56088	27.844	
O	-0.5423225119	 0.7934621024	 0.3060900527	-0.456407
C	-1.8371106052	 0.2722995826	 0.3500971316	 0.168918
C	-2.9274014044	 0.5097276093	-0.7603736882	-0.100158
C	-3.6056527739	-0.7569104122	-0.1376894516	-0.23524
C	-2.1257480318	-1.2277321968	 0.0604923631	-0.119535
C	-1.7157541676	-1.3881002304	-1.4125684319	 0.131775
O	-0.3823412991	-0.9143055299	-1.7871538409	-0.329263
C	-0.9504098272	 0.1979035319	-2.5426282188	-0.128316
C	-2.3687278322	-0.1291816209	-2.0448448735	-0.05136
H	-0.0398853908	 0.2272878136	-0.2980205454	 0.297092
H	-2.2625238798	 0.5590059033	 1.3164377957	 0.085481
H	-3.4500602759	 1.4618532742	-0.8478683075	 0.066109
H	-4.115868335	-0.5644316944	 0.807387957	 0.108447
H	-4.2424372769	-1.3544994331	-0.794545157	 0.099963
H	-1.8482313925	-2.0154608294	 0.7604974095	 0.068626
H	-1.9102265802	-2.3783862435	-1.8334166591	 0.082642
H	-0.5169970682	 1.1568891529	-2.2468215881	 0.123895
H	-0.8086556721	 0.0415354281	-3.6178987222	 0.107463
H	-3.1291728553	-0.2610118878	-2.8155391954	 0.079865
220.7043	266.2397	317.2906	365.5476	443.2009	460.8257	639.2951	650.5918	675.7755	768.5911	808.2303	813.8281	842.8225	876.1573	879.2495	916.4613	938.5091	976.1277	990.2365	1005.404	1010.4929	1063.8587	1071.2344	1099.1499	1112.226	1160.1689	1168.1598	1184.7943	1197.8185	1217.843	1231.1868	1251.2874	1294.3398	1304.0184	1326.6545	1350.851	1362.2951	1381.4597	1475.0103	1509.8631	1518.575	3036.0143	3063.2479	3068.6202	3071.1767	3095.1458	3103.9394	3119.326	3123.1809	3133.1715	3701.4964
OC1C2CC1C1OCC21	O[C@H]1[C@@H]2C[C@H]1[C@@H]1OC[C@H]21	
InChI=1S/C7H10O2/c8-6-3-1-4(6)7-5(3)2-9-7/h3-8H,1-2H2	InChI=1S/C7H10O2/c8-6-3-1-4(6)7-5(3)2-9-7/h3-8H,1-2H2/t3-,4-,5-,6+,7+/m1/s1
