19
gdb 4919	2.693393	1.4027391	1.1381847	3.1744	75.48	-0.25121	-0.03323	0.21797999999999998	1124.2038	0.156519	-422.536439	-422.527861	-422.526917	-422.56963	32.429	
O	 0.1821705699	 0.6159324868	-1.058016698	-0.427917
C	 0.5404733303	 0.0579503099	 0.1896520584	-0.134406
C	-0.2007629791	 0.7132870083	 1.35426682	 0.191571
C	 0.2401357787	 0.3540851722	 2.8286558748	-0.314809
C	 0.4669673177	 1.8394803708	 3.1204215485	-0.034014
C	 1.4939704405	 2.3887938464	 2.1777444743	-0.291079
C	 0.0898232356	 2.1996076266	 1.6788369324	-0.066315
C	-1.693420665	 0.5326404998	 1.2278437069	 0.134398
O	-2.2576556677	 0.0443845175	 0.2762363211	-0.284421
H	-0.7478634774	 0.388872068	-1.1845875465	 0.295305
H	 0.3603433416	-1.0290117691	 0.2180892726	 0.0919
H	 1.6186280059	 0.2091426206	 0.3031488556	 0.103518
H	-0.5661817431	-0.0985686383	 3.4113772971	 0.112173
H	 1.1218419379	-0.2909590444	 2.900893598	 0.109678
H	 0.1987589614	 2.3413233386	 4.0413591716	 0.092934
H	 1.7704189895	 3.4254145349	 2.3412094222	 0.120633
H	 2.3099802619	 1.7659811088	 1.8206227284	 0.113905
H	-0.4929471609	 3.0324350859	 1.3053548471	 0.097512
H	-2.2785054776	 0.9038788567	 2.0997840556	 0.089435
92.3121	111.9536	170.621	204.2704	279.0657	317.8554	389.2449	411.4398	444.4648	531.7919	562.9546	731.0688	766.7697	785.575	838.5023	885.3487	928.2478	943.6477	972.5072	985.1356	1002.3169	1033.2778	1060.2019	1075.6448	1088.5006	1101.2588	1126.5046	1148.9015	1190.1808	1243.8352	1254.3716	1296.555	1308.8123	1358.6292	1382.7706	1428.95	1444.0877	1479.9969	1492.4937	1500.6742	1803.1875	2876.3524	2976.2321	3047.1731	3075.1295	3099.6989	3115.488	3184.3778	3192.1591	3206.7329	3774.7329
OCC1(CC2CC12)C=O	OC[C@]1(C[C@H]2C[C@@H]12)C=O	
InChI=1S/C7H10O2/c8-3-7(4-9)2-5-1-6(5)7/h3,5-6,9H,1-2,4H2	InChI=1S/C7H10O2/c8-3-7(4-9)2-5-1-6(5)7/h3,5-6,9H,1-2,4H2/t5-,6-,7+/m1/s1
