19
gdb 3625	2.247795	1.448226	1.1165261	1.9439	76.16	-0.25186	-0.02884	0.22301999999999997	1153.4221	0.155494	-422.539714	-422.530684	-422.529739	-422.574042	33.283	
O	 3.5620356141	 1.6261527437	-3.2647651428	-0.427471
C	 2.3364140757	 1.7291641884	-2.5891527989	 0.088913
C	 1.6578820352	 0.4494643708	-2.0314487224	-0.286988
C	 1.3134806394	 1.2104462101	-0.7247122948	-0.167688
C	 1.633409001	 0.529268838	 0.5791681695	 0.139821
O	 2.282087193	-0.4819784332	 0.6831555142	-0.244599
C	 2.3118961025	 2.319102436	-1.1670054507	 0.300349
C	 2.4251485591	 3.7480714656	-0.7429521928	-0.328975
C	 3.5435254959	 2.7781749912	-0.4362500702	-0.32254
H	 4.147551426	 1.0787850187	-2.7293856342	 0.282455
H	 1.6767310477	 2.2835619686	-3.2645619603	 0.093131
H	 0.8291479787	 0.0264267762	-2.6014567836	 0.108267
H	 2.3880024169	-0.3370419431	-1.8185358215	 0.122172
H	 0.2885046533	 1.5958620773	-0.6907172124	 0.0875
H	 1.2504963383	 1.0502212141	 1.486933627	 0.076887
H	 2.5910438592	 4.4912077858	-1.5170265931	 0.122386
H	 1.8081996549	 4.0918807189	 0.0815654436	 0.113667
H	 4.4541411375	 2.8607304793	-1.0211736934	 0.121165
H	 3.6970166714	 2.4696660636	 0.5922629767	 0.121548
55.6276	62.257	193.5261	216.8839	222.106	266.8544	342.7878	364.9739	440.1176	518.4662	540.7621	658.8905	719.3599	773.969	810.8017	871.4866	892.0421	918.6417	963.8545	978.0523	1004.5159	1053.1808	1059.5585	1079.4102	1085.3671	1119.1278	1140.5405	1189.2446	1196.3872	1211.3362	1258.6412	1271.6681	1315.8483	1350.6795	1358.6615	1425.7651	1436.6974	1460.7258	1483.0427	1499.3149	1820.1738	2863.3331	3049.321	3059.4033	3065.613	3121.2735	3128.1683	3129.0941	3200.9704	3217.6564	3799.1563
OC1CC(C=O)C11CC1	O[C@H]1C[C@@H](C=O)C21CC2	
InChI=1S/C7H10O2/c8-4-5-3-6(9)7(5)1-2-7/h4-6,9H,1-3H2	InChI=1S/C7H10O2/c8-4-5-3-6(9)7(5)1-2-7/h4-6,9H,1-3H2/t5-,6-/m0/s1
