19
gdb 3586	1.9538389	1.5692418	1.2493953	2.3216	77.2	-0.24268	-0.0488	0.19388	1134.8719	0.153742	-422.580986	-422.571073	-422.570129	-422.61615	34.971	
C	-1.2125791549	 1.7737218385	-1.485099427	-0.409087
C	-1.183697467	 1.0943104155	-0.1128318221	-0.09645
C	-2.1803285734	-0.0907909848	 0.1074502529	-0.302411
C	-1.0153962009	-1.1204005197	 0.1634631229	 0.092473
C	-0.8330118937	-1.9828740959	 1.4140084926	-0.464107
C	-0.8705899988	-1.9530910525	-1.0953885272	 0.123304
O	-1.5406216237	-1.8307232831	-2.0896677097	-0.250649
C	-0.0334389871	 0.101070579	 0.0891515902	 0.360107
O	 1.15054261	 0.1928859847	 0.2195604011	-0.293903
H	-1.2212511489	 1.0327825307	-2.2897568822	 0.144256
H	-2.1116495368	 2.3896802972	-1.584080582	 0.12544
H	-0.3381100115	 2.4177808769	-1.6155402846	 0.133907
H	-1.1985454344	 1.8512554614	 0.6792448102	 0.103217
H	-2.7419255101	-0.028937494	 1.041103399	 0.106908
H	-2.8633932578	-0.2649483236	-0.7249598235	 0.131808
H	-1.6399726662	-2.7169342465	 1.5076429936	 0.131663
H	 0.1200830907	-2.5197601413	 1.3760517224	 0.140545
H	-0.8299677971	-1.3641266472	 2.3157156486	 0.130083
H	-0.0477084884	-2.6999071054	-1.0451716653	 0.092895
46.791	86.4617	164.1128	177.2005	206.3157	225.3055	241.0551	250.0991	291.4529	377.3102	487.7685	564.8508	622.5451	700.8915	744.4924	804.3419	847.612	903.5107	938.5444	951.2237	994.4498	1014.715	1085.8653	1090.431	1133.9605	1187.0409	1203.553	1235.229	1245.2428	1274.7857	1317.5604	1399.8273	1406.1424	1423.9997	1474.3356	1489.581	1493.9025	1496.4742	1501.89	1803.255	1884.8426	2891.4954	3035.7356	3040.5107	3049.1453	3081.4374	3107.6649	3112.5873	3114.1197	3121.0759	3141.9511
CC1CC(C)(C=O)C1=O	C[C@H]1C[C@@](C)(C=O)C1=O	
InChI=1S/C7H10O2/c1-5-3-7(2,4-8)6(5)9/h4-5H,3H2,1-2H3	InChI=1S/C7H10O2/c1-5-3-7(2,4-8)6(5)9/h4-5H,3H2,1-2H3/t5-,7-/m0/s1
