19
gdb 1772	2.1608526	1.8577049	1.2970316	2.5489	76.12	-0.24993	0.07573	0.32566	1049.2122	0.155316	-422.494392	-422.485729	-422.484785	-422.526972	33.473	
C	-0.0502712077	-0.2032788271	 0.3623518712	-0.513042
C	 1.4290210438	-0.0094157928	 0.1924961518	 0.215124
C	 2.5182618375	-1.1182027932	-0.0270181217	-0.336707
C	 3.3001413196	 0.2397593538	-0.052852536	 0.295065
O	 4.6327626296	 0.4769096905	-0.3023307172	-0.469095
C	 2.4323624206	 0.6785403287	 1.1747501167	-0.32839
C	 2.1596188282	 0.768518227	-0.918146145	 0.484696
C	 1.911084006	 1.9561460464	-1.7162103545	-0.323433
O	 1.9920042088	 0.6276130733	-2.3036966673	-0.30973
H	-0.2707833919	-0.8514020894	 1.2167263583	 0.121986
H	-0.5566423644	 0.7538116767	 0.5283995396	 0.120693
H	-0.4839655797	-0.6632687351	-0.5317201228	 0.132871
H	 2.7088741351	-1.7684980127	 0.8323731815	 0.083169
H	 2.470001836	-1.674702603	-0.9649367386	 0.114716
H	 5.1605385654	-0.0041014895	 0.3437100921	 0.286467
H	 2.6194800227	 0.1377035342	 2.1065090361	 0.0879
H	 2.3103604065	 1.7521040977	 1.340469212	 0.095331
H	 0.9203916684	 2.4077079376	-1.743502663	 0.115538
H	 2.7335420855	 2.6197702471	-1.9772703634	 0.126844
170.5722	183.6902	206.5177	218.0863	225.8566	250.0996	284.8046	427.6601	476.5756	504.1867	599.6415	624.2934	653.1441	686.1598	749.7618	794.3469	898.5972	942.3443	958.6547	977.2078	1034.1194	1041.4984	1056.7736	1065.7592	1109.6153	1119.9457	1123.1904	1133.4351	1167.1927	1181.0088	1196.8353	1288.7544	1351.9002	1364.9317	1414.9049	1466.6981	1486.3376	1490.4344	1493.2765	1525.1898	1586.5813	3030.4806	3048.8974	3053.4487	3085.9603	3096.4731	3101.473	3120.5721	3130.6578	3173.2145	3814.324
CC12CC(O)(C1)C21CO1	C[C@]12C[C@](O)(C1)[C@@]12CO1	
InChI=1S/C7H10O2/c1-5-2-6(8,3-5)7(5)4-9-7/h8H,2-4H2,1H3	InChI=1S/C7H10O2/c1-5-2-6(8,3-5)7(5)4-9-7/h8H,2-4H2,1H3/t5-,6-,7-/m0/s1
