19
gdb 4684	3.1773705	1.1997521	1.0063816	1.4785	75.13	-0.23322	-0.02171	0.21151	1237.2373	0.155236	-422.525009	-422.515961	-422.515017	-422.560057	32.579	
C	 1.9780506048	-0.3601203539	 0.5136906472	-0.38054
C	 0.7032715751	 0.2275194812	-0.1212560122	-0.265751
C	 0.9164739523	 1.6775212258	-0.519239078	 0.355281
O	 1.436915337	 2.0027655061	-1.5620380834	-0.311527
C	 0.4322848438	 2.7487169036	 0.4548664898	 0.013312
O	 0.5844038339	 2.3472177544	 1.8477856408	-0.301159
C	 1.538390496	 3.4020578245	 2.0475929609	 0.105885
C	 0.9062402889	 4.7399389401	 1.839439934	-0.308698
C	 1.3694294143	 3.9339493162	 0.6432819441	-0.112671
H	 2.2187637696	 0.1587025195	 1.444553812	 0.13658
H	 1.8348321447	-1.4203986865	 0.7398285487	 0.12065
H	 2.8261268627	-0.2668189856	-0.1705247336	 0.133012
H	 0.452928754	-0.3260867808	-1.0313914379	 0.121215
H	-0.1287687368	 0.1487148649	 0.5848798457	 0.117495
H	-0.6170056952	 2.9795237832	 0.2133533772	 0.106744
H	 2.4039382289	 3.1885779934	 2.6630290068	 0.109057
H	-0.1525362365	 4.8711499612	 2.0464141594	 0.118479
H	 1.5325631297	 5.5946911118	 2.0760746475	 0.120952
H	 2.0871804028	 4.2718240508	-0.0894534289	 0.121685
31.8866	62.6215	139.8187	165.6013	231.4567	233.5046	330.1806	438.1726	462.5304	558.0209	609.2686	761.7542	790.9445	805.0856	832.8479	873.4766	938.5639	953.2613	965.5057	987.1571	1014.9103	1041.8466	1051.1904	1066.955	1068.689	1083.9593	1096.1798	1181.2691	1201.4495	1225.859	1280.0736	1284.9186	1333.1836	1341.8896	1363.1004	1398.9311	1472.8798	1474.3785	1496.9487	1510.6357	1805.5412	2990.3525	3047.0745	3051.2815	3101.6743	3114.7595	3119.3439	3134.2303	3187.2545	3207.5827	3230.3638
CCC(=O)C1OC2CC12	CCC(=O)[C@H]1O[C@@H]2C[C@H]12	
InChI=1S/C7H10O2/c1-2-5(8)7-4-3-6(4)9-7/h4,6-7H,2-3H2,1H3	InChI=1S/C7H10O2/c1-2-5(8)7-4-3-6(4)9-7/h4,6-7H,2-3H2,1H3/t4-,6+,7-/m0/s1
