19
gdb 880	2.9025957	1.3300463	1.0496489	2.5529	75.36	-0.24879	-0.0258	0.22299000000000002	1162.365	0.157967	-422.553322	-422.545265	-422.54432	-422.586375	30.418	
O	 0.4684934033	 0.2084133491	 0.8188025126	-0.244432
C	 0.2343729849	-0.1568348055	-0.3047688175	 0.139633
C	-0.459379971	 0.6768874639	-1.3632419568	-0.111125
C	-0.9735031219	 2.0069502825	-0.7924428315	-0.086451
O	-1.8788259466	 2.6378686306	-1.682518589	-0.248699
C	-3.1088717776	 1.9389290353	-1.7506538326	-0.103758
C	-2.9293269333	 0.5128067395	-2.2343173193	-0.030387
C	-2.0455175986	 0.2457538082	-3.4229751173	-0.295593
C	-1.5739240589	-0.13247009	-2.0385887714	-0.044952
H	 0.5344489155	-1.1742865114	-0.6500991605	 0.081548
H	 0.3180225724	 0.8827194721	-2.116024532	 0.107239
H	-1.4549730111	 1.8271908889	 0.1802308895	 0.105672
H	-0.1505463916	 2.7062264726	-0.6310101381	 0.118183
H	-3.5919272765	 1.93558227	-0.758506792	 0.091753
H	-3.7464449652	 2.5090500296	-2.4345588828	 0.110169
H	-3.8035222231	-0.1187674408	-2.1061840384	 0.08901
H	-2.3212354793	-0.5474137549	-4.1090220614	 0.111351
H	-1.5689866304	 1.104542776	-3.885268152	 0.124719
H	-1.570648351	-1.1950698757	-1.8093327694	 0.086119
64.6702	101.6597	216.4606	269.2347	278.5337	384.4704	392.2949	466.6224	489.5346	644.3525	701.2525	745.9424	794.0876	838.2489	882.1619	911.3376	948.8057	1003.0815	1020.3166	1060.6053	1065.3641	1077.2858	1109.599	1113.939	1138.0421	1155.1464	1172.4896	1225.5669	1258.4703	1272.6199	1307.9865	1337.2677	1360.197	1381.8669	1414.4457	1420.8834	1430.4941	1482.398	1493.0445	1500.4664	1826.1212	2855.1906	2960.5935	2983.2978	3003.6837	3067.7765	3107.4351	3129.1991	3131.1154	3152.5119	3218.4864
O=CC1COCC2CC12	O=C[C@@H]1COC[C@H]2C[C@@H]12	
InChI=1S/C7H10O2/c8-2-6-4-9-3-5-1-7(5)6/h2,5-7H,1,3-4H2	InChI=1S/C7H10O2/c8-2-6-4-9-3-5-1-7(5)6/h2,5-7H,1,3-4H2/t5-,6-,7-/m1/s1
