19
gdb 3326	2.212891	1.9763501	1.5883095	1.8069	74.52	-0.23436	-0.00444	0.22992	952.6489	0.158018	-422.564829	-422.557056	-422.556112	-422.596322	31.463	
C	 2.2410046552	-1.7530004673	-1.7153381989	-0.497975
C	 0.8244825997	-1.5606146853	-1.2138598074	 0.209486
C	-0.3202702489	-1.7723598954	-2.2472366479	-0.096195
O	-1.4617982394	-1.1268457057	-1.663457226	-0.276155
C	-1.0154325536	-0.5947019042	-0.3889595617	 0.021922
C	-0.7116159178	-1.7771302543	 0.5177906544	-0.116641
C	 0.3867567604	-2.3556178229	 0.0120256766	-0.135165
C	 0.4110816433	-0.1230759534	-0.7452800718	 0.125127
O	 1.190368361	 0.4351118052	 0.2765513199	-0.44902
H	 2.9588492772	-1.4110925162	-0.9633236052	 0.129225
H	 2.453615572	-2.8044968244	-1.9368510267	 0.115834
H	 2.4166801334	-1.1764875812	-2.6298153881	 0.118612
H	-0.0800042813	-1.2914134267	-3.2047881812	 0.099718
H	-0.537987301	-2.831664076	-2.4301679983	 0.097619
H	-1.7416378294	 0.1427627848	-0.052670167	 0.078568
H	-1.3405928155	-2.1364194937	 1.3220956186	 0.107161
H	 0.8465962918	-3.2856668546	 0.3264131466	 0.101617
H	 0.4058494017	 0.6019325143	-1.5636698072	 0.091495
H	 1.1739264611	-0.1890644229	 1.0138257712	 0.274766
188.8486	222.8898	233.9138	282.3753	332.5394	362.1576	404.6201	454.0599	499.8775	568.6177	620.0252	703.892	762.1876	783.2221	822.6529	877.1071	904.8769	912.5289	943.0244	960.4615	995.2779	1002.7109	1022.348	1086.9562	1135.4154	1163.1904	1173.7375	1206.4834	1237.8217	1254.5332	1272.2335	1278.8565	1308.0472	1351.3009	1379.6559	1413.0103	1440.6089	1492.4394	1495.2812	1522.1445	1624.0252	3007.2483	3030.9177	3048.6253	3087.1502	3095.5678	3105.5413	3143.9405	3190.1366	3221.4493	3763.0796
CC12COC(C=C1)C2O	C[C@@]12CO[C@@H](C=C1)[C@H]2O	
InChI=1S/C7H10O2/c1-7-3-2-5(6(7)8)9-4-7/h2-3,5-6,8H,4H2,1H3	InChI=1S/C7H10O2/c1-7-3-2-5(6(7)8)9-4-7/h2-3,5-6,8H,4H2,1H3/t5-,6+,7-/m0/s1
