19
gdb 4063	3.571903	1.535279	1.4299398	1.214	74.6	-0.2393	0.10395	0.34325	986.2016	0.158659	-422.51696	-422.509795	-422.508851	-422.548232	29.018	
C	 3.4390859849	 0.7787510899	 3.2347732617	-0.400447
C	 2.2105115779	 0.0454867585	 2.7011505525	 0.211775
O	 1.1999444109	 0.9573339912	 2.3023723931	-0.292561
C	 1.2070228602	 1.2719752038	 0.9340035006	 0.158499
C	 2.5499228497	 1.1898040943	 0.1367885295	-0.149761
C	 1.6870637834	 0.9856808076	-1.1327898165	-0.251078
C	 0.9954596979	 0.0997992367	-0.0707649076	-0.121278
C	 2.4204180468	-0.3510763423	 0.3703097706	 0.158524
O	 2.5610845763	-0.863210674	 1.6700838566	-0.292569
H	 3.14752005	 1.4245894134	 4.0677996438	 0.123265
H	 4.1748275142	 0.051475717	 3.5894405952	 0.123275
H	 3.9036183283	 1.3955741954	 2.4620940956	 0.121738
H	 1.7690984234	-0.5617240878	 3.4992737985	 0.092977
H	 0.5930553687	 2.1660275054	 0.8035225488	 0.082055
H	 3.4358388368	 1.8176206229	 0.2359490579	 0.077001
H	 1.1262726926	 1.8571929621	-1.4794679041	 0.099743
H	 2.1681737678	 0.4635109821	-1.9634991733	 0.099743
H	 0.1090562639	-0.5244379683	-0.1813920354	 0.077044
H	 2.9706381064	-1.0143257581	-0.3010091176	 0.082055
122.1743	208.2907	240.8829	375.899	388.0114	433.1591	481.0118	568.3365	579.231	739.6373	779.7041	809.054	836.6971	851.9358	898.2695	913.1949	926.284	998.7085	1004.2778	1007.4056	1079.5114	1083.9211	1093.1468	1096.3394	1113.214	1124.9667	1145.6796	1172.6907	1205.2047	1226.3173	1252.8547	1255.9511	1259.8479	1351.1038	1385.0566	1404.2157	1410.0281	1419.25	1486.2266	1487.7866	1516.2566	3044.9545	3049.1785	3058.5212	3087.9081	3088.519	3108.6608	3121.6947	3122.6691	3124.5805	3136.7039
CC1OC2C3CC2C3O1	C[C@H]1O[C@H]2[C@@H]3C[C@H]2[C@@H]3O1	
InChI=1S/C7H10O2/c1-3-8-6-4-2-5(6)7(4)9-3/h3-7H,2H2,1H3	InChI=1S/C7H10O2/c1-3-8-6-4-2-5(6)7(4)9-3/h3-7H,2H2,1H3/t3-,4-,5+,6-,7+
