19
gdb 5218	2.3529543	1.6918004	1.4902435	0.6907	75.27	-0.22777	0.08689	0.31466	1015.2372	0.154892	-422.465931	-422.457276	-422.456331	-422.498982	32.528	
C	 1.4117504421	-0.0512707601	 0.0249976104	-0.256327
O	-0.0096835938	-0.0772622322	 0.0682197974	-0.286337
C	-0.559793539	 0.5550331111	 1.1450155423	 0.372951
C	-2.059530195	 0.575600474	 1.4576802847	-0.344766
C	-1.4422781836	 1.395341189	 2.6119919904	-0.128846
C	-0.1582989048	 0.5214756509	 2.6708711059	-0.006695
O	 0.7575456968	 1.6504177728	 2.5870244077	-0.359922
C	-0.3440513015	 2.0319910684	 1.6976980869	 0.376655
C	-0.3089455898	 3.3578286464	 1.0090615258	-0.529688
H	 1.8463558891	-0.5350172946	 0.9083902315	 0.123598
H	 1.7055234815	-0.6001646318	-0.8718546227	 0.125713
H	 1.7969486684	 0.9735528601	-0.0303257744	 0.125765
H	-2.6964354559	 1.1193179274	 0.7548527398	 0.102941
H	-2.5112032111	-0.3828606837	 1.7262327166	 0.103277
H	-1.9240374515	 1.8780972886	 3.4586577041	 0.087733
H	 0.0871820916	-0.3086329861	 3.3322169907	 0.092083
H	-0.2672870128	 4.1726122216	 1.7388391833	 0.135483
H	 0.5652003285	 3.4357189274	 0.3554974302	 0.134442
H	-1.2069210992	 3.4873793708	 0.3965259793	 0.13194
90.3832	156.3381	173.4297	195.7891	219.7704	248.8515	393.7748	408.5836	471.5951	522.3916	656.4825	684.7889	703.9039	780.6536	818.8935	857.8865	897.6831	921.3167	946.4525	997.2919	1059.0391	1068.3528	1077.2792	1110.0247	1123.0816	1126.6568	1156.9773	1178.8815	1198.2269	1220.4237	1245.1219	1272.9108	1342.3092	1366.8079	1413.3687	1472.1211	1486.746	1489.6644	1491.2829	1497.0476	1520.247	3016.1459	3037.2696	3056.8356	3076.5904	3108.6244	3112.1416	3114.6082	3126.6373	3129.1336	3156.0926
COC12CC3C1OC23C	CO[C@@]12C[C@H]3[C@@H]1O[C@@]23C	
InChI=1S/C7H10O2/c1-6-4-3-7(6,8-2)5(4)9-6/h4-5H,3H2,1-2H3	InChI=1S/C7H10O2/c1-6-4-3-7(6,8-2)5(4)9-6/h4-5H,3H2,1-2H3/t4-,5-,6+,7-/m0/s1
