19
gdb 4729	1.9120612	1.4908696	1.2795887	1.6556	77.6	-0.23932	-0.02371	0.21561	1151.3426	0.151031	-422.528084	-422.516941	-422.515997	-422.564442	38.88	
C	 1.6547025758	-0.3650250562	 0.0143670663	-0.254786
O	 0.280481943	-0.0149351787	-0.0415399656	-0.262172
C	-0.2367141057	 0.6234387843	 1.1247161315	 0.019173
C	-1.7475980546	 0.7761082893	 0.8692609273	-0.432999
C	-0.0099219143	-0.1732564285	 2.3356548203	 0.373222
C	 0.1545424192	-0.8564776215	 3.3098247761	-0.464231
C	 0.3851704601	 2.0518798555	 1.2813853593	 0.363241
C	 0.4353369193	 2.8971882026	 0.0200227911	-0.48719
O	 0.7598706919	 2.4632444367	 2.3495574835	-0.289679
H	 1.8570203809	-1.0715489972	 0.8274583585	 0.132812
H	 1.8898621074	-0.834380712	-0.9430859968	 0.131225
H	 2.300935654	 0.5150370615	 0.1465821779	 0.112969
H	-2.226911963	 1.2861875491	 1.7079644076	 0.140182
H	-1.9166768183	 1.3429887962	-0.0492180713	 0.12877
H	-2.1901415185	-0.2153874996	 0.7542737686	 0.143755
H	 0.3070775692	-1.4458673698	 4.1803705883	 0.200287
H	 0.5447179979	 2.2894953233	-0.8788208203	 0.149547
H	-0.5035910697	 3.4570461373	-0.0656140041	 0.151599
H	 1.2474050354	 3.6205538576	 0.1088068318	 0.144275
46.9647	86.6344	121.1723	138.4546	167.5984	174.3483	219.3692	251.1508	276.5676	295.8797	403.0269	430.9323	453.2183	540.7517	591.4666	635.2517	638.8624	649.6321	672.5882	860.8907	903.1014	964.4832	1010.7343	1084.5058	1115.4946	1132.6454	1168.3103	1184.5813	1231.6619	1248.0727	1375.0076	1397.1335	1463.7222	1474.1009	1475.3786	1483.5386	1487.6727	1492.191	1510.1233	1823.723	2235.6727	2996.5956	3045.4676	3056.1806	3068.9559	3119.4701	3127.8804	3139.2297	3142.8671	3164.5673	3499.2471
COC(C)(C#C)C(C)=O	CO[C@@](C)(C#C)C(=O)C	
InChI=1S/C7H10O2/c1-5-7(3,9-4)6(2)8/h1H,2-4H3	InChI=1S/C7H10O2/c1-5-7(3,9-4)6(2)8/h1H,2-4H3/t7-/m0/s1
