19
gdb 3086	3.5194454	1.5817565	1.5060553	0.0597	73.43	-0.22215	0.05553	0.27768	960.9086	0.159174	-422.498525	-422.491736	-422.490792	-422.529207	28.446	
C	-0.0147915032	 0.0481366373	 0.0092396672	-0.433968
C	 1.5069876349	 0.0461708518	 0.0241870964	 0.053494
C	 2.146075924	-1.0139214491	 0.9680294534	 0.041108
O	 1.8951707718	-2.0166548923	-0.0667985127	-0.293031
C	 2.1655507754	-0.9234563288	-1.000123298	 0.041096
C	 3.7266575391	-0.6849155979	-0.9751131949	 0.048137
C	 4.3543808917	-1.7395610942	-0.029725928	-0.207775
C	 3.7071579928	-0.7755128301	 0.995837848	 0.048134
O	 3.9888819226	 0.3150675667	 0.0611010672	-0.288836
H	-0.4094391879	 0.5285460415	 0.9113729375	 0.113545
H	-0.3920252042	 0.6102231366	-0.8522296537	 0.113545
H	-0.4122761394	-0.9686204255	-0.0417483563	 0.131495
H	 1.9139532691	 1.0535514358	 0.074513575	 0.096138
H	 1.7004861599	-1.277255302	 1.9300911292	 0.075657
H	 1.7392850823	-1.0970249915	-1.9908948489	 0.075658
H	 4.1689427971	-0.4231432399	-1.9379188383	 0.079852
H	 4.0302684312	-2.7753521158	-0.080543352	 0.120656
H	 5.4400863373	-1.6437934493	-0.0145818663	 0.105241
H	 4.1301067957	-0.6035632432	 1.9871417552	 0.079852
223.9835	237.1276	250.8081	344.5796	442.8122	495.9233	545.2131	598.7655	622.9601	791.2008	793.7192	846.748	851.8885	866.1835	879.3505	895.1505	911.9461	912.2732	933.9641	1012.4449	1039.0022	1064.0153	1084.8734	1087.4247	1098.1093	1147.4761	1169.3327	1194.2085	1236.4571	1247.5708	1256.2366	1281.5378	1287.2034	1296.4464	1324.759	1328.8352	1381.0409	1403.4126	1476.2465	1492.0028	1506.6112	3031.9515	3085.7915	3086.5023	3090.8664	3097.5637	3102.773	3111.0067	3116.2304	3140.9591	3180.9295
CC1C2OC1C1CC2O1	C[C@H]1[C@H]2O[C@@H]1[C@@H]1C[C@H]2O1	
InChI=1S/C7H10O2/c1-3-6-4-2-5(8-4)7(3)9-6/h3-7H,2H2,1H3	InChI=1S/C7H10O2/c1-3-6-4-2-5(8-4)7(3)9-6/h3-7H,2H2,1H3/t3-,4+,5-,6+,7-
