19
gdb 2377	3.3360614	1.2508624	1.0508695	1.7316	75.73	-0.22695	0.08009	0.30704	1177.5904	0.15587	-422.488929	-422.480443	-422.479499	-422.522063	31.781	
C	 0.2500779596	 0.1950713825	 0.7539265631	-0.50043
C	 1.522108695	 0.0758167305	-0.0177850695	 0.467072
O	 2.3923775965	-1.026910288	 0.2894227644	-0.326486
C	 3.5569489442	-0.1679136158	 0.1399265102	-0.106738
C	 2.6879056489	 1.000395571	-0.2972975447	-0.190696
C	 1.7888121355	 0.5318954862	-1.4305358652	-0.127348
C	 0.8760667321	 1.5327363699	-2.0654864368	 0.037131
C	 1.3491421029	 2.8276578998	-2.5772782724	-0.173401
O	 0.623284483	 2.7460697682	-1.3478532789	-0.231074
H	 0.4501437124	 0.1875922149	 1.8297732018	 0.127117
H	-0.2637072579	 1.1248113303	 0.4987244748	 0.151506
H	-0.4174908538	-0.6446467558	 0.5285144044	 0.127251
H	 4.0479340879	-0.0157867868	 1.1080764307	 0.108782
H	 4.2802555232	-0.5680945711	-0.58118738	 0.101316
H	 2.8161897796	 2.044624841	-0.0490700091	 0.112453
H	 2.1707415614	-0.2172293511	-2.1239906796	 0.090775
H	-0.0151414828	 1.1106583909	-2.5338832942	 0.098674
H	 2.4019401733	 3.0859673123	-2.4781236423	 0.116517
H	 0.8206801591	 3.3118154011	-3.3968652066	 0.117578
83.5546	149.4184	167.5208	206.2183	240.2651	310.6335	341.5396	383.6036	458.0801	588.8434	686.5198	742.4595	799.9862	859.3674	884.5071	925.3157	933.8606	966.4417	984.0618	984.636	1022.4605	1036.5811	1081.475	1102.6324	1125.0623	1133.2924	1159.6855	1162.5224	1170.3584	1191.1433	1245.4826	1286.4635	1336.7275	1339.9531	1409.2524	1426.1887	1455.1207	1481.4968	1501.4742	1520.1221	1522.1787	3018.5867	3034.7172	3066.0179	3086.7002	3091.0217	3096.3809	3107.8659	3133.0071	3178.2822	3213.771
CC12OCC1C2C1CO1	C[C@]12OC[C@H]1[C@@H]2[C@@H]1CO1	
InChI=1S/C7H10O2/c1-7-4(2-9-7)6(7)5-3-8-5/h4-6H,2-3H2,1H3	InChI=1S/C7H10O2/c1-7-4(2-9-7)6(7)5-3-8-5/h4-6H,2-3H2,1H3/t4-,5-,6+,7-/m0/s1
