19
gdb 2634	2.7267488	1.506772	1.1952604	1.9517	76.5	-0.24114	-0.00363	0.23751	1108.3096	0.155626	-422.560391	-422.551443	-422.550498	-422.593477	33.901	
C	 1.2826371767	 0.8807783086	 0.3624765561	-0.486631
C	-0.0258027034	 0.168533479	 0.2717093993	 0.271722
C	-0.2696669606	-1.1443816801	 0.3511255588	-0.196896
C	-1.7124647945	-1.4271413735	 0.0912577689	-0.059502
O	-2.1511384472	-1.0057405933	-1.2381669568	-0.316059
C	-2.3913862478	-0.1436617612	-0.1097976263	 0.377689
C	-3.8218080527	 0.1840750503	 0.2032767037	-0.498285
C	-1.3056661325	 0.9457270086	-0.0472680429	-0.013334
O	-1.2117025425	 1.6674220995	-1.2664592101	-0.43423
H	 1.2903150872	 1.5846711408	 1.2048744481	 0.127271
H	 2.1186457565	 0.1876961608	 0.486171589	 0.12259
H	 1.4480456785	 1.4775680454	-0.5415354616	 0.144716
H	 0.4686927339	-1.9177416114	 0.5290929771	 0.099997
H	-2.212068255	-2.314870071	 0.4670815745	 0.096876
H	-3.9230433858	 0.5383992285	 1.2345668074	 0.123462
H	-4.1793827373	 0.977762406	-0.4618642324	 0.137669
H	-4.4588929633	-0.6934070307	 0.0680074064	 0.129509
H	-1.5287028108	 1.6930562718	 0.7244615775	 0.084359
H	-1.2116474295	 0.989608792	-1.9569358066	 0.289077
106.4956	170.6441	192.3534	211.8395	238.9287	242.1426	300.5333	364.6773	479.9444	507.9567	533.4764	556.5751	619.2724	695.2035	740.4662	832.8919	872.6081	874.0246	895.8013	955.0426	1002.1454	1024.8073	1060.6646	1079.3303	1083.9327	1111.0392	1186.3999	1223.5783	1264.987	1280.2041	1305.2219	1336.649	1404.5608	1407.4035	1429.7244	1461.3421	1474.2811	1484.4909	1488.2909	1497.3578	1703.2737	3022.1382	3033.5624	3038.0766	3076.392	3099.1335	3118.2207	3123.9768	3163.5686	3198.4018	3749.9335
CC1=CC2OC2(C)C1O	CC1=C[C@@H]2O[C@]2(C)[C@@H]1O	
InChI=1S/C7H10O2/c1-4-3-5-7(2,9-5)6(4)8/h3,5-6,8H,1-2H3	InChI=1S/C7H10O2/c1-4-3-5-7(2,9-5)6(4)8/h3,5-6,8H,1-2H3/t5-,6+,7-/m0/s1
