19
gdb 1079	2.6931452	1.3562075	1.0442859	2.3146	75.52	-0.24444	-0.01439	0.23004999999999998	1187.463	0.15486	-422.539935	-422.530639	-422.529695	-422.57443	33.77	
C	 1.0996280263	-1.4056514779	 0.9689036344	-0.49611
C	 0.6783827305	-2.8164670311	 0.5880252803	 0.333032
O	-0.2716676883	-3.3442488817	 1.130016667	-0.313234
C	 1.4637608492	-3.5705454293	-0.4414898226	 0.193965
C	 1.8699825542	-2.8558073764	-1.7322752333	-0.299385
C	 2.9133314388	-3.2170194951	-0.7287152486	-0.313479
C	 1.0396038802	-5.0086330347	-0.5750635709	 0.017929
C	 1.7770420706	-6.1089153366	 0.0528719992	-0.174348
O	 1.8920898112	-5.8509585617	-1.3530657583	-0.250367
H	 1.9521371808	-1.4579667586	 1.6562381432	 0.148109
H	 1.4085849088	-0.7988700859	 0.1141075277	 0.133668
H	 0.2701907093	-0.9228431579	 1.4868230212	 0.147269
H	 1.810710054	-3.4567316523	-2.6325595896	 0.143852
H	 1.5878229727	-1.8172729812	-1.857767815	 0.122829
H	 3.5574046216	-4.054977001	-0.9677609517	 0.14319
H	 3.3731794013	-2.4301783742	-0.1429898534	 0.117828
H	-0.0237664183	-5.15042537	-0.7566853868	 0.11051
H	 2.6692485895	-5.8905372648	 0.6373978456	 0.112081
H	 1.2574551375	-7.0282047199	 0.3156793315	 0.122661
68.3888	80.4167	110.0138	190.9598	220.6763	267.6046	277.6748	364.8526	452.1886	469.7329	562.8374	611.5922	661.7636	786.3682	813.9265	858.102	880.697	913.865	940.6357	959.5609	1009.3294	1051.0154	1057.2853	1071.8534	1099.0907	1099.6436	1138.428	1158.4404	1171.6783	1201.3483	1278.8099	1324.7738	1333.258	1387.1259	1437.0643	1450.1583	1469.4792	1477.5528	1494.5268	1528.0008	1775.919	3042.7679	3090.9799	3109.6336	3134.636	3144.547	3147.7244	3154.2881	3180.7603	3228.6158	3242.2205
CC(=O)C1(CC1)C1CO1	CC(=O)C1(CC1)[C@@H]1CO1	
InChI=1S/C7H10O2/c1-5(8)7(2-3-7)6-4-9-6/h6H,2-4H2,1H3	InChI=1S/C7H10O2/c1-5(8)7(2-3-7)6-4-9-6/h6H,2-4H2,1H3/t6-/m0/s1
