19
gdb 5472	3.1380499	1.2658551	1.0507027	2.9037	74.9	-0.22684	0.0693	0.29614	1193.8236	0.15528	-422.470159	-422.461639	-422.460695	-422.503291	32.409	
C	 5.157600499	-2.8503128419	 0.0477910239	-0.380104
C	 5.3570092003	-2.137492231	-1.2943678246	-0.195902
C	 4.79226347	-0.7225058054	-1.3128838674	-0.101923
C	 3.2694534766	-0.5077458186	-1.4953642985	-0.099201
C	 3.3347654014	-0.6797698161	-3.0478656362	 0.037206
O	 2.6179131218	 0.5559894362	-3.3313628229	-0.327563
C	 3.4498035105	 0.8791785923	-2.1806113072	 0.000879
C	 4.6774254403	 0.0183414941	-2.6697499876	 0.354363
O	 5.6601063932	 0.3308191952	-3.5784016498	-0.462174
H	 5.5883230283	-3.8561926841	 0.0317187733	 0.114569
H	 5.6355645022	-2.2965592041	 0.8636346928	 0.114012
H	 4.0946317844	-2.9465597052	 0.2936404549	 0.117506
H	 6.4282837486	-2.0936487109	-1.5298848115	 0.099317
H	 4.8965983074	-2.7272159701	-2.0973391879	 0.097979
H	 5.2288020611	-0.1165464827	-0.5070093157	 0.059911
H	 2.4406881399	-0.795276298	-0.8535562917	 0.090571
H	 3.1430569205	-1.5497328847	-3.6736244904	 0.099917
H	 3.4026992434	 1.8813729055	-1.7547616208	 0.092374
H	 6.3009533812	 0.9136449697	-3.1563221428	 0.288262
78.0846	146.7328	176.5959	224.634	258.5001	287.9385	351.8411	386.552	514.812	580.9466	688.1942	738.0973	771.5489	815.1659	836.9662	851.5121	893.8216	910.429	919.1002	937.1615	999.3333	1021.514	1058.9264	1077.0137	1099.0384	1126.0478	1140.835	1159.2691	1175.1629	1210.525	1233.669	1287.9396	1296.4336	1305.4572	1347.1647	1389.7922	1411.7975	1435.8466	1484.1906	1499.6344	1506.4995	3010.6071	3019.9124	3030.9275	3052.0027	3097.7156	3103.7907	3120.3365	3135.2078	3160.1176	3804.4305
CCC1C2C3OC2C13O	CC[C@@H]1[C@@H]2[C@H]3O[C@@H]2[C@@]13O	
InChI=1S/C7H10O2/c1-2-3-4-5-7(3,8)6(4)9-5/h3-6,8H,2H2,1H3	InChI=1S/C7H10O2/c1-2-3-4-5-7(3,8)6(4)9-5/h3-6,8H,2H2,1H3/t3-,4-,5-,6+,7-/m1/s1
