19
gdb 4547	2.1672768	1.9643967	1.3657931	1.5395	75.26	-0.2482	-0.01044	0.23776	1006.8406	0.157576	-422.524602	-422.516462	-422.515518	-422.557007	31.331	
C	-0.5495910798	-0.6289795563	-1.4415147157	-0.385231
C	 0.6262624415	-1.5956787015	-1.5921242289	 0.115272
O	 0.7359899743	-2.4219701166	-0.4230596874	-0.27872
C	 1.7752262576	-2.1723176677	 0.5118217226	-0.115729
C	 1.8728451958	-0.7429879577	 1.0102161401	-0.074037
C	 2.3193768529	 0.24221617	 0.233602796	-0.083993
C	 2.7219856605	-0.0136141743	-1.1748575662	 0.016404
O	 1.8887597674	 0.5105573889	-2.2157264367	-0.242651
C	 1.9270196756	-0.9102359567	-2.0370697538	-0.009559
H	-0.3613383012	 0.1203960673	-0.6717107826	 0.126399
H	-0.7437038289	-0.1095151634	-2.3840992699	 0.119575
H	-1.4373842756	-1.2034348258	-1.1635512834	 0.114702
H	 0.3704790312	-2.3078828004	-2.3869520142	 0.08681
H	 1.5600425487	-2.8478108459	 1.3441020358	 0.111478
H	 2.7473790389	-2.4760120339	 0.0953380638	 0.099576
H	 1.5663745857	-0.5389254902	 2.0327648226	 0.101986
H	 2.4069688453	 1.2621841891	 0.6002573805	 0.103508
H	 3.7871212348	 0.0928907577	-1.3940503761	 0.098735
H	 2.4653608353	-1.4275976324	-2.8314120666	 0.095475
88.2968	182.6132	230.914	243.7145	296.6334	327.0382	362.7344	414.0569	508.0141	530.66	677.4057	720.7217	767.0706	799.5837	832.4453	866.2447	923.5575	958.1162	989.2943	1010.7776	1019.805	1055.6167	1084.9631	1105.9563	1119.0865	1157.577	1175.3264	1223.1109	1293.5817	1300.11	1365.5173	1369.0201	1383.6513	1396.6503	1410.4857	1417.6561	1463.0737	1484.3344	1496.1508	1505.2384	1714.9973	2985.8228	3017.929	3052.8261	3074.156	3087.3287	3105.3813	3123.2665	3149.2265	3150.6741	3174.0525
CC1OCC=CC2OC12	C[C@@H]1OCC=C[C@@H]2O[C@H]12	
InChI=1S/C7H10O2/c1-5-7-6(9-7)3-2-4-8-5/h2-3,5-7H,4H2,1H3	InChI=1S/C7H10O2/c1-5-7-6(9-7)3-2-4-8-5/h2-3,5-7H,4H2,1H3/t5-,6-,7+/m0/s1
