19
gdb 5315	2.0685361	1.5674255	0.9378387	3.4139	80.43	-0.23444	-0.04004	0.19440000000000002	1250.1146	0.15621	-422.601101	-422.591586	-422.590641	-422.635913	34.015	
C	 2.6264335999	-1.2312214811	-1.4264234021	-0.50268
C	 2.260664044	 0.0388399537	-0.7291541638	 0.221623
C	 1.1749418285	 0.2753412805	 0.0352575529	 0.065265
C	 0.0509129805	-0.6514768373	 0.415729419	-0.190413
O	 0.4647008058	-1.9730592801	 0.7558672485	-0.406343
C	 1.1941345793	 1.6724054108	 0.5297149607	 0.339229
O	 0.374621899	 2.1848282421	 1.2611252813	-0.342016
C	 2.4420672425	 2.3554168211	-0.0429347303	-0.336856
C	 3.1535953971	 1.2577288768	-0.8500309335	-0.304936
H	 3.6624668826	-1.5115705619	-1.198102629	 0.129578
H	 1.9672014529	-2.051205559	-1.1426111129	 0.1611
H	 2.5821079901	-1.0903337609	-2.5145760354	 0.134865
H	-0.513917638	-0.1794715683	 1.2308702748	 0.124611
H	-0.643239541	-0.7755897155	-0.4232382096	 0.12373
H	 1.0373417701	-1.9048317936	 1.5268090768	 0.282988
H	 2.1363526174	 3.2080780997	-0.6565863964	 0.133693
H	 3.0472403239	 2.757307899	 0.774532215	 0.131818
H	 3.2922265273	 1.5261294893	-1.9049169436	 0.117704
H	 4.157066378	 1.0350642046	-0.4654624225	 0.117038
59.7721	90.8671	129.9177	155.139	200.1032	245.1378	302.8882	338.8692	379.298	476.5398	521.7661	573.5188	617.7014	649.8273	731.9287	827.1939	897.4709	955.5441	966.7277	1000.9233	1014.8176	1063.7629	1081.472	1096.1078	1159.9918	1188.9279	1210.0757	1234.1604	1268.704	1301.5142	1335.0169	1392.9493	1406.5301	1417.167	1452.9152	1472.9213	1482.5024	1496.9709	1505.1076	1697.1459	1798.2999	3018.8888	3020.5221	3026.175	3049.3074	3064.2888	3064.9894	3066.1038	3106.0732	3155.3812	3814.3313
CC1=C(CO)C(=O)CC1	CC1=C(CO)C(=O)CC1	
InChI=1S/C7H10O2/c1-5-2-3-7(9)6(5)4-8/h8H,2-4H2,1H3	InChI=1S/C7H10O2/c1-5-2-3-7(9)6(5)4-8/h8H,2-4H2,1H3
