19
gdb 2365	2.672778	1.4127497	1.1517293	4.4147	77.04	-0.24256	-0.01152	0.23104	1123.748	0.155117	-422.541847	-422.532776	-422.531832	-422.575176	34.153	
C	-0.1793049906	-0.2956155028	 0.029761715	-0.475938
C	 1.3298009153	-0.1840910076	-0.0118001242	 0.174025
C	 2.0313792283	-1.0725302236	 0.9647432454	 0.136086
O	 1.4598154895	-1.8032835599	 1.7367265513	-0.279728
C	 2.1706338052	-0.0529358776	-1.3012332323	-0.185957
C	 1.4348567921	 0.8079857479	-2.3315261437	-0.243695
C	 1.3913492857	 1.9857118942	-1.3032088646	-0.303222
C	 2.1035408937	 1.0866244629	-0.2865997746	 0.351718
O	 2.9975244382	 1.5430430435	 0.6646928304	-0.451185
H	-0.548969692	-0.0308825226	 1.0243526501	 0.136569
H	-0.6662589577	 0.3538483476	-0.6995092819	 0.11338
H	-0.4894825206	-1.3259284625	-0.1657938701	 0.132425
H	 3.1400651514	-1.0310389845	 0.9257731715	 0.076216
H	 2.9566975832	-0.7679646604	-1.5147545277	 0.098487
H	 2.0524949301	 1.0376607678	-3.2023333872	 0.109682
H	 0.4707570807	 0.4298652068	-2.6810420919	 0.111492
H	 2.0320282102	 2.8158818788	-1.6160905498	 0.101085
H	 0.41685887	 2.3902611488	-1.0163252659	 0.110921
H	 3.676347947	 2.0634584533	 0.21992642	 0.287639
100.6138	129.9549	180.9495	234.3136	258.9562	298.	321.2488	326.1737	388.9279	427.9121	492.7255	554.1655	658.613	696.2063	757.5135	803.1247	897.1584	926.8469	939.5023	965.1945	998.1297	1018.959	1059.0514	1074.2537	1106.5005	1116.8889	1202.7785	1207.1178	1224.7783	1238.4499	1283.9785	1289.026	1321.315	1416.2705	1429.171	1450.5621	1472.0331	1493.3211	1496.9965	1508.7908	1814.6495	2910.4247	3051.1886	3054.6872	3064.6811	3096.1236	3115.8236	3116.0129	3138.0716	3179.246	3790.1312
CC1(C=O)C2CCC12O	C[C@@]1(C=O)[C@H]2CC[C@@]12O	
InChI=1S/C7H10O2/c1-6(4-8)5-2-3-7(5,6)9/h4-5,9H,2-3H2,1H3	InChI=1S/C7H10O2/c1-6(4-8)5-2-3-7(5,6)9/h4-5,9H,2-3H2,1H3/t5-,6-,7+/m1/s1
