19
gdb 1940	2.3318684	1.6629278	1.3023128	1.7923	75.01	-0.19791	0.05744	0.25535	1053.9126	0.154472	-422.485733	-422.476734	-422.47579	-422.518548	35.153	
C	-0.006827575	-0.1854994332	-0.1192117758	-0.496663
C	 1.4777221533	-0.0453822886	 0.050600636	 0.164185
C	 2.3644725251	 0.7114309651	-0.9306027753	-0.39117
C	 2.3410812764	 1.1253801221	 0.5032238531	 0.370905
O	 2.0126574168	 2.429426021	 0.8320170465	-0.45297
C	 3.1524422691	 0.200952424	 1.4606309791	-0.24482
C	 3.7735341438	-1.0033901411	 0.7665602532	-0.331002
C	 2.3035190126	-0.9772316609	 1.008310661	 0.359534
O	 1.7124623357	-2.0057881015	 1.7210608935	-0.4459
H	-0.51497473	-0.3656650335	 0.8366749855	 0.096221
H	-0.43199631	 0.7278950858	-0.5465454514	 0.127735
H	-0.26466178	-1.0187375255	-0.7833078944	 0.130757
H	 3.2301818504	 0.2798560091	-1.4218256849	 0.110916
H	 1.7976515794	 1.3853332121	-1.5682153005	 0.116709
H	 1.588223538	 2.4256778654	 1.6976381232	 0.281808
H	 3.4621233728	 0.5083638024	 2.4525030897	 0.087834
H	 4.2280565035	-0.9526715942	-0.2167106596	 0.113614
H	 4.2957957565	-1.661122293	 1.4560791017	 0.119195
H	 0.9896027316	-1.6410246854	 2.2433134594	 0.283111
133.0701	158.7517	176.6155	244.3989	288.7637	313.5589	348.4312	395.3987	410.6817	453.5398	463.796	519.7212	575.84	638.7978	706.7179	812.7014	831.6736	848.2321	895.7184	930.7152	962.5766	976.4467	990.9272	1018.8381	1062.2432	1090.7146	1095.7158	1127.0566	1147.42	1186.0601	1245.8553	1290.752	1309.2963	1342.9563	1398.214	1409.6516	1420.5673	1482.5629	1495.0163	1503.2785	1518.4245	3015.6359	3067.6728	3099.6081	3113.7257	3128.2273	3183.5066	3195.0679	3205.6938	3784.0166	3794.9566
CC12CC1(O)C1CC21O	C[C@@]12C[C@]1(O)[C@@H]1C[C@]21O	
InChI=1S/C7H10O2/c1-5-3-7(5,9)4-2-6(4,5)8/h4,8-9H,2-3H2,1H3	InChI=1S/C7H10O2/c1-5-3-7(5,9)4-2-6(4,5)8/h4,8-9H,2-3H2,1H3/t4-,5+,6-,7+/m1/s1
