19
gdb 500	2.849459	1.929762	1.4591199	1.5505	74.09	-0.24475	0.07204	0.31679	935.0116	0.159862	-422.517383	-422.510686	-422.509742	-422.548004	27.993	
C	-0.2418616674	 1.3600833743	-0.0754785381	-0.163516
O	-0.0214260162	 0.0116558463	-0.5990307124	-0.352152
C	 1.3144681301	 0.036156247	-0.080685689	 0.450269
C	 2.6672191031	-0.4510110258	-0.6092631486	-0.314687
C	 3.1101742641	-0.1157185359	 0.866068808	-0.049786
C	 1.6798457719	-0.5275580706	 1.3077854495	-0.288726
C	 3.253676947	 1.4074590552	 1.1265937453	-0.087737
O	 1.9862206017	 2.0854238941	 1.0711809429	-0.261374
C	 1.2832820529	 1.5599209594	-0.0231343435	 0.063206
H	-0.8192378925	 1.9771334165	-0.7680606078	 0.112609
H	-0.7239378359	 1.3376261889	 0.9090300803	 0.112669
H	 2.7317301131	-1.5260972604	-0.798064013	 0.106179
H	 3.1148404659	 0.1078398937	-1.4363700039	 0.095254
H	 3.9676235896	-0.6606818655	 1.2624251035	 0.078993
H	 1.5578241937	-1.6122110353	 1.3476214679	 0.102191
H	 1.254555939	-0.0548325317	 2.194449008	 0.10825
H	 3.6411519327	 1.5862816564	 2.133568188	 0.115115
H	 3.9527796302	 1.856848121	 0.4034947538	 0.096406
H	 1.639052937	 1.9976074125	-0.9685493609	 0.076837
200.8431	246.3999	371.639	374.9321	389.7985	453.3258	525.9964	533.2179	627.4145	734.9179	791.5944	845.6381	850.5059	896.7685	925.4802	946.4944	979.6232	986.7933	997.5094	1003.5545	1056.9572	1098.4371	1112.9918	1130.6073	1139.994	1153.0348	1169.5171	1191.4647	1232.7132	1239.3601	1280.207	1289.7832	1309.1886	1324.299	1334.151	1379.0884	1416.3183	1476.8499	1500.7404	1511.8941	1514.6053	2978.8935	2985.4201	3034.6101	3049.6066	3072.8703	3086.0013	3105.944	3106.8657	3110.7229	3135.6045
C1OC23CC(C2)COC13	C1O[C@]23C[C@H](C2)CO[C@H]13	
InChI=1S/C7H10O2/c1-5-2-7(1)6(4-9-7)8-3-5/h5-6H,1-4H2	InChI=1S/C7H10O2/c1-5-2-7(1)6(4-9-7)8-3-5/h5-6H,1-4H2/t5-,6-,7-/m1/s1
