19
gdb 5462	2.8372058	1.3878418	1.167674	1.0703	75.27	-0.2234	0.0788	0.30219999999999997	1138.5144	0.155579	-422.474507	-422.465914	-422.46497	-422.507814	31.885	
C	 1.517427481	 0.0844233487	-0.0829554643	-0.238127
O	 0.1157600843	 0.0549469026	 0.0845846304	-0.252947
C	-0.3225200798	 0.7679515687	 1.2161863512	 0.150136
C	-1.8308962775	 0.6562795702	 1.3519166079	-0.211122
C	-2.0771477057	 0.6605646068	 2.8710370207	 0.030368
O	-0.818987032	 0.8564074566	 3.5262103204	-0.297051
C	-0.27234796	-0.0590033037	 2.540069166	-0.030291
C	-1.7137952021	-0.6167759936	 2.1995920232	 0.302094
C	-2.3163175144	-1.9774302346	 2.0960765419	-0.532728
H	 2.0502906438	-0.3868569232	 0.7561747614	 0.105942
H	 1.7438085475	-0.4700337983	-0.9966667722	 0.128194
H	 1.889986519	 1.1145616758	-0.1898132854	 0.109612
H	 0.1422674938	 1.7647365208	 1.2616419566	 0.065215
H	-2.589316274	 0.9194339844	 0.6254494022	 0.092962
H	-2.983248728	 1.012937401	 3.3471944845	 0.108706
H	 0.6091191377	-0.6034694973	 2.8741101938	 0.084395
H	-2.1968425655	-2.5422227487	 3.0274394575	 0.126175
H	-3.3885396786	-1.9068796721	 1.883436879	 0.125194
H	-1.8549802198	-2.5517012342	 1.2855840952	 0.133272
87.9981	118.402	167.9006	203.1436	232.5429	275.4458	317.6101	421.8178	497.2579	563.6486	609.309	769.5076	802.4609	848.8198	862.5147	886.7116	933.3959	970.7591	986.232	999.5549	1021.602	1039.6206	1088.5076	1116.9384	1138.7163	1157.5136	1175.3859	1184.1898	1206.4471	1226.0714	1236.6279	1281.4644	1295.2788	1378.8717	1409.4137	1468.0383	1479.2085	1484.1212	1486.5551	1497.7345	1508.5703	2978.4888	2990.9461	3025.7585	3027.8032	3090.3869	3095.82	3117.0584	3138.3514	3196.4929	3206.1998
COC1C2C3OC1C23C	CO[C@H]1[C@@H]2[C@@H]3O[C@H]1[C@]23C	
InChI=1S/C7H10O2/c1-7-3-4(8-2)6(7)9-5(3)7/h3-6H,1-2H3	InChI=1S/C7H10O2/c1-7-3-4(8-2)6(7)9-5(3)7/h3-6H,1-2H3/t3-,4+,5+,6-,7-/m1/s1
