19
gdb 2735	2.355485	1.6629471	1.355996	2.261	76.45	-0.21507	0.0171	0.23217000000000002	1038.4278	0.155919	-422.55754	-422.548649	-422.547705	-422.590309	34.339	
C	-1.5013191197	-1.5206652736	 2.1672667631	-0.495758
C	-1.6118249837	-0.0500288835	 1.8517455333	 0.176591
C	-2.9208694317	 0.6603936982	 1.8981552489	-0.130795
C	-2.8145603202	 1.9145370933	 2.3491284445	-0.088667
C	-1.3958869288	 2.2630912444	 2.745072934	-0.337161
C	-0.6160848557	 1.0172498942	 2.3344918677	 0.280383
O	 0.5637619152	 0.6919690125	 3.0145822883	-0.479268
C	-0.6024124759	 0.6053655422	 0.8885014263	 0.061606
O	 0.4956621933	-0.1282361256	 0.4590626206	-0.437652
H	-1.7046510989	-1.7337338414	 3.2236282018	 0.106341
H	-2.2227444793	-2.0945124338	 1.5751853825	 0.124534
H	-0.5059048301	-1.8952923285	 1.9172675728	 0.128612
H	-3.8414376466	 0.1906088597	 1.5673318113	 0.09416
H	-3.6318395282	 2.6211714016	 2.4334247876	 0.095992
H	-1.0227254601	 3.1647540605	 2.2443192466	 0.116241
H	-1.3028056806	 2.4482620563	 3.8258409393	 0.100445
H	 0.3408092114	 0.2005426271	 3.812335515	 0.293764
H	-0.9927878032	 1.280807113	 0.1303190437	 0.096172
H	 1.1395460428	-0.0961651866	 1.1809510528	 0.29446
128.0743	168.4415	213.0955	226.0366	261.4126	265.9351	310.0142	412.0801	436.9072	467.7693	504.0205	537.1043	641.0828	696.1719	726.3764	754.2236	787.5851	899.0934	939.6391	954.5248	961.372	994.5679	1053.1723	1072.8252	1104.1841	1139.955	1157.4842	1179.66	1216.9158	1235.5398	1287.8843	1303.6537	1330.1939	1381.5586	1394.3055	1412.1435	1438.5274	1481.3187	1490.8073	1500.1395	1664.2028	2997.5472	3024.7613	3047.3189	3080.0632	3121.1796	3129.0292	3179.0246	3208.4163	3734.1198	3803.2629
CC12C=CCC1(O)C2O	C[C@@]12C=CC[C@]1(O)[C@H]2O	
InChI=1S/C7H10O2/c1-6-3-2-4-7(6,9)5(6)8/h2-3,5,8-9H,4H2,1H3	InChI=1S/C7H10O2/c1-6-3-2-4-7(6,9)5(6)8/h2-3,5,8-9H,4H2,1H3/t5-,6-,7-/m0/s1
