19
gdb 5490	4.7959811	1.0446749	1.0082815	1.1738	74.8	-0.24099	0.06893	0.30992000000000003	1218.5715	0.158612	-422.511031	-422.50345	-422.502506	-422.54326	29.589	
O	 1.3111828505	-0.1559519496	 0.8578289176	-0.417644
C	 0.3254618245	 0.2552044176	-0.0810816978	-0.108335
C	-0.7701088491	 1.084456408	 0.5713062383	-0.008907
C	-1.9161521714	 0.3965415506	 1.3643542153	-0.111147
C	-2.7858772267	 1.6860048187	 1.1639155664	-0.057113
C	-4.2234958871	 1.2230885588	 0.9843432529	-0.111717
O	-4.0271635694	 0.0485834536	 0.1781095904	-0.282545
C	-2.6218869673	 0.0157026591	 0.0262521236	 0.140807
C	-2.0591916049	 1.4516928328	-0.2071777012	-0.113237
H	 0.8733620531	-0.7028637572	 1.5179414552	 0.282442
H	 0.8609289269	 0.8666031252	-0.8162431639	 0.110546
H	-0.0894478535	-0.6078370982	-0.6227285545	 0.087275
H	-0.3137040385	 1.9264225699	 1.1031861823	 0.074747
H	-1.8543466889	-0.2042184247	 2.2741684356	 0.068575
H	-2.5756843355	 2.5826492473	 1.7470097671	 0.075751
H	-4.7170710136	 0.9546434252	 1.9266539628	 0.103787
H	-4.8518627129	 1.9464682667	 0.4501010462	 0.104253
H	-2.3321525253	-0.8409156354	-0.577693538	 0.088711
H	-2.154918351	 2.0617645216	-1.1067417883	 0.07375
78.2166	156.4476	226.0265	295.0762	322.9233	374.8991	449.7432	515.8333	688.8749	732.9901	767.7722	790.7725	837.104	906.57	923.9914	961.9165	965.0688	977.7795	983.4879	1006.9889	1049.3505	1063.4222	1086.2113	1100.2378	1109.6225	1125.933	1152.2104	1171.5825	1193.0672	1207.8163	1220.8228	1250.9334	1268.5951	1284.4556	1323.8261	1358.2697	1388.7462	1406.8172	1436.0904	1505.0294	1521.1757	2993.4139	3018.2934	3047.5953	3056.2052	3066.2531	3089.2034	3101.5738	3124.1959	3155.2348	3815.4624
OCC1C2C3COC2C13	OC[C@@H]1[C@H]2[C@@H]3CO[C@H]2[C@H]13	
InChI=1S/C7H10O2/c8-1-3-5-4-2-9-7(5)6(3)4/h3-8H,1-2H2	InChI=1S/C7H10O2/c8-1-3-5-4-2-9-7(5)6(3)4/h3-8H,1-2H2/t3-,4+,5+,6-,7-
