19
gdb 913	4.3665993	0.8292402	0.7737727	3.1321	76.24	-0.23699	-0.02213	0.21486	1483.6525	0.15679	-422.550046	-422.541469	-422.540524	-422.584335	31.07	
O	 1.3938663779	-0.5461575091	 0.1101294442	-0.238064
C	 0.2987209096	-0.0475325843	 0.0834485051	 0.164713
C	-0.2629009433	 0.7428961996	-1.0825483192	-0.314751
C	-0.8629029335	 2.0624519403	-0.6360757889	-0.080451
C	-1.9272843093	 2.7208775381	-1.5037647548	-0.098565
C	-2.1556693045	 4.2137808575	-1.3233183157	-0.251363
C	-2.290123195	 4.3655219343	 0.2103723398	-0.090973
O	-2.7112073691	 3.0967442485	 0.7182488887	-0.256771
C	-2.3081121872	 2.1080091454	-0.1872118174	 0.11299
H	-0.3955456829	-0.1366504151	 0.9508259663	 0.07959
H	 0.5295799249	 0.8771152735	-1.8257608728	 0.123515
H	-1.048028255	 0.1263964348	-1.5456449933	 0.117459
H	-0.1685792868	 2.7228568805	-0.1221186262	 0.098251
H	-2.1859149617	 2.2596901587	-2.4501785525	 0.09145
H	-1.3506031105	 4.8394103595	-1.720013771	 0.109623
H	-3.0835616325	 4.4990941307	-1.8295455373	 0.113437
H	-1.3275596535	 4.6473152594	 0.6583738945	 0.104139
H	-3.0310287662	 5.1103897226	 0.5126413081	 0.113961
H	-2.8858161814	 1.1963354151	-0.0822404576	 0.101809
56.9393	68.587	136.3729	197.7681	245.8784	297.2411	348.3312	401.3444	531.4834	669.6024	706.2665	789.2008	836.0345	852.6341	862.8177	901.1572	950.645	978.1967	1003.7656	1009.2281	1044.2395	1077.176	1089.9	1122.4458	1134.1412	1157.5024	1184.6578	1219.5668	1237.8918	1239.0064	1276.2002	1309.0685	1310.5289	1338.446	1393.0233	1426.0474	1438.0159	1460.9437	1493.3406	1528.1649	1835.4784	2867.8936	3005.881	3008.779	3049.1161	3083.04	3085.0327	3097.8651	3137.242	3169.4088	3178.9488
O=CCC1C2CCOC12	O=CC[C@H]1[C@@H]2CCO[C@H]12	
InChI=1S/C7H10O2/c8-3-1-5-6-2-4-9-7(5)6/h3,5-7H,1-2,4H2	InChI=1S/C7H10O2/c8-3-1-5-6-2-4-9-7(5)6/h3,5-7H,1-2,4H2/t5-,6-,7+/m0/s1
