19
gdb 1548	2.7495769	1.4872901	1.2315288	1.9666	75.62	-0.24511	-0.02845	0.21666	1084.1954	0.15462	-422.553127	-422.544357	-422.543413	-422.586288	33.267	
C	-2.1400538967	-2.9737625483	-1.1536504662	-0.421664
C	-1.4773550139	-1.6064962801	-1.2780841043	 0.397618
C	-0.6312134327	-1.4948828123	-2.5363117309	-0.42665
O	-2.4975377623	-0.5583460512	-1.2141054309	-0.335521
C	-2.0690545802	-0.1315955081	 0.0887022912	 0.113356
C	-1.1184405374	 1.0897969442	 0.0331045082	-0.369502
C	 0.062692599	 0.0976423351	-0.0456509741	 0.405822
O	 1.2502853554	 0.2249003003	-0.1137217422	-0.301231
C	-0.8651825031	-1.1219081131	 0.0765201159	-0.262804
H	-2.7388981014	-3.0367081363	-0.2407951266	 0.120187
H	-2.801455017	-3.1443880446	-2.0089976083	 0.127435
H	-1.3879627794	-3.7695673709	-1.1319386926	 0.119001
H	 0.1773732317	-2.2326434573	-2.5224443604	 0.126887
H	-1.2515659368	-1.6826189044	-3.4186589827	 0.12529
H	-0.1863381936	-0.5024326309	-2.6364398775	 0.129349
H	-2.8720730813	-0.1303132059	 0.8276484486	 0.086637
H	-1.2569695932	 1.7716789479	-0.8090351206	 0.138326
H	-1.0835876595	 1.6666234555	 0.9646768952	 0.132538
H	-0.6265072275	-1.8796768196	 0.822065758	 0.094925
81.8931	127.238	190.5624	224.9861	258.3236	328.3262	370.9231	377.7916	447.2403	453.3223	529.903	598.1124	689.1185	776.3792	831.9777	852.742	886.3188	930.8694	945.4771	974.4271	978.8395	1002.6962	1032.7302	1059.2297	1108.1151	1140.7915	1166.0394	1171.3257	1224.2874	1235.0579	1272.2069	1283.4921	1327.0045	1401.4178	1417.3423	1417.9805	1471.6786	1479.2822	1492.4526	1502.8154	1887.4412	3033.9455	3042.2554	3049.5237	3095.6747	3105.7175	3112.9712	3115.623	3120.2061	3123.8662	3127.8582
CC1(C)OC2CC(=O)C12	CC1(C)O[C@@H]2CC(=O)[C@H]12	
InChI=1S/C7H10O2/c1-7(2)6-4(8)3-5(6)9-7/h5-6H,3H2,1-2H3	InChI=1S/C7H10O2/c1-7(2)6-4(8)3-5(6)9-7/h5-6H,3H2,1-2H3/t5-,6+/m1/s1
