19
gdb 1593	2.9846806	1.5097501	1.1928747	1.8307	74.94	-0.23882	0.0837	0.32252000000000003	1069.9847	0.155818	-422.459342	-422.451189	-422.450244	-422.492117	31.369	
C	 2.5378145157	-0.8739321778	 0.879055596	-0.470004
C	 2.9713538836	-1.2853466665	-0.5273262053	 0.316604
C	 1.7452159473	-1.3312694617	-1.4142627807	-0.010381
C	 0.8381876344	-2.4887444442	-1.4361135377	-0.174909
O	 1.6766790529	-2.1919332112	-2.5535944036	-0.235468
C	 4.3090416558	-0.6410649501	-1.0408825651	-0.005713
C	 4.5351314372	-1.8182684479	-2.0150331403	-0.23384
C	 4.0974673422	-2.3709904822	-0.6376708843	 0.002324
O	 5.0379538389	-1.4130412846	-0.0066697184	-0.313891
H	 1.8553786099	-1.6148962814	 1.3090531115	 0.114373
H	 3.4067857808	-0.7741186388	 1.5288263475	 0.146928
H	 2.0044534528	 0.0834976092	 0.8549870261	 0.113229
H	 1.293092904	-0.3516406913	-1.5863131434	 0.096742
H	 1.1054538045	-3.3878453696	-0.8822839553	 0.115911
H	-0.2285494736	-2.3435020076	-1.5986468374	 0.117686
H	 4.5642541193	 0.4148306417	-1.1470851994	 0.08978
H	 3.8712285263	-1.9488475605	-2.8657181906	 0.135428
H	 5.5858226391	-1.9979335826	-2.2434978252	 0.104063
H	 4.1049165387	-3.3955947529	-0.2625593444	 0.091137
63.6217	158.8037	210.4517	228.4043	278.7283	339.4764	409.2672	441.2078	566.8881	613.5207	675.3372	737.6934	810.4164	847.6525	870.0845	881.5314	892.9794	920.4214	955.922	1009.3058	1027.7815	1035.6389	1090.1164	1108.0945	1118.7334	1150.4107	1157.6864	1172.3067	1173.426	1186.4108	1210.0203	1235.1305	1274.5393	1281.9619	1326.903	1394.8517	1426.3715	1487.4576	1494.1961	1506.4286	1528.4899	3033.7235	3079.5353	3085.5921	3088.9893	3095.2771	3101.5075	3112.1501	3153.1126	3171.7837	3189.2213
CC1(C2CO2)C2CC1O2	C[C@@]1([C@@H]2CO2)[C@@H]2C[C@H]1O2	
InChI=1S/C7H10O2/c1-7(6-3-8-6)4-2-5(7)9-4/h4-6H,2-3H2,1H3	InChI=1S/C7H10O2/c1-7(6-3-8-6)4-2-5(7)9-4/h4-6H,2-3H2,1H3/t4-,5+,6-,7+/m0/s1
