19
gdb 5134	3.3980233	1.2827613	1.0739069	1.6613	75.9	-0.24111	-0.00193	0.23918	1153.8729	0.157935	-422.557303	-422.549045	-422.5481	-422.590124	31.754	
O	 1.2188737007	 0.6827828205	 0.2727585559	-0.417343
C	 0.1732033435	-0.1776446185	-0.1510555394	-0.135621
C	-0.9825049233	 0.6107883833	-0.7282709065	 0.359985
C	-0.7260540132	 1.3560710183	-2.0237271153	-0.281822
C	-1.9147621951	 2.2382468762	-2.4514972222	-0.268628
C	-3.2333439647	 1.5195175655	-2.3255886965	-0.083941
C	-3.4435414114	 0.5949452177	-1.386800832	-0.037916
C	-2.3752816667	 0.234558854	-0.4215061417	-0.056814
O	-1.7207415316	 1.3302433498	 0.2734446662	-0.307174
H	 0.8331861856	 1.2768942889	 0.927201008	 0.293152
H	 0.6072883023	-0.837077733	-0.9103135095	 0.110512
H	-0.1909788386	-0.8035891708	 0.6769468141	 0.090593
H	 0.1826735757	 1.9570532855	-1.9219119275	 0.119492
H	-0.5251949809	 0.6056041115	-2.7997471056	 0.106147
H	-1.9390197642	 3.139097094	-1.8258385413	 0.132155
H	-1.7643465523	 2.5830235886	-3.4797963475	 0.102714
H	-4.0306057359	 1.789556906	-3.0125401496	 0.096149
H	-4.3974250595	 0.0847937318	-1.2972773211	 0.090646
H	-2.5566948204	-0.6279134992	 0.2174842116	 0.087713
72.0119	141.3188	196.9784	254.9905	308.1312	381.5521	390.828	439.8448	468.7123	545.3425	645.4953	694.218	708.9676	759.9175	827.343	878.503	898.2718	945.618	973.6625	984.2009	1005.233	1049.8045	1056.6435	1065.2424	1111.2982	1176.123	1184.0942	1214.7891	1242.7556	1277.4681	1314.1042	1350.059	1370.7503	1397.5889	1416.2722	1424.3017	1461.5556	1476.2354	1489.7372	1492.2424	1706.0074	2994.6774	3025.7681	3032.6929	3072.0557	3075.7556	3086.4392	3124.5246	3160.5885	3185.5714	3796.495
OCC12CCC=CC1O2	OC[C@@]12CCC=C[C@@H]1O2	
InChI=1S/C7H10O2/c8-5-7-4-2-1-3-6(7)9-7/h1,3,6,8H,2,4-5H2	InChI=1S/C7H10O2/c8-5-7-4-2-1-3-6(7)9-7/h1,3,6,8H,2,4-5H2/t6-,7-/m0/s1
