19
gdb 3671	3.0977907	1.4236111	1.2697793	3.0665	74.4	-0.25034	0.08408	0.33442	1073.4823	0.157164	-422.514234	-422.506371	-422.505426	-422.546407	30.603	
C	 0.1083083413	-0.2477181554	-0.392628836	-0.41795
C	 0.9666715129	 0.4814677612	 0.6081725738	-0.071682
O	 2.0890772334	-0.256824748	 1.1580745294	-0.314017
C	 2.3507507749	 0.8577890911	 0.3460803823	 0.530452
C	 3.3022635492	 0.8436041233	-0.8575174051	-0.032981
C	 2.9618405752	 2.1684953457	-1.5724435825	-0.223599
C	 2.9517351554	 3.0901213456	-0.3029831222	-0.222554
C	 3.2903753133	 2.0033538398	 0.7382601457	-0.035332
O	 4.3602297226	 1.2606558005	 0.0662290809	-0.302947
H	-0.5320865957	-0.9794494601	 0.1104371734	 0.133902
H	-0.5408870966	 0.4553355406	-0.9259480231	 0.123421
H	 0.7249089064	-0.7779569746	-1.1229793146	 0.127653
H	 0.422568346	 1.0531470687	 1.3626094605	 0.092655
H	 3.5351183412	-0.0494949375	-1.435246027	 0.090818
H	 3.7405116969	 2.4444304187	-2.2858477778	 0.113608
H	 2.0016162095	 2.1380370342	-2.0944069729	 0.102026
H	 3.7241194825	 3.8606583287	-0.3367815975	 0.11343
H	 1.9856222715	 3.568800537	-0.1214121757	 0.101273
H	 3.5080581701	 2.2764934006	 1.7696951383	 0.091823
126.3771	149.9908	192.6428	240.5909	281.4222	415.7269	427.7258	460.5611	575.4795	615.8676	724.7444	800.2678	833.0949	853.0641	864.7353	899.067	910.2766	955.3223	963.0666	981.9231	1007.8759	1022.3964	1072.0788	1104.5657	1126.7682	1137.8661	1183.3079	1194.1894	1224.0028	1226.4574	1250.363	1284.2008	1303.3571	1317.0903	1365.5741	1409.4048	1476.667	1479.0972	1492.066	1498.0809	1553.4128	3036.8837	3063.5344	3072.1804	3088.8423	3101.1469	3111.6911	3125.1118	3128.0079	3138.8585	3142.2771
CC1OC11C2CCC1O2	C[C@H]1O[C@]21[C@H]1CC[C@@H]2O1	
InChI=1S/C7H10O2/c1-4-7(9-4)5-2-3-6(7)8-5/h4-6H,2-3H2,1H3	InChI=1S/C7H10O2/c1-4-7(9-4)5-2-3-6(7)8-5/h4-6H,2-3H2,1H3/t4-,5-,6+,7-/m1/s1
