19
gdb 3475	1.9997876	1.8539139	1.5628448	2.7977	74.89	-0.24624	-0.01194	0.23429999999999998	997.59	0.158089	-422.558371	-422.550345	-422.549401	-422.590367	31.719	
C	 1.0825768489	 0.8572853956	-0.2017651851	-0.40936
C	 0.9304881221	-0.6453432978	 0.0766914076	-0.057108
C	 1.7363469667	-1.0226140245	 1.3029781012	 0.052758
O	 2.0473793731	-2.4076547687	 1.4833942353	-0.275346
C	 3.1232163528	-1.4956558351	 1.1209866384	-0.007852
C	 3.6550693485	-1.6125514798	-0.2578519831	-0.043286
C	 2.8306744141	-1.6082304579	-1.3086494742	-0.107193
C	 1.3283240764	-1.522017101	-1.136803382	 0.070974
O	 0.7556463876	-2.823555579	-1.0396516214	-0.4447
H	 0.7872977534	 1.4523001696	 0.6687327332	 0.117213
H	 2.1189531546	 1.110844534	-0.4458079359	 0.126102
H	 0.4511078589	 1.1617327584	-1.0418339419	 0.121966
H	-0.1254146921	-0.870624465	 0.2711602109	 0.093606
H	 1.4796099241	-0.5022709822	 2.2268073506	 0.095721
H	 3.8419554078	-1.352305473	 1.924094462	 0.097817
H	 4.7299051248	-1.7074874179	-0.3784321181	 0.098081
H	 3.2186190181	-1.7253043609	-2.3159537664	 0.102926
H	 0.8834006403	-1.0842334571	-2.0367827036	 0.082114
H	 1.1319633698	-3.2071023678	-0.2347456176	 0.285567
142.0334	190.3458	221.4018	255.3883	271.819	382.4701	387.4386	489.2524	515.2859	554.8561	603.4509	650.4217	732.2134	772.2687	820.4943	833.9389	912.3923	941.0004	956.0255	986.9057	1007.4264	1043.5551	1047.978	1067.6246	1107.2373	1131.9088	1175.1746	1188.3699	1267.9902	1276.3664	1302.6714	1333.5298	1351.6054	1393.9064	1408.7451	1418.4545	1448.76	1458.4057	1499.2896	1504.2069	1697.5791	3034.0693	3035.8912	3051.6508	3098.6654	3103.9117	3112.4154	3142.6987	3166.223	3187.5098	3737.8026
CC1C2OC2C=CC1O	C[C@@H]1[C@H]2O[C@H]2C=C[C@H]1O	
InChI=1S/C7H10O2/c1-4-5(8)2-3-6-7(4)9-6/h2-8H,1H3	InChI=1S/C7H10O2/c1-4-5(8)2-3-6-7(4)9-6/h2-8H,1H3/t4-,5+,6-,7+/m0/s1
