19
gdb 4399	4.581135	0.9914166	0.8563243	0.5795	78.96	-0.2377	0.0317	0.2694	1353.8996	0.156016	-422.521093	-422.51219	-422.511246	-422.554411	33.58	
C	 0.1270159907	 0.6723321599	-0.0420132862	-0.408976
C	 1.2521868926	-0.3454197822	 0.0378051702	 0.126383
C	 2.5946252362	 0.2777871336	 0.4196112721	-0.076558
O	 3.6385920876	-0.6847043611	 0.3896702008	-0.266288
C	 3.7448134544	-1.2902920718	-0.8969793343	-0.066867
C	 2.3973029458	-1.9289394835	-1.278146022	-0.093644
O	 1.369127124	-0.9604450219	-1.2450704625	-0.264698
C	 4.8172912362	-2.2755982763	-0.8762125887	 0.293621
C	 5.6741309699	-3.1169518413	-0.8954472945	-0.415466
H	-0.0380182915	 1.1436345259	 0.9316020479	 0.118649
H	 0.36507258	 1.4516590261	-0.7724621727	 0.126216
H	-0.8001080504	 0.1847042878	-0.3534824135	 0.130722
H	 1.0117404849	-1.1221673909	 0.7836612917	 0.073333
H	 2.8178938283	 1.107463877	-0.2723456343	 0.091206
H	 2.5695087986	 0.6696657782	 1.440542908	 0.111186
H	 3.972640329	-0.5115812271	-1.6456437809	 0.09965
H	 2.4351244869	-2.3260821613	-2.295848266	 0.118338
H	 2.1889745939	-2.7532265506	-0.5786266682	 0.103625
H	 6.4418514929	-3.8507889204	-0.9058686767	 0.199566
84.4045	137.3314	201.4893	209.8382	261.9249	297.5431	334.4969	392.3186	453.4744	483.6479	528.6185	548.0826	617.747	630.7782	677.983	817.2262	877.515	908.0765	947.496	1021.3114	1041.4921	1063.0875	1111.0791	1127.1519	1140.9021	1161.1013	1166.071	1268.8742	1287.979	1311.6933	1340.7341	1366.9881	1379.8441	1408.5721	1414.5443	1417.808	1479.9007	1484.1754	1486.9912	1501.3869	2245.3075	2952.9959	2959.2723	2973.1236	2993.9649	3044.0123	3090.293	3101.0287	3116.9659	3125.1836	3504.0391
CC1COC(CO1)C#C	C[C@@H]1CO[C@H](CO1)C#C	
InChI=1S/C7H10O2/c1-3-7-5-8-6(2)4-9-7/h1,6-7H,4-5H2,2H3	InChI=1S/C7H10O2/c1-3-7-5-8-6(2)4-9-7/h1,6-7H,4-5H2,2H3/t6-,7+/m1/s1
