19
gdb 3166	2.4702061	2.0051664	1.4962663	2.2253	72.87	-0.25714	0.07747	0.33460999999999996	937.3714	0.159729	-422.541188	-422.534123	-422.533179	-422.572209	29.205	
O	-1.6915728577	 0.2896459189	-2.0741027817	-0.44556
C	-0.843829877	-0.4410971508	-1.20343633	 0.127343
C	-0.3057444969	 0.4502794666	-0.0867008628	-0.00709
O	 0.3684050992	 1.6398647205	-0.5366320356	-0.265239
C	 1.1551591156	 0.5754482365	 0.0196181915	 0.053061
C	 1.9694614041	-0.2847525849	-0.9405850523	-0.053228
C	 1.4096106895	-0.1376709463	-2.3800108654	-0.230971
C	 0.3060459561	-1.1452212227	-1.9512044972	-0.043138
C	 1.3376770393	-1.7122442623	-0.9302679532	-0.239007
H	-1.2424655278	 1.1243428422	-2.2547760795	 0.292732
H	-1.47800704	-1.2122645363	-0.7484161465	 0.085987
H	-0.948336667	 0.6103108847	 0.7770422534	 0.098352
H	 1.6046878949	 0.8138976756	 0.9820350088	 0.095004
H	 3.0435442657	-0.1779218615	-0.7777487604	 0.064476
H	 1.1176226895	 0.8580992459	-2.7136498324	 0.104973
H	 2.0880592637	-0.5855784545	-3.1101713806	 0.096945
H	-0.104937166	-1.8143315182	-2.7097498547	 0.070433
H	 0.966025947	-2.099298942	 0.0240387993	 0.092218
H	 1.9953303179	-2.4540148914	-1.3902230105	 0.102709
147.8268	231.8285	323.0049	378.8482	401.5919	409.0925	456.3621	527.8592	598.301	693.3086	755.9487	806.6446	822.7081	852.1954	902.5621	908.7798	919.1121	955.1261	976.4253	1003.923	1066.3852	1069.993	1090.5516	1101.074	1114.1368	1134.5208	1144.6669	1152.8507	1246.0781	1255.7749	1263.6768	1279.4837	1283.6248	1319.6198	1341.8563	1361.0787	1373.9998	1431.6471	1447.6803	1478.3588	1508.9198	3034.6657	3046.8788	3069.5676	3087.0639	3090.3263	3107.8447	3122.2467	3133.472	3135.127	3786.9241
OC1C2OC2C2CC1C2	O[C@@H]1[C@@H]2O[C@@H]2[C@@H]2C[C@H]1C2	
InChI=1S/C7H10O2/c8-5-3-1-4(2-3)6-7(5)9-6/h3-8H,1-2H2	InChI=1S/C7H10O2/c8-5-3-1-4(2-3)6-7(5)9-6/h3-8H,1-2H2/t3-,4+,5-,6+,7-/m0/s1
