19
gdb 6067	2.0722571	0.7450789	0.5739946	3.6295	83.04	-0.25065	-0.04569	0.20495999999999998	1923.6188	0.153357	-422.5425	-422.531146	-422.530202	-422.58243	37.018	
C	 1.4146110372	-0.247956607	 0.0718855613	-0.501309
C	-0.0268468326	-0.0744991783	 0.0200767198	 0.026972
C	-1.2241895785	 0.0697069583	-0.0356266016	 0.072567
C	-2.6621691004	 0.2527677151	-0.1045010215	 0.235457
O	-3.2030493648	 0.6691037138	-1.10763218	-0.284516
C	-3.4361635739	-0.109675189	 1.1538304052	-0.304277
C	-3.3318551401	-1.6032545488	 1.5023936333	-0.175614
C	-4.0795552153	-1.948717494	 2.7840729044	-0.069693
O	-3.9109136868	-3.3369112361	 3.0214783577	-0.420761
H	 1.8220252832	 0.1124459662	 1.0224615621	 0.158962
H	 1.6777348444	-1.3074593005	-0.0208897413	 0.163894
H	 1.9101359314	 0.2937951057	-0.7402730174	 0.162353
H	-3.0379565813	 0.4873070573	 1.9854190767	 0.115731
H	-4.4761626705	 0.1854360973	 0.9859999789	 0.119974
H	-3.7376684787	-2.208693956	 0.684211774	 0.119749
H	-2.2814354623	-1.8891751437	 1.6207029473	 0.120402
H	-3.6800252774	-1.3480455727	 3.618445988	 0.084378
H	-5.144755529	-1.6867233905	 2.6764469888	 0.088975
H	-4.4100889745	-3.5710742671	 3.8092086244	 0.286756
15.9715	33.5514	64.1737	95.1671	116.8856	132.9219	165.1184	251.597	269.5309	338.6057	384.3767	394.5785	445.5786	586.4839	673.2447	726.8677	772.5465	884.3503	990.7681	1025.5639	1040.0694	1045.7847	1053.4433	1083.8899	1094.5675	1200.4688	1225.7022	1254.9671	1296.4564	1299.8854	1316.765	1364.1514	1409.7086	1463.1689	1467.9591	1469.4952	1474.4021	1499.5265	1528.435	1761.8964	2337.0905	2957.0573	2984.8001	3021.634	3032.3577	3047.1885	3083.9448	3095.3734	3100.4137	3103.6844	3831.3217
CC#CC(=O)CCCO	CC#CC(=O)CCCO	
InChI=1S/C7H10O2/c1-2-4-7(9)5-3-6-8/h8H,3,5-6H2,1H3	InChI=1S/C7H10O2/c1-2-4-7(9)5-3-6-8/h8H,3,5-6H2,1H3
