19
gdb 1606	3.2491897	1.1499568	1.0647437	1.3564	76.94	-0.24568	0.05088	0.29656	1211.8696	0.154811	-422.53295	-422.5236	-422.522656	-422.567377	34.394	
C	 2.8816170066	-1.6645984625	 1.7814734029	-0.418769
C	 3.0749869263	-1.1933182167	 0.3479228235	 0.442472
C	 2.328584286	 0.129137655	 0.0328722273	-0.387707
C	 0.8936352592	 0.0775288687	 0.2709424228	 0.319498
C	-0.2911824333	 0.0377296658	 0.4686300786	-0.459484
O	 4.4575212761	-0.9445275623	 0.076587804	-0.294698
C	 4.9036546622	-1.8856191227	-0.8908538607	-0.097068
C	 3.6079409733	-2.289779407	-1.5898720236	-0.10575
O	 2.6654000296	-2.2296898613	-0.5303587513	-0.277528
H	 3.4559774956	-2.5793435533	 1.9435100959	 0.119822
H	 3.2285806988	-0.8977700596	 2.4789800507	 0.122639
H	 1.8256403707	-1.8655436553	 1.9732740485	 0.142392
H	 2.7868367408	 0.9221611587	 0.6351919779	 0.13824
H	 2.5292912214	 0.3806966175	-1.0145022214	 0.127373
H	-1.3383341932	 0.0000916606	 0.6393807811	 0.194853
H	 5.6300034593	-1.3994558228	-1.5479749495	 0.112979
H	 5.381271913	-2.7491279499	-0.4063727005	 0.102803
H	 3.3517793535	-1.5887571161	-2.3981088285	 0.100634
H	 3.613015274	-3.3060283968	-1.9904764676	 0.117299
51.5937	83.7378	141.2071	215.4586	220.2708	315.7049	333.7377	358.926	380.5548	425.8918	530.7196	621.4817	645.7936	652.7553	691.5612	795.4391	852.4117	908.859	924.4325	940.2855	953.1428	982.9843	1073.4757	1084.7343	1122.0759	1145.5294	1171.2904	1213.734	1229.2912	1247.371	1290.2883	1331.1242	1375.1099	1384.152	1409.7604	1457.6197	1482.5232	1488.0182	1514.4431	1522.4745	2239.793	2993.8989	3005.9883	3038.1386	3056.1833	3075.0792	3090.3604	3106.222	3134.154	3144.3755	3507.0326
CC1(CC#C)OCCO1	CC1(CC#C)OCCO1	
InChI=1S/C7H10O2/c1-3-4-7(2)8-5-6-9-7/h1H,4-6H2,2H3	InChI=1S/C7H10O2/c1-3-4-7(2)8-5-6-9-7/h1H,4-6H2,2H3
