19
gdb 955	2.7400871	0.9062769	0.748478	3.8144	77.9	-0.24729	-0.02693	0.22036	1513.4592	0.154206	-422.566979	-422.557265	-422.556321	-422.602736	34.039	
O	 1.3674194864	-0.2723121508	 0.2461409561	-0.239235
C	 0.21874627	-0.0626616077	-0.0485253637	 0.156045
C	-0.2391146342	 0.8032656253	-1.1976797388	-0.275497
C	-1.1708243144	 1.9349735703	-0.7182264693	-0.304243
C	-1.7229502311	 2.7750308781	-1.8543604397	 0.270681
C	-1.9780037521	 4.2666137955	-1.6376638967	-0.317846
C	-0.8467767131	 3.8405649237	-2.5075860151	-0.299002
C	-2.6996772314	 2.1157136833	-2.754797542	 0.119351
O	-3.0910262247	 0.9792106311	-2.637196805	-0.274022
H	-0.6137933627	-0.5144139198	 0.5416047958	 0.073751
H	 0.6419893189	 1.1965885348	-1.712608249	 0.115259
H	-0.8014071183	 0.1664995141	-1.8917945857	 0.147034
H	-2.0102620117	 1.5004068818	-0.1628611839	 0.122728
H	-0.6282925799	 2.5846241388	-0.0220709099	 0.107454
H	-2.8543051509	 4.7035548223	-2.1050026325	 0.128896
H	-1.7624760762	 4.6476687511	-0.645900369	 0.133768
H	-0.9346368492	 3.9847700041	-3.5793807455	 0.128622
H	 0.164494933	 3.9239402595	-2.1254311431	 0.135323
H	-3.0722934987	 2.7685946346	-3.5792936132	 0.070933
53.1227	65.6565	110.8036	142.5999	154.129	242.3174	292.2441	327.173	362.2799	432.6681	533.0833	542.0386	753.5457	782.378	808.4868	841.1343	855.9407	920.923	948.5718	990.9743	1010.1337	1050.0422	1058.9391	1086.6752	1093.0448	1111.5408	1194.2047	1198.118	1267.0687	1283.9955	1326.5777	1359.3863	1380.8677	1432.0122	1441.8813	1463.8946	1468.3225	1481.876	1498.7739	1809.253	1835.2632	2852.5644	2854.1812	3031.4148	3043.7995	3073.1986	3108.7078	3134.659	3136.7397	3215.0438	3229.0573
O=CCCC1(CC1)C=O	O=CCCC1(CC1)C=O	
InChI=1S/C7H10O2/c8-5-1-2-7(6-9)3-4-7/h5-6H,1-4H2	InChI=1S/C7H10O2/c8-5-1-2-7(6-9)3-4-7/h5-6H,1-4H2
