19
gdb 5288	2.280315	1.6544872	1.1983656	4.0457	74.55	-0.26486	0.01211	0.27697	1104.7415	0.156999	-422.575451	-422.566884	-422.565939	-422.608772	31.734	
C	 1.1589032328	-0.2932860989	 0.9123562097	-0.386457
C	 0.9481510703	 0.2773684123	-0.4969742724	-0.298402
C	 1.6956737593	-0.5119124006	-1.5523666847	 0.152541
C	 1.2213994059	-1.9605490232	-1.9300505871	-0.28689
C	 1.2961541655	-1.5943562897	-3.4444645682	-0.236487
C	 1.8196698709	-0.1960187006	-3.0711629462	 0.046819
O	 3.2793087578	-0.1766433499	-2.9503194863	-0.262437
C	 3.2207622222	-0.4161017822	-1.595361888	 0.43617
O	 4.1332825512	-0.4911018605	-0.8343773972	-0.337155
H	 0.7922119093	-1.3228850867	 0.9816894604	 0.11869
H	 2.2206614432	-0.2970383062	 1.1724790816	 0.152125
H	 0.6220766106	 0.3026721633	 1.6558465175	 0.115729
H	-0.1209135733	 0.2808708031	-0.745479952	 0.099325
H	 1.2781979149	 1.3232268804	-0.5245653122	 0.109899
H	 1.864862502	-2.7727749786	-1.5875482096	 0.124386
H	 0.203719469	-2.1562196105	-1.5845554467	 0.115642
H	 1.9823033726	-2.1770365453	-4.0614299236	 0.125124
H	 0.3175190015	-1.569312928	-3.9293266726	 0.114192
H	 1.4576268145	 0.702704602	-3.5689219325	 0.097186
90.4368	124.1831	142.2524	205.8232	228.6425	295.423	319.4239	411.7049	498.5468	646.7907	685.5648	731.5703	763.396	790.5582	839.8447	870.2248	904.0638	948.9827	960.5269	987.4876	996.1655	1034.3839	1100.8971	1113.4404	1138.0763	1174.005	1207.0565	1218.8779	1241.052	1271.81	1301.4871	1317.4461	1344.2592	1367.808	1411.9545	1466.637	1483.789	1493.0444	1498.9281	1511.4602	1919.9468	3019.3529	3040.3358	3054.8686	3069.5407	3076.051	3107.1425	3119.3525	3126.5717	3127.016	3137.5391
CCC12CCC1OC2=O	CC[C@@]12CC[C@@H]1OC2=O	
InChI=1S/C7H10O2/c1-2-7-4-3-5(7)9-6(7)8/h5H,2-4H2,1H3	InChI=1S/C7H10O2/c1-2-7-4-3-5(7)9-6(7)8/h5H,2-4H2,1H3/t5-,7+/m0/s1
