19
gdb 1476	2.719898	1.4187572	1.2593312	4.568	75.42	-0.2594	0.01081	0.27021	1093.7951	0.157223	-422.597955	-422.589498	-422.588554	-422.630571	32.212	
C	-1.5833039979	-0.6669047252	-2.515415376	-0.471494
C	-1.8229081856	-1.3844716717	-1.1991607343	 0.314592
C	-2.3504678437	-2.7996720023	-1.3686953128	-0.453501
C	-2.2943348991	-0.6541465057	 0.0284851158	-0.118885
C	-2.1310834993	 0.8568408758	 0.0684322883	-0.112847
O	-0.7304610495	 1.1319336155	-0.0987996476	-0.229544
C	 0.0231903249	-0.012214285	-0.0252769333	 0.443002
O	 1.2186022883	 0.0212883292	 0.0202581684	-0.345829
C	-0.8826177098	-1.200973255	-0.0063274993	-0.241489
H	-0.875412178	-1.2309780742	-3.1320452854	 0.128513
H	-2.5204878085	-0.5879366153	-3.0784192629	 0.117705
H	-1.1812685275	 0.3399582342	-2.3876982206	 0.144404
H	-2.5221241587	-3.2869410773	-0.4041800702	 0.117906
H	-3.2997082908	-2.7935037782	-1.9162710995	 0.122148
H	-1.6429867965	-3.4144805592	-1.9355101079	 0.127614
H	-3.062542618	-1.0984957247	 0.6507567409	 0.099215
H	-2.6734932282	 1.3790400235	-0.7262714503	 0.122268
H	-2.449246801	 1.26518787	 1.0338491483	 0.122682
H	-0.5415105511	-2.0703848843	 0.5400808684	 0.113538
128.7093	191.0748	198.3892	218.6741	231.2015	272.6281	350.4082	413.0567	450.2539	488.4697	639.0685	660.982	735.6781	782.9178	828.7149	862.8103	904.4851	973.0478	982.232	990.0731	1003.0495	1051.6521	1055.2548	1072.4213	1118.1376	1145.2751	1182.8253	1215.103	1239.3324	1302.5713	1313.0818	1386.1146	1412.108	1420.0863	1436.3694	1485.4165	1491.9167	1504.9904	1512.5942	1521.4346	1877.5688	3027.8573	3034.3128	3040.8135	3081.1457	3090.1917	3093.5763	3105.7393	3130.8475	3175.7421	3204.9684
CC1(C)C2COC(=O)C12	CC1(C)[C@@H]2COC(=O)[C@H]12	
InChI=1S/C7H10O2/c1-7(2)4-3-9-6(8)5(4)7/h4-5H,3H2,1-2H3	InChI=1S/C7H10O2/c1-7(2)4-3-9-6(8)5(4)7/h4-5H,3H2,1-2H3/t4-,5-/m1/s1
