19
gdb 2470	2.5758027	1.9200657	1.5767512	2.6105	74.94	-0.24125	0.06864	0.30989	928.5928	0.158472	-422.490435	-422.483045	-422.482101	-422.521755	30.092	
O	 0.2778086527	 0.6132750055	-0.2042855208	-0.49333
C	-0.9082702065	 0.9117260897	 0.4977373511	 0.442246
C	-0.6193047867	 2.1542411372	 1.3464725459	-0.155644
O	-1.3031349632	 3.2534126889	 0.6951819058	-0.283046
C	-1.9538184908	 2.8408324911	-0.525415349	-0.20821
C	-2.1841687927	 1.3821269614	-0.2620684583	 0.273598
C	-3.0154167157	 0.8530499662	 0.9508869767	-0.251486
C	-1.9523315021	-0.2384235378	 0.6862067804	-0.162282
C	-2.2963194245	-0.0533367911	-0.8518106162	-0.346659
H	 0.1834846779	-0.2391488227	-0.6385085362	 0.282253
H	-0.9691717338	 2.0990917697	 2.3813698068	 0.105674
H	 0.4574637423	 2.3453738983	 1.3477856041	 0.114967
H	-2.8508385782	 3.4568960026	-0.6339591434	 0.107388
H	-1.2997249908	 2.9985503286	-1.395463655	 0.101652
H	-2.9587662075	 1.4009176246	 1.8904490299	 0.111276
H	-4.0454792172	 0.5735367835	 0.7194963682	 0.094429
H	-1.8286152997	-1.1871803591	 1.2139986765	 0.073849
H	-1.555486696	-0.3537623598	-1.59520295	 0.091194
H	-3.2933832173	-0.3831594067	-1.1526513264	 0.102129
139.3346	211.295	248.5278	321.4635	351.3498	431.5339	484.6117	529.0236	562.7731	625.2652	714.9715	775.4141	798.9903	851.193	878.5018	893.1463	944.124	957.6033	966.8176	995.8716	1007.7746	1030.1257	1067.7338	1090.1837	1100.8762	1144.1291	1149.0699	1172.5315	1196.5331	1202.4989	1216.4337	1232.2106	1267.661	1299.3337	1344.7627	1366.1128	1387.2991	1500.4732	1508.7562	1517.8108	1550.2399	2997.4971	3048.0952	3064.6324	3073.8016	3083.6696	3087.0717	3092.3424	3124.9054	3149.7857	3835.7448
OC12COCC11CC2C1	O[C@@]12COC[C@@]31C[C@H]2C3	
InChI=1S/C7H10O2/c8-7-4-9-3-6(7)1-5(7)2-6/h5,8H,1-4H2	InChI=1S/C7H10O2/c8-7-4-9-3-6(7)1-5(7)2-6/h5,8H,1-4H2/t5-,6+,7-/m1/s1
