19
gdb 2932	2.9446196	1.4550533	1.2526246	1.0342	74.56	-0.23628	0.0664	0.30268	1074.8455	0.156451	-422.494399	-422.486144	-422.4852	-422.526676	32.055	
C	 0.0758847518	 0.1284256062	-0.063638043	-0.435321
C	 1.5837344275	-0.0215592736	-0.0593172533	-0.084752
C	 2.1632002981	-1.0864302344	-0.9747229437	-0.150659
C	 3.7076068104	-1.0992687656	-0.9789854704	-0.074563
C	 4.4793310498	 0.2099324033	-0.7032256404	-0.111567
O	 4.3371841567	 0.0385832848	 0.7325753951	-0.299699
C	 3.6939546438	-1.2487350624	 0.5531513337	 0.03478
C	 2.1456086065	-1.2740365902	 0.5490135398	 0.369623
O	 1.396808403	-2.1679185749	 1.2941815739	-0.463101
H	-0.278522808	 0.5715520804	 0.8740659724	 0.11343
H	-0.2479228931	 0.7829335978	-0.8792398925	 0.12061
H	-0.4211786627	-0.838132977	-0.1825001964	 0.1304
H	 2.1276055722	 0.9071711938	 0.08961578	 0.099765
H	 1.5414207201	-1.5504897228	-1.7311890266	 0.092259
H	 4.1681094494	-1.8403814788	-1.6300896476	 0.082613
H	 5.5351605697	 0.1751039473	-0.9974913867	 0.10256
H	 4.0362051271	 1.1469097088	-1.0595529011	 0.103094
H	 4.1758320804	-2.0616223635	 1.1023162252	 0.081921
H	 1.0813289871	-1.7170790393	 2.0859802114	 0.288608
163.9629	178.8938	211.8001	226.3066	255.9559	295.7279	318.9323	413.6949	496.6104	548.5589	653.6621	702.9184	785.6676	836.9159	860.9398	879.8184	917.5608	956.8976	969.7092	985.9827	1017.9302	1024.9252	1045.8311	1062.6137	1131.5182	1139.0808	1161.3291	1181.7817	1194.0225	1216.2079	1231.3737	1271.2351	1300.4618	1306.3775	1347.9206	1376.9227	1415.5278	1443.0426	1494.3913	1506.8175	1520.5697	3019.9032	3032.0356	3065.4061	3082.0154	3090.2048	3114.3144	3125.6793	3146.9492	3182.7857	3781.8581
CC1C2C3COC3C12O	C[C@@H]1[C@H]2[C@H]3CO[C@H]3[C@@]12O	
InChI=1S/C7H10O2/c1-3-5-4-2-9-6(4)7(3,5)8/h3-6,8H,2H2,1H3	InChI=1S/C7H10O2/c1-3-5-4-2-9-6(4)7(3,5)8/h3-6,8H,2H2,1H3/t3-,4-,5+,6-,7-/m1/s1
