19
gdb 853	2.6900099	1.116152	0.8609957	3.3697	77.05	-0.24745	-0.02045	0.227	1346.4498	0.155722	-422.529146	-422.520149	-422.519205	-422.564282	31.806	
O	 0.0640349039	-0.6731466403	 0.513664457	-0.247843
C	 0.7934541826	 0.1112854836	-0.04120756	 0.131888
C	 0.4181208792	 1.5258345895	-0.3830284245	-0.079333
C	-0.9898091419	 2.0393382844	-0.0044386055	-0.242508
C	-1.118663015	 2.6598852392	-1.420903303	-0.250118
C	 0.0686729024	 1.7757474335	-1.9003185479	-0.002773
C	 1.1267782135	 2.3888506061	-2.7671337778	 0.071587
C	 1.2525544129	 2.0836531583	-4.1988081626	-0.183435
O	 2.1460511738	 1.504671626	-3.2470085786	-0.238174
H	 1.8093961379	-0.1920105111	-0.3809188511	 0.089747
H	 1.2262361966	 2.1991831094	-0.0733344453	 0.089312
H	-1.669009537	 1.1992412285	 0.1560152256	 0.12959
H	-1.059971961	 2.7164813727	 0.8484510682	 0.105651
H	-2.0672507756	 2.5382588633	-1.9478925639	 0.108732
H	-0.8516245468	 3.7214970743	-1.4289115591	 0.104466
H	-0.2874046381	 0.8488256704	-2.3606296152	 0.088404
H	 1.5092889866	 3.3518347679	-2.4199457277	 0.090012
H	 0.5507451451	 1.3914492652	-4.6624846623	 0.116558
H	 1.695374591	 2.816067589	-4.8722701964	 0.118238
51.2734	68.9995	80.5506	159.9565	224.9435	250.9725	342.5039	367.0898	457.713	609.0802	679.9626	784.9044	801.376	856.9416	888.3263	922.0951	927.5592	955.4057	966.3078	991.997	1048.141	1090.5467	1102.184	1135.9286	1153.772	1162.4145	1178.6862	1224.4519	1224.7913	1256.4025	1264.0769	1268.3299	1291.3989	1321.7116	1355.3776	1420.331	1452.1313	1485.166	1501.4183	1528.4281	1819.0734	2882.1024	3042.2061	3053.3418	3060.2572	3077.7616	3080.7464	3084.5582	3109.7338	3133.7999	3169.7486
O=CC1CCC1C1CO1	O=C[C@@H]1CC[C@H]1[C@@H]1CO1	
InChI=1S/C7H10O2/c8-3-5-1-2-6(5)7-4-9-7/h3,5-7H,1-2,4H2	InChI=1S/C7H10O2/c8-3-5-1-2-6(5)7-4-9-7/h3,5-7H,1-2,4H2/t5-,6+,7-/m0/s1
