19
gdb 4612	2.7655052	0.8181237	0.7095441	1.7066	82.54	-0.24044	0.02793	0.26837	1645.5777	0.154077	-422.489528	-422.479122	-422.478178	-422.526192	36.289	
C	 4.210871706	 2.352188783	-0.6572038153	-0.252294
O	 4.488305934	 0.9838023353	-0.9041132091	-0.264339
C	 3.8494103274	 0.1082462412	-0.0192292446	 0.256626
C	 4.6130178381	-1.1673691802	 0.2323141928	-0.311322
C	 4.5298637959	-0.1313794227	 1.3225746709	-0.315979
C	 2.4106544435	 0.0733994035	-0.090126142	 0.087357
C	 1.2073339836	 0.0718557863	-0.1802722568	-0.013933
C	-0.2525285521	 0.068573208	-0.2333649456	-0.196367
O	-0.8604932049	 1.0823510103	 0.5567700914	-0.401812
H	 4.5388110883	 2.6547769454	 0.3476101716	 0.105192
H	 4.7669784271	 2.9233603668	-1.4034917322	 0.127617
H	 3.1399629181	 2.5702530127	-0.7582127487	 0.124816
H	 4.0445212869	-2.0834341918	 0.3357279104	 0.126456
H	 5.548795745	-1.2559728338	-0.3069951963	 0.132866
H	 3.9068655554	-0.3294561937	 2.1866425189	 0.122005
H	 5.4146604176	 0.4654304232	 1.5129194979	 0.125909
H	-0.590989204	 0.250018032	-1.2595866257	 0.142798
H	-0.6198795228	-0.9320550505	 0.0468829922	 0.118628
H	-0.4828500231	 1.022152545	 1.4404004301	 0.285776
31.9203	76.0899	97.5193	128.3897	199.2592	214.4543	247.2486	274.4365	322.2645	357.9505	423.277	514.5193	555.0645	583.7466	650.3031	772.5653	842.3567	900.0518	946.8746	953.77	983.4202	1026.0608	1051.6458	1078.51	1081.349	1104.8771	1184.9852	1194.0539	1215.5767	1220.5503	1266.1074	1333.0262	1355.9487	1417.622	1448.0829	1473.8008	1482.9641	1486.3048	1487.591	1510.4825	2342.9152	2973.7088	2996.4238	3057.2558	3062.6819	3125.7652	3140.6421	3147.3842	3229.9516	3245.3544	3816.9304
COC1(CC1)C#CCO	COC1(CC1)C#CCO	
InChI=1S/C7H10O2/c1-9-7(4-5-7)3-2-6-8/h8H,4-6H2,1H3	InChI=1S/C7H10O2/c1-9-7(4-5-7)3-2-6-8/h8H,4-6H2,1H3
