19
gdb 4200	2.4657334	1.8260663	1.2408116	1.9357	74.51	-0.23229	0.08099	0.31328	1043.2315	0.156694	-422.523736	-422.515683	-422.514739	-422.556091	31.357	
C	 0.0934662726	 0.3132387693	-0.0526242138	-0.397209
C	 1.5783542366	 0.0328540675	-0.1992401609	 0.031456
O	 1.7706692901	-1.3569741352	-0.5047588648	-0.275482
C	 2.8635543138	-1.4954551603	-1.3735089035	 0.118369
C	 4.1813754571	-0.8951973102	-0.9714071951	-0.343473
C	 3.2599950837	-0.1581500091	-1.9364460343	-0.160627
C	 2.2799558106	 0.8004842074	-1.3330032668	 0.414464
C	 2.3678961214	 2.2598873148	-1.3897988285	-0.251905
O	 1.4717462243	 1.5441292267	-2.2511925904	-0.271169
H	-0.3291986949	-0.3357246617	 0.7186693194	 0.124513
H	-0.074987872	 1.3533382632	 0.2423811876	 0.116562
H	-0.4242367619	 0.1334319029	-0.9964787869	 0.13892
H	 2.0919868959	 0.2598594722	 0.7479896642	 0.080457
H	 2.8142243006	-2.4089431493	-1.9534366719	 0.106656
H	 4.307767699	-0.516649848	 0.0372497761	 0.120464
H	 5.0768119208	-1.3299169819	-1.4021108229	 0.118069
H	 3.5524265745	-0.0004743713	-2.9667331274	 0.102851
H	 1.8888349323	 2.8663409864	-0.6209222892	 0.111647
H	 3.2167500055	 2.7306175468	-1.8841085209	 0.115436
89.4182	188.7243	206.3952	248.1909	285.3569	350.4543	416.3325	441.4721	510.838	583.6834	700.8836	727.4785	792.0858	806.4152	854.8234	877.111	897.9764	956.5149	991.8275	994.6947	1025.1513	1053.9432	1066.3401	1090.1196	1109.7745	1123.6545	1142.659	1160.0178	1167.4982	1193.5734	1247.9254	1302.7477	1327.5698	1376.6258	1390.6505	1407.9223	1439.0926	1478.2899	1483.2172	1489.8582	1535.5909	2975.1557	3051.4073	3075.8068	3120.7052	3133.2123	3144.1164	3161.0172	3187.7351	3196.4772	3221.1453
CC1OC2CC2C11CO1	C[C@H]1O[C@@H]2C[C@@H]2[C@@]21CO2	
InChI=1S/C7H10O2/c1-4-7(3-8-7)5-2-6(5)9-4/h4-6H,2-3H2,1H3	InChI=1S/C7H10O2/c1-4-7(3-8-7)5-2-6(5)9-4/h4-6H,2-3H2,1H3/t4-,5+,6-,7+/m1/s1
