19
gdb 534	2.7218422	1.8400108	1.3687737	1.2641	74.62	-0.24834	0.06308	0.31142000000000003	973.2656	0.159064	-422.486011	-422.479012	-422.478068	-422.51712	28.455	
C	-0.0125972861	 1.4941124346	 0.2095361758	-0.108689
O	 1.3224848453	 1.6666738835	-0.3054980968	-0.289611
C	 1.4262159273	 0.2707686064	-0.6483644219	-0.007906
C	 1.1239330357	 0.0871900858	-2.1730852428	-0.219096
C	-0.4438196054	 0.112838026	-2.3636876551	-0.314911
C	-0.7668440152	-0.6575530917	-1.0969059232	 0.185886
O	-1.9065973391	-0.7898652259	-0.1922142881	-0.321534
C	-0.9233601413	-0.8452539275	 0.8967722537	-0.223502
C	 0.0432826291	-0.0341564589	 0.0009478621	 0.262682
H	-0.0656093143	 1.7764283037	 1.2692338978	 0.1006
H	-0.7668137847	 2.0647403166	-0.345790128	 0.109793
H	 2.3756621861	-0.1674743254	-0.3296749643	 0.081402
H	 1.6256779597	 0.8727914476	-2.7424172933	 0.120546
H	 1.5138559574	-0.8777799443	-2.516259597	 0.105865
H	-0.8273460412	 1.1355968639	-2.3594505931	 0.122038
H	-0.745678893	-0.3681509214	-3.2964522787	 0.105112
H	-0.390491581	-1.6844555932	-1.2612039094	 0.070773
H	-1.2927533698	-0.3543764299	 1.8012231424	 0.113922
H	-0.6262724396	-1.8804694	 1.10933954	 0.10663
145.1382	232.6839	278.5566	315.9308	400.6569	421.8772	535.0045	547.4425	616.4099	740.0163	791.4468	849.4486	872.9498	884.758	900.9476	929.533	933.4349	981.6267	1003.6922	1022.417	1031.0496	1084.1211	1114.9783	1124.8581	1154.4201	1158.3475	1180.716	1184.4357	1251.7875	1263.3385	1273.5594	1288.3037	1300.5281	1326.8218	1350.0654	1364.6458	1451.3824	1471.0503	1498.7231	1509.8603	1529.4623	2921.252	3008.6101	3017.7731	3045.7802	3053.1408	3075.4513	3078.5815	3098.7782	3113.1076	3126.7939
C1OC2CCC3OCC123	C1O[C@@H]2CC[C@@H]3OC[C@@]123	
InChI=1S/C7H10O2/c1-2-6-7(4-9-6)3-8-5(1)7/h5-6H,1-4H2	InChI=1S/C7H10O2/c1-2-6-7(4-9-6)3-8-5(1)7/h5-6H,1-4H2/t5-,6+,7-/m0/s1
