19
gdb 3536	2.2693293	1.6079107	1.260895	4.0406	75.4	-0.23522	-0.00771	0.22751000000000002	1083.0062	0.156589	-422.586902	-422.578173	-422.577229	-422.620023	33.199	
C	-0.2493230763	-2.5078295591	 0.4448393638	-0.485033
C	-0.772585592	-1.2188998193	-0.1331923527	 0.240331
C	-1.5568742512	-1.2027335751	-1.4455098748	-0.34163
C	-2.2287939583	-0.7861819447	-0.1765594883	-0.115233
C	-2.3197538725	 0.7147950525	 0.1037637954	 0.121382
O	-2.6318625555	 0.963699604	 1.4697849521	-0.435148
C	-0.8971051145	 1.2462752092	-0.1218814901	-0.35565
C	 0.0250096199	 0.0348093874	 0.0806013001	 0.376107
O	 1.186413121	 0.0764774926	 0.4026406624	-0.335029
H	-0.1575006133	-2.4406634516	 1.533414746	 0.131501
H	-0.9102065593	-3.3466953481	 0.2070902742	 0.109984
H	 0.7450659179	-2.727871601	 0.0450329675	 0.138876
H	-1.3258799995	-0.4614807644	-2.203801667	 0.119376
H	-1.8055913139	-2.1798299415	-1.8457135912	 0.122414
H	-3.003981782	-1.4248369683	 0.2372992269	 0.085286
H	-3.0550210126	 1.2036367794	-0.5523315955	 0.068945
H	-3.4864113942	 0.5630657351	 1.6599991264	 0.281661
H	-0.7602112509	 1.6485452026	-1.131189991	 0.126283
H	-0.6544543528	 2.0392948202	 0.5866479461	 0.145577
95.2395	121.7384	162.4909	249.1454	292.2754	304.2653	361.9806	394.9661	446.5967	477.5251	532.7064	640.2018	656.2076	730.3539	809.6361	848.6247	859.6453	890.7004	955.2381	985.2007	1030.9334	1051.2021	1059.3975	1074.9711	1097.4049	1112.2828	1126.3097	1185.5713	1217.3899	1271.415	1297.539	1319.2902	1347.5059	1386.2998	1417.266	1426.5768	1450.8673	1482.603	1498.0405	1499.791	1832.7079	2988.2027	3038.6842	3064.0626	3106.8503	3112.2852	3128.6995	3134.1972	3152.696	3212.8474	3814.1992
CC12CC1C(O)CC2=O	C[C@@]12C[C@@H]1[C@@H](O)CC2=O	
InChI=1S/C7H10O2/c1-7-3-4(7)5(8)2-6(7)9/h4-5,8H,2-3H2,1H3	InChI=1S/C7H10O2/c1-7-3-4(7)5(8)2-6(7)9/h4-5,8H,2-3H2,1H3/t4-,5+,7-/m1/s1
