19
gdb 4428	3.077084	1.3797925	1.1521873	1.9188	74.71	-0.24606	0.06206	0.30812	1101.9954	0.156577	-422.504185	-422.496058	-422.495114	-422.536756	31.523	
O	-0.6203790987	 0.3656988494	 0.8639378105	-0.421562
C	-1.8925948408	 0.841397162	 0.4925202303	 0.065912
C	-2.5406566987	 0.0991251413	-0.6908074541	-0.241268
C	-3.9103242656	 0.2329379129	 0.0312974831	-0.297315
C	-3.1468295718	 0.4852110543	 1.353367664	 0.319048
C	-2.9547756473	-0.6599843142	 2.4103341572	-0.32808
C	-3.4449143457	 0.32079952	 3.4830077325	 0.038128
O	-4.7580383997	 0.74787756	 3.1028679499	-0.247545
C	-3.6307859284	 1.3897355686	 2.4878282312	-0.087301
H	-0.2327660439	 0.9788098944	 1.4962820938	 0.284838
H	-1.8681372746	 1.9256123908	 0.3055263012	 0.067831
H	-2.4265996099	 0.5312517372	-1.6869732873	 0.098946
H	-2.1943619751	-0.9378981167	-0.709419679	 0.117295
H	-4.4692504478	 1.1153251455	-0.294114756	 0.104011
H	-4.5787244715	-0.6290911885	 0.0080685083	 0.110309
H	-3.5683048017	-1.5559385224	 2.2873642412	 0.10611
H	-1.9017495082	-0.9336309695	 2.509426179	 0.118
H	-3.1956553681	 0.3705430034	 4.5367117673	 0.101243
H	-3.5707192224	 2.4701743213	 2.5752440771	 0.0914
105.4273	117.6562	201.2579	284.3858	287.6339	319.7636	406.9908	458.1679	522.3503	598.5572	678.6583	782.817	798.993	838.5712	858.2939	865.5209	894.6067	934.189	955.3218	972.1892	980.6972	1037.9992	1069.377	1077.2494	1123.9234	1160.6028	1165.1092	1189.4845	1220.2607	1230.1131	1243.8075	1254.1271	1264.2685	1267.935	1291.9688	1317.8739	1381.873	1427.0048	1471.7344	1480.056	1497.8613	2983.736	3060.9165	3064.92	3066.3726	3114.0692	3126.5503	3127.0997	3161.6777	3187.5679	3819.8972
OC1CCC11CC2OC12	O[C@H]1CC[C@]21C[C@@H]1O[C@H]21	
InChI=1S/C7H10O2/c8-5-1-2-7(5)3-4-6(7)9-4/h4-6,8H,1-3H2	InChI=1S/C7H10O2/c8-5-1-2-7(5)3-4-6(7)9-4/h4-6,8H,1-3H2/t4-,5-,6-,7+/m0/s1
