19
gdb 5019	2.334645	1.7603505	1.2701596	1.9667	75.73	-0.22815	0.00747	0.23562	1053.3481	0.156482	-422.521903	-422.513421	-422.512477	-422.554665	32.619	
C	 1.3295611588	 0.7065752882	 0.2279104022	-0.521963
C	-0.0424394058	 0.1413201035	 0.119282633	 0.333413
C	-0.529569793	-1.1005117179	 0.1982806386	-0.209078
C	-2.0310370955	-0.8636750109	-0.0260704334	 0.021589
C	-2.3099253093	 0.3404202138	 0.9208544283	-0.273335
C	-1.3450632601	 0.9514526154	-0.1419613497	 0.286497
C	-1.2858560832	 2.3946770341	-0.5656097549	-0.18443
O	-0.5691770362	 2.5255051492	-1.7829789096	-0.41856
O	-2.0179466161	 0.096659807	-1.1412048785	-0.333775
H	 1.415074703	 1.384594933	 1.0875999011	 0.126088
H	 2.0777830776	-0.0815356738	 0.3482193277	 0.124357
H	 1.5714872309	 1.2983600375	-0.6613247831	 0.152694
H	-0.0311522848	-2.0430336048	 0.3728234785	 0.104822
H	-2.7112880705	-1.7029591628	-0.1614662345	 0.081304
H	-3.3291805533	 0.726440137	 0.8344393567	 0.104305
H	-1.9771496705	 0.277723025	 1.9586228766	 0.097905
H	-2.3079823007	 2.7923094924	-0.6548385464	 0.09877
H	-0.7565909776	 2.9927004651	 0.1842821908	 0.110646
H	-0.9363327836	 1.866116949	-2.3844153136	 0.29875
106.1388	151.6504	181.5662	195.7918	244.8504	361.1044	407.0684	433.0825	495.8778	550.5818	579.8024	655.8666	683.8245	763.1633	776.8288	839.344	897.5726	903.5027	935.491	984.7196	1007.1995	1023.2153	1051.1504	1063.4544	1071.3486	1131.3323	1160.9076	1208.2464	1230.3322	1236.0191	1258.9899	1289.1154	1329.2464	1373.5955	1409.2188	1439.498	1474.4899	1487.2144	1490.6239	1499.4999	1688.6417	2994.2856	3018.5194	3059.8979	3072.1957	3075.8641	3116.0538	3133.1658	3138.1061	3236.6749	3789.5754
CC1=CC2CC1(CO)O2	CC1=C[C@H]2C[C@]1(CO)O2	
InChI=1S/C7H10O2/c1-5-2-6-3-7(5,4-8)9-6/h2,6,8H,3-4H2,1H3	InChI=1S/C7H10O2/c1-5-2-6-3-7(5,4-8)9-6/h2,6,8H,3-4H2,1H3/t6-,7+/m0/s1
