19
gdb 830	3.3408888	0.8326868	0.7297041	2.7029	79.19	-0.24428	-0.01773	0.22655	1569.6435	0.154668	-422.518864	-422.5097	-422.508755	-422.5539	33.11	
O	 0.4982321939	-1.2662988595	 0.2516974585	-0.269097
C	 0.2267603659	-0.1292849358	-0.0489687123	 0.163119
C	 0.0594597397	 0.983620547	 0.9039127688	-0.134601
C	-0.9010776224	 2.1282001091	 0.5699983161	-0.327487
C	 0.5508535132	 2.3826276291	 0.4978880613	 0.117945
O	 1.1036898468	 3.1869117858	 1.4839316443	-0.247111
C	 2.4764806642	 2.9677111349	 1.6727120013	 0.135089
C	 3.2523692595	 4.118280084	 2.2183715558	-0.2863
C	 3.4566574583	 3.6825988292	 0.7795090116	-0.287875
H	 0.0886870379	 0.1644992211	-1.1183584196	 0.059253
H	 0.1697502435	 0.7266362066	 1.9513153058	 0.116159
H	-1.4621502666	 2.0665648921	-0.3564340991	 0.127344
H	-1.4385727504	 2.5500309892	 1.4106684645	 0.142294
H	 1.0195016688	 2.4702371136	-0.4819985911	 0.101881
H	 2.719552592	 1.9602013516	 2.0062571786	 0.098784
H	 2.7009864949	 5.0372230198	 2.3805001449	 0.129351
H	 4.0304906908	 3.9177194149	 2.9456513043	 0.119675
H	 3.0436495154	 4.3265058138	 0.0110239018	 0.122102
H	 4.3768732546	 3.1778428433	 0.5074457846	 0.119474
51.5705	74.1684	109.9268	153.6567	237.324	275.7077	304.5066	401.6209	471.9273	483.1181	534.6358	750.6801	777.6802	818.2389	823.1402	855.4883	886.8413	954.8121	984.1459	1007.5773	1045.7444	1051.6371	1070.8785	1074.3003	1077.3405	1116.3769	1128.818	1166.5536	1190.1088	1193.0053	1195.5372	1232.7094	1248.6589	1292.2476	1375.9615	1421.7953	1444.432	1453.5656	1479.1955	1500.7255	1816.2996	2830.9397	3107.9255	3117.8298	3137.6674	3141.2886	3145.0158	3188.4451	3222.3874	3236.055	3237.3097
O=CC1CC1OC1CC1	O=C[C@@H]1C[C@H]1OC1CC1	
InChI=1S/C7H10O2/c8-4-5-3-7(5)9-6-1-2-6/h4-7H,1-3H2	InChI=1S/C7H10O2/c8-4-5-3-7(5)9-6-1-2-6/h4-7H,1-3H2/t5-,7+/m0/s1
