19
gdb 1961	3.9430298	1.2007946	1.0912004	2.6293	75.49	-0.23804	0.07046	0.3085	1165.4942	0.155723	-422.495915	-422.487553	-422.486609	-422.52891	31.619	
C	-3.4222306848	 2.5311918911	 0.0346408004	-0.487365
C	-1.9450698877	 2.5625699437	-0.1740032458	 0.463437
C	-1.148690727	 3.5633080264	-0.9511310963	-0.34264
C	-1.0087484377	 2.0806232539	-1.2607772079	-0.260754
C	-0.2395826167	 1.4192791595	-0.1316092013	 0.374938
C	 1.2817276323	 1.5008340349	 0.0759473917	-0.13609
O	 1.4106030761	 0.0712356053	-0.0834304778	-0.275699
C	-0.0211674346	-0.1042371946	-0.0963496072	-0.135823
O	-1.1137149718	 1.9966122891	 0.8605728779	-0.351194
H	-3.701795484	 3.1609476639	 0.8867873948	 0.135305
H	-3.9415944851	 2.9105443048	-0.8499542274	 0.125511
H	-3.7693734866	 1.5131793147	 0.2364106063	 0.129043
H	-1.6986433971	 4.1266986609	-1.6989717762	 0.115423
H	-0.3406723329	 4.1058764868	-0.467509767	 0.115273
H	-1.2037443306	 1.6500279376	-2.2340826642	 0.103485
H	 1.8556620816	 2.058936468	-0.6729183302	 0.105345
H	 1.5621237258	 1.834581771	 1.0832037745	 0.110317
H	-0.3621073991	-0.6771207145	-0.9671604898	 0.102583
H	-0.3983577899	-0.5678458826	 0.8241933656	 0.108906
84.1016	110.3396	198.1859	202.406	295.7106	322.7234	375.3324	446.9158	471.1147	519.0819	664.6345	813.2318	818.3605	837.0638	885.1425	920.9594	933.8475	970.066	974.5737	989.8936	993.9135	1026.4468	1056.9204	1072.6318	1112.0093	1129.3787	1147.5334	1153.5168	1160.3117	1193.2133	1257.8673	1295.1556	1322.0228	1382.4171	1388.2102	1428.609	1474.132	1490.0497	1495.8601	1503.0011	1522.7849	3008.0335	3020.1155	3034.3275	3063.8085	3067.3402	3098.3803	3113.0931	3118.1108	3197.0959	3207.0816
CC12CC1C1(COC1)O2	C[C@]12C[C@H]1C1(COC1)O2	
InChI=1S/C7H10O2/c1-6-2-5(6)7(9-6)3-8-4-7/h5H,2-4H2,1H3	InChI=1S/C7H10O2/c1-6-2-5(6)7(9-6)3-8-4-7/h5H,2-4H2,1H3/t5-,6+/m1/s1
