19
gdb 1284	3.3576525	0.9585738	0.8842935	2.8447	78.3	-0.24155	-0.0176	0.22394999999999998	1375.6396	0.155355	-422.594851	-422.585533	-422.584589	-422.629521	34.13	
C	 0.7877628623	 2.7303030241	-1.5630459969	-0.387783
C	 1.1317307125	 1.4092490788	-0.8784025686	 0.022024
O	 1.9149447553	 0.664923729	-1.8172025618	-0.42932
C	-0.0794688631	 0.6205912261	-0.4603937906	 0.318508
C	-0.3808166036	 0.2510997737	 0.7896140807	-0.20685
C	-1.6421503291	-0.5606769386	 0.8819635121	-0.368106
C	-2.0870069125	-0.684129768	-0.586805397	 0.392216
O	-3.0464566534	-1.289698079	-0.9836523469	-0.300606
C	-1.0921501666	 0.1023435831	-1.4545220919	-0.417485
H	 0.2117567729	 3.3728988439	-0.8915622595	 0.118985
H	 1.7077440706	 3.2485886701	-1.8459882655	 0.127644
H	 0.2042401117	 2.5555826931	-2.4712888553	 0.127814
H	 1.7274291833	 1.6257437109	 0.0228005129	 0.06654
H	 2.1621202091	-0.1651619424	-1.3961147242	 0.282162
H	 0.2164335105	 0.5057627929	 1.6592155042	 0.096368
H	-1.5007730979	-1.5576897415	 1.3188330618	 0.137063
H	-2.435316895	-0.0823835765	 1.4720069345	 0.138945
H	-0.651380289	-0.542365395	-2.2237339894	 0.14314
H	-1.6242367681	 0.8953769552	-1.9954838785	 0.138741
54.8748	68.425	154.4609	178.8879	227.456	315.115	331.8413	354.6861	463.5372	466.7316	500.2905	541.8314	606.5903	683.7814	784.2123	807.0076	858.6614	867.4936	914.2303	991.1596	997.5117	1004.778	1063.6989	1113.3237	1122.4772	1128.569	1179.3671	1194.444	1262.0431	1280.9004	1283.7581	1336.3521	1384.0122	1392.2124	1416.767	1441.2643	1445.716	1484.1362	1498.4417	1704.5814	1854.84	2971.5621	3024.4208	3034.7063	3047.3861	3051.7689	3068.5665	3123.5629	3126.6552	3183.114	3811.0381
CC(O)C1=CCC(=O)C1	C[C@H](O)C1=CCC(=O)C1	
InChI=1S/C7H10O2/c1-5(8)6-2-3-7(9)4-6/h2,5,8H,3-4H2,1H3	InChI=1S/C7H10O2/c1-5(8)6-2-3-7(9)4-6/h2,5,8H,3-4H2,1H3/t5-/m0/s1
