19
gdb 3360	3.2305813	1.4818964	1.2987594	1.6978	74.91	-0.23993	0.07702	0.31695	1032.6059	0.158441	-422.519926	-422.512431	-422.511487	-422.551429	30.377	
O	 0.4897360798	-0.2178279239	 0.2507294935	-0.459056
C	-0.6711895085	 0.3610350468	 0.7600517048	 0.189109
C	-2.0845945827	 0.0094144153	 0.1454722718	-0.227629
C	-1.8130449162	 0.335260984	-1.3269007868	-0.097335
O	-1.0396964304	 1.5632585505	-1.1850589256	-0.30113
C	-1.0715592232	 1.7676261141	 0.2480072094	-0.061875
C	-2.4991515338	 1.4065681601	 0.6435190307	 0.45348
C	-3.7731597789	 2.1683901187	 0.5149066993	-0.35883
C	-3.2395036747	 1.7812628571	 1.8847987159	-0.360686
H	 0.6434931067	 0.2001281219	-0.6074324709	 0.292445
H	-0.6690168959	 0.2707828252	 1.8466121762	 0.096442
H	-2.6294419172	-0.9025399703	 0.3842032239	 0.074727
H	-1.2120059238	-0.4233571581	-1.8396753157	 0.102335
H	-2.7209827706	 0.534130139	-1.9053373684	 0.107517
H	-0.5621204463	 2.6964839637	 0.500003726	 0.081161
H	-3.721819919	 3.2122067374	 0.2230666571	 0.120595
H	-4.6509884087	 1.6456142624	 0.1479134706	 0.115043
H	-2.8347104043	 2.5678734482	 2.5140467449	 0.117207
H	-3.7598100922	 1.0004062678	 2.4305636933	 0.116482
153.8944	220.3441	242.5163	254.4495	306.8221	448.8145	468.082	509.8912	571.8283	682.7826	731.0122	777.1337	816.7029	823.4981	879.4126	905.5257	930.4729	946.443	969.385	978.4167	999.5243	1035.1996	1051.7663	1065.917	1081.308	1107.7981	1127.7765	1175.8365	1182.8285	1195.3045	1213.9833	1235.0639	1255.7248	1278.4172	1308.3917	1359.4808	1420.9553	1435.7998	1466.0269	1511.9869	1523.4698	3037.0781	3081.6607	3118.2982	3121.7077	3126.2095	3134.2045	3139.9921	3199.2698	3213.7304	3755.8457
OC1C2COC1C21CC1	O[C@@H]1[C@@H]2CO[C@H]1C12CC1	
InChI=1S/C7H10O2/c8-5-4-3-9-6(5)7(4)1-2-7/h4-6,8H,1-3H2	InChI=1S/C7H10O2/c8-5-4-3-9-6(5)7(4)1-2-7/h4-6,8H,1-3H2/t4-,5+,6+/m0/s1
