19
gdb 5162	2.3511436	1.6727417	1.2545613	3.0879	75.46	-0.22706	-0.01472	0.21234	1074.6265	0.156765	-422.562069	-422.553481	-422.552536	-422.595205	32.186	
C	 1.4194683908	-0.1428283885	 0.0295695398	-0.262425
O	 0.004035771	 0.0000989889	 0.0117981897	-0.280582
C	-0.5113327413	 0.7241444098	 1.0645315359	 0.340732
C	-1.9121286331	 0.36064181	 1.5020076181	-0.337318
C	-0.7795281808	 0.1506439445	 2.4626792734	-0.113809
C	-0.547811284	 1.2465408584	 3.5000094516	-0.226217
C	-0.4889538879	 2.5677633559	 2.6982268542	-0.338825
C	-0.1217835426	 2.1616278476	 1.2646495176	 0.342552
O	 0.4582920501	 2.8472884545	 0.4584044078	-0.336052
H	 1.7587617338	-0.620937429	 0.9596259514	 0.102098
H	 1.6751672123	-0.7866285012	-0.8144182486	 0.129293
H	 1.9202138815	 0.8236451906	-0.0861514088	 0.142193
H	-2.6464341942	 1.1401940137	 1.6774305747	 0.119001
H	-2.2954768329	-0.5215023212	 1.0017319212	 0.135579
H	-0.4850781735	-0.8681303359	 2.6864278003	 0.101027
H	-1.3255907764	 1.2567907396	 4.2707481352	 0.107172
H	 0.4076853058	 1.0756919466	 4.0068311175	 0.111928
H	-1.4552245789	 3.0856687556	 2.6803756836	 0.131754
H	 0.2438139204	 3.2815588301	 3.0786595952	 0.131901
98.9145	117.382	174.1921	197.7171	217.5416	321.0463	375.0894	454.3512	476.7338	534.6409	596.2791	660.7816	673.7604	802.5346	823.3251	874.9695	906.996	941.7301	976.5331	1024.1456	1042.7807	1052.3058	1087.4367	1100.3813	1110.9845	1177.3459	1179.4244	1219.1513	1224.4391	1266.3824	1281.8946	1325.5678	1336.9706	1387.7136	1458.3569	1471.7794	1486.3909	1490.6825	1503.5975	1512.7977	1825.9641	3000.3806	3041.5719	3047.3902	3079.5697	3083.9759	3119.07	3130.9377	3131.4666	3181.7697	3224.0651
COC12CC1CCC2=O	CO[C@@]12C[C@@H]1CCC2=O	
InChI=1S/C7H10O2/c1-9-7-4-5(7)2-3-6(7)8/h5H,2-4H2,1H3	InChI=1S/C7H10O2/c1-9-7-4-5(7)2-3-6(7)8/h5H,2-4H2,1H3/t5-,7-/m0/s1
