19
gdb 5110	2.4892334	1.5899244	1.1967678	1.6314	74.58	-0.22762	0.05762	0.28524	1091.3425	0.155178	-422.482834	-422.474015	-422.47307	-422.516321	33.449	
C	-0.3088814005	-2.8317703208	 2.6146393168	-0.499648
C	 0.2729812175	-3.4073019405	 1.3566380691	 0.284962
C	 0.951428617	-4.7460426751	 1.2497925499	-0.333684
C	-0.276722546	-4.4762406953	 0.4145237622	-0.148485
C	 0.0588630332	-3.5516227944	-0.7938790828	-0.072044
O	 1.4646152868	-3.2551082816	-0.795309658	-0.294288
C	 0.5904702876	-2.5220656461	 0.0937442647	 0.349537
C	 0.6530035619	-1.0315568068	 0.0246971038	-0.188717
O	 1.8052380603	-0.5212962188	 0.6797432547	-0.415667
H	-0.6480730752	-3.626716069	 3.28626239	 0.118846
H	 0.4329235692	-2.2290476813	 3.1510352791	 0.13554
H	-1.1705403948	-2.1863831596	 2.406031096	 0.115769
H	 1.9202457203	-4.8484150328	 0.7778947597	 0.131071
H	 0.7789032174	-5.4019391043	 2.0979671753	 0.108718
H	-1.1941784659	-5.0439960526	 0.4989668507	 0.091617
H	-0.4646942845	-3.4874713135	-1.7408394577	 0.10716
H	 0.6104018042	-0.7240322125	-1.0307849886	 0.100189
H	-0.2060761074	-0.5902348202	 0.5401582896	 0.115419
H	 2.5707517988	-0.9268437848	 0.2575357955	 0.293706
59.2353	121.5817	190.6089	215.9398	234.8355	350.4553	373.7513	419.3127	441.5873	451.1707	564.4968	625.7861	695.1218	763.2523	780.1917	852.4664	873.6344	907.8402	950.2276	959.0768	979.1897	1006.5745	1009.3357	1070.3426	1075.727	1098.826	1116.5212	1142.3754	1212.6869	1231.941	1251.9695	1287.6641	1363.2742	1368.1966	1414.036	1421.5384	1460.7441	1479.2902	1482.716	1489.2408	1501.3342	2997.4082	3021.4981	3077.3045	3081.257	3099.8328	3136.1357	3181.3853	3199.8245	3229.8876	3806.0445
CC12CC1C1OC21CO	C[C@@]12C[C@@H]1[C@@H]1O[C@]21CO	
InChI=1S/C7H10O2/c1-6-2-4(6)5-7(6,3-8)9-5/h4-5,8H,2-3H2,1H3	InChI=1S/C7H10O2/c1-6-2-4(6)5-7(6,3-8)9-5/h4-5,8H,2-3H2,1H3/t4-,5+,6-,7+/m1/s1
