19
gdb 4821	1.885386	1.3461848	0.9843364	2.119	79.36	-0.23648	0.04548	0.28196	1278.9127	0.15347	-422.510208	-422.499832	-422.498887	-422.545013	38.075	
C	 3.2384553381	-2.2636520302	-0.3777140127	-0.456377
C	 2.2652522561	-2.084283092	 0.7700651381	 0.247596
C	 1.1587085982	-1.0755408815	 0.5145357838	-0.129013
O	 0.3741147088	-1.4159553821	-0.6195906025	-0.414514
C	 1.917399798	-3.2684236564	 1.6247237282	 0.044838
O	 2.4504478165	-4.5061960411	 1.2762502774	-0.416382
C	 2.8338209426	-2.1860509923	 2.1960745015	-0.339898
C	 2.4024844795	-1.3392236788	 3.266976426	 0.33323
C	 2.0456329528	-0.6368702973	 4.1773871353	-0.446426
H	 3.9054848812	-3.1102179721	-0.2074247396	 0.129931
H	 2.6856296561	-2.4407306309	-1.3044387592	 0.134128
H	 3.8418235788	-1.3594978611	-0.5134238723	 0.117259
H	 0.5388145652	-0.9568122375	 1.4137949196	 0.09886
H	 1.5935588418	-0.0956404319	 0.2895389059	 0.116049
H	-0.0253341897	-2.275617351	-0.4486261008	 0.284032
H	 0.9107713609	-3.2980042877	 2.0448823881	 0.094365
H	 2.6089460506	-5.0049249905	 2.0848853299	 0.293529
H	 3.8828594377	-2.470405304	 2.2223266433	 0.114504
H	 1.7323790867	-0.0125580914	 4.9769108499	 0.19429
98.7269	118.7752	130.837	181.2984	204.3522	238.6985	291.5166	302.8609	317.0238	366.0875	396.8057	419.1425	474.988	546.8734	573.9293	613.6045	651.6936	725.1199	823.093	908.7221	953.2443	977.2124	1014.0325	1058.1368	1083.6457	1092.3882	1113.3623	1152.5963	1193.7874	1253.7287	1294.4097	1308.1003	1351.2791	1381.6541	1409.5281	1423.3428	1467.7303	1486.504	1506.2195	1509.8633	2229.2519	3011.4973	3041.6998	3074.5047	3088.2239	3107.8454	3137.1928	3141.2672	3503.9127	3805.3685	3808.1959
CC1(CO)C(O)C1C#C	C[C@@]1(CO)[C@@H](O)[C@@H]1C#C	
InChI=1S/C7H10O2/c1-3-5-6(9)7(5,2)4-8/h1,5-6,8-9H,4H2,2H3	InChI=1S/C7H10O2/c1-3-5-6(9)7(5,2)4-8/h1,5-6,8-9H,4H2,2H3/t5-,6-,7-/m0/s1
