19
gdb 3368	2.1627886	1.6539282	1.2705662	1.8098	75.51	-0.24009	-0.027	0.21309	1093.7778	0.155154	-422.545297	-422.536159	-422.535215	-422.579256	33.116	
C	-1.076318233	 2.0754491047	 1.1281933865	-0.407454
C	-1.0776379762	 1.0863297508	-0.0389629436	-0.131704
C	-2.1730772704	-0.0164503739	-0.0236453856	 0.051374
O	-2.5059263706	-0.4785035171	-1.3446579137	-0.287839
C	-1.5551190388	-1.5599722865	-1.264154837	-0.1217
C	-1.0999419958	-1.1488787066	 0.1625053417	 0.147627
C	-1.0138992194	-2.2044644809	 1.240780389	-0.497461
C	-0.0320601973	-0.0426542644	 0.1216738994	 0.356767
O	 1.1542897303	-0.0481699998	 0.2885232756	-0.309424
H	-1.1845887028	 1.5619813239	 2.0898693237	 0.119715
H	-0.1338104402	 2.6291815659	 1.1537620687	 0.141515
H	-1.8986685589	 2.7908039028	 1.0330754358	 0.126308
H	-1.027032922	 1.6098562422	-0.998684566	 0.111793
H	-3.0466577132	 0.132768975	 0.6157567604	 0.082308
H	-2.0565830597	-2.5360057351	-1.2852878787	 0.109819
H	-0.8025522046	-1.5261273741	-2.0605960012	 0.11553
H	-0.1455198294	-2.8496682388	 1.0690475163	 0.140865
H	-0.8968488149	-1.7570061607	 2.2327096372	 0.127444
H	-1.9098974031	-2.8333876777	 1.2521322116	 0.124518
57.8194	162.9346	169.0571	194.0216	209.3473	224.5702	266.7799	291.9077	392.4294	479.862	607.5011	645.9595	718.0306	776.8523	845.7764	891.7043	914.0562	957.5507	975.4367	1006.5768	1025.9772	1057.7075	1063.831	1099.4824	1142.1785	1158.0233	1172.6299	1210.6245	1232.9353	1269.4432	1293.1767	1319.6635	1369.5044	1406.0691	1409.1059	1487.1502	1490.4718	1495.5117	1496.7287	1523.485	1879.627	3011.7862	3032.2623	3035.4872	3061.8357	3067.4683	3083.8271	3101.5466	3103.2429	3105.2481	3119.4373
CC1C2OCC2(C)C1=O	C[C@@H]1[C@H]2OC[C@@]2(C)C1=O	
InChI=1S/C7H10O2/c1-4-5(8)7(2)3-9-6(4)7/h4,6H,3H2,1-2H3	InChI=1S/C7H10O2/c1-4-5(8)7(2)3-9-6(4)7/h4,6H,3H2,1-2H3/t4-,6+,7-/m0/s1
