19
gdb 5775	3.6095549	1.3226285	1.2113514	2.1848	75.16	-0.23559	0.00752	0.24311	1093.9534	0.158328	-422.54398	-422.536271	-422.535327	-422.576236	29.895	
C	 1.4491454664	 0.0564827688	-0.1478223631	-0.243485
O	 0.0744371428	-0.122292758	 0.1003220402	-0.247205
C	-0.3871216464	 0.5328749031	 1.2629847621	 0.16917
C	-1.9385704868	 0.4965802066	 1.2746795935	-0.259159
C	-2.2099444692	-0.2769377042	 2.6011807643	 0.021222
O	-1.1373251865	-1.2252662665	 2.5864865396	-0.239017
C	-0.0780036649	-0.2632725856	 2.584680539	-0.032118
C	-0.4698190736	 0.6531502848	 3.7395740087	-0.081587
C	-1.8021279248	 0.6476669836	 3.7500786024	-0.082604
H	 2.0821576257	-0.3768760651	 0.6411059542	 0.104365
H	 1.6755491128	-0.4502234462	-1.0890434638	 0.129095
H	 1.7083982299	 1.1228114253	-0.2466037583	 0.103059
H	 0.0213810737	 1.5523934297	 1.3028232244	 0.060634
H	-2.3992510899	 1.485258382	 1.2437772854	 0.100151
H	-2.2738824263	-0.0851809797	 0.4142080271	 0.123791
H	-3.17208002	-0.7822167435	 2.6725543475	 0.08188
H	 0.8931621023	-0.753943742	 2.6243405142	 0.081283
H	 0.2125764776	 1.2482342332	 4.3308082127	 0.104896
H	-2.4799352329	 1.2327930836	 4.3565939498	 0.105629
96.9506	130.5868	183.6882	274.4894	350.0987	383.435	450.0053	524.0582	620.3443	714.8559	734.7964	805.2743	833.3041	872.8244	876.8513	905.5355	929.2016	934.7252	941.1187	979.07	1015.4871	1045.4909	1060.8943	1118.8525	1145.3553	1169.3754	1182.2774	1199.5736	1231.665	1244.3548	1258.0062	1290.7376	1299.1605	1333.5892	1349.0317	1390.7396	1478.3674	1482.3396	1489.7986	1508.5857	1642.8431	2971.9282	3001.2493	3019.2721	3080.5822	3114.4535	3130.4927	3136.379	3137.5975	3216.0795	3241.8415
COC1CC2OC1C=C2	CO[C@H]1C[C@H]2O[C@@H]1C=C2	
InChI=1S/C7H10O2/c1-8-7-4-5-2-3-6(7)9-5/h2-3,5-7H,4H2,1H3	InChI=1S/C7H10O2/c1-8-7-4-5-2-3-6(7)9-5/h2-3,5-7H,4H2,1H3/t5-,6+,7-/m0/s1
