19
gdb 2121	3.5789721	1.436442	1.2543261	1.7221	75.74	-0.23981	0.07123	0.31104	1051.1983	0.156922	-422.469767	-422.461946	-422.461002	-422.50177	30.743	
C	-0.0666716083	 0.0408484733	-0.0917013159	-0.51241
C	 1.4065768031	-0.1129559567	 0.1199540813	 0.360373
C	 2.3006964354	-1.3653339993	 0.1113840355	-0.311567
C	 3.1913603754	-0.0977478133	 0.0934098954	 0.399847
C	 4.6147260472	 0.0343480176	 0.5537260771	-0.188414
O	 4.4559862189	-0.0911866579	 1.9839245452	-0.290999
C	 3.0670919697	 0.06745729	 2.4186624877	-0.12161
C	 2.347896296	 0.5671339636	 1.1780983765	-0.078671
O	 2.3172480443	 0.4741020081	-0.9485865656	-0.397439
H	-0.6120803806	-0.4244118106	 0.7353375416	 0.129635
H	-0.3401667757	 1.0989074331	-0.137014641	 0.136435
H	-0.3726081828	-0.4403967222	-1.0253435332	 0.136892
H	 2.3106483019	-2.00698663	 0.9940658637	 0.105825
H	 2.2916593844	-1.9292125866	-0.8218360235	 0.105949
H	 5.2898754001	-0.7593357942	 0.2204118471	 0.112811
H	 5.0397581178	 1.0113729663	 0.286297841	 0.110435
H	 2.7090389283	-0.8933488404	 2.8045674103	 0.104513
H	 3.0590288718	 0.7915384298	 3.2384342766	 0.108743
H	 2.3383049832	 1.6555975095	 1.0894146903	 0.089653
105.4025	194.7974	215.7781	232.5269	327.4291	361.7828	459.1349	508.1281	566.6606	627.1492	655.294	684.8924	740.4925	819.002	852.5573	893.6972	911.7213	966.2466	993.2136	1004.6247	1046.2078	1066.9985	1090.8837	1098.6258	1121.9471	1148.5851	1160.8699	1188.4637	1200.1131	1247.1458	1257.9554	1306.3463	1351.8556	1367.2193	1392.6011	1417.5828	1475.7492	1487.2253	1502.185	1514.4338	1528.4187	3011.8435	3035.7448	3041.051	3075.1075	3079.3024	3081.2163	3097.8603	3115.9241	3119.5073	3151.6413
CC12CC3(COCC13)O2	C[C@]12C[C@@]3(COC[C@H]13)O2	
InChI=1S/C7H10O2/c1-6-3-7(9-6)4-8-2-5(6)7/h5H,2-4H2,1H3	InChI=1S/C7H10O2/c1-6-3-7(9-6)4-8-2-5(6)7/h5H,2-4H2,1H3/t5-,6+,7+/m1/s1
