19
gdb 1192	2.9983976	1.0234053	0.8593407	1.1857	78.03	-0.2439	0.02689	0.27079000000000003	1390.133	0.154056	-422.506292	-422.496368	-422.495424	-422.541664	35.789	
C	 4.7779065159	 2.9833624141	-1.3519176565	-0.397234
C	 4.1817995349	 1.748037372	-1.9934079243	 0.173172
C	 4.5857883124	 0.3556892005	-1.456381413	-0.323604
C	 3.076411277	 0.1664305919	-1.2235145389	 0.148097
O	 2.7986151365	 1.5273534611	-1.6012661511	-0.308096
C	 2.6360590554	-0.1495602273	 0.2138667345	-0.074402
O	 3.1548593862	-1.4166587057	 0.6105704773	-0.418256
C	 1.1824222159	-0.0776054092	 0.3579657617	 0.295449
C	-0.0167252406	-0.074643252	 0.4418292298	-0.438319
H	 4.7335915935	 2.9168230623	-0.2604416781	 0.118491
H	 5.8250436784	 3.1005746496	-1.6523965219	 0.117106
H	 4.2306389868	 3.8784924101	-1.6639158513	 0.129308
H	 4.251174902	 1.8200354393	-3.0877405651	 0.075344
H	 5.0588130814	-0.3247468783	-2.1646022428	 0.108635
H	 5.1732097945	 0.3821965472	-0.5356283376	 0.115258
H	 2.5956226944	-0.5478146802	-1.9078140136	 0.07135
H	 3.1063958396	 0.5849471762	 0.8782829565	 0.117027
H	 2.5786172822	-2.0944375383	 0.2403468331	 0.288968
H	-1.0750050563	-0.0505224331	 0.5293145713	 0.201707
53.7026	60.2876	122.3485	199.1269	219.3325	245.3114	274.1369	329.13	362.3158	399.2378	450.8964	504.4174	587.3152	634.4675	673.9604	728.5161	834.7356	893.8604	897.5373	931.5879	960.6064	1035.494	1061.6506	1075.3697	1097.7487	1126.3976	1147.1332	1196.3039	1245.5089	1251.9998	1276.6044	1297.9812	1328.6976	1373.4011	1394.0223	1408.6234	1420.5774	1481.8872	1491.2491	1495.9089	2233.6699	2994.1512	3003.8185	3032.8617	3046.3174	3077.3441	3105.4076	3112.36	3137.1199	3502.5543	3809.5235
CC1CC(O1)C(O)C#C	C[C@H]1C[C@H](O1)[C@H](O)C#C	
InChI=1S/C7H10O2/c1-3-6(8)7-4-5(2)9-7/h1,5-8H,4H2,2H3	InChI=1S/C7H10O2/c1-3-6(8)7-4-5(2)9-7/h1,5-8H,4H2,2H3/t5-,6+,7-/m0/s1
