19
gdb 1501	1.8127555	1.7063162	1.1040636	2.7599	76.91	-0.24634	-0.03468	0.21166000000000001	1167.271	0.153174	-422.578845	-422.569188	-422.568243	-422.613501	35.043	
C	-3.0406233479	-0.0330651481	-1.1877213411	-0.434695
C	-2.1191933684	 0.0165243672	 0.0349919201	 0.295082
C	-2.9189911392	 0.0867825213	 1.3326120691	-0.456119
C	-1.036400089	-1.1208589206	-0.0300069892	-0.378325
C	-0.0084102684	-0.0774939229	-0.4678685821	 0.382505
O	 1.0726486299	-0.1148162167	-0.9764721742	-0.289321
C	-0.9640812158	 1.077894587	-0.0847292979	-0.245894
C	-1.0178713084	 2.2950264392	-0.9687278233	 0.144223
O	-2.0239657588	 2.8008327881	-1.3977915979	-0.247355
H	-3.6779907697	-0.9223920311	-1.1317878301	 0.111125
H	-3.6738258986	 0.8537143324	-1.2443353747	 0.1456
H	-2.4715653836	-0.0907176913	-2.1218031734	 0.115898
H	-3.5912739816	-0.7733600075	 1.4240386772	 0.121179
H	-2.2622774786	 0.0919427426	 2.2097362445	 0.109496
H	-3.531944941	 0.9936919454	 1.3638857312	 0.131535
H	-0.7797895551	-1.5323493851	 0.9527201419	 0.130416
H	-1.2102165451	-1.948342412	-0.7230449476	 0.132519
H	-0.6480908068	 1.4292204061	 0.9100198986	 0.130265
H	-0.0145761338	 2.7135538659	-1.2044174209	 0.101866
53.7598	89.2678	159.5337	203.9284	234.1172	263.2993	280.1806	330.0515	368.6752	372.8065	428.5506	546.5111	599.7255	639.5311	708.3275	800.8289	828.7121	908.5345	931.2324	962.3577	998.1399	1004.6366	1051.7245	1069.6349	1115.3875	1136.8317	1182.6558	1215.5959	1243.4078	1276.3813	1319.1801	1405.2838	1415.7312	1423.9931	1441.0526	1482.8043	1486.6088	1502.3871	1505.0965	1816.8458	1889.2698	2892.4904	3004.2331	3024.9931	3034.0236	3048.5424	3091.2862	3094.8384	3100.1891	3109.2699	3139.2627
CC1(C)CC(=O)C1C=O	CC1(C)CC(=O)[C@H]1C=O	
InChI=1S/C7H10O2/c1-7(2)3-6(9)5(7)4-8/h4-5H,3H2,1-2H3	InChI=1S/C7H10O2/c1-7(2)3-6(9)5(7)4-8/h4-5H,3H2,1-2H3/t5-/m1/s1
