19
gdb 4584	2.5205556	1.4212091	0.9669176	2.5146	78.06	-0.24836	0.03995	0.28831	1216.8547	0.156289	-422.530326	-422.521328	-422.520384	-422.563728	34.036	
O	 0.9872405634	-1.2476785679	 1.1161507256	-0.430324
C	 0.1060690822	-0.4885958326	 1.924959238	 0.114074
C	 0.8558109499	 0.5234789611	 2.7997351256	-0.243683
C	-0.1164957467	 1.4979159086	 3.4767124422	-0.209996
C	-1.0365617032	 2.1120216417	 2.4227090162	-0.061246
O	-1.7243634958	 1.1087038755	 1.6905999048	-0.260633
C	-0.8446399237	 0.2584957226	 0.9625216381	-0.071183
C	-1.651909713	-0.6563665935	 0.1628659942	 0.317901
C	-2.3144900469	-1.413341823	-0.4922975965	-0.413364
H	 1.5690146027	-1.7486100997	 1.6962599044	 0.284505
H	-0.5167959947	-1.1403233877	 2.5569128941	 0.080488
H	 1.4623550472	-0.0078233247	 3.5437013134	 0.088395
H	 1.5522423788	 1.0734550028	 2.1531991703	 0.106645
H	-0.7294402226	 0.9695604761	 4.2165725748	 0.108915
H	 0.4289195571	 2.2863930514	 4.0072408379	 0.099018
H	-1.813354018	 2.7324386538	 2.877908617	 0.10974
H	-0.4522756238	 2.7478879232	 1.7351358164	 0.088186
H	-0.2123360904	 0.8623704601	 0.2871496198	 0.099304
H	-2.8985069227	-2.0813880177	-1.0755264161	 0.19326
92.694	137.6884	177.8165	203.2171	256.5254	316.1136	349.8453	403.3592	435.8882	444.6845	519.9131	555.1524	583.421	623.6996	664.0342	843.6202	861.6788	906.5478	935.1837	961.4072	1040.0192	1052.924	1075.0499	1112.629	1119.9849	1135.5866	1206.1842	1227.5552	1241.8717	1291.1147	1323.2204	1339.4048	1356.6767	1373.1253	1390.4826	1406.7306	1430.1905	1479.7551	1489.3733	1500.7055	2248.1839	2945.3919	2960.0279	2988.5634	3018.6539	3034.1265	3059.8354	3080.4891	3091.3566	3505.7996	3821.875
OC1CCCOC1C#C	O[C@H]1CCCO[C@@H]1C#C	
InChI=1S/C7H10O2/c1-2-7-6(8)4-3-5-9-7/h1,6-8H,3-5H2	InChI=1S/C7H10O2/c1-2-7-6(8)4-3-5-9-7/h1,6-8H,3-5H2/t6-,7+/m0/s1
