19
gdb 6080	2.8120051	0.8747634	0.73429	1.0444	78.9	-0.25317	0.02197	0.27514	1581.496	0.153305	-422.482662	-422.472453	-422.471509	-422.518699	35.763	
C	 1.4209371297	-0.1325129165	-0.0266313849	-0.229113
O	 0.02792404	 0.0659383272	-0.0146210397	-0.231999
C	-0.429781037	 0.6557626611	 1.1821961851	-0.052
C	-1.9444980597	 0.8053044419	 1.0792163534	-0.296554
C	-2.5515502429	 1.4257500897	 2.3238309427	 0.197888
C	-3.8419261899	 0.9297753292	 2.8473174172	-0.213467
O	-2.6203194434	 0.5482044356	 3.468531617	-0.262838
C	-2.1639103264	 2.7875235452	 2.6189577988	 0.317056
C	-1.8323216467	 3.9231050044	 2.8322637475	-0.444487
H	 1.746073367	-0.8010146411	 0.7863976026	 0.105103
H	 1.6784233818	-0.5909380351	-0.9846097186	 0.126066
H	 1.9705693504	 0.8172081655	 0.0723228387	 0.10387
H	-0.173649275	 0.0273245616	 2.0508534035	 0.102294
H	 0.0432362	 1.6392714351	 1.3373789135	 0.098376
H	-2.1869022945	 1.4219771416	 0.2069016253	 0.118934
H	-2.3896404475	-0.1819575757	 0.9243498728	 0.116486
H	-4.47421425	 1.6003730059	 3.4260867758	 0.124182
H	-4.3615016041	 0.1436514079	 2.3004960404	 0.118705
H	-1.5415956022	 4.9249800966	 3.032295479	 0.2015
53.2491	79.2497	110.9112	119.5945	174.2561	222.4924	235.631	300.9819	329.7245	400.3155	464.7598	551.6464	579.9564	625.114	663.8523	719.462	788.8511	847.0697	919.109	956.071	1000.9949	1066.3796	1080.7523	1134.0993	1163.2315	1169.0941	1181.1803	1222.9918	1227.9752	1264.6843	1302.1957	1318.279	1379.4468	1427.8681	1474.2309	1481.43	1485.5294	1505.3822	1519.0705	1534.0301	2237.2916	2961.4958	2973.4674	2997.2582	3012.9571	3050.5938	3083.4703	3101.7968	3113.0052	3176.9795	3500.7724
COCCC1(CO1)C#C	COCC[C@]1(CO1)C#C	
InChI=1S/C7H10O2/c1-3-7(6-9-7)4-5-8-2/h1H,4-6H2,2H3	InChI=1S/C7H10O2/c1-3-7(6-9-7)4-5-8-2/h1H,4-6H2,2H3/t7-/m0/s1
