19
gdb 3143	2.8114701	1.570821	1.3381141	2.5849	74.55	-0.25236	0.06338	0.31573999999999997	1029.7404	0.15758	-422.513245	-422.50529	-422.504346	-422.545817	30.822	
O	 0.554297939	-0.1103499622	 0.4203519128	-0.448864
C	-0.678934756	 0.5452836698	 0.3010901509	 0.06091
C	-1.9733682825	-0.2778653759	 0.3737729579	-0.066089
C	-2.0784831064	-0.9492529103	 1.7058547567	-0.293461
C	-2.4119341119	 0.517710074	 1.6212534687	-0.12049
C	-1.1339511619	 1.3283120478	 1.5790244539	 0.415619
C	-1.0813639611	 2.863743832	 1.6367583732	-0.37409
C	-0.0006235719	 2.6525719162	 2.713595734	-0.072934
O	-0.2053687	 1.2183942692	 2.6911177947	-0.326719
H	 0.8323482806	 0.0326357188	 1.3377598118	 0.290538
H	-0.6646410303	 1.192780657	-0.5844265397	 0.073252
H	-2.5740943727	-0.5744439398	-0.4767467383	 0.086945
H	-2.9337539833	-1.6040253102	 1.835027692	 0.114159
H	-1.1835375407	-1.2761454971	 2.2258141564	 0.123506
H	-3.3895040347	 0.9047073298	 1.8834958529	 0.083597
H	-0.7665232651	 3.3627357371	 0.7185677387	 0.116419
H	-1.9988735353	 3.3275354658	 2.0047103584	 0.115053
H	 1.0187912873	 2.921324735	 2.4145893094	 0.110642
H	-0.2078903231	 3.0703407829	 3.7039323454	 0.112007
88.5948	96.8721	235.8103	248.6093	273.8278	430.2765	446.8242	491.41	556.8479	613.1968	754.4491	774.4581	787.5424	837.2184	863.773	909.8776	932.5553	970.5388	983.262	990.9268	1006.5419	1016.6833	1054.2676	1080.8701	1099.8634	1130.4334	1151.189	1161.0194	1190.7307	1210.0831	1221.7045	1226.2572	1263.6347	1320.3769	1346.5594	1350.2669	1374.0927	1427.4174	1485.7921	1496.0296	1528.318	3026.5612	3032.1965	3073.8563	3079.7739	3129.8469	3130.2721	3178.5151	3193.2303	3214.7452	3706.5117
OC1C2CC2C11CCO1	O[C@H]1[C@H]2C[C@H]2[C@@]21CCO2	
InChI=1S/C7H10O2/c8-6-4-3-5(4)7(6)1-2-9-7/h4-6,8H,1-3H2	InChI=1S/C7H10O2/c8-6-4-3-5(4)7(6)1-2-9-7/h4-6,8H,1-3H2/t4-,5+,6-,7+/m0/s1
