19
gdb 855	2.335472	1.2786223	0.9061793	2.0815	75.85	-0.24423	-0.03105	0.21318	1298.8199	0.155532	-422.524868	-422.515786	-422.514842	-422.560294	31.963	
O	 1.1229438097	-0.6856005785	 0.6724836792	-0.24323
C	 0.3254277871	-0.0128026437	 0.070299312	 0.1211
C	 0.1058070408	 1.460884299	 0.3316643084	 0.048349
O	-1.2373313894	 1.8711381073	 0.0133496267	-0.297959
C	-1.4224371766	 2.4235856647	 1.3392388146	-0.093639
C	-0.0414854391	 1.9037124967	 1.8090574658	-0.051984
C	 0.9602549321	 2.8781740553	 2.3574093955	 0.000952
C	 1.2118029077	 2.9533760042	 3.844630347	-0.277466
C	 2.2528260834	 2.3532304469	 2.9353305853	-0.268204
H	-0.3275718456	-0.4327728471	-0.7275285011	 0.093703
H	 0.8586566359	 2.0322091393	-0.2354337029	 0.101882
H	-1.5078438423	 3.5171802679	 1.31095954	 0.104415
H	-2.3056270505	 2.0052748772	 1.8340377249	 0.110321
H	-0.1167856194	 1.0366055128	 2.4708344092	 0.091533
H	 1.0231845656	 3.8158173988	 1.8096985075	 0.083215
H	 1.4088164518	 3.9257399011	 4.2819607446	 0.114946
H	 0.6496338602	 2.2841583194	 4.4877487451	 0.114651
H	 3.1615162795	 2.9154307691	 2.7523984449	 0.114527
H	 2.3875311288	 1.2768144496	 2.9462837532	 0.132888
44.7061	59.1322	82.7749	159.2571	182.1091	265.668	323.812	418.6828	445.223	550.6024	732.7883	781.9684	810.4219	832.9713	891.3676	914.9948	925.9441	992.9358	1000.4571	1044.8141	1050.5096	1059.8903	1077.3508	1082.226	1103.928	1135.9094	1157.2091	1194.1277	1198.6467	1225.374	1246.1865	1250.6863	1302.8586	1342.031	1354.1538	1397.9618	1444.58	1472.7357	1507.9906	1523.386	1825.2849	2888.525	2975.9571	3019.1868	3064.5919	3079.6455	3130.762	3132.3652	3138.5072	3211.6271	3227.1298
O=CC1OCC1C1CC1	O=C[C@H]1OC[C@@H]1C1CC1	
InChI=1S/C7H10O2/c8-3-7-6(4-9-7)5-1-2-5/h3,5-7H,1-2,4H2	InChI=1S/C7H10O2/c8-3-7-6(4-9-7)5-1-2-5/h3,5-7H,1-2,4H2/t6-,7-/m1/s1
