19
gdb 1669	3.2700218	1.2736147	1.1732892	1.9907	75.03	-0.24395	0.06328	0.30723	1124.758	0.155883	-422.5012	-422.492831	-422.491887	-422.534019	32.478	
O	-1.0830901979	-1.4841742385	 1.3340947089	-0.484177
C	-0.4536465794	-0.2191761342	 1.2928088108	 0.363849
C	-1.4781947118	 0.9889362365	 1.3532867415	-0.319054
C	-0.9146621757	 1.3384227431	 2.7359636134	 0.02409
O	 0.4847810183	 1.5949503663	 2.558696986	-0.240847
C	 0.0609842936	 0.2352694907	 2.6862178788	-0.049661
C	 0.5544373254	-0.2135956262	 0.1762317569	-0.001355
C	 1.3133297248	-1.4625018122	-0.1938990278	-0.274597
C	 0.2671526134	-0.9090560502	-1.1303124255	-0.275845
H	-1.7061629518	-1.4927025047	 2.0682941702	 0.280106
H	-1.3792324604	 1.7710017845	 0.5970548757	 0.113291
H	-2.5075823448	 0.6199010859	 1.369105277	 0.102107
H	-1.3982573472	 1.8160294885	 3.5802309212	 0.105219
H	 0.517267794	-0.3679762434	 3.4646391814	 0.101678
H	 1.0984933827	 0.722995336	 0.1252894399	 0.097242
H	 2.3584226208	-1.3597852645	-0.464149804	 0.106027
H	 1.0661361161	-2.372749915	 0.339031124	 0.123385
H	 0.5905987844	-0.4270933506	-2.046341185	 0.105477
H	-0.6640605245	-1.457501832	-1.2078526235	 0.123065
82.1684	134.6755	192.3492	256.091	290.022	337.1202	370.6157	442.7857	464.0536	547.9909	664.7601	781.9787	798.9812	825.3521	837.1673	859.472	875.3921	918.9027	937.6945	971.8585	980.6779	1036.3152	1041.5666	1057.5702	1065.9742	1073.2885	1085.8046	1133.1798	1148.9541	1202.8233	1205.0758	1213.5404	1224.0207	1249.3138	1276.3768	1331.527	1377.4911	1449.1007	1461.4755	1468.0834	1503.5477	3060.8354	3121.1705	3137.5767	3141.5133	3169.124	3174.7202	3189.7644	3222.0961	3236.4084	3810.1886
OC1(CC2OC12)C1CC1	O[C@]1(C[C@@H]2O[C@H]12)C1CC1	
InChI=1S/C7H10O2/c8-7(4-1-2-4)3-5-6(7)9-5/h4-6,8H,1-3H2	InChI=1S/C7H10O2/c8-7(4-1-2-4)3-5-6(7)9-5/h4-6,8H,1-3H2/t5-,6-,7+/m0/s1
