19
gdb 3791	4.2838274	0.9929169	0.9580576	3.1507	75.3	-0.23808	0.07522	0.3133	1309.7424	0.155746	-422.488056	-422.479615	-422.478671	-422.521438	31.536	
C	-1.6962277793	-3.9973697722	-1.3822330795	-0.421229
C	-0.606073342	-2.9702924583	-1.5422200746	 0.09341
O	 0.7452836254	-3.4588545114	-1.5285295381	-0.26699
C	 0.3170776415	-2.6229153021	-0.4552191659	 0.032338
C	 0.9921632576	-1.2800076633	-0.3348619336	 0.074027
O	 0.8463836736	-0.4612394465	-1.5302754256	-0.288722
C	 0.0563806817	 0.4825772441	-0.7999850735	 0.107322
C	 0.8520071557	 1.1114442496	 0.2984836764	-0.30104
C	 0.2286038016	-0.2544067369	 0.50581613	-0.133357
H	-1.4482281055	-4.7124273307	-0.5929459012	 0.124754
H	-2.6467478484	-3.5136749131	-1.1318349396	 0.120045
H	-1.8391547175	-4.553402035	-2.3146379961	 0.130752
H	-0.7711431891	-2.204982166	-2.2985183635	 0.106426
H	 0.2093399881	-3.1388557602	 0.5034951039	 0.086
H	 2.0521423356	-1.4235471888	-0.0850681492	 0.093725
H	-0.8004199745	 0.9218045435	-1.2972624175	 0.104557
H	 1.927663039	 1.2184589176	 0.1879633509	 0.119968
H	 0.3580906543	 1.9183388715	 0.8313552362	 0.117239
H	-0.4765707577	-0.4808871819	 1.2941602606	 0.100773
75.8036	112.164	153.8851	195.6205	259.9326	317.0146	351.893	460.6101	475.4408	631.4059	758.9142	787.1354	794.2717	836.0079	869.9564	928.5078	939.9095	960.3805	985.3049	991.3335	1041.5775	1052.0769	1053.5911	1063.02	1077.0882	1087.5945	1131.489	1172.5145	1183.0336	1206.5223	1228.6622	1277.6967	1299.2788	1335.5571	1352.4276	1382.9634	1411.8235	1472.3244	1475.2079	1490.8438	1512.0352	3018.8935	3035.3125	3067.4839	3100.1469	3113.9123	3115.7372	3140.3192	3180.95	3200.5632	3211.2688
CC1OC1C1OC2CC12	C[C@@H]1O[C@H]1[C@H]1O[C@@H]2C[C@H]12	
InChI=1S/C7H10O2/c1-3-6(8-3)7-4-2-5(4)9-7/h3-7H,2H2,1H3	InChI=1S/C7H10O2/c1-3-6(8-3)7-4-2-5(4)9-7/h3-7H,2H2,1H3/t3-,4-,5+,6+,7-/m0/s1
