19
gdb 4865	3.616418	0.970789	0.9309334	2.2704	78.	-0.25514	0.01622	0.27136	1329.5052	0.154377	-422.510647	-422.501014	-422.50007	-422.545329	35.633	
C	 3.2379540987	-2.2816892746	 0.041399801	-0.440499
C	 2.1387330927	-2.0824911955	 1.0682012926	 0.409827
C	 0.9853654363	-1.2257399803	 0.5402989916	-0.094099
O	 0.3060433052	-1.8959715985	-0.5008262766	-0.42072
C	 2.568210248	-1.7714697697	 2.5194379757	-0.366955
C	 1.8316958396	-3.086371147	 2.886437901	-0.032216
O	 1.570279907	-3.3709350902	 1.4858340474	-0.34228
C	 2.5988352917	-4.1246784738	 3.5517139694	 0.323617
C	 3.2387589099	-4.9727463614	 4.1138721085	-0.445608
H	 3.9691085117	-3.0113701129	 0.3980335556	 0.123887
H	 2.8087254749	-2.6375597376	-0.8988367086	 0.139677
H	 3.7517404327	-1.3334308734	-0.1520499036	 0.116095
H	 0.3035601229	-0.9815384757	 1.3715206978	 0.079696
H	 1.3616371991	-0.2821704528	 0.1292177432	 0.107257
H	 0.0968831249	-2.7712443847	-0.1486481299	 0.292458
H	 3.6441005745	-1.808438751	 2.6897893984	 0.123662
H	 2.1543750872	-0.8633994584	 2.9615147636	 0.114487
H	 0.8907655651	-2.9215462753	 3.4269953211	 0.107532
H	 3.800857678	-5.7266344773	 4.6077338118	 0.204183
43.102	102.8131	148.4091	218.0816	223.8653	252.1699	320.5172	330.828	401.8032	476.3531	495.8342	536.0234	544.0119	620.628	672.4931	701.3084	769.6244	891.3564	898.5783	905.7965	963.1494	980.0171	981.9778	1054.8394	1081.122	1109.3154	1139.0935	1204.7211	1229.8171	1267.7774	1277.0548	1300.3881	1367.3909	1382.0719	1408.7759	1431.5814	1479.4188	1488.9262	1496.2852	1501.8535	2236.2346	2966.5817	3016.9449	3039.065	3067.2996	3082.6103	3112.4696	3131.7786	3145.006	3502.4998	3768.1224
CC1(CO)CC(O1)C#C	C[C@]1(CO)C[C@@H](O1)C#C	
InChI=1S/C7H10O2/c1-3-6-4-7(2,5-8)9-6/h1,6,8H,4-5H2,2H3	InChI=1S/C7H10O2/c1-3-6-4-7(2,5-8)9-6/h1,6,8H,4-5H2,2H3/t6-,7+/m0/s1
