19
gdb 5261	3.2264745	1.546577	1.3773487	1.7709	75.12	-0.23836	0.00991	0.24827	1009.7749	0.157985	-422.552306	-422.544594	-422.54365	-422.584221	30.494	
C	 1.4694649353	-0.0552304206	-0.0969251123	-0.264121
O	 0.0543192661	-0.0109485915	 0.0301064428	-0.310963
C	-0.4212436188	 0.5840214142	 1.166933522	 0.50688
C	-0.0163454961	 0.1111289265	 2.5837192827	-0.291517
C	-0.9072964318	 1.1956065826	 3.2369540932	-0.110352
C	-0.2802845467	 2.4457229701	 2.5377107694	-0.070145
O	 0.0003256971	 1.994865711	 1.214027555	-0.313551
C	-2.2263691113	 0.9465714827	 2.5200787638	-0.093412
C	-1.9350477372	 0.5841215407	 1.2675456062	-0.108925
H	 1.9206162206	-0.7114936815	 0.6593118245	 0.110308
H	 1.6762214134	-0.4647807198	-1.0873276978	 0.127767
H	 1.905045417	 0.9448571326	-0.0137897135	 0.136418
H	-0.345811718	-0.9051984824	 2.8016369405	 0.108079
H	 1.050322201	 0.2294479703	 2.791828834	 0.097797
H	-0.9349878426	 1.2506594776	 4.3244172069	 0.071296
H	-0.9673634594	 3.2993442554	 2.5100505779	 0.098433
H	 0.6500172425	 2.7535192262	 3.033110564	 0.095582
H	-3.2036204619	 1.1516375435	 2.9383419459	 0.101278
H	-2.5927875092	 0.4250715923	 0.4240646149	 0.109149
102.7047	165.8568	208.3004	305.6478	357.4543	399.2579	449.5955	520.7533	523.0116	634.1742	676.0324	732.306	787.8659	801.9257	859.5446	892.8501	924.9776	940.1999	951.2795	1002.6804	1030.1439	1043.1683	1063.5999	1099.9255	1121.9999	1166.4155	1180.3526	1184.9467	1211.1147	1235.8951	1261.226	1297.92	1300.4591	1358.9112	1373.2121	1476.7355	1485.2653	1492.7044	1511.318	1521.6348	1642.8296	3009.3373	3012.5471	3055.8661	3068.2663	3091.013	3124.4384	3135.2965	3139.8975	3205.9017	3236.0689
COC12CC(CO1)C=C2	CO[C@@]12C[C@@H](CO1)C=C2	
InChI=1S/C7H10O2/c1-8-7-3-2-6(4-7)5-9-7/h2-3,6H,4-5H2,1H3	InChI=1S/C7H10O2/c1-8-7-3-2-6(4-7)5-9-7/h2-3,6H,4-5H2,1H3/t6-,7+/m0/s1
