19
gdb 1705	2.1556281	1.5953686	1.3162486	2.5297	75.44	-0.24	-0.03018	0.20982	1079.4249	0.154147	-422.533069	-422.52378	-422.522835	-422.567381	33.75	
C	-0.0808505168	-0.1148569965	-0.0129351824	-0.445138
C	 1.4286150822	 0.0335857414	 0.0240576101	 0.259079
O	 1.864809683	 1.3622370252	 0.4063287958	-0.333129
C	 2.5925448856	 1.5589019555	-0.8280236547	-0.143715
C	 2.1801544834	 0.1781113239	-1.3191031112	 0.249299
C	 1.7341087046	-0.2479985285	-2.6824108746	-0.320882
C	 2.9811151945	-0.8425438876	-2.0694600265	-0.330669
C	 2.0895366125	-1.0103480487	 0.913792782	 0.125131
O	 1.7569582273	-2.1672354058	 0.9582063808	-0.259541
H	-0.5040969997	 0.1330861407	 0.9653319602	 0.132156
H	-0.5163009931	 0.5511668248	-0.7613518672	 0.12131
H	-0.344810303	-1.1503085337	-0.2447982819	 0.140302
H	 2.20303687	 2.410821742	-1.3997763676	 0.107546
H	 3.6658236228	 1.704833795	-0.6507242704	 0.107072
H	 0.8538645831	-0.8773905665	-2.7605257702	 0.126573
H	 1.8474767013	 0.4648517522	-3.4934277418	 0.118798
H	 2.9372232836	-1.8718946453	-1.7285610252	 0.137367
H	 3.9458242122	-0.5392402663	-2.4637198313	 0.118925
H	 2.9458306566	-0.6109456719	 1.502249536	 0.089515
59.1289	78.234	176.2686	204.2998	219.327	253.5911	273.2574	354.0572	388.8632	456.583	503.0983	581.9115	723.0327	777.1989	868.1631	879.1015	889.2076	918.384	952.0565	984.9898	999.2343	1022.7325	1061.5491	1082.898	1096.8987	1137.9013	1153.3006	1177.9127	1190.1936	1230.0318	1260.1004	1325.9302	1381.411	1398.723	1401.2297	1461.868	1481.137	1486.6761	1503.4786	1526.0439	1822.4105	2888.0094	3007.5329	3045.7728	3049.8283	3119.497	3125.4423	3128.2522	3133.6361	3205.2031	3219.4156
CC1(OCC11CC1)C=O	C[C@@]1(OCC21CC2)C=O	
InChI=1S/C7H10O2/c1-6(4-8)7(2-3-7)5-9-6/h4H,2-3,5H2,1H3	InChI=1S/C7H10O2/c1-6(4-8)7(2-3-7)5-9-6/h4H,2-3,5H2,1H3/t6-/m1/s1
