19
gdb 2478	2.6325189	1.7741039	1.3821549	1.9258	73.14	-0.24458	0.07518	0.31976	987.2912	0.158341	-422.544066	-422.536623	-422.535679	-422.57552	30.24	
O	 0.5365948362	 0.2120356167	 0.5861121733	-0.496448
C	-0.6288209207	 0.7303275583	 1.1599936428	 0.428788
C	-0.6085075846	 2.2580763713	 1.1531221416	-0.264318
C	-1.5118936663	 2.6888597948	 2.3219102527	-0.217991
C	-1.2472061369	 1.6279743286	 3.4113903638	-0.225999
C	-1.0403598834	 0.3096415786	 2.6541273585	-0.125616
C	-2.299963451	-0.3144734763	 2.0516066872	 0.040468
O	-1.8695544202	-1.2881416688	 1.0847584048	-0.268716
C	-1.9442168581	 0.0898653459	 0.6829199629	-0.058102
H	 0.4124248633	-0.7447504993	 0.5437359893	 0.286002
H	 0.4270099685	 2.5690895768	 1.3308611041	 0.114802
H	-0.9147830338	 2.6758983891	 0.1891302645	 0.099754
H	-1.2989086018	 3.7051722893	 2.6636318042	 0.101101
H	-2.5645471944	 2.6686248371	 2.0176646221	 0.102952
H	-0.3268349052	 1.8745528615	 3.9525328107	 0.107183
H	-2.0493494524	 1.5734989213	 4.1551174081	 0.096174
H	-0.3861607277	-0.4011887015	 3.1635641372	 0.076447
H	-3.2778774795	-0.4625035488	 2.4960667371	 0.103569
H	-2.557788562	 0.3209411354	-0.1818081249	 0.099951
142.1074	195.242	264.7014	298.8031	363.1401	406.6871	485.7212	515.2962	596.2153	610.5192	662.188	807.2361	832.9475	842.9392	859.9041	875.9448	893.5431	936.6663	949.6944	984.2663	999.8761	1057.009	1060.6089	1083.4152	1099.0442	1139.6387	1155.9642	1204.9102	1213.6102	1240.1414	1263.953	1274.8745	1306.3116	1330.221	1346.8898	1360.9883	1375.6781	1408.9089	1483.1402	1490.2345	1506.2907	3037.9402	3041.7403	3045.5672	3076.6349	3086.9795	3089.6761	3100.3851	3167.4903	3186.2436	3775.2201
OC12CCCC1C1OC21	O[C@]12CCC[C@H]1[C@@H]1O[C@H]21	
InChI=1S/C7H10O2/c8-7-3-1-2-4(7)5-6(7)9-5/h4-6,8H,1-3H2	InChI=1S/C7H10O2/c8-7-3-1-2-4(7)5-6(7)9-5/h4-6,8H,1-3H2/t4-,5-,6-,7+/m0/s1
