19
gdb 3996	4.0802193	1.197956	1.1107608	2.9452	74.76	-0.23868	0.07229	0.31096999999999997	1148.4102	0.155792	-422.501752	-422.493444	-422.4925	-422.534232	32.35	
C	-2.8856139266	 1.143608989	 4.9429122037	-0.504813
C	-2.2738577873	 0.995625498	 3.5887709068	 0.411393
O	-2.4562082675	 2.0631915638	 2.6459084166	-0.277974
C	-2.8297630484	 0.731818911	 2.2459665176	-0.059133
C	-1.5415437843	 0.0067743121	 1.7936525771	-0.117874
C	-0.4278023744	 0.9050158396	 1.1573800435	 0.169851
O	 0.4010402157	 0.2953266638	 0.1946541036	-0.441301
C	 0.1863894789	 1.1305519914	 2.5783340892	-0.285415
C	-0.94502965	 0.2746611872	 3.2145087152	-0.10731
H	-2.9339501534	 0.1774975625	 5.455594492	 0.124301
H	-2.2911231961	 1.8239302659	 5.5638953635	 0.131441
H	-3.8968130832	 1.5515855576	 4.8630205088	 0.134845
H	-3.8496607582	 0.6005999711	 1.8994530211	 0.100685
H	-1.6645142944	-0.999768192	 1.3919555382	 0.069361
H	-0.8122347921	 1.8123054847	 0.6902163615	 0.104378
H	 0.7825509311	-0.4992387082	 0.5831445476	 0.274539
H	 1.1725510651	 0.6633301806	 2.6667117714	 0.090516
H	 0.2548968931	 2.1686868141	 2.9090370819	 0.112212
H	-0.6714502882	-0.5443314919	 3.8807076909	 0.070296
100.7471	182.2932	196.9597	246.1777	293.5699	322.5307	358.3294	395.0557	495.3381	552.0036	645.0697	704.4863	763.2096	811.5672	834.7445	852.7121	882.2418	920.5216	951.3285	976.9514	994.9931	1008.649	1045.0291	1085.0565	1113.056	1115.8179	1136.6428	1177.0426	1199.4474	1225.8147	1241.6237	1257.7349	1266.4039	1295.0874	1319.7192	1403.1935	1419.4538	1454.2065	1465.4915	1482.6465	1493.626	3031.9423	3050.9683	3094.1716	3100.8636	3107.5337	3111.793	3120.3518	3122.1395	3170.1083	3801.5617
CC12OC1C1C(O)CC21	C[C@]12O[C@H]1[C@H]1[C@H](O)C[C@@H]21	
InChI=1S/C7H10O2/c1-7-3-2-4(8)5(3)6(7)9-7/h3-6,8H,2H2,1H3	InChI=1S/C7H10O2/c1-7-3-2-4(8)5(3)6(7)9-7/h3-6,8H,2H2,1H3/t3-,4-,5-,6+,7-/m1/s1
