19
gdb 5733	3.4178334	1.0539372	0.9069089	3.097	78.02	-0.24152	0.00749	0.24901	1307.9152	0.156684	-422.546458	-422.537755	-422.536811	-422.580547	32.415	
O	 1.4471653958	 0.7984216449	-0.0883446679	-0.418972
C	 0.0979231434	 0.4264859705	 0.1499808814	-0.080531
C	-0.7906837564	 1.2766271714	-0.7615060959	-0.036881
C	-0.5727606551	 0.9692429883	-2.2690609172	-0.325633
C	-1.862660735	 0.2875032628	-2.7361908112	 0.433289
C	-1.9271469132	-0.7850735587	-3.7424547999	-0.250987
O	-2.3229877508	 0.5459824742	-4.0735222813	-0.2824
C	-2.8315499974	 0.4235375819	-1.6175577703	-0.147425
C	-2.2592244816	 0.9763450099	-0.5486605652	-0.099698
H	 2.0153011979	 0.2310548099	 0.4406312024	 0.287822
H	-0.0707074801	-0.6402637102	-0.0697609281	 0.08679
H	-0.182106222	 0.5952290923	 1.2023130481	 0.084834
H	-0.561951151	 2.3248689148	-0.5320210536	 0.089384
H	-0.4423300422	 1.8903225615	-2.8435077154	 0.123029
H	 0.3186539107	 0.3590846033	-2.4300639874	 0.115526
H	-1.0048223237	-1.1317716937	-4.2091405135	 0.111013
H	-2.7313062013	-1.5208777499	-3.7104311806	 0.107414
H	-3.8640075587	 0.1068773464	-1.7072276377	 0.104173
H	-2.7568191695	 1.1733436205	 0.3951155732	 0.099254
35.6779	113.5155	159.9312	247.3199	271.7249	321.3104	354.9338	378.9979	450.2794	514.807	566.4894	742.374	779.1837	813.9263	825.7164	857.6775	913.4771	926.8989	972.5605	975.6834	1001.3629	1053.208	1071.8516	1105.9312	1124.3432	1130.6299	1162.8166	1193.2195	1222.4477	1248.8117	1258.2683	1276.1652	1316.255	1340.1832	1360.6512	1426.7329	1451.1692	1486.8392	1519.8621	1527.264	1679.0092	2962.2339	2991.7596	3030.7964	3067.3508	3070.2273	3113.8578	3152.2011	3182.7742	3212.3913	3832.0577
OCC1CC2(CO2)C=C1	OC[C@H]1C[C@@]2(CO2)C=C1	
InChI=1S/C7H10O2/c8-4-6-1-2-7(3-6)5-9-7/h1-2,6,8H,3-5H2	InChI=1S/C7H10O2/c8-4-6-1-2-7(3-6)5-9-7/h1-2,6,8H,3-5H2/t6-,7-/m1/s1
