19
gdb 6026	3.0039691	1.077476	0.8914162	3.9514	77.43	-0.23869	-0.01416	0.22453	1359.3605	0.155453	-422.533102	-422.52403	-422.523086	-422.567843	32.613	
C	 2.4324450908	-0.8151728761	 1.1592338721	-0.385502
C	 1.7455861855	-0.2027829448	-0.0486175638	-0.039998
O	 2.2450975024	 1.1148898847	-0.2280201236	-0.250115
C	 1.6477905073	 1.8091433569	-1.2795744472	-0.000703
C	 2.0966574765	 1.5189467553	-2.7269134861	-0.080479
C	 3.5525215435	 1.7862468193	-2.8469905707	-0.280978
C	 2.6029651069	 2.9805215711	-2.8851099697	-0.176926
C	 2.142929744	 3.2761305959	-1.4930425942	 0.390431
O	 2.0197336128	 4.274009806	-0.8435837944	-0.312629
H	 2.0683188144	-1.8328712008	 1.3285234571	 0.116298
H	 3.5146045741	-0.854609854	 1.0061589222	 0.127972
H	 2.2345649062	-0.2197404489	 2.0546915887	 0.132976
H	 1.9337341554	-0.8071119463	-0.9501501163	 0.092917
H	 0.6534569153	-0.1679715627	 0.0984081837	 0.090954
H	 0.5490762981	 1.8130028923	-1.1877541135	 0.090606
H	 1.5310399473	 0.9621368693	-3.4620992439	 0.103974
H	 4.1981128092	 1.6358748186	-1.9881648125	 0.14054
H	 4.0118094146	 1.5619441426	-3.8037070196	 0.126809
H	 2.5627485657	 3.6428872416	-3.7402550883	 0.113853
57.0958	75.3631	126.1455	137.323	234.4825	277.1711	282.3943	366.0522	506.9916	568.7194	622.8447	702.7113	766.6435	820.1193	839.0086	861.1562	903.8899	911.4041	966.0227	982.4508	1015.7192	1058.1983	1068.9074	1096.9135	1118.2158	1141.4765	1162.9473	1179.0634	1191.065	1217.9619	1289.5642	1295.4281	1331.08	1351.9076	1402.2624	1435.8308	1482.8329	1491.1414	1499.2921	1526.1438	1889.6364	2965.2413	2977.7081	2996.1739	3046.2772	3120.3469	3124.7095	3133.7431	3200.1202	3206.9707	3221.9676
CCOC1C2CC2C1=O	CCO[C@@H]1[C@@H]2C[C@@H]2C1=O	
InChI=1S/C7H10O2/c1-2-9-7-5-3-4(5)6(7)8/h4-5,7H,2-3H2,1H3	InChI=1S/C7H10O2/c1-2-9-7-5-3-4(5)6(7)8/h4-5,7H,2-3H2,1H3/t4-,5+,7+/m0/s1
