19
gdb 4074	4.2936456	1.2416642	1.1105961	2.1854	73.9	-0.24107	0.07931	0.32038	1128.2592	0.157829	-422.529737	-422.52212	-422.521176	-422.561679	29.826	
C	 0.2962505426	 0.616448621	 0.1007460739	-0.401401
C	 1.1522818778	-0.6236551279	-0.0854909324	 0.137798
C	 2.2976403035	-0.491812981	-1.1079878384	-0.250383
C	 3.3631271931	-1.4709453714	-0.6079788222	-0.08806
C	 3.0713352154	-2.9605900064	-0.8449144719	 0.023152
O	 3.9151490259	-3.6955923857	 0.0490125383	-0.24517
C	 2.6837056229	-3.175888263	 0.5598102789	-0.015563
C	 2.9524242272	-1.695090537	 0.9045373505	 0.082282
O	 1.8051464526	-0.9197718511	 1.1554697419	-0.272684
H	-0.4476303036	 0.4570198432	 0.8861846649	 0.127192
H	 0.9191845914	 1.4703788043	 0.3845383113	 0.122731
H	-0.2308229143	 0.8601719861	-0.8269800909	 0.115629
H	 0.5079556193	-1.4716577621	-0.3671120719	 0.07162
H	 1.9649009936	-0.6988826729	-2.1294927212	 0.103021
H	 2.6950350539	 0.5285111621	-1.0861141234	 0.106836
H	 4.3867957722	-1.1651623814	-0.8295638784	 0.084353
H	 2.7521027302	-3.4622734784	-1.7521181129	 0.101871
H	 1.9851064299	-3.8700940399	 1.0131173959	 0.106222
H	 3.6807849463	-1.5168075188	 1.6979774877	 0.090556
112.3308	165.8253	230.8721	264.2666	294.9374	402.4668	421.7786	513.3984	630.9478	662.8522	810.274	832.5435	843.1233	864.6653	875.795	881.1981	921.9942	947.6266	983.2102	998.0118	1044.0587	1065.4051	1077.1374	1119.1226	1130.707	1152.6717	1178.8488	1216.1888	1222.2507	1241.3796	1262.2859	1284.958	1330.4468	1350.3063	1373.2361	1377.151	1392.8205	1413.0169	1482.8345	1487.0161	1499.4329	2970.5621	3040.3816	3047.1947	3092.2314	3095.718	3104.5787	3114.9211	3119.3706	3171.7147	3189.2314
CC1CC2C3OC3C2O1	C[C@H]1C[C@@H]2[C@H]3O[C@H]3[C@@H]2O1	
InChI=1S/C7H10O2/c1-3-2-4-5(8-3)7-6(4)9-7/h3-7H,2H2,1H3	InChI=1S/C7H10O2/c1-3-2-4-5(8-3)7-6(4)9-7/h3-7H,2H2,1H3/t3-,4-,5+,6+,7-/m0/s1
