19
gdb 3573	2.773248	1.3441665	1.0304429	4.5386	78.26	-0.24945	0.00763	0.25708000000000003	1202.7294	0.156149	-422.609267	-422.600129	-422.599185	-422.643672	33.325	
C	-1.2158986329	-2.1051014027	-0.841582918	-0.393699
C	-0.9376717571	-1.1376810222	 0.3144162505	 0.051094
O	-2.1918397469	-0.5632686665	 0.7384771068	-0.238541
C	-2.6151050842	 0.6665811231	 0.3725697459	 0.409617
O	-3.7169502299	 1.0265202335	 0.6871403529	-0.329361
C	-1.6557155949	 1.5476979435	-0.4124404372	-0.409571
C	-0.2215816361	 1.118108661	-0.3461309906	-0.168198
C	 0.1283383562	-0.1206743666	-0.0111139229	 0.292243
C	 1.5531615103	-0.5942336	 0.0636143039	-0.484072
H	-2.001798532	-2.8088848748	-0.5561777349	 0.13723
H	-1.5400622784	-1.5573871949	-1.731585594	 0.126231
H	-0.3165953866	-2.6733106282	-1.0962392096	 0.123646
H	-0.6169541752	-1.7210966512	 1.186398762	 0.102389
H	-2.0159301372	 1.5697789201	-1.4515888388	 0.147092
H	-1.796079314	 2.5671787272	-0.0404129702	 0.146876
H	 0.5366487347	 1.8584730965	-0.5881000429	 0.094407
H	 1.8018547169	-0.9453346032	 1.07297348	 0.131981
H	 1.7394301392	-1.4350828429	-0.6155423438	 0.130854
H	 2.2476554782	 0.2077244382	-0.198403559	 0.129783
41.7173	86.5469	165.9483	223.5039	243.8899	262.876	310.9831	390.1168	434.3424	466.4656	553.4491	584.2	596.3787	725.8419	750.1932	821.083	859.9096	945.8964	981.6374	988.5434	1046.6901	1069.7263	1087.7566	1113.5094	1120.9792	1181.7937	1204.36	1223.0677	1333.8072	1344.416	1375.7258	1401.7552	1411.5838	1417.3563	1454.607	1478.5209	1488.8906	1492.1965	1493.8649	1759.2299	1842.401	3009.7786	3020.5126	3031.0518	3044.3347	3069.353	3081.4311	3117.3234	3120.4926	3128.1243	3158.8275
CC1OC(=O)CC=C1C	C[C@@H]1OC(=O)CC=C1C	
InChI=1S/C7H10O2/c1-5-3-4-7(8)9-6(5)2/h3,6H,4H2,1-2H3	InChI=1S/C7H10O2/c1-5-3-4-7(8)9-6(5)2/h3,6H,4H2,1-2H3/t6-/m0/s1
