19
gdb 5684	2.5403649	1.0969126	0.8964876	3.2876	78.82	-0.24773	-0.03501	0.21272000000000002	1360.4752	0.154149	-422.569495	-422.559658	-422.558714	-422.60453	34.711	
C	 3.1202568001	-2.9495923988	-0.2877492862	-0.377956
C	 3.1258643154	-2.0131059414	-1.5032702484	-0.217825
C	 2.3560498244	-0.7398575784	-1.2210486176	-0.02466
C	 0.9003045766	-0.6200478881	-1.4247335855	-0.315037
C	 1.8176095983	 0.1682837664	-2.3715228528	 0.099552
C	 1.9149237302	-0.2857567039	-3.7876578847	 0.08502
O	 1.6350233821	-1.3990883459	-4.1709569036	-0.276644
C	 1.9630421905	 1.6253894321	-2.1292414292	 0.105835
O	 2.2062996768	 2.4490229377	-2.9767546379	-0.265716
H	 3.6876715653	-3.8602318221	-0.5003217011	 0.121972
H	 3.5710595113	-2.4726151393	 0.589518758	 0.115474
H	 2.1001820333	-3.2433113769	-0.0200926036	 0.122955
H	 4.1595521522	-1.758752979	-1.7670408961	 0.106427
H	 2.6923832526	-2.5172521768	-2.3698652666	 0.14297
H	 2.7619728715	-0.1484977955	-0.4009220387	 0.102659
H	 0.3887740882	-1.4409524839	-1.9167694473	 0.154389
H	 0.3021071022	-0.0413216666	-0.7285522232	 0.12974
H	 2.2644809044	 0.4978102679	-4.4855902198	 0.118108
H	 1.8328829346	 1.9201345125	-1.0607120458	 0.072737
69.4615	99.7613	142.3743	158.2776	199.1389	216.0734	251.8784	291.0828	297.2113	411.2323	439.2349	501.2239	674.8063	743.8419	758.9172	798.7778	857.2356	932.8018	951.567	989.6959	1030.2292	1059.7157	1070.189	1081.5262	1108.0094	1129.5854	1205.2946	1258.8045	1291.3362	1322.0388	1350.2482	1409.4293	1415.9536	1432.3541	1441.6747	1479.5584	1495.785	1498.2254	1510.1687	1796.3292	1814.1653	2846.9094	2966.4341	3033.9891	3038.3837	3092.5227	3109.2479	3112.1325	3125.1735	3130.7455	3225.1462
CCC1CC1(C=O)C=O	CC[C@@H]1CC1(C=O)C=O	
InChI=1S/C7H10O2/c1-2-6-3-7(6,4-8)5-9/h4-6H,2-3H2,1H3	InChI=1S/C7H10O2/c1-2-6-3-7(6,4-8)5-9/h4-6H,2-3H2,1H3/t6-/m1/s1
