19
gdb 5632	2.1877948	1.7877858	1.1418201	2.0169	77.03	-0.23811	0.00993	0.24803999999999998	1111.744	0.156272	-422.528026	-422.519397	-422.518453	-422.561654	31.978	
C	 1.4213287989	-0.1508929101	-0.1942580293	-0.239858
O	 0.0615522973	-0.2925776092	 0.1746658124	-0.246684
C	-0.3588315336	 0.5857956224	 1.2071252016	-0.02424
C	-1.8641762667	 0.6613699748	 1.1825632175	-0.08539
C	-2.4197295932	 0.0281567153	 2.2150741661	-0.063674
C	-1.3991081398	-0.5652133096	 3.1527044297	-0.352458
C	-0.0952107612	 0.038946554	 2.6289357852	 0.451804
C	 0.9124255231	 0.6300564878	 3.5190041439	-0.250824
O	 1.1323206432	-0.6355094062	 2.8850358117	-0.272
H	 2.0972807785	-0.414895217	 0.6258869406	 0.131552
H	 1.5917793304	-0.828500218	-1.0348229631	 0.122904
H	 1.641178425	 0.8777656778	-0.5228554297	 0.094998
H	 0.1218823599	 1.5667907208	 1.0626123138	 0.063581
H	-2.3951212229	 1.1350571037	 0.3658631726	 0.102061
H	-3.4865067888	-0.0749924401	 2.3806617822	 0.101284
H	-1.5821603919	-0.3142900689	 4.2034699338	 0.109916
H	-1.3773454976	-1.6607784924	 3.0870850759	 0.131735
H	 1.5412275789	 1.4459723004	 3.1632285623	 0.111797
H	 0.7698142605	 0.5908706445	 4.5983342726	 0.113495
49.8011	123.7738	181.7101	207.9296	243.9342	317.4034	360.6929	387.0295	453.4118	545.1302	564.6218	723.7278	769.8673	824.3856	869.4493	911.011	930.9255	970.0225	981.7787	996.4754	1014.7549	1040.3486	1122.275	1130.9209	1141.7334	1162.3194	1176.6215	1182.2687	1214.2974	1226.3855	1288.257	1293.4159	1357.9448	1387.2194	1423.9916	1473.584	1479.2141	1483.3139	1518.6453	1529.4515	1686.2738	2966.6042	2977.7502	3027.4365	3063.0578	3069.6537	3075.6351	3117.2774	3162.8313	3188.6507	3216.4221
COC1C=CCC11CO1	CO[C@H]1C=CC[C@@]21CO2	
InChI=1S/C7H10O2/c1-8-6-3-2-4-7(6)5-9-7/h2-3,6H,4-5H2,1H3	InChI=1S/C7H10O2/c1-8-6-3-2-4-7(6)5-9-7/h2-3,6H,4-5H2,1H3/t6-,7-/m0/s1
