19
gdb 527	2.4496578	1.8733256	1.7923447	0.9152	73.16	-0.24531	0.05889	0.3042	915.5026	0.158546	-422.520722	-422.513481	-422.512537	-422.552041	29.147	
C	-0.0920970048	-0.8740336579	-3.0570529344	-0.301803
C	 0.9798720152	 0.2165124956	-3.4304473131	-0.29908
C	 0.3498263799	 1.150072502	-2.3678826573	 0.334425
C	-0.9282018418	 1.9370903784	-2.747174791	-0.155557
O	-1.7715537759	 0.8523170251	-2.2542491672	-0.343637
C	-0.6072129055	 0.0598245433	-1.9214818811	 0.391224
C	-0.3350577702	-0.140940294	-0.4411573667	-0.320767
C	 0.4196619127	 1.1754280301	-0.0924888766	-0.096246
O	 1.123420311	 1.5805778345	-1.2832614144	-0.308294
H	-0.8495006027	-1.0502113863	-3.82246892	 0.117254
H	 0.3159222488	-1.8333873689	-2.7318018192	 0.105377
H	 1.9975825022	-0.0651364652	-3.1545448553	 0.116234
H	 0.9747382407	 0.5734879408	-4.4625799299	 0.102952
H	-1.081535609	 2.8636763265	-2.1823790782	 0.108344
H	-1.0865404476	 2.1275137542	-3.8152447036	 0.100864
H	-1.2448030876	-0.2651625813	 0.1507487557	 0.119075
H	 0.3099638131	-1.0095604242	-0.2790269453	 0.108847
H	-0.2954329609	 1.9542591486	 0.2068462343	 0.107272
H	 1.1589179424	 1.0624769287	 0.7041591232	 0.113515
125.1332	186.9519	291.3388	311.1742	350.5	382.9883	530.5867	609.7988	645.5365	689.7687	726.7873	741.4424	833.4187	872.3624	896.9327	913.6721	918.7836	967.205	983.7061	985.3875	1015.6209	1027.6072	1140.4048	1142.9266	1153.6726	1187.9918	1208.0797	1223.6306	1235.7526	1244.9591	1249.6366	1273.4113	1286.0556	1318.1076	1340.5338	1383.1754	1461.8192	1467.9913	1478.0588	1508.3926	1520.7901	3009.2963	3020.5083	3061.7332	3069.077	3073.5797	3074.4888	3100.7953	3119.9367	3123.3491	3140.1285
C1CC23COC12CCO3	C1C[C@@]23CO[C@@]12CCO3	
InChI=1S/C7H10O2/c1-2-7-5-9-6(1,7)3-4-8-7/h1-5H2	InChI=1S/C7H10O2/c1-2-7-5-9-6(1,7)3-4-8-7/h1-5H2/t6-,7-/m1/s1
