19
gdb 2306	2.1332874	1.3322277	1.2102375	3.7658	77.97	-0.22892	-0.01852	0.2104	1178.1597	0.154342	-422.531527	-422.522131	-422.521187	-422.565505	34.156	
C	-1.0749421246	-0.5375944059	-2.8048240283	-0.496021
C	-0.0232525712	-1.0656933358	-1.874920863	 0.179281
C	-0.2387000131	-2.0851458005	-0.760560882	-0.14243
O	 1.0895357296	-2.6387285238	-0.965325393	-0.320701
C	 1.2875542455	-1.7712239579	-2.0914131707	 0.403132
C	 2.0265965749	-2.3172606186	-3.2683397107	-0.488323
C	 1.308339295	-0.3209393567	-1.627922709	-0.222038
C	 1.8198041796	 0.0999850231	-0.3037792779	 0.146139
O	 2.3157762463	 1.1832203876	-0.0932252103	-0.277184
H	-1.7282213748	-1.3442070372	-3.1562090676	 0.125885
H	-1.7028631757	 0.2128844309	-2.3113011846	 0.134342
H	-0.6253913366	-0.0634775052	-3.6825552695	 0.129344
H	-0.3989382076	-1.7314898649	 0.2632459349	 0.113585
H	-1.0041757474	-2.8275791811	-1.0161961987	 0.113875
H	 1.557784428	-3.2393692084	-3.6255956094	 0.133359
H	 2.0418594663	-1.5897261962	-4.08445457	 0.130587
H	 3.0633358091	-2.5437552751	-2.9970692506	 0.142722
H	 1.5219590807	 0.3957888468	-2.4164949944	 0.104719
H	 1.7409983261	-0.6584829512	 0.5009476848	 0.089727
86.1894	153.5834	182.4757	186.471	197.388	226.4742	258.2217	299.2208	360.2617	465.0339	484.1438	556.8724	589.1241	692.9399	747.8808	861.4502	910.9402	965.8791	969.0649	983.115	1033.2789	1056.662	1099.1517	1118.5722	1123.1489	1153.736	1179.2543	1216.594	1252.6447	1290.0056	1345.2841	1409.6236	1417.8578	1430.9387	1471.8804	1483.2013	1490.1852	1495.9218	1508.3615	1523.9664	1801.7025	2927.837	3025.4591	3029.1068	3037.416	3078.7169	3088.1538	3103.3584	3104.5223	3120.8193	3158.1057
CC12COC1(C)C2C=O	C[C@@]12CO[C@]1(C)[C@@H]2C=O	
InChI=1S/C7H10O2/c1-6-4-9-7(6,2)5(6)3-8/h3,5H,4H2,1-2H3	InChI=1S/C7H10O2/c1-6-4-9-7(6,2)5(6)3-8/h3,5H,4H2,1-2H3/t5-,6+,7-/m1/s1
