19
gdb 4819	1.7041201	1.4432463	1.1382687	1.5678	78.73	-0.2298	0.05	0.2798	1230.0728	0.152947	-422.506317	-422.495797	-422.494852	-422.541392	38.325	
C	 1.8848669816	 1.5164758533	-0.0612723988	-0.379347
C	 1.4843121713	 0.0398123525	 0.0027064728	-0.261231
C	 2.0347742893	-0.7807816023	-1.1616869941	 0.036038
C	 3.4635584322	-0.9151617072	-1.2148048467	 0.320191
C	 4.6618362968	-1.0249408872	-1.2112434358	-0.461187
C	 1.2183046952	-1.9904837084	-1.6676284764	-0.02417
O	-0.0025433647	-2.3146367115	-1.0798811876	-0.415586
C	 1.2659150038	-0.7381671841	-2.4797522186	 0.04788
O	 1.9960558668	-0.6819980241	-3.6611575765	-0.411595
H	 1.4834810898	 2.0654844125	 0.7960132681	 0.109979
H	 2.9732003081	 1.6262691948	-0.0576234476	 0.132269
H	 1.5050624167	 1.9885525084	-0.9732852412	 0.119429
H	 1.8462172158	-0.3999537363	 0.9402650872	 0.099375
H	 0.3946683725	-0.0604141108	 0.01061065	 0.110731
H	 5.7193947586	-1.1152684233	-1.2296368884	 0.188935
H	 1.8152037074	-2.8256007186	-2.03268058	 0.103699
H	 0.1733011394	-2.7847835046	-0.2573529822	 0.29402
H	 0.3596597625	-0.1311180288	-2.4495536373	 0.100019
H	 1.5426548469	-1.2208212042	-4.3185905569	 0.290553
73.3092	120.4068	145.6309	153.8433	211.3861	233.6503	267.2147	297.6216	301.9788	351.9446	372.4812	423.0335	520.0874	574.9234	580.2086	630.865	644.806	670.4623	785.7159	820.0457	955.2554	980.5871	1025.1172	1034.5015	1091.3108	1102.8943	1143.4432	1176.9045	1240.1287	1247.3731	1282.4517	1298.4717	1333.9571	1358.522	1378.3419	1409.9739	1480.3004	1490.0411	1496.6682	1508.5675	2230.8638	3031.3544	3037.9003	3080.3031	3093.1299	3106.4369	3114.5576	3116.8434	3504.0036	3798.8464	3802.0992
CCC1(C#C)C(O)C1O	CC[C@@]1(C#C)[C@@H](O)[C@@H]1O	
InChI=1S/C7H10O2/c1-3-7(4-2)5(8)6(7)9/h1,5-6,8-9H,4H2,2H3	InChI=1S/C7H10O2/c1-3-7(4-2)5(8)6(7)9/h1,5-6,8-9H,4H2,2H3/t5-,6-/m0/s1
