19
gdb 2898	2.9650012	1.74011	1.6410078	2.4598	72.62	-0.23314	0.06733	0.30047	911.0503	0.160595	-422.569773	-422.563102	-422.562158	-422.600327	28.131	
O	 0.306864159	-0.0321099893	 0.0368604127	-0.448921
C	-0.8112929663	 0.4704450036	 0.7439003844	 0.137488
C	-2.099868877	 0.1153498923	 0.0130662346	-0.073275
C	-3.2092717311	 1.0324555239	 0.6010298154	 0.095865
C	-2.4099139525	 2.1165505342	 1.3612914615	-0.235631
C	-1.0256070637	 2.0073502441	 0.6777995303	-0.091696
C	-1.2098068452	 2.2150581741	-0.8454489684	-0.220071
C	-2.2372903919	 1.1144144453	-1.1768113007	 0.110538
O	-3.5513694035	 1.5269825549	-0.7154444265	-0.305972
H	 1.1041116456	 0.2846080304	 0.4732154556	 0.283246
H	-0.8138480818	 0.1077152153	 1.7831288214	 0.061696
H	-2.3305406369	-0.931730437	-0.1662817067	 0.077191
H	-4.0729769085	 0.6221062919	 1.128247082	 0.074038
H	-2.883236631	 3.0958775002	 1.2545003115	 0.108409
H	-2.3383593623	 1.8813635605	 2.4298767726	 0.093151
H	-0.2403820044	 2.6145171408	 1.1349672341	 0.052611
H	-1.5935720539	 3.2025159346	-1.112969846	 0.101049
H	-0.2671869908	 2.0387930693	-1.3700624833	 0.103431
H	-2.2519650539	 0.7690244807	-2.2115210644	 0.076852
206.9338	285.2124	308.6963	356.8006	397.6608	475.3422	517.7298	609.924	672.5949	791.7278	823.5023	843.8392	863.6162	887.7194	896.96	908.4042	934.0115	941.2254	983.5458	1006.3617	1026.7744	1035.4834	1082.6447	1100.4284	1134.3144	1143.5545	1149.5906	1190.0527	1234.4826	1259.759	1272.2645	1275.7335	1295.5043	1306.3441	1318.4601	1348.3407	1357.0276	1368.1094	1430.57	1465.3676	1482.4772	2984.7365	3037.3128	3064.0593	3081.0095	3088.7154	3101.2069	3103.0915	3118.8284	3152.613	3816.6407
OC1C2C3CC1CC2O3	O[C@@H]1[C@H]2[C@H]3C[C@@H]1C[C@@H]2O3	
InChI=1S/C7H10O2/c8-7-3-1-4-6(7)5(2-3)9-4/h3-8H,1-2H2	InChI=1S/C7H10O2/c8-7-3-1-4-6(7)5(2-3)9-4/h3-8H,1-2H2/t3-,4-,5+,6+,7-/m0/s1
