19
gdb 4561	2.9050606	1.1234861	0.8581259	1.4939	77.49	-0.24835	0.0486	0.29695	1325.3495	0.156961	-422.533749	-422.524882	-422.523938	-422.567035	33.791	
O	 0.1467326437	 4.4820136137	-0.2369975816	-0.429801
C	-0.2622892297	 3.1561928202	-0.5315374751	 0.104341
C	-1.7890920385	 3.0536568156	-0.6382814321	-0.099982
O	-2.2035702961	 1.7364192708	-0.9530618713	-0.241687
C	-1.8236445556	 0.7984781073	 0.0321061117	-0.078944
C	-0.2862896444	 0.7256159504	 0.1780140754	-0.197404
C	 0.2628077547	 2.1388014463	 0.4865788933	-0.233259
C	 0.0956482216	-0.2486858948	 1.1920825863	 0.299167
C	 0.3825917299	-1.0430056697	 2.0477478973	-0.434946
H	-0.1537638831	 4.6945557353	 0.653877381	 0.279666
H	 0.1643711569	 2.9366292822	-1.5172838795	 0.100285
H	-2.2414772749	 3.3842682745	 0.3156467281	 0.073351
H	-2.1612914255	 3.7041227758	-1.433504425	 0.117806
H	-2.2670362409	 1.0544287181	 1.0088134135	 0.095273
H	-2.2247091878	-0.1675355487	-0.2831771633	 0.120966
H	 0.1130636743	 0.404279244	-0.7935779267	 0.115141
H	-0.0709167979	 2.4320537909	 1.4925073929	 0.095764
H	 1.3563327427	 2.1380200096	 0.4974533765	 0.118584
H	 0.6462106706	-1.7510544413	 2.7939247285	 0.195681
108.1949	131.097	164.6028	253.6671	286.7964	342.1214	347.9881	394.1653	426.4641	461.6162	506.0289	541.5035	568.6788	633.8308	644.9587	866.9848	871.9542	927.2449	963.8086	974.1902	1016.9647	1074.8432	1089.3774	1126.2772	1134.0805	1162.8861	1190.0326	1229.7813	1285.6436	1297.886	1315.5088	1328.7506	1347.3311	1371.4261	1394.9207	1411.385	1424.6829	1486.4279	1490.6582	1503.353	2235.804	2934.1968	2971.9835	3007.8195	3021.348	3050.4726	3092.018	3101.6328	3104.8438	3504.2146	3796.3634
OC1COCC(C1)C#C	O[C@@H]1COC[C@@H](C1)C#C	
InChI=1S/C7H10O2/c1-2-6-3-7(8)5-9-4-6/h1,6-8H,3-5H2	InChI=1S/C7H10O2/c1-2-6-3-7(8)5-9-4-6/h1,6-8H,3-5H2/t6-,7+/m1/s1
