19
gdb 5458	2.8440965	1.4203702	1.1198723	1.692	74.16	-0.23911	0.06488	0.30399	1117.2443	0.156574	-422.50808	-422.49963	-422.498686	-422.540922	32.607	
O	 1.4790057857	 0.4223982913	-0.3658359697	-0.42783
C	 0.0922848334	 0.3185577758	-0.0685015314	-0.071014
C	-0.7769454829	 0.2842925493	-1.3185530176	-0.09853
C	-0.9313918314	 1.6462578252	-2.0025591398	-0.065754
C	-2.3116094947	 1.6765641151	-2.6774919687	-0.077671
C	-2.9888518505	 0.3355850101	-2.3991666351	-0.303564
C	-2.3036619108	 0.4248619566	-1.0058286477	 0.376695
O	-2.8659010932	-0.1342646812	 0.132233096	-0.47974
C	-2.1699514335	 1.987816553	-1.207848513	-0.127863
H	 1.6221395923	 1.2718619728	-0.7944762664	 0.280889
H	-0.0201867986	-0.6174753795	 0.4877075192	 0.102583
H	-0.2391787449	 1.131043734	 0.5959254995	 0.091582
H	-0.4816957807	-0.5640681546	-1.9500424005	 0.061299
H	-0.1492468908	 2.3229669312	-2.325575031	 0.079633
H	-2.5218423944	 2.3714970875	-3.4797548409	 0.09019
H	-4.0721389531	 0.452262461	-2.3050530555	 0.103394
H	-2.7522043203	-0.5277243131	-3.0329424574	 0.085746
H	-2.9481859204	-1.0852908985	-0.0025285412	 0.283924
H	-2.4541032714	 2.841003264	-0.6108637988	 0.09603
91.2576	153.9559	196.4798	210.1931	290.4165	310.7156	353.8561	425.994	494.9958	512.7559	654.1796	729.7628	780.2378	795.9162	806.3056	871.8171	908.5351	930.7134	940.1864	980.2946	999.5302	1019.3073	1045.9347	1055.8688	1074.0035	1101.5238	1115.8016	1151.7971	1169.8138	1194.7449	1227.7063	1242.793	1277.3571	1285.6804	1350.7782	1353.6951	1379.6378	1398.1157	1422.3888	1496.9372	1498.9762	2991.1441	3017.9936	3028.441	3077.5466	3098.7439	3179.5653	3201.2231	3234.667	3796.0883	3820.0079
OCC1C2C3CC1(O)C23	OC[C@@H]1[C@H]2[C@H]3C[C@]1(O)[C@@H]23	
InChI=1S/C7H10O2/c8-2-4-5-3-1-7(4,9)6(3)5/h3-6,8-9H,1-2H2	InChI=1S/C7H10O2/c8-2-4-5-3-1-7(4,9)6(3)5/h3-6,8-9H,1-2H2/t3-,4-,5-,6-,7-/m1/s1
