19
gdb 2245	2.3426436	1.7572189	1.4822289	2.9058	74.64	-0.22327	0.07104	0.29431	997.8654	0.157275	-422.532867	-422.524792	-422.523848	-422.564907	31.61	
C	-0.261550097	-0.1421303474	 0.2223396129	-0.525552
C	 1.19314567	 0.0901847999	-0.0495831527	 0.208489
C	 1.9986984218	 1.3300211464	 0.1906995233	 0.028207
O	 2.6354206664	 1.820871925	-0.9722600828	-0.2717
C	 2.4164649039	 0.8430605362	-1.9983516494	-0.078965
C	 2.0635370537	-0.4327995728	-1.2333331749	-0.124623
C	 3.2130238395	-0.7846108787	-0.2283512904	-0.29881
C	 2.4773115109	 0.0439551796	 0.8157505423	 0.303714
O	 2.6394383347	-0.0204914115	 2.1859023782	-0.460753
H	-0.5443526964	 0.2759202299	 1.1940700591	 0.128548
H	-0.8960420672	 0.3306774306	-0.5369155722	 0.124928
H	-0.5059850496	-1.210999357	 0.2380164951	 0.114709
H	 1.6448631028	 2.1055550601	 0.8603680141	 0.105641
H	 1.5951074727	 1.1589595931	-2.6601510511	 0.089978
H	 3.3323022746	 0.7566424341	-2.5925144267	 0.106177
H	 1.6733366716	-1.247909269	-1.8425558612	 0.074117
H	 3.2065289234	-1.8497272731	 0.0254386857	 0.090467
H	 4.2303364802	-0.4814224607	-0.5000281561	 0.102584
H	 2.481413164	-0.9286720048	 2.4687946968	 0.282844
159.4689	179.7614	206.9652	242.8806	294.8719	321.9698	355.8376	429.6784	542.4108	554.1695	643.5013	723.7177	726.6861	784.4039	833.1388	868.0869	940.208	945.0206	968.5637	1006.0953	1017.8342	1066.7278	1072.936	1107.082	1127.8675	1150.1099	1162.7968	1204.1356	1226.718	1238.0395	1263.5727	1284.8286	1334.5156	1357.2625	1379.3202	1413.9755	1465.0742	1487.2682	1496.6363	1511.8239	1518.0505	2983.376	3018.0338	3032.5606	3069.2674	3073.6123	3084.3058	3094.2783	3116.7849	3189.5179	3782.7664
CC12C3OCC1CC23O	C[C@]12[C@@H]3OC[C@H]1C[C@]23O	
InChI=1S/C7H10O2/c1-6-4-2-7(6,8)5(6)9-3-4/h4-5,8H,2-3H2,1H3	InChI=1S/C7H10O2/c1-6-4-2-7(6,8)5(6)9-3-4/h4-5,8H,2-3H2,1H3/t4-,5+,6-,7-/m1/s1
