19
gdb 4697	3.4516801	0.5952485	0.5155884	2.11	81.38	-0.23589	-0.01852	0.21736999999999998	2101.1452	0.152785	-422.544655	-422.533269	-422.532325	-422.585198	37.375	
C	 1.5915082406	-0.0917687796	-0.1089498719	-0.497657
C	 0.1474261517	-0.1047496269	 0.0785253617	 0.123733
C	-1.0453196342	-0.1074428294	 0.2440435405	 0.008184
C	-2.4929773256	-0.127826073	 0.4201907259	-0.362642
C	-3.2072555117	-0.9200047003	-0.6854912106	-0.280421
C	-4.710360231	-0.9739365103	-0.4888905343	 0.323657
O	-5.267753292	-0.4871316983	 0.468370505	-0.295713
C	-5.5396267025	-1.6536452672	-1.5870073739	-0.16502
O	-4.8039543346	-2.4288096987	-2.5121734263	-0.401545
H	 2.1135755543	-0.4504459566	 0.7851963337	 0.146165
H	 1.8914464138	-0.733205322	-0.9452575974	 0.144931
H	 1.9575957569	 0.918907473	-0.3215252299	 0.146572
H	-2.7544902318	-0.5584223252	 1.3935694658	 0.1394
H	-2.8891809429	 0.8941895873	 0.4416773817	 0.138629
H	-2.9974759722	-0.5033204543	-1.678060722	 0.143568
H	-2.8232008309	-1.9467873485	-0.7362810604	 0.124133
H	-6.3503465664	-2.2129586522	-1.1010324566	 0.125723
H	-6.0143417896	-0.8494467404	-2.1632993334	 0.146197
H	-4.5777391022	-3.2657536074	-2.0955911475	 0.292105
8.5675	38.5719	60.7264	66.9081	81.7172	176.9406	210.5035	243.018	302.3766	318.6176	387.3056	449.6012	482.7637	520.0173	574.0907	723.1731	751.2085	851.4947	878.7257	1033.8077	1038.1662	1054.7401	1056.4876	1094.0263	1136.7114	1153.573	1170.5497	1213.5554	1294.7852	1304.0374	1360.4996	1383.4757	1395.0189	1415.4927	1434.7169	1460.3889	1470.7082	1479.1476	1479.7682	1806.3644	2374.8959	3018.2156	3025.1238	3034.5033	3042.9101	3058.1561	3065.7943	3077.9601	3084.559	3085.1124	3829.0292
CC#CCCC(=O)CO	CC#CCCC(=O)CO	
InChI=1S/C7H10O2/c1-2-3-4-5-7(9)6-8/h8H,4-6H2,1H3	InChI=1S/C7H10O2/c1-2-3-4-5-7(9)6-8/h8H,4-6H2,1H3
