19
gdb 2682	2.3068487	1.2219302	0.9238188	3.6488	78.7	-0.23859	-0.01684	0.22175	1300.698	0.155027	-422.533902	-422.524546	-422.523602	-422.568427	33.703	
O	 0.5825763617	 0.5327207972	-3.0391241177	-0.414276
C	 1.5195604887	 0.8393744369	-2.0601221817	 0.06809
C	 1.1444159349	 0.8265011083	-0.5683743335	-0.249119
C	 2.0756817825	 0.2046593411	 0.3900735437	 0.162998
O	 1.7477036986	-0.4020298287	 1.3818932517	-0.27378
C	 1.5268057457	 2.1134242342	-1.3062627156	 0.281724
C	 0.602911823	 3.3037621252	-1.5978172419	-0.305843
C	 1.8777883	 4.1931182258	-1.7152678191	-0.203929
C	 2.7244732471	 3.0492036849	-1.0825489624	-0.297017
H	-0.2383473098	 0.9968683915	-2.8433217674	 0.291096
H	 2.4775039394	 0.3960697554	-2.3184766763	 0.118124
H	 0.0913522075	 0.6960876427	-0.3318969673	 0.098927
H	 3.1529829292	 0.3250327299	 0.1235874444	 0.061819
H	-0.0224029981	 3.2294631044	-2.4938621601	 0.099436
H	-0.0320243796	 3.5738920104	-0.7494808773	 0.116166
H	 2.1508722261	 4.3881468813	-2.7544741981	 0.114906
H	 1.8582770977	 5.1411058683	-1.1750176021	 0.108923
H	 3.6580986609	 2.7844636786	-1.5857371142	 0.107818
H	 2.9352182643	 3.2211064628	-0.0229308052	 0.113935
74.0485	107.5214	136.1586	177.0327	192.4847	231.57	251.1076	336.0153	419.7423	475.2329	542.9923	585.8283	715.1615	790.1537	825.9158	859.3664	917.6749	939.3926	955.2934	984.8501	1034.2263	1049.5201	1081.7771	1109.0877	1125.8537	1140.2946	1173.8841	1213.285	1223.6934	1254.4653	1258.9	1273.9391	1288.4608	1311.5376	1366.3791	1439.1278	1469.1285	1473.531	1482.9033	1504.7089	1808.2584	2841.9961	3040.7303	3053.268	3075.028	3092.1545	3101.2161	3131.7563	3150.1471	3154.6736	3815.8411
OC1C(C=O)C11CCC1	O[C@@H]1[C@@H](C=O)C21CCC2	
InChI=1S/C7H10O2/c8-4-5-6(9)7(5)2-1-3-7/h4-6,9H,1-3H2	InChI=1S/C7H10O2/c8-4-5-6(9)7(5)2-1-3-7/h4-6,9H,1-3H2/t5-,6-/m1/s1
