19
gdb 1663	2.9428094	1.2468097	1.0521983	1.992	76.71	-0.23227	-0.0287	0.20357	1205.4998	0.153903	-422.534748	-422.525552	-422.524608	-422.569161	33.89	
C	-0.1298437	-0.0045132548	 0.2727064931	-0.458668
C	 1.3819876286	 0.1028728948	 0.1683935797	 0.32994
C	 2.0303397511	 0.0940134264	-1.2313352985	-0.418551
C	 2.5329808694	 1.4776139496	-0.8417197411	 0.45934
C	 3.882844691	 2.0930340531	-0.9927615131	-0.329333
C	 2.6558766628	 2.7303452429	-1.6380884806	-0.334413
O	 1.8535643053	 1.4610593947	 0.4241134247	-0.348257
C	 2.0623797239	-0.8022317815	 1.1867674439	 0.125408
O	 2.6789046615	-1.8008092104	 0.9225707481	-0.248082
H	-0.4637590692	 0.2013163072	 1.295234056	 0.130784
H	-0.6005049839	 0.723526132	-0.3936146595	 0.133837
H	-0.46333552	-1.0096120515	-0.0062186155	 0.134194
H	 2.7861485373	-0.6803011389	-1.3680939094	 0.134964
H	 1.318622811	 0.0748872793	-2.0591927577	 0.110506
H	 4.2993910128	 2.5891375378	-0.122773491	 0.12662
H	 4.6105841434	 1.599126919	-1.6285134536	 0.119313
H	 2.2749716726	 3.640690745	-1.1876476392	 0.126383
H	 2.5432479355	 2.6734876368	-2.7161352869	 0.116751
H	 1.953177867	-0.4342828415	 2.2321353606	 0.089266
43.4336	77.9559	187.4616	218.5661	246.0287	290.6506	321.5302	333.3894	381.9205	466.5901	498.814	618.8094	721.0861	756.525	837.2115	870.8095	892.8768	910.1841	920.3645	939.0382	983.1397	984.6624	1005.0126	1048.9755	1070.069	1116.3597	1141.7002	1186.2852	1201.0879	1245.7855	1255.1351	1287.5614	1385.3184	1399.9259	1407.432	1448.9828	1480.5986	1486.8082	1493.539	1507.3313	1833.7759	2883.2254	3034.3416	3076.6082	3107.1961	3119.8599	3127.5232	3130.7581	3137.6514	3211.3481	3225.4695
CC1(CC2(CC2)O1)C=O	C[C@]1(CC2(CC2)O1)C=O	
InChI=1S/C7H10O2/c1-6(5-8)4-7(9-6)2-3-7/h5H,2-4H2,1H3	InChI=1S/C7H10O2/c1-6(5-8)4-7(9-6)2-3-7/h5H,2-4H2,1H3/t6-/m0/s1
