19
gdb 3589	3.3906025	1.1268973	1.0762532	3.0864	78.47	-0.23274	-0.03373	0.19901	1216.4993	0.154103	-422.579373	-422.569911	-422.568967	-422.613879	34.31	
C	 1.2157278563	-0.6751528075	-0.9091708555	-0.390248
C	 1.0938216563	 0.1596342764	 0.3657985109	 0.069787
O	 1.8249537919	-0.4594020165	 1.4369604562	-0.314763
C	 2.7947490533	 0.4326680965	 1.9933584819	 0.239756
C	 4.1924541248	-0.1857058293	 1.9686898355	-0.420649
C	 2.3567440418	 0.7518066926	 3.4327058211	 0.131807
O	 3.1004908603	 1.061743694	 4.3248419007	-0.250316
C	 2.6519796338	 1.6937453346	 1.1684628053	-0.130882
C	 1.6870748163	 1.5402693181	 0.269870214	-0.096258
H	 0.8655174634	-1.6942134877	-0.7233104339	 0.130423
H	 0.6074379853	-0.2436108694	-1.7111150849	 0.114305
H	 2.2565175886	-0.7184921328	-1.2425221035	 0.122006
H	 0.0313065385	 0.2073490917	 0.653452533	 0.087727
H	 4.1718001943	-1.1686524264	 2.4471074822	 0.13168
H	 4.5385707867	-0.3015341373	 0.938984609	 0.11719
H	 4.890292718	 0.4484784352	 2.520512625	 0.137417
H	 1.2537802836	 0.6861117066	 3.5666777121	 0.085224
H	 3.2671474338	 2.5678150823	 1.3379806377	 0.121622
H	 1.3629029031	 2.2690434888	-0.4627181568	 0.114171
64.5581	67.104	170.6958	200.6973	232.1337	243.9236	303.7073	319.1354	348.0976	444.4169	476.8907	569.9812	706.9639	735.8336	780.6399	818.1733	861.6782	884.5367	932.1006	962.7068	974.37	994.016	1050.6874	1087.9102	1116.5806	1131.1035	1173.3573	1188.8927	1207.336	1324.3722	1354.0415	1374.9323	1384.3439	1399.5501	1402.8117	1480.7931	1485.7475	1488.7412	1495.0818	1682.3949	1831.3777	2888.4599	2971.0612	3038.4881	3050.8511	3112.5897	3123.8589	3128.2552	3138.1064	3207.5914	3233.7765
CC1OC(C)(C=O)C=C1	C[C@H]1O[C@](C)(C=O)C=C1	
InChI=1S/C7H10O2/c1-6-3-4-7(2,5-8)9-6/h3-6H,1-2H3	InChI=1S/C7H10O2/c1-6-3-4-7(2,5-8)9-6/h3-6H,1-2H3/t6-,7+/m1/s1
