19
gdb 3284	2.8698351	1.4715003	1.2900631	2.144	74.3	-0.22429	0.0666	0.29089	1066.6957	0.156296	-422.517593	-422.509307	-422.508363	-422.549806	32.587	
C	 0.0122290209	-0.0235747242	-0.0892948997	-0.428069
C	 1.5216132887	 0.0913849668	-0.071471381	-0.12714
C	 2.1407045673	 1.3392410251	 0.5365990131	 0.037691
O	 3.4136694488	 1.7646942594	 0.1136916964	-0.263406
C	 4.4049964077	 0.8976473308	 0.6190134457	 0.107735
C	 4.5324141928	-0.4777531501	 0.0199324213	-0.337689
C	 3.744420319	-0.2725104671	 1.3001547723	-0.140631
C	 2.2538232989	 0.0306318422	 1.2628768841	 0.342951
O	 1.5470652084	-0.1791024939	 2.4479612072	-0.468722
H	-0.4269203443	 0.4167016671	 0.8096405658	 0.13193
H	-0.4064437341	 0.4880640182	-0.9620994724	 0.122739
H	-0.3071358582	-1.0711294465	-0.1334092405	 0.113277
H	 2.0232193294	-0.3310055827	-0.9362255797	 0.086086
H	 1.4930851547	 2.1477469173	 0.861675853	 0.104809
H	 5.2749547118	 1.4239819114	 0.9962516033	 0.100875
H	 4.0197732274	-0.6997635324	-0.9083648343	 0.122968
H	 5.4973474639	-0.964594162	 0.1206218158	 0.112322
H	 4.1094577918	-0.6860419663	 2.2321612057	 0.095992
H	 1.2786581053	-1.1042739132	 2.4749947239	 0.286282
163.0717	183.9157	201.3364	231.8038	284.2624	308.4827	376.1269	394.9863	488.4011	493.4656	645.9046	699.1409	723.3032	783.6934	826.0468	846.8164	910.2076	946.6387	964.3178	982.1199	1006.8464	1031.7313	1054.3605	1075.5112	1085.5662	1101.7185	1126.2046	1133.5805	1164.8888	1189.0128	1210.0681	1239.7768	1291.8024	1321.2383	1361.4139	1382.0722	1410.9819	1444.8427	1476.5514	1494.1151	1505.2659	3031.5658	3089.3465	3117.0708	3132.7471	3156.8177	3161.6133	3169.1941	3188.949	3220.8452	3792.893
CC1C2OC3CC3C12O	C[C@H]1[C@@H]2O[C@@H]3C[C@@H]3[C@]12O	
InChI=1S/C7H10O2/c1-3-6-7(3,8)4-2-5(4)9-6/h3-6,8H,2H2,1H3	InChI=1S/C7H10O2/c1-3-6-7(3,8)4-2-5(4)9-6/h3-6,8H,2H2,1H3/t3-,4-,5+,6-,7+/m0/s1
