19
gdb 3052	3.7288486	1.453193	1.283439	2.2087	75.64	-0.23516	0.07717	0.31233	1041.5899	0.157488	-422.476598	-422.469071	-422.468127	-422.508137	30.014	
C	-0.1370937282	 0.0342905509	 0.1829821857	-0.423393
C	 1.3584070841	-0.0595102062	-0.0436456592	-0.083903
C	 2.2966949899	-0.2659938374	 1.2111960327	-0.021495
O	 1.9918522998	 1.101780422	 1.6361985868	-0.343549
C	 2.2595615864	 1.1934296384	 0.1628806464	 0.388209
C	 2.7897926012	 2.5382184659	-0.2377058869	-0.386997
C	 4.1141347558	 2.5048600128	 0.6002086932	-0.058601
O	 4.4883921221	 1.1240828158	 0.8291693533	-0.282486
C	 3.4751930045	 0.2909112883	 0.3488383619	 0.129755
H	-0.3501327072	 0.6320156643	 1.0710992371	 0.139665
H	-0.6329446903	 0.4952042041	-0.6778150238	 0.11733
H	-0.5704145587	-0.962515409	 0.3167594352	 0.116746
H	 1.6134293521	-0.6602796502	-0.9235904306	 0.076012
H	 2.2594408208	-1.0545323879	 1.9642206083	 0.094739
H	 2.989255616	 2.5732217572	-1.3130492991	 0.116523
H	 2.1566516215	 3.3835679894	 0.0388578884	 0.123882
H	 4.9414079784	 3.0032467661	 0.0843984419	 0.103768
H	 3.9560086769	 2.9859211355	 1.5696453006	 0.122909
H	 3.8192911647	-0.34120437	-0.4775461621	 0.070885
161.3031	204.4535	229.2613	234.8984	322.92	373.8561	478.637	499.8151	627.1761	697.5098	723.0881	759.7366	785.7145	840.403	880.2487	898.7446	905.6532	945.9946	968.6238	1016.9857	1030.6859	1068.6689	1079.4956	1110.095	1145.965	1158.517	1186.1096	1187.3763	1206.2774	1224.6642	1240.3541	1273.1777	1319.3964	1361.2173	1394.0981	1399.421	1423.5754	1475.7426	1494.5108	1505.5969	1512.1734	3035.3197	3039.481	3045.6274	3056.3612	3064.0709	3090.7527	3096.2622	3108.6701	3125.9685	3138.9066
CC1C2OC11CCOC21	C[C@@H]1[C@@H]2O[C@@]31CCO[C@@H]23	
InChI=1S/C7H10O2/c1-4-5-6-7(4,9-5)2-3-8-6/h4-6H,2-3H2,1H3	InChI=1S/C7H10O2/c1-4-5-6-7(4,9-5)2-3-8-6/h4-6H,2-3H2,1H3/t4-,5+,6+,7-/m1/s1
