19
gdb 2536	2.6691893	1.2141105	0.9414532	3.2949	80.08	-0.23424	-0.02716	0.20708000000000001	1280.4643	0.156272	-422.573383	-422.564404	-422.56346	-422.607465	32.534	
C	 1.449884589	 0.81601665	-0.4234533375	-0.477746
C	 0.0423755761	 0.3581393431	-0.1680016231	 0.28811
C	-1.0099278529	 1.1788962813	-0.1451757305	-0.189309
C	-2.4117956054	 0.6963420263	 0.1527485994	-0.119521
C	-2.3406604711	-0.689441261	 0.8124393608	-0.121402
O	-1.4799493521	-1.5505094471	 0.0900072457	-0.245446
C	-0.1351828512	-1.1164696176	 0.1030251312	-0.150055
C	-3.1945467566	 0.6427473818	-1.1541749312	 0.15778
O	-4.0113106165	 1.4581631019	-1.4967401616	-0.254251
H	 2.1111252819	 0.5516707858	 0.4117621514	 0.129103
H	 1.8676626758	 0.3346711817	-1.3168483452	 0.130937
H	 1.4985328223	 1.8984985287	-0.5643808852	 0.13051
H	-0.8884428369	 2.237382022	-0.3594849615	 0.098202
H	-2.925831089	 1.406782028	 0.8096947207	 0.095518
H	-2.0001981263	-0.5765072836	 1.8541274089	 0.099927
H	-3.3187263943	-1.1798800154	 0.8269001186	 0.116759
H	 0.3422133358	-1.367509152	 1.0688500998	 0.101014
H	 0.3805957867	-1.7067561022	-0.6638273829	 0.119943
H	-2.9256585153	-0.2235953815	-1.7979057179	 0.089927
67.7819	103.8296	145.7002	181.7255	232.5918	317.518	337.5236	360.7224	427.0305	472.8085	486.7206	550.7033	750.7895	830.561	869.306	902.5659	929.4391	958.8296	1000.7548	1005.1973	1044.0629	1087.0235	1089.3306	1139.976	1144.1816	1187.7951	1239.5323	1274.1191	1302.9159	1325.9256	1345.4187	1391.9924	1408.7357	1412.3444	1422.4262	1478.2924	1482.6047	1489.0255	1499.5913	1730.5022	1826.5	2894.8785	2933.3194	2979.4997	3017.8061	3050.8877	3054.2066	3064.7671	3082.1947	3117.8435	3161.8361
CC1=CC(COC1)C=O	CC1=C[C@H](COC1)C=O	
InChI=1S/C7H10O2/c1-6-2-7(3-8)5-9-4-6/h2-3,7H,4-5H2,1H3	InChI=1S/C7H10O2/c1-6-2-7(3-8)5-9-4-6/h2-3,7H,4-5H2,1H3/t7-/m0/s1
