19
gdb 3558	2.3322575	1.4469676	1.1850426	3.9747	77.62	-0.23819	-0.05482	0.18337	1126.2049	0.156988	-422.596732	-422.587898	-422.586954	-422.630051	33.286	
C	-1.6442895782	-1.2701093965	-2.3681797712	-0.406647
C	-2.1023380276	-1.2276571011	-0.9032364737	-0.03405
C	-0.9229765017	-1.3278338261	 0.0790557785	-0.321044
C	-0.0492108256	-0.0817069691	 0.0705699573	 0.376513
O	 1.1514199542	-0.1202620318	 0.2473187044	-0.329713
C	-0.764567171	 1.2043195925	-0.1153710918	-0.134342
C	-2.0673157771	 1.2618967532	-0.4079187601	-0.039796
C	-2.9299526287	 0.036423084	-0.5927765738	 0.069962
O	-3.6788273881	-0.0967473115	 0.6186968692	-0.440622
H	-1.0975085031	-2.1953402743	-2.5736328216	 0.123348
H	-2.499542064	-1.2283397952	-3.0509470094	 0.113467
H	-0.9825696098	-0.4329206267	-2.6117588823	 0.130889
H	-2.7650189008	-2.0874905944	-0.7347394967	 0.066248
H	-1.3196467996	-1.4237408909	 1.098159368	 0.135095
H	-0.2923924467	-2.1989609446	-0.1151411879	 0.114834
H	-0.160984229	 2.0991309634	 0.003548387	 0.109831
H	-2.5691056491	 2.2219050531	-0.4981737797	 0.112472
H	-3.6174704904	 0.2232345296	-1.4332037258	 0.069589
H	-4.3653189436	-0.7553577937	 0.4673621395	 0.283966
77.0493	138.0359	203.498	221.1335	261.2003	293.4223	322.5576	412.7094	457.2759	462.6482	511.2223	557.9334	648.8628	723.8746	787.8263	816.6025	885.6061	909.2515	957.8413	991.0287	1029.6614	1037.3523	1057.8857	1098.6719	1138.2919	1140.8665	1220.8262	1236.9886	1255.1831	1285.8089	1334.699	1363.4873	1381.4629	1400.0248	1414.3378	1444.086	1455.856	1497.5258	1503.2457	1692.7036	1783.1713	2967.4481	3005.9196	3035.4999	3037.3451	3102.2926	3104.6275	3111.2665	3160.5149	3187.8994	3806.1808
CC1CC(=O)C=CC1O	C[C@H]1CC(=O)C=C[C@@H]1O	
InChI=1S/C7H10O2/c1-5-4-6(8)2-3-7(5)9/h2-3,5,7,9H,4H2,1H3	InChI=1S/C7H10O2/c1-5-4-6(8)2-3-7(5)9/h2-3,5,7,9H,4H2,1H3/t5-,7-/m0/s1
