19
gdb 5331	3.2039136	1.1776972	0.95208	2.5064	77.34	-0.24443	-0.00381	0.24062	1267.2936	0.156512	-422.54719	-422.538387	-422.537442	-422.580835	32.748	
C	 3.190598287	 2.941731386	 0.2833505737	-0.398779
C	 1.7747177053	 2.543319363	-0.1584224873	-0.06028
C	 1.6006449047	 1.0444434198	-0.3216734142	-0.201178
C	 0.7236197708	 0.5183586464	 0.5423049519	 0.285769
C	 0.3080694092	-0.9116634569	 0.6827764762	-0.172592
O	-1.1042980082	-1.0692364439	 0.6044400475	-0.411993
C	 0.1004822774	 1.6177026521	 1.3483691596	-0.05836
O	-0.6204172927	 2.5678595193	 0.5280254527	-0.267316
C	 0.7219856643	 2.8756924796	 0.9004072588	 0.039438
H	 3.4518819509	 2.4659628686	 1.2341949066	 0.121764
H	 3.9336402181	 2.6357288117	-0.4592921193	 0.120239
H	 3.2689138651	 4.0268255691	 0.4108793719	 0.118109
H	 1.5354951794	 3.061188352	-1.0969984079	 0.097746
H	 2.1369870096	 0.4818167069	-1.0799210818	 0.09701
H	 0.8328916548	-1.5308559583	-0.0610424348	 0.093182
H	 0.5820729902	-1.2976385356	 1.6729097835	 0.115179
H	-1.4001306409	-0.6168259846	-0.1929530334	 0.289268
H	-0.3192211393	 1.4497515499	 2.3352695889	 0.100458
H	 0.8445307843	 3.7465971348	 1.5407306673	 0.092336
74.6821	106.2874	162.545	221.826	261.6174	276.7829	348.816	380.7606	413.6171	507.8057	581.8978	704.2634	714.8661	831.4007	859.7101	870.2924	874.5122	898.8476	934.7332	983.4132	1015.4957	1045.0626	1059.8981	1089.152	1095.6739	1138.6425	1196.0034	1199.4696	1250.7633	1271.8145	1296.8271	1314.8906	1342.8528	1381.0718	1403.0041	1412.5901	1421.4254	1495.3662	1498.8316	1499.4311	1695.3213	2985.9868	3022.2995	3031.9032	3042.8543	3101.7879	3108.8018	3136.4702	3169.2787	3178.7539	3808.3454
CC1C=C(CO)C2OC12	C[C@H]1C=C(CO)[C@@H]2O[C@H]12	
InChI=1S/C7H10O2/c1-4-2-5(3-8)7-6(4)9-7/h2,4,6-8H,3H2,1H3	InChI=1S/C7H10O2/c1-4-2-5(3-8)7-6(4)9-7/h2,4,6-8H,3H2,1H3/t4-,6+,7-/m0/s1
