19
gdb 4875	3.7897965	0.8020158	0.7930268	2.7732	78.48	-0.24078	0.05562	0.2964	1510.412	0.153993	-422.509628	-422.499531	-422.498587	-422.544893	37.021	
O	 5.9944507929	 1.7207776744	 1.7165815092	-0.434184
C	 5.1749632372	 2.6618267626	 1.0210616132	-0.150977
C	 4.288295974	 1.8576199858	 0.1071951381	 0.419612
O	 5.021440588	 1.0468471294	-0.7698047192	-0.469875
C	 3.0259113052	 2.4373959914	-0.4462213612	-0.341298
C	 2.9503870693	 1.3517637801	 0.6103245988	-0.060501
C	 2.4815225933	-0.0445706459	 0.2332682216	-0.389113
C	 1.0290925895	-0.1543438543	 0.1358147999	 0.311389
C	-0.1687334516	-0.227729292	 0.0654608534	-0.454619
H	 6.7627643958	 2.1817178109	 2.0642984938	 0.294289
H	 4.5695894518	 3.2596562632	 1.7176846321	 0.092151
H	 5.7922427289	 3.3469700438	 0.4218804219	 0.098869
H	 5.6825223036	 0.6099578791	-0.2161511346	 0.288636
H	 2.7470149737	 3.4515151058	-0.1801036857	 0.110441
H	 2.7822676383	 2.1545926316	-1.4648358268	 0.128806
H	 2.6570146267	 1.6717849599	 1.606098423	 0.092616
H	 2.9459319183	-0.3282410089	-0.7175710893	 0.144378
H	 2.8495205285	-0.7649856593	 0.9760331111	 0.128698
H	-1.2254313331	-0.3013038674	-0.0032869394	 0.190681
48.3517	98.408	113.5797	177.5277	220.1932	258.1447	298.9247	340.8121	347.067	401.3869	467.3376	505.7616	534.8314	557.4644	612.6528	630.4613	751.3021	848.7894	864.4663	913.4379	920.2584	954.7073	1033.6727	1041.7729	1050.3127	1069.4899	1097.3644	1142.2785	1199.4387	1232.8812	1247.8028	1270.9028	1315.8425	1321.6924	1380.0384	1423.5924	1457.1316	1476.9377	1504.4457	1509.0238	2237.666	2987.0861	3020.3858	3027.393	3069.8672	3132.171	3148.173	3220.1095	3507.8437	3764.1708	3841.2013
OCC1(O)CC1CC#C	OC[C@]1(O)C[C@H]1CC#C	
InChI=1S/C7H10O2/c1-2-3-6-4-7(6,9)5-8/h1,6,8-9H,3-5H2	InChI=1S/C7H10O2/c1-2-3-6-4-7(6,9)5-8/h1,6,8-9H,3-5H2/t6-,7-/m1/s1
