19
gdb 766	2.2020906	1.7707288	1.2147236	2.6388	75.14	-0.24386	-0.02626	0.2176	1072.0757	0.158658	-422.571405	-422.563508	-422.562564	-422.60383	30.393	
O	-1.2181531089	-0.1304632582	 2.5277283119	-0.311179
C	-0.9628691713	 0.1163606686	 1.3688987131	 0.357898
C	-1.9773509344	-0.0475844474	 0.2550395037	-0.292197
C	-1.7122047544	-1.2832345805	-0.6303585853	-0.205832
C	-0.4840667354	-1.1856480868	-1.5444941935	-0.192616
C	 0.8856960455	-1.2437245006	-0.8532624899	-0.246139
C	 1.2704859237	-0.0527814698	 0.002882803	 0.068647
O	 0.6570154121	 1.2066055487	-0.2501718555	-0.243123
C	 0.4190020629	 0.598771158	 1.0261960239	-0.051457
H	-2.9535978195	-0.1406370168	 0.7371753325	 0.118517
H	-1.973582834	 0.8514194469	-0.3712489618	 0.12462
H	-1.6372929543	-2.1748063692	 0.0059323933	 0.108029
H	-2.5974189096	-1.4306227118	-1.2586980819	 0.107785
H	-0.5224738626	-2.0168971163	-2.2575745167	 0.099454
H	-0.5435637573	-0.2650896679	-2.1357428412	 0.116427
H	 0.965694174	-2.1488183648	-0.2354998973	 0.114756
H	 1.6551350455	-1.34291642	-1.628752095	 0.112093
H	 2.342484404	 0.0173659963	 0.1991069052	 0.10248
H	 0.9194829239	 1.0715518915	 1.8704011313	 0.111838
85.5535	153.523	214.3402	268.6323	321.8859	363.1035	423.7527	475.6725	521.8768	579.5335	674.5458	741.6282	782.063	826.5003	869.3847	893.2582	929.7081	935.3465	954.5264	1033.2193	1071.0266	1090.8723	1105.6407	1123.0906	1181.2203	1199.1608	1249.3262	1279.659	1292.8934	1302.4324	1353.4628	1375.7064	1383.4152	1391.5002	1397.7962	1452.6752	1467.5154	1479.6522	1485.1833	1492.5087	1795.2261	3018.0587	3023.6559	3034.8869	3047.1153	3054.623	3069.5623	3081.0621	3088.0309	3111.6588	3127.8529
O=C1CCCCC2OC12	O=C1CCCC[C@H]2O[C@@H]12	
InChI=1S/C7H10O2/c8-5-3-1-2-4-6-7(5)9-6/h6-7H,1-4H2	InChI=1S/C7H10O2/c8-5-3-1-2-4-6-7(5)9-6/h6-7H,1-4H2/t6-,7+/m1/s1
