19
gdb 1215	3.03932	1.0326579	0.93187	1.9668	80.03	-0.27099	-0.03728	0.23371	1348.1646	0.152344	-422.559917	-422.549452	-422.548507	-422.595005	37.985	
C	 1.6283691032	 0.7488284114	 2.1776848515	-0.418988
C	 0.6182222596	 0.0851390146	 1.2376105041	 0.368207
C	 0.3316212439	 0.9754883994	 0.0278455508	-0.404763
C	-0.679718872	-0.2983171889	 1.953808191	-0.418987
O	 1.2208691609	-1.1104760907	 0.6172030875	-0.283441
C	 1.6214111821	-2.1506888031	 1.35689425	 0.284144
O	 1.5542120133	-2.2584868192	 2.5581519261	-0.366725
C	 2.1734985803	-3.1849700668	 0.5012084631	 0.24122
C	 2.6410760081	-4.0752851528	-0.1564130196	-0.359177
H	 1.8405345604	 0.1176275736	 3.0404580574	 0.152905
H	 2.5636901851	 0.9541852881	 1.6483817059	 0.12063
H	 1.2219853847	 1.7018442506	 2.5301659009	 0.116351
H	-0.3527592886	 0.4779133625	-0.6646261376	 0.124697
H	-0.1257892402	 1.9138885102	 0.3539719745	 0.11868
H	 1.2556398317	 1.2076709029	-0.5085834281	 0.124697
H	-0.483174512	-0.9366447626	 2.8150330349	 0.152875
H	-1.185101639	 0.6097694156	 2.2967403793	 0.116371
H	-1.3525868599	-0.822493966	 1.2685021932	 0.120638
H	 3.0549983783	-4.8629928889	-0.737174845	 0.210666
64.7781	112.9892	129.3893	198.897	229.3688	251.4073	258.7668	269.9799	317.4915	353.3218	368.84	420.7348	463.6952	537.1323	615.3105	649.7868	697.1939	762.2867	778.6551	853.1118	925.8824	926.5934	943.6948	968.2899	1052.786	1060.8522	1194.9331	1266.818	1273.4221	1284.6089	1397.4113	1401.5354	1427.7712	1467.9764	1488.2645	1489.5587	1494.9627	1502.3012	1525.5565	1778.428	2234.1679	3043.737	3045.0908	3051.7708	3110.2777	3112.2039	3123.0626	3124.9828	3154.4464	3157.6521	3500.0589
CC(C)(C)OC(=O)C#C	CC(C)(C)OC(=O)C#C	
InChI=1S/C7H10O2/c1-5-6(8)9-7(2,3)4/h1H,2-4H3	InChI=1S/C7H10O2/c1-5-6(8)9-7(2,3)4/h1H,2-4H3
