19
gdb 3261	2.81672	1.8795937	1.6098257	1.8467	72.48	-0.24685	0.08461	0.33146000000000003	908.9921	0.160987	-422.574079	-422.567547	-422.566603	-422.604535	27.83	
O	 0.4471044623	 0.6120135637	 0.3846741975	-0.449662
C	-0.9074806916	 0.7288574017	 0.7715870656	 0.162759
C	-1.1648675996	 0.1471357275	 2.1869061933	-0.098777
C	-2.6723873961	-0.0025994733	 2.4986071376	-0.250502
C	-2.7118138513	 1.5191043091	 2.7795994186	-0.060522
C	-2.7537220735	 2.3257765361	 1.4620029785	-0.22855
C	-1.2880814831	 2.2094992448	 1.0029286889	 0.015913
O	-0.559696196	 2.4861884355	 2.2171510074	-0.276349
C	-1.1568239141	 1.4783845517	 3.0196924784	 0.10673
H	 0.9432106519	 1.1834070478	 0.9850118346	 0.283105
H	-1.502010691	 0.2406015971	-0.0052101483	 0.083001
H	-0.4787204243	-0.6671092043	 2.4191373607	 0.074002
H	-3.3197044298	-0.3842120917	 1.7025909902	 0.094324
H	-2.8415393772	-0.5935104114	 3.4030794008	 0.102038
H	-3.3771065635	 1.8965614933	 3.5558876764	 0.068808
H	-3.47008273	 1.9270588843	 0.7379726518	 0.100981
H	-2.9926470537	 3.3763109375	 1.6468769668	 0.109772
H	-0.9628400795	 2.8887797732	 0.2152240874	 0.08126
H	-0.75910432	 1.4931371074	 4.0318431137	 0.081671
189.1635	300.4933	342.8346	391.7892	446.9669	462.0062	578.2023	620.237	685.0491	763.3719	818.6836	850.6486	862.2629	874.409	892.9229	920.1369	947.5148	970.4125	981.4723	990.2702	1037.2558	1050.887	1059.6989	1073.8317	1118.5631	1124.0883	1178.9993	1215.5046	1222.4098	1231.8846	1266.8987	1268.4788	1272.9874	1288.9122	1300.9409	1329.3001	1337.9785	1363.8338	1437.3863	1480.4946	1496.3271	3045.1292	3059.3578	3082.6512	3096.1953	3105.3927	3112.3108	3113.8737	3127.6557	3150.0058	3774.178
OC1C2CC3CC1OC23	O[C@H]1[C@@H]2C[C@@H]3C[C@H]1O[C@H]23	
InChI=1S/C7H10O2/c8-6-4-1-3-2-5(6)9-7(3)4/h3-8H,1-2H2	InChI=1S/C7H10O2/c8-6-4-1-3-2-5(6)9-7(3)4/h3-8H,1-2H2/t3-,4+,5-,6+,7+/m1/s1
