19
gdb 3304	2.4070121	1.6541291	1.4597281	2.3883	74.88	-0.23865	0.00636	0.24501	999.091	0.158684	-422.562181	-422.554402	-422.553458	-422.593746	31.525	
O	 0.5850693512	 0.1981086561	 0.695915572	-0.451099
C	-0.7503915485	 0.6305515561	 0.8652711225	 0.156918
C	-1.2983446538	 0.4357290177	 2.3102744149	-0.130006
C	-2.8210855182	 0.6562267704	 2.3337470918	-0.274174
C	-3.1761090558	 1.9143052172	 1.5691356394	-0.083225
C	-2.20347267	 2.6338501643	 1.0000932933	-0.086901
C	-0.7766272155	 2.1579090342	 1.1513110362	-0.12687
C	-0.5550900872	 1.7691936644	 2.6555860344	 0.166738
O	-1.0153916738	 2.5978688257	 3.6810816271	-0.441797
H	 0.6071527911	-0.7558458572	 0.8251795083	 0.280923
H	-1.3940348977	 0.2892947629	 0.0439232515	 0.064438
H	-1.0074180977	-0.4744023231	 2.8436026152	 0.055903
H	-3.3406304363	-0.2095139221	 1.9008789772	 0.108989
H	-3.1749896083	 0.7288308979	 3.3715733582	 0.115748
H	-4.2206297236	 2.2048560669	 1.4998594294	 0.094319
H	-2.4127629237	 3.5434864026	 0.4461632134	 0.095533
H	-0.0395655439	 2.7821110209	 0.6462256333	 0.071929
H	 0.5006047666	 1.5797196934	 2.8455005889	 0.103875
H	-1.8782219049	 2.9365354518	 3.4098565429	 0.278759
201.6274	224.8418	238.4302	269.0134	321.6827	349.0617	428.8305	460.7979	480.424	581.2417	593.2976	671.8727	740.297	816.3038	850.2582	877.3341	916.8681	927.0794	986.5799	998.4952	1003.2452	1007.2418	1062.7547	1103.8163	1113.3099	1147.6743	1152.6543	1182.0496	1215.867	1223.774	1265.7134	1280.2025	1305.3943	1313.8708	1334.0243	1367.0627	1390.9455	1413.6179	1441.1876	1473.4097	1687.9638	3008.0259	3011.3207	3032.6503	3060.1435	3112.0319	3128.39	3161.0069	3185.4206	3758.4301	3808.5626
OC1C2CC=CC1C2O	O[C@H]1[C@@H]2CC=C[C@H]1[C@H]2O	
InChI=1S/C7H10O2/c8-6-4-2-1-3-5(6)7(4)9/h1-2,4-9H,3H2	InChI=1S/C7H10O2/c8-6-4-2-1-3-5(6)7(4)9/h1-2,4-9H,3H2/t4-,5+,6-,7-/m1/s1
