19
gdb 4776	3.2263113	0.8370979	0.7087226	2.0804	79.36	-0.24356	0.04881	0.29237	1573.4666	0.154432	-422.511124	-422.50107	-422.500126	-422.546416	36.691	
O	 1.476942482	 0.7201515771	-0.5072337888	-0.432721
C	 0.1607637079	 0.4173558157	-0.0509426669	-0.102321
C	-0.7449576921	 0.4896771364	-1.2798248476	 0.118389
O	-0.607763968	 1.7566249099	-1.8999828723	-0.447596
C	-2.1954090086	 0.2883437233	-0.9240216372	-0.000208
C	-3.1706526117	-0.1783650033	-1.9610176095	-0.290082
C	-2.7538372313	-1.1276229435	-0.8481023401	-0.214421
C	-3.6724029464	-1.4861546422	 0.1919656197	 0.30535
C	-4.4414939203	-1.7887401167	 1.0663612803	-0.440166
H	 2.0308820516	 0.9163067506	 0.2530226404	 0.295563
H	 0.1115491916	-0.5828352442	 0.402536338	 0.099032
H	-0.1797824778	 1.1545967135	 0.6905886632	 0.097017
H	-0.4320293705	-0.3104681753	-1.9746048119	 0.065838
H	 0.3383797201	 1.9510790253	-1.876400111	 0.288485
H	-2.5788848814	 0.9845857884	-0.1843168144	 0.102215
H	-4.17938343	 0.2142816452	-1.9270357715	 0.127254
H	-2.7939462293	-0.3912377863	-2.9553920654	 0.123707
H	-2.0684531523	-1.9184577664	-1.1421623243	 0.111782
H	-5.1210502737	-2.0567097375	 1.8365030295	 0.192882
63.9139	85.8379	112.6466	165.1048	222.0081	255.4001	269.1	312.361	402.5719	426.8789	481.0619	511.8472	527.6646	558.4559	582.4071	645.122	802.4735	854.8416	901.4944	925.5441	934.3476	1018.8878	1053.2153	1075.6964	1078.8251	1104.9704	1119.1611	1136.6352	1155.7775	1217.7593	1240.6965	1255.889	1285.4501	1329.5857	1369.2405	1395.739	1442.3917	1470.3063	1493.5504	1507.3547	2237.1595	2939.237	2990.7977	3035.0594	3137.7611	3143.3412	3160.894	3236.0724	3506.4369	3768.3236	3845.0293
OCC(O)C1CC1C#C	OC[C@H](O)[C@H]1C[C@@H]1C#C	
InChI=1S/C7H10O2/c1-2-5-3-6(5)7(9)4-8/h1,5-9H,3-4H2	InChI=1S/C7H10O2/c1-2-5-3-6(5)7(9)4-8/h1,5-9H,3-4H2/t5-,6-,7-/m0/s1
