19
gdb 4478	2.819432	1.7575603	1.3645933	2.3389	75.16	-0.24087	0.07733	0.3182	994.3027	0.15751	-422.479496	-422.471957	-422.471013	-422.511296	29.924	
C	-0.0542300497	-0.014060673	 0.1581300593	-0.397031
C	 1.3751264657	 0.359034827	-0.2117883721	 0.00729
O	 2.10349176	 0.7270976109	 0.9817360086	-0.300128
C	 2.7479979911	 2.020091685	 0.8586675311	-0.103472
C	 1.8882068584	 2.7682675689	-0.1501773825	-0.05036
C	 2.2942522803	 3.0927468007	-1.6200306246	 0.015201
C	 0.9037419521	 2.5649500632	-2.1064885929	-0.3084
C	 1.5085060915	 1.5925211791	-1.0667286563	 0.40203
O	 2.8248696559	 1.7316447148	-1.7658727472	-0.342683
H	-0.0449224296	-0.7860710581	 0.9315640649	 0.132386
H	-0.5944954667	 0.8529633567	 0.5506556346	 0.1159
H	-0.5922026555	-0.4001372536	-0.7136145784	 0.117463
H	 1.8853302687	-0.4864918807	-0.6914626314	 0.094631
H	 2.7455989781	 2.466983277	 1.8556633327	 0.103516
H	 3.7785924702	 1.8978311752	 0.5124283554	 0.113475
H	 1.0677435393	 3.348577542	 0.2781278357	 0.081199
H	 2.8872633088	 3.9146732794	-2.0225484388	 0.099964
H	 0.0060891491	 3.1203500265	-1.8235984632	 0.104111
H	 0.8877896625	 2.2100382391	-3.1369616549	 0.114908
99.2509	184.1243	221.0361	299.9641	333.0391	427.7024	474.0799	507.8994	614.8084	685.4757	715.0904	760.8285	795.5467	835.3972	860.4511	888.9199	944.756	971.8903	1002.7701	1019.4051	1035.5807	1066.6217	1090.4743	1100.2941	1118.8151	1122.1432	1144.3153	1184.4137	1199.3399	1228.8297	1236.9652	1284.197	1333.0677	1354.6581	1370.2738	1390.4561	1405.2339	1484.0147	1490.6141	1495.4093	1503.9669	3022.5289	3040.066	3054.4181	3066.0992	3084.4451	3108.7515	3112.4091	3113.2825	3124.5212	3154.855
CC1OCC2C3CC12O3	C[C@@H]1OC[C@H]2[C@@H]3C[C@]12O3	
InChI=1S/C7H10O2/c1-4-7-2-6(9-7)5(7)3-8-4/h4-6H,2-3H2,1H3	InChI=1S/C7H10O2/c1-4-7-2-6(9-7)5(7)3-8-4/h4-6H,2-3H2,1H3/t4-,5-,6-,7-/m0/s1
