19
gdb 1535	3.0924593	1.411176	1.2634461	2.4233	77.73	-0.22814	0.00621	0.23435	1069.008	0.156061	-422.533351	-422.524866	-422.523922	-422.565874	32.759	
C	-0.0070718284	 1.5347789406	 0.0016977012	-0.441369
C	-0.0021529999	 0.0150739713	-0.0176806838	 0.348108
O	 0.39554054	-0.5079712868	-1.2656107954	-0.474879
C	-1.306893379	-0.6446075016	 0.6265969812	-0.381572
C	-0.4786009665	-0.7499150518	 1.8832886043	 0.2339
C	-0.3449826291	-0.2756016867	 3.1158837425	-0.245376
C	 1.1263399014	 0.0615942262	 3.3171391606	-0.106922
O	 1.7104804281	 0.0488819852	 1.9972347346	-0.278366
C	 0.8182679098	-0.6471646758	 1.1535409419	 0.068462
H	 0.9848560155	 1.9155542812	-0.2554593829	 0.136372
H	-0.7324824036	 1.9263980658	-0.7220540273	 0.102273
H	-0.2770747717	 1.9174669065	 0.9889037908	 0.127683
H	-0.1180041669	-0.0723389872	-1.9546299527	 0.277109
H	-2.2233462338	-0.0520403005	 0.6716806645	 0.108587
H	-1.50511198	-1.6033092185	 0.1392946337	 0.118592
H	-1.1129487883	-0.0169749446	 3.8339334817	 0.103202
H	 1.2563734311	 1.0616185635	 3.7509873101	 0.110796
H	 1.6608527142	-0.65142622	 3.9651490495	 0.105516
H	 1.2607588171	-1.582496687	 0.7821127257	 0.087885
114.987	190.9168	215.0053	235.2623	264.0843	288.2201	342.2551	380.1009	413.3852	524.2243	629.2282	662.5605	761.2598	768.5163	793.4063	848.5428	902.2682	918.6413	948.7371	967.5732	976.3379	1026.6149	1049.2269	1078.9544	1116.8241	1139.5226	1165.2639	1187.1368	1194.6642	1197.9629	1255.6228	1296.7801	1341.0404	1365.423	1381.6401	1409.0296	1471.6804	1488.6117	1491.5246	1516.7418	1732.1248	2974.4091	3005.953	3029.2625	3031.5212	3058.8891	3102.5316	3118.4946	3130.3901	3212.9798	3801.2724
CC1(O)CC2=CCOC12	C[C@]1(O)C[C]2[CH]CO[C@H]12	
InChI=1S/C7H10O2/c1-7(8)4-5-2-3-9-6(5)7/h2,6,8H,3-4H2,1H3	InChI=1S/C7H10O2/c1-7(8)4-5-2-3-9-6(5)7/h2,6,8H,3-4H2,1H3/t6-,7-/m0/s1
