19
gdb 3787	3.4020297	0.788246	0.6858292	3.1499	79.6	-0.25466	-0.03626	0.21839999999999998	1648.5801	0.154368	-422.529921	-422.520484	-422.51954	-422.56503	33.667	
C	-0.7614804885	-0.1929655927	-0.2884162521	-0.409055
C	 0.4264440404	 0.5808921496	 0.2373903237	 0.004591
C	 1.0593385423	 1.6792744434	-0.5735087657	-0.29532
C	 1.7987747345	 0.3738927935	-0.3637773501	-0.031515
C	 2.9943779115	 0.3402484135	 0.5211683084	 0.063341
O	 4.2795376973	 0.2958846813	-0.0857228382	-0.246766
C	 3.8469058513	-0.8697631215	 0.6298835468	-0.065094
C	 4.567334387	-1.133439406	 1.9082593604	 0.148431
O	 4.6597121643	-2.2197157546	 2.419836161	-0.249382
H	-0.8249846337	-1.186372403	 0.1685282909	 0.123898
H	-1.6988547962	 0.3334295436	-0.0786494509	 0.122811
H	-0.6931609212	-0.3284579761	-1.3729356348	 0.117879
H	 0.4144198715	 0.746554775	 1.3125481693	 0.088657
H	 0.6685165471	 1.8752144006	-1.5663924391	 0.118667
H	 1.4273259363	 2.5602903331	-0.0578893603	 0.116672
H	 1.8625911894	-0.2918719507	-1.2196038498	 0.093305
H	 2.9435292083	 0.9954706071	 1.3945286124	 0.097291
H	 3.6040471359	-1.7431196782	 0.0271707559	 0.115338
H	 5.0138238324	-0.2180038081	 2.3588643423	 0.086253
52.886	85.0084	130.6874	163.3136	211.6747	263.2757	288.015	351.4025	379.4088	409.1137	500.4278	528.3418	795.9718	826.9956	860.119	877.1908	905.9232	913.379	979.2128	1020.4091	1045.2071	1070.8053	1089.8655	1104.8024	1111.6556	1137.377	1157.2278	1199.9183	1205.4054	1228.9379	1241.445	1301.9795	1328.3341	1396.6503	1415.035	1427.8212	1477.4089	1492.0694	1496.861	1508.3634	1827.4942	2882.0554	3029.268	3079.6165	3094.3858	3096.5749	3130.1354	3133.5996	3140.2807	3153.8994	3216.3458
CC1CC1C1OC1C=O	C[C@@H]1C[C@H]1[C@@H]1O[C@H]1C=O	
InChI=1S/C7H10O2/c1-4-2-5(4)7-6(3-8)9-7/h3-7H,2H2,1H3	InChI=1S/C7H10O2/c1-4-2-5(4)7-6(3-8)9-7/h3-7H,2H2,1H3/t4-,5-,6+,7+/m1/s1
