19
gdb 1844	4.0266547	1.1052984	1.015794	1.8564	76.85	-0.27654	0.00657	0.28311000000000003	1224.9906	0.156395	-422.54651	-422.538029	-422.537085	-422.579709	31.944	
C	-2.2620610176	 4.6603139509	-0.5718738654	-0.505622
C	-1.7075974832	 3.3438245832	-0.1031887497	 0.316693
C	-0.2068032865	 2.8993291522	-0.0931706026	-0.308383
C	-1.0281100236	 1.72182897	 0.4856724391	 0.461201
C	-1.8202359503	 2.7281068517	 1.3338967834	-0.31718
C	-2.0531175248	 1.9210954149	-0.6569631026	-0.30846
O	-0.5461730072	 0.504675827	 1.0181039157	-0.26425
C	 0.1378671843	-0.3033907223	 0.1909403039	 0.147922
O	 0.3853266399	-0.0997362423	-0.9648489332	-0.298644
H	-1.8400931806	 5.4918015519	 0.0026741482	 0.121715
H	-2.0294987367	 4.8294677351	-1.6285102679	 0.124332
H	-3.3509107725	 4.6914613736	-0.4579833106	 0.121714
H	 0.2661700562	 2.7333502573	-1.0615639304	 0.114262
H	 0.4493715711	 3.4254065444	 0.6056606423	 0.091856
H	-2.8181813989	 2.4201943507	 1.656948676	 0.09491
H	-1.2716680918	 3.2395140973	 2.129261812	 0.094913
H	-1.7101374805	 1.6862959048	-1.6650945204	 0.114182
H	-3.0684743178	 1.5615843894	-0.4686097617	 0.091869
H	 0.4410962804	-1.2000439597	 0.753825844	 0.106969
65.8559	139.2083	192.3256	210.2633	253.8788	297.918	386.4302	443.3717	545.4708	553.161	558.812	633.802	749.4705	763.5531	828.6643	932.5804	964.0844	974.4486	985.6245	986.361	1045.0038	1069.635	1091.3283	1096.2301	1131.5547	1137.299	1175.8629	1176.3672	1199.1437	1216.1618	1224.5496	1265.5205	1343.1138	1414.674	1416.9232	1490.6073	1491.0143	1497.1953	1498.7184	1563.4023	1821.2365	3027.0851	3030.0149	3051.7438	3058.9052	3066.4715	3097.6117	3099.2421	3120.7471	3140.1121	3143.9692
CC12CC(C1)(C2)OC=O	C[C@@]12C[C@@](C1)(C2)OC=O	
InChI=1S/C7H10O2/c1-6-2-7(3-6,4-6)9-5-8/h5H,2-4H2,1H3	InChI=1S/C7H10O2/c1-6-2-7(3-6,4-6)9-5-8/h5H,2-4H2,1H3/t6-,7-
