19
gdb 5273	2.8260347	1.2704283	1.0292053	1.4489	75.47	-0.24256	-0.02447	0.21809	1189.5406	0.15604	-422.547732	-422.538923	-422.537979	-422.581744	32.714	
O	 0.2735703105	 3.3974131887	 0.5199739942	-0.415542
C	-0.1140187365	 2.0391838256	 0.6774793729	-0.173835
C	 0.0900486812	 1.5411150471	 2.0899353607	 0.350027
C	 1.5474152013	 1.4337090801	 2.6188584475	-0.275446
C	 1.2956904807	-0.0379126911	 3.0590641468	-0.228299
C	-0.1695016816	 0.0374093885	 2.5203336542	-0.22213
C	-1.1527689853	 0.553757283	 3.5710480462	 0.423496
O	-1.8560489729	 0.0206134445	 4.3793760905	-0.299337
C	-0.9285615073	 2.0266650119	 3.1687644101	-0.43543
H	-0.2931661923	 3.9325554598	 1.0854240757	 0.285322
H	-1.1604914329	 1.8799078556	 0.3674031335	 0.085865
H	 0.5181111742	 1.4733495685	-0.0161465071	 0.10984
H	 2.2939559058	 1.530689214	 1.827196481	 0.114294
H	 1.8094051355	 2.1348859627	 3.415125963	 0.102485
H	 1.9000535327	-0.7659595822	 2.5149312076	 0.116929
H	 1.386254184	-0.2536494852	 4.126238389	 0.117857
H	-0.5100222425	-0.7609386524	 1.8586656616	 0.089638
H	-1.8468332112	 2.4551533088	 2.7474446918	 0.126219
H	-0.5655119735	 2.6942546921	 3.955703711	 0.128047
51.2882	93.972	144.4696	196.3561	289.3002	347.145	351.5595	379.1995	438.2709	527.6369	587.4714	667.2215	721.983	771.2178	851.6415	888.9914	906.885	945.3708	959.3446	964.1616	1008.3441	1019.2277	1059.549	1092.4869	1128.0436	1134.9759	1146.1902	1202.2338	1221.2127	1237.261	1254.3321	1277.4017	1286.1297	1329.3777	1376.6471	1419.3761	1432.6199	1480.7757	1493.9262	1506.1587	1886.5352	2964.2336	3032.605	3061.4729	3063.6659	3070.4699	3095.715	3100.3523	3107.4436	3126.5507	3809.6758
OCC12CCC1C(=O)C2	OC[C@]12CC[C@H]1C(=O)C2	
InChI=1S/C7H10O2/c8-4-7-2-1-5(7)6(9)3-7/h5,8H,1-4H2	InChI=1S/C7H10O2/c8-4-7-2-1-5(7)6(9)3-7/h5,8H,1-4H2/t5-,7+/m0/s1
