19
gdb 4301	2.0513068	1.4443841	1.0778851	3.0409	78.54	-0.23892	-0.03031	0.20861	1198.3406	0.155371	-422.586026	-422.576609	-422.575665	-422.620855	33.946	
C	 1.2261971161	 0.9908636397	 0.4561954625	-0.497491
C	-0.0622696685	 0.2470769092	 0.3011845091	 0.294618
C	-0.268589722	-1.0732785537	 0.3532108398	-0.176893
C	-1.7124494676	-1.4502987832	 0.1350010061	-0.28505
C	-2.4534378591	-0.0951324251	 0.2849282706	 0.105414
O	-2.9965801768	 0.0730753143	 1.5821408954	-0.42991
C	-1.3655422359	 0.980087717	-0.0079475132	-0.186048
C	-1.330362273	 1.4105440476	-1.4626275636	 0.15716
O	-1.1272154188	 2.534792023	-1.8429233285	-0.255107
H	 1.1854288147	 1.6739316161	 1.3139825393	 0.131601
H	 2.0685825704	 0.3095150752	 0.6011473874	 0.126291
H	 1.4312054434	 1.6141516759	-0.4223295507	 0.145252
H	 0.5120171424	-1.8062277571	 0.5290878875	 0.096166
H	-1.8691881549	-1.8916296123	-0.8584375518	 0.114022
H	-2.1000415615	-2.1732310501	 0.8616420877	 0.113271
H	-3.3089041572	-0.0123329446	-0.3914715098	 0.092473
H	-2.270268462	-0.0021580512	 2.2120572228	 0.282307
H	-1.5191097676	 1.8747071306	 0.6040213759	 0.095978
H	-1.4705686522	 0.5757407387	-2.1891020466	 0.075946
46.144	74.4624	161.0536	187.6437	217.8645	246.1047	312.081	350.2755	404.6245	438.878	483.0965	550.3263	615.9588	769.5169	814.9975	862.4375	874.4458	934.8893	955.4855	1013.3918	1029.0566	1042.1499	1066.6252	1082.5277	1094.6638	1154.8596	1173.5302	1232.8484	1256.5217	1267.1903	1305.8695	1315.9556	1343.9767	1417.4766	1427.496	1436.932	1476.3117	1482.0281	1488.5671	1708.5078	1822.9248	2853.9588	3018.8171	3023.5037	3063.3937	3066.5837	3072.5965	3076.316	3115.9636	3186.6603	3792.8367
CC1=CCC(O)C1C=O	CC1=CC[C@@H](O)[C@@H]1C=O	
InChI=1S/C7H10O2/c1-5-2-3-7(9)6(5)4-8/h2,4,6-7,9H,3H2,1H3	InChI=1S/C7H10O2/c1-5-2-3-7(9)6(5)4-8/h2,4,6-7,9H,3H2,1H3/t6-,7-/m1/s1
