19
gdb 4545	2.5032919	1.3352032	1.1333092	3.0898	77.96	-0.23828	-0.02848	0.2098	1160.9492	0.156436	-422.571797	-422.562997	-422.562053	-422.605485	32.399	
C	 1.0028588094	 1.1237844843	 0.2709085548	-0.41753
C	 0.9721214192	-0.383883965	 0.0086066567	 0.090755
O	 1.4576579373	-1.1494447511	 1.110944772	-0.268742
C	 2.8255942146	-0.9539768296	 1.4191729378	-0.124023
C	 3.7115228578	-0.9065768976	 0.209713655	-0.057244
C	 3.2173600835	-0.8153031025	-1.0231379518	-0.103441
C	 1.7283534965	-0.7778098293	-1.2810675187	-0.112304
C	 1.2894096687	-2.1601252199	-1.7529274895	 0.146284
O	 1.0336222502	-2.4452033235	-2.8937746876	-0.253847
H	 0.533265555	 1.3415829873	 1.2343128615	 0.127346
H	 2.0240996986	 1.5152350642	 0.2812311729	 0.127959
H	 0.4487161184	 1.6534796322	-0.5098881553	 0.123333
H	-0.0747238067	-0.6969963257	-0.0784706568	 0.093799
H	 2.9684113624	-0.036238239	 2.0171784945	 0.106093
H	 3.1065728635	-1.7915402681	 2.0686706148	 0.124376
H	 4.783439271	-0.9177142892	 0.3879528291	 0.101017
H	 3.8702127208	-0.7915346427	-1.8903126909	 0.108039
H	 1.5007258438	-0.0759864727	-2.0901881986	 0.095274
H	 1.2408763161	-2.9112490524	-0.93406658	 0.092857
72.4235	98.5325	185.183	215.4181	239.5121	260.212	344.7912	413.1349	445.6083	487.482	546.2841	621.8212	713.2781	810.9852	845.589	900.8698	931.2567	959.2875	997.9624	1003.4719	1027.3916	1046.8123	1077.3195	1103.8677	1142.7509	1152.6389	1212.0404	1248.8695	1266.5786	1313.6136	1351.7596	1377.8929	1398.588	1405.0905	1409.5167	1415.8261	1484.3467	1489.9215	1504.4012	1714.0244	1827.5456	2895.9262	2948.8185	3039.493	3043.1556	3050.7807	3060.9585	3116.2685	3122.1243	3160.3493	3183.0818
CC1OCC=CC1C=O	C[C@@H]1OCC=C[C@H]1C=O	
InChI=1S/C7H10O2/c1-6-7(5-8)3-2-4-9-6/h2-3,5-7H,4H2,1H3	InChI=1S/C7H10O2/c1-6-7(5-8)3-2-4-9-6/h2-3,5-7H,4H2,1H3/t6-,7-/m0/s1
