19
gdb 2855	3.8025083	1.3127462	1.1542272	1.5569	74.73	-0.23288	0.07853	0.31141	1103.4688	0.157724	-422.522751	-422.51508	-422.514136	-422.554507	30.521	
C	 0.2728378707	 0.084842963	-0.4969199698	-0.401393
C	 0.8635301532	 0.0096139917	 0.9032537071	 0.114046
O	 2.1961086763	-0.5514203153	 0.8666732537	-0.297299
C	 2.9714704278	 0.4531847391	 1.4868191638	 0.134294
C	 2.52200885	 1.8645931608	 1.0067931735	-0.111873
C	 2.8799179514	 2.4165654393	 2.3925780084	 0.11304
O	 2.2039659776	 3.6036600483	 2.7365449762	-0.437627
C	 2.2113195485	 1.0562874969	 2.7042407062	-0.149229
C	 1.152114845	 1.3455731981	 1.5823362127	-0.056328
H	 0.2494394452	-0.9087255103	-0.9535516855	 0.125559
H	-0.7521814176	 0.4690267616	-0.4607760481	 0.112703
H	 0.8677829872	 0.7419470512	-1.1381502615	 0.11959
H	 0.2350448619	-0.6310254824	 1.5383697217	 0.074387
H	 4.0196656202	 0.1608106595	 1.5365775305	 0.083039
H	 2.7025762017	 2.3271745845	 0.0366078535	 0.075833
H	 3.9526313024	 2.4885157256	 2.621036899	 0.062859
H	 2.3563271946	 3.7747786329	 3.6710119161	 0.283946
H	 2.0337554345	 0.5855633062	 3.6726209273	 0.068189
H	 0.3389774893	 2.0431566692	 1.7653358151	 0.086264
158.9601	192.9787	211.4358	259.1152	293.4789	353.8274	473.9356	492.6747	539.0731	698.2851	716.8458	773.181	806.2542	848.5353	871.4731	921.7977	932.2621	943.4328	976.7286	998.861	1039.1301	1056.4564	1091.2469	1113.9311	1121.4636	1131.0461	1136.0403	1151.7175	1182.7825	1201.7699	1215.7728	1258.2222	1281.8289	1308.8705	1317.7048	1365.8053	1389.4276	1407.7908	1442.5637	1486.8544	1495.4488	3000.7718	3001.7903	3037.9173	3099.7111	3108.7539	3114.7361	3119.2453	3135.4929	3160.4162	3820.6454
CC1OC2C3C(O)C2C13	C[C@H]1O[C@H]2[C@@H]3[C@@H](O)[C@H]2[C@H]13	
InChI=1S/C7H10O2/c1-2-3-4-6(8)5(3)7(4)9-2/h2-8H,1H3	InChI=1S/C7H10O2/c1-2-3-4-6(8)5(3)7(4)9-2/h2-8H,1H3/t2-,3-,4+,5-,6-,7+/m1/s1
