19
gdb 2819	2.6245239	1.5394116	1.2848699	0.9546	75.5	-0.22109	0.0665	0.28759	1080.8566	0.155323	-422.497366	-422.488695	-422.487751	-422.530002	33.403	
C	 1.2632585357	-0.5713001623	-1.0549735832	-0.41203
C	 0.9905400929	 0.1879917981	 0.2376758322	 0.008966
C	 1.7282567257	-0.3621460717	 1.4605027398	-0.195221
C	 2.0145358774	 0.8897683022	 2.3553178759	 0.353811
C	 2.1312683067	 0.8875275986	 3.8403784718	-0.513264
O	 1.4212382169	 2.0089343558	 1.6907977928	-0.317696
C	 1.8811543121	 1.4462498516	 0.4354436517	-0.023381
C	 2.9276049059	 0.5311780897	 1.2267675071	 0.263163
O	 4.2459094633	 0.1902224576	 1.0895782706	-0.450353
H	 0.7734023575	-1.5504081432	-1.0488710074	 0.11723
H	 0.8867165567	-0.0162554617	-1.921609499	 0.112201
H	 2.3367713857	-0.7377161983	-1.1968054078	 0.127099
H	-0.0788984089	 0.3929057847	 0.3623041244	 0.071182
H	 1.7127880131	-1.3612711484	 1.8793347444	 0.088754
H	 2.6837340462	 0.0033280969	 4.1717633438	 0.131496
H	 2.6613581356	 1.7783520707	 4.1932282894	 0.12734
H	 1.1435004788	 0.8690039528	 4.3129436484	 0.135368
H	 2.0469852265	 2.1860653073	-0.3466005575	 0.081529
H	 4.787163422	 0.9456618396	 1.3486644826	 0.293805
153.49	171.0596	184.1273	221.1355	240.1742	315.593	327.4982	360.3351	419.6898	494.8365	587.2569	625.8338	661.849	744.4389	776.2144	851.7192	895.3441	908.34	926.1184	959.5382	985.7177	1024.3755	1053.3204	1079.4967	1107.1481	1118.7211	1138.9923	1172.8165	1208.8173	1264.7328	1270.1735	1293.1353	1353.6633	1377.0552	1413.3562	1416.8004	1471.827	1490.262	1496.3373	1501.4168	1517.0625	3027.0913	3033.6883	3042.3317	3093.0963	3096.6848	3100.9642	3114.3305	3131.2915	3192.3605	3777.5257
CC1C2C3(C)OC1C23O	C[C@H]1[C@@H]2[C@]3(C)O[C@H]1[C@]23O	
InChI=1S/C7H10O2/c1-3-4-6(2)7(4,8)5(3)9-6/h3-5,8H,1-2H3	InChI=1S/C7H10O2/c1-3-4-6(2)7(4,8)5(3)9-6/h3-5,8H,1-2H3/t3-,4+,5+,6-,7+/m0/s1
