19
gdb 3604	2.5064548	1.2556116	0.9471901	2.2388	77.6	-0.25224	0.04642	0.29866000000000004	1258.5362	0.156048	-422.544317	-422.535015	-422.534071	-422.578588	35.061	
O	 0.06632764	 3.2109787813	-1.1944362758	-0.432053
C	-1.0182681559	 3.250582243	-0.26869668	 0.092901
C	-2.0909588017	 2.2688166627	-0.7948204524	-0.226574
C	-2.0873052494	 1.0575405599	 0.1570322974	 0.135542
O	-2.2584429287	-0.1391653512	-0.5692381085	-0.442424
C	-0.7256821495	 1.1646249116	 0.8990901243	-0.173055
C	-0.6032784672	 2.6867591953	 1.1066660258	-0.240851
C	-0.6542548544	 0.3400783014	 2.0922544589	 0.269169
C	-0.6383315931	-0.3612005905	 3.0700283655	-0.440348
H	 0.7551200809	 3.8004140548	-0.8697460492	 0.280555
H	-1.402353069	 4.275915684	-0.1835766771	 0.061891
H	-3.0789175198	 2.7296753481	-0.856774786	 0.103909
H	-1.8075200689	 1.9412560596	-1.7976300556	 0.134989
H	-2.8837486624	 1.1665564149	 0.9099644457	 0.070965
H	-2.2494164236	-0.866304811	 0.0633919115	 0.286555
H	 0.0480987325	 0.852664422	 0.1864542214	 0.120607
H	-1.3049514943	 3.0143488789	 1.882770934	 0.107015
H	 0.3984356698	 3.0057408584	 1.4090372625	 0.098654
H	-0.6050840954	-0.9731030233	 3.9371860376	 0.192553
53.6437	103.2664	120.6348	222.0591	315.7744	337.8046	370.3391	392.0839	409.0868	444.7715	504.0608	535.5503	551.7316	621.6536	637.6492	694.0905	806.312	844.2057	924.2418	961.9765	982.5857	1022.8139	1030.3286	1064.4048	1090.6842	1113.2259	1191.8817	1192.4614	1231.3992	1266.3139	1271.6347	1290.7637	1321.1712	1332.7595	1349.0152	1390.681	1421.4442	1435.5288	1476.5489	1486.4235	2230.2389	2971.0786	3003.6893	3036.8017	3046.1893	3076.6769	3093.6452	3126.9618	3503.9431	3799.6687	3810.2078
OC1CC(O)C(C1)C#C	O[C@H]1C[C@@H](O)[C@@H](C1)C#C	
InChI=1S/C7H10O2/c1-2-5-3-6(8)4-7(5)9/h1,5-9H,3-4H2	InChI=1S/C7H10O2/c1-2-5-3-6(8)4-7(5)9/h1,5-9H,3-4H2/t5-,6-,7-/m1/s1
