19
gdb 3076	3.3509285	1.4300498	1.3223797	1.1924	73.95	-0.23977	0.08301	0.32278	1041.5081	0.157414	-422.509195	-422.501494	-422.50055	-422.540686	31.397	
C	 0.0411128399	-0.100603971	-0.0551907468	-0.426797
C	 1.5616070926	-0.0441268692	 0.0063175778	 0.020806
C	 2.1584921469	 1.3239890207	 0.4263443506	 0.056895
O	 1.7839876575	 0.9901201493	 1.8219008175	-0.317718
C	 2.1792752205	-0.3661579364	 1.3911439734	-0.043123
C	 3.7053478982	-0.1773288437	 1.2487869063	 0.450799
O	 4.5045571559	-0.4251567981	 2.3550696319	-0.467082
C	 4.3335585322	-0.1238324024	-0.102992364	-0.354482
C	 3.6832912492	 1.1310121369	 0.4664972678	-0.140446
H	-0.4030493018	 0.3846734647	 0.8160850629	 0.138037
H	-0.3261749617	 0.4005400415	-0.9574383718	 0.113585
H	-0.3064651573	-1.1387204845	-0.0911390413	 0.114164
H	 1.9910930532	-0.5362979673	-0.8677942085	 0.068931
H	 1.7570793029	 2.279815387	 0.0881875857	 0.077358
H	 1.8258178705	-1.1630393554	 2.0468291516	 0.078868
H	 4.1685988105	 0.1247010545	 3.0738075656	 0.287464
H	 5.4189940673	-0.1000033585	-0.0787003535	 0.124584
H	 3.9300213599	-0.6540085037	-0.9574004088	 0.119004
H	 4.3138739036	 1.9665802156	 0.7448441737	 0.099152
188.1319	224.8291	229.0969	267.3908	351.7927	388.5356	421.7977	449.0282	512.6541	611.4855	628.4164	734.8231	793.1958	825.5792	843.8164	860.8711	876.5572	889.5246	946.8992	967.1895	1012.0891	1029.7891	1044.9205	1064.9265	1086.6646	1094.1087	1124.6566	1178.9245	1193.9826	1229.8829	1239.9252	1269.6234	1281.4564	1301.2075	1326.8792	1395.2264	1403.1562	1429.9385	1493.1877	1500.9522	1507.4366	3035.0668	3088.5337	3092.8338	3115.9611	3118.5959	3132.6132	3135.9491	3189.5122	3213.8227	3777.1083
CC1C2OC1C1(O)CC21	C[C@H]1[C@H]2O[C@@H]1[C@@]1(O)C[C@@H]21	
InChI=1S/C7H10O2/c1-3-5-4-2-7(4,8)6(3)9-5/h3-6,8H,2H2,1H3	InChI=1S/C7H10O2/c1-3-5-4-2-7(4,8)6(3)9-5/h3-6,8H,2H2,1H3/t3-,4-,5+,6-,7+/m0/s1
