19
gdb 5389	2.0876001	1.529293	1.0250484	2.615	78.22	-0.23273	-0.02207	0.21066	1206.0662	0.156651	-422.579103	-422.569895	-422.568951	-422.614403	32.78	
O	-1.6139028741	 1.5779044628	-0.8922387864	-0.406717
C	-0.3650321536	 1.1209325972	-0.3697099618	-0.181842
C	-0.4225264743	 0.8133313393	 1.0952949316	 0.27842
C	 0.2688757931	 1.420419443	 2.0628621274	-0.158492
C	-0.0254618195	 0.8742287386	 3.4352938254	-0.251487
C	-0.8625189437	-0.3990737093	 3.1422848741	-0.229699
C	-1.3474657426	-0.2578978709	 1.6800514181	-0.175732
C	-2.8065512549	 0.180926905	 1.5660473013	 0.134726
O	-3.487091696	 0.5187294093	 2.5023801165	-0.24877
H	-1.835742038	 2.3943278548	-0.4310663039	 0.285797
H	-0.1365949083	 0.2153108265	-0.9444784399	 0.115822
H	 0.4382341677	 1.8455903458	-0.5663205828	 0.098873
H	 0.9710632399	 2.2305728967	 1.8903344218	 0.093818
H	 0.8865712863	 0.6532999143	 4.0012191385	 0.106536
H	-0.5868891584	 1.6057427204	 4.0314042389	 0.122087
H	-0.2323636796	-1.2878279501	 3.2322883133	 0.101854
H	-1.7058290667	-0.5084686176	 3.8255700604	 0.125815
H	-1.2616616555	-1.1915890769	 1.1051207945	 0.087485
H	-3.2050672617	 0.187810881	 0.5317193732	 0.101506
44.0853	48.4471	91.4568	192.9483	264.4015	273.4588	308.7011	332.8015	411.9852	522.6642	615.696	679.1844	749.5713	772.0783	816.071	865.6959	921.1762	924.6718	955.7557	999.3957	1026.369	1046.1462	1057.3996	1083.4101	1160.9143	1172.4977	1194.0956	1245.2337	1261.2436	1296.8485	1302.3617	1336.6339	1350.1473	1373.3345	1414.0953	1424.8747	1474.2683	1493.7491	1497.1245	1712.3643	1817.5549	2935.3093	2999.337	3000.9587	3022.2374	3053.1623	3055.8877	3071.853	3128.1309	3178.1649	3804.5951	44.0864	48.4473	91.4567	192.9484	264.4016	273.4589	308.7011	332.8016	411.9855	522.6643	615.696	679.1845	749.5713	772.0784	816.0709	865.6956	921.1761	924.6718	955.7558	999.3956	1026.3693	1046.1461	1057.3995	1083.4104	1160.9146	1172.4975	1194.0958	1245.2337	1261.2438	1296.8485	1302.3615	1336.6341	1350.1475	1373.3348	1414.0958	1424.8754	1474.268	1493.7486	1497.1252	1712.3644	1817.5556	2935.3095	2999.337	3000.9586	3022.2374	3053.1623	3055.8877	3071.853	3128.1309	3178.1648	3804.595
OCC1=CCCC1C=O	OCC1=CCC[C@H]1C=O	
InChI=1S/C7H10O2/c8-4-6-2-1-3-7(6)5-9/h2,5,7-8H,1,3-4H2	InChI=1S/C7H10O2/c8-4-6-2-1-3-7(6)5-9/h2,5,7-8H,1,3-4H2/t7-/m0/s1
