19
gdb 3139	2.330287	1.5540652	1.1858283	2.3527	76.07	-0.24733	-0.03808	0.20925	1110.0007	0.155343	-422.541827	-422.533023	-422.532078	-422.574988	33.526	
C	 1.030109207	-0.4123459047	-0.9582866842	-0.396835
C	 0.8439193889	 0.2576667767	 0.393720596	-0.065523
C	 1.4324761395	 1.6758489151	 0.5259723542	-0.037321
C	 1.2459203529	 2.1813234197	 1.9227103827	-0.314748
C	 2.3681777381	 1.2139766853	 1.6386112119	-0.090288
C	 1.8778747921	-0.24165222	 1.5048997237	 0.308283
O	 2.8748646191	-1.0837734784	 1.0045136811	-0.476004
C	 1.2584192255	-0.8783026734	 2.7261758473	 0.113989
O	 1.5560508102	-1.9952460606	 3.0843392221	-0.281233
H	 0.7297973752	-1.46368169	-0.9238092339	 0.118888
H	 0.4133590313	 0.0924975043	-1.7098403911	 0.110582
H	 2.0734965907	-0.3755528874	-1.2777245216	 0.137579
H	-0.2089554503	 0.1965929858	 0.6986028883	 0.065938
H	 1.6401891166	 2.333898077	-0.3091962395	 0.090121
H	 1.5730428768	 3.1998518541	 2.1062539117	 0.12079
H	 0.3716533757	 1.8955818929	 2.5019635771	 0.107625
H	 3.4081602212	 1.4557373381	 1.8198886892	 0.100592
H	 2.8114856106	-1.8979114859	 1.5304508486	 0.292182
H	 0.5058617189	-0.2810646086	 3.2757073663	 0.095383
85.7713	137.3043	211.4851	238.1454	261.7893	276.1214	340.5797	384.5226	462.1011	481.726	495.3259	539.9243	736.604	779.5943	809.415	824.8351	874.8883	942.9433	947.8008	983.6765	993.9956	1040.1371	1041.4911	1069.4749	1083.6913	1105.9765	1107.6931	1144.36	1196.9038	1222.2054	1267.801	1286.1837	1338.3695	1361.0629	1391.5229	1409.3897	1445.7897	1487.8895	1493.0378	1496.8883	1796.8984	2951.5454	3012.7045	3040.2203	3104.4581	3113.6624	3133.7667	3181.1195	3190.6603	3202.4668	3672.0373
CC1C2CC2C1(O)C=O	C[C@@H]1[C@H]2C[C@H]2[C@@]1(O)C=O	
InChI=1S/C7H10O2/c1-4-5-2-6(5)7(4,9)3-8/h3-6,9H,2H2,1H3	InChI=1S/C7H10O2/c1-4-5-2-6(5)7(4,9)3-8/h3-6,9H,2H2,1H3/t4-,5-,6-,7-/m1/s1
