19
gdb 4066	3.1834417	1.4062903	1.1614844	2.6799	75.28	-0.23999	0.07285	0.31284	1108.7984	0.156421	-422.513111	-422.504881	-422.503937	-422.545506	32.01	
C	 0.294496739	 0.3128432834	 0.1046628487	-0.40948
C	 1.1509236332	-0.8227087069	-0.4193566841	 0.150998
O	 2.5349352609	-0.4096078523	-0.5944162884	-0.313738
C	 3.0041574938	-1.3867562333	 0.3463784422	 0.13115
C	 3.3747581937	-2.7104378981	-0.3041961265	-0.141335
C	 3.1284220536	-3.8338289081	 0.6814306955	-0.36057
C	 1.9607554651	-3.232043123	-0.0495394238	 0.40249
O	 1.1702567212	-3.9533976721	-0.9267483995	-0.46705
C	 1.549406908	-1.9148148462	 0.5985206849	-0.194439
H	 0.6770945043	 0.6830715543	 1.0610824699	 0.117809
H	 0.2916280725	 1.1438758416	-0.6073591652	 0.126826
H	-0.7391093094	-0.0223209757	 0.2472152772	 0.112692
H	 0.7382606855	-1.218448996	-1.3555575683	 0.09117
H	 3.6696912522	-0.9600181837	 1.1022643959	 0.076598
H	 4.0052244049	-2.8280983457	-1.1765093909	 0.103315
H	 3.4210306374	-4.8132011262	 0.3163354689	 0.117823
H	 3.272685781	-3.6867735918	 1.7500883303	 0.104571
H	 0.6700105779	-4.6043419755	-0.4222176654	 0.286302
H	 1.0286912952	-1.9227041347	 1.5588953187	 0.064868
112.9213	171.1595	228.4815	241.3276	259.3499	323.7396	399.5202	415.6884	488.6364	508.6451	593.9136	774.2716	819.296	822.7334	845.346	875.917	903.4083	934.2956	977.7742	993.6459	1015.0707	1038.9407	1072.9567	1077.0899	1084.8699	1110.4414	1127.4368	1172.1158	1191.5893	1230.173	1252.6241	1284.4802	1295.5134	1315.285	1342.2573	1387.255	1396.289	1406.8166	1482.8976	1492.0168	1492.6536	3030.0538	3032.0911	3064.8669	3081.7234	3101.3415	3103.7548	3112.1811	3195.7584	3203.927	3793.473
CC1OC2C3CC3(O)C12	C[C@H]1O[C@@H]2[C@H]3C[C@@]3(O)[C@H]12	
InChI=1S/C7H10O2/c1-3-5-6(9-3)4-2-7(4,5)8/h3-6,8H,2H2,1H3	InChI=1S/C7H10O2/c1-3-5-6(9-3)4-2-7(4,5)8/h3-6,8H,2H2,1H3/t3-,4-,5-,6-,7+/m1/s1
