19
gdb 3841	2.7796556	1.3807508	1.093898	2.3741	75.86	-0.23307	-0.00916	0.22391	1150.4144	0.156603	-422.584123	-422.575521	-422.574577	-422.616987	33.184	
C	-0.5315353567	 2.2615088379	 1.1175406531	-0.401689
C	-0.8793310914	 1.1882943044	 0.0895094521	-0.114337
C	-2.3050815839	 0.5989045044	 0.1821094581	-0.297167
C	-2.1970980053	-0.8458006043	-0.2979366364	 0.41793
O	-3.2078440948	-1.7356936293	 0.0376712521	-0.462152
C	-1.5094234813	-1.0908512449	-1.5828427514	-0.324558
C	-0.7112354701	-1.2419995701	-0.2784177594	-0.228768
C	 0.0423629944	-0.0481733344	 0.1877899958	 0.420655
O	 1.1585521921	-0.0386820504	 0.650532891	-0.342056
H	-0.7021711823	 1.896986639	 2.1359044442	 0.118185
H	 0.524407457	 2.5306080325	 1.037824926	 0.139052
H	-1.1366702824	 3.1612224656	 0.9714935535	 0.111544
H	-0.7309375408	 1.6066487109	-0.9164525358	 0.104378
H	-2.6281932042	 0.5942231952	 1.2323774083	 0.095853
H	-3.0509991124	 1.1667357383	-0.3833555977	 0.111386
H	-3.2834038475	-1.7577819642	 0.9986468435	 0.284733
H	-1.7431412754	-2.0320863312	-2.0669101262	 0.135689
H	-1.2830476043	-0.2726787987	-2.2582550486	 0.122602
H	-0.3629378908	-2.2298885508	-0.0055935821	 0.10872
96.6986	149.9191	191.534	253.3658	293.2853	354.5878	364.3327	399.0327	423.1831	491.9433	530.6905	584.9256	688.1848	690.6584	778.5478	850.1093	900.7518	926.1065	934.503	948.8666	976.1854	1046.0321	1062.9461	1074.7295	1109.4978	1136.2409	1180.3338	1194.3832	1232.4202	1255.7113	1281.8035	1295.6739	1337.4217	1357.2599	1410.714	1427.0242	1481.7184	1493.1864	1496.8629	1507.1269	1821.0904	3004.4671	3016.7576	3040.8441	3074.9739	3106.874	3127.4498	3135.2929	3204.1954	3227.9303	3790.9581
CC1CC2(O)CC2C1=O	C[C@@H]1C[C@@]2(O)C[C@H]2C1=O	
InChI=1S/C7H10O2/c1-4-2-7(9)3-5(7)6(4)8/h4-5,9H,2-3H2,1H3	InChI=1S/C7H10O2/c1-4-2-7(9)3-5(7)6(4)8/h4-5,9H,2-3H2,1H3/t4-,5+,7-/m1/s1
