19
gdb 2554	3.1179413	1.5027147	1.3294991	1.4563	76.38	-0.23631	0.01585	0.25216	1041.684	0.158984	-422.578984	-422.571451	-422.570507	-422.610732	29.651	
C	 0.8404397441	 1.714551897	 1.4374686734	-0.476395
C	-0.2856289207	 0.8374158381	 0.9718798826	 0.317317
C	-1.4094439215	 1.3076536901	 0.4242908381	-0.162787
C	-2.4788616776	 0.3458396429	-0.0373778111	-0.001277
C	-3.2865862776	-0.2159550342	 1.1488694918	-0.079131
O	-2.4080057448	-1.2180070706	 1.6650604809	-0.27992
C	-1.3741799821	-1.4068167652	 0.6954781065	 0.181075
C	-0.1059757158	-0.6591771741	 1.1295923644	-0.310876
O	-1.8666255799	-0.8651356494	-0.5069816182	-0.248257
H	 1.0375017167	 1.5708621967	 2.507530367	 0.126256
H	 1.7735767195	 1.4684134384	 0.9142399073	 0.125667
H	 0.6242119355	 2.7729421546	 1.268678072	 0.121074
H	-1.585081927	 2.3738826565	 0.3134202023	 0.082398
H	-3.0964356212	 0.7481354096	-0.8418903272	 0.088508
H	-3.4914689736	 0.5251366284	 1.9267338531	 0.107863
H	-4.2288157994	-0.6692708054	 0.8137089793	 0.098947
H	-1.2047137668	-2.4784344724	 0.5535875051	 0.086428
H	 0.1094121744	-0.9119201061	 2.1752498467	 0.116032
H	 0.7557103276	-1.003703375	 0.5402503061	 0.107078
125.7706	176.49	208.4528	315.6524	350.2883	383.383	432.7677	481.6428	586.9417	647.1808	773.9453	790.3443	836.423	848.3508	871.806	886.5627	959.5476	977.3869	986.656	1006.3914	1032.1921	1039.5796	1070.7868	1099.6782	1145.4242	1191.6056	1201.1834	1211.3389	1268.682	1317.79	1322.7263	1330.3124	1372.2039	1382.9216	1401.555	1413.684	1460.1262	1477.9435	1489.0969	1516.6387	1728.7081	3009.4446	3014.1719	3016.8867	3054.0641	3063.2485	3070.3733	3087.8132	3106.9659	3110.5765	3166.1749
CC1=CC2COC(C1)O2	CC1=C[C@@H]2CO[C@H](C1)O2	
InChI=1S/C7H10O2/c1-5-2-6-4-8-7(3-5)9-6/h2,6-7H,3-4H2,1H3	InChI=1S/C7H10O2/c1-5-2-6-4-8-7(3-5)9-6/h2,6-7H,3-4H2,1H3/t6-,7+/m1/s1
