19
gdb 3210	3.9817566	1.1272441	1.0981251	0.4582	74.89	-0.21364	0.0749	0.28854	1175.1912	0.15685	-422.522419	-422.514374	-422.51343	-422.554721	31.839	
O	 0.3718683557	-0.0666007681	 0.3700312916	-0.427835
C	-0.7179863206	 0.7000046807	 0.7948747938	 0.036657
C	-1.5853216463	 0.0237445371	 1.8310122279	-0.09783
C	-3.0148819545	 0.5182954009	 1.9798605884	-0.317656
C	-2.8416670373	 2.0338294858	 2.1004285573	 0.442984
C	-3.4349764851	 3.0003106371	 1.1088366645	-0.315768
C	-3.9001745596	 2.9788076205	 2.5570646814	-0.343715
O	-1.5246173403	 2.30008241	 2.5563649666	-0.289855
C	-0.7219212756	 1.1970858308	 2.2222479541	 0.034542
H	 1.1084120737	 0.532129416	 0.2054863361	 0.287805
H	-1.1978607413	 1.3107563635	 0.0296532182	 0.095107
H	-1.3253467374	-0.9889711664	 2.1134373105	 0.102463
H	-3.665799334	 0.2521970839	 1.1416548848	 0.109298
H	-3.4513714256	 0.0988836141	 2.8935327215	 0.111212
H	-2.812189242	 3.8338887858	 0.804053117	 0.119457
H	-4.1032476603	 2.6190493267	 0.3429961756	 0.109394
H	-3.5836386054	 3.7978113261	 3.1930230824	 0.125957
H	-4.8836927546	 2.5805588592	 2.7832299237	 0.114867
H	 0.1702976305	 1.1175096864	 2.8322483144	 0.102915
81.9964	221.6649	256.4818	268.4002	313.7777	345.1229	359.6741	416.158	459.6942	580.4731	697.0687	765.9446	776.4071	852.2893	859.0805	874.9034	899.399	928.9768	941.0343	981.4421	1010.0948	1019.3502	1046.7954	1071.0381	1073.2924	1096.2754	1121.8383	1166.5379	1179.9214	1189.1577	1198.2713	1223.9515	1268.2555	1301.547	1324.4993	1335.0998	1371.1453	1450.6667	1454.0135	1493.5761	1498.8787	3037.6184	3083.3187	3097.6664	3125.0876	3133.2077	3182.7804	3193.9824	3213.4291	3227.9533	3800.1166
OC1C2CC3(CC3)OC12	O[C@H]1[C@@H]2CC3(CC3)O[C@H]12	
InChI=1S/C7H10O2/c8-5-4-3-7(1-2-7)9-6(4)5/h4-6,8H,1-3H2	InChI=1S/C7H10O2/c8-5-4-3-7(1-2-7)9-6(4)5/h4-6,8H,1-3H2/t4-,5-,6-/m0/s1
