19
gdb 3763	3.0940872	0.8291301	0.7344441	3.0959	79.81	-0.24545	-0.0359	0.20955000000000001	1586.9772	0.154051	-422.573065	-422.563147	-422.562202	-422.609769	34.456	
C	-0.2591034292	 4.0383336676	-1.0375378607	-0.412874
C	-0.5350610791	 2.6288142899	-1.5041385711	 0.02774
C	-1.8902481908	 2.0270275441	-1.4065360861	-0.276508
C	-0.7933919708	 1.5268126878	-0.4697998401	-0.136558
C	-0.2158858612	 0.1887327249	-0.7455620156	 0.363551
O	-0.1448844956	-0.2730918744	-1.8681219895	-0.342333
C	 0.33384113	-0.609592344	 0.4379326556	-0.380396
C	 1.7745579936	-1.0315523185	 0.1812077261	 0.162866
O	 2.6441547072	-0.9840028226	 1.00969285	-0.234878
H	 0.7876706273	 4.1650034454	-0.7426557661	 0.127349
H	-0.4712364343	 4.7577138027	-1.8360647869	 0.127856
H	-0.8852907401	 4.3025043379	-0.1790095218	 0.117587
H	 0.058720406	 2.282387222	-2.3452157572	 0.114089
H	-2.6862342177	 2.6066557953	-0.9511488147	 0.118254
H	-2.1952542099	 1.3290706644	-2.177794471	 0.138911
H	-0.844974812	 1.833928683	 0.5684689375	 0.091949
H	 0.2670940153	-0.0913994386	 1.3959696155	 0.126557
H	-0.2581524207	-1.5336148338	 0.4935468185	 0.157468
H	 1.9559577221	-1.3925906831	-0.8518377025	 0.109371
23.9668	50.4342	104.2073	162.9227	173.0541	218.2601	258.9116	324.4132	359.2195	403.1289	471.8256	590.3072	705.6906	762.1798	796.844	831.4458	876.9315	892.0324	954.4449	973.1096	1029.2261	1050.642	1075.7944	1103.5476	1111.1911	1117.1551	1148.2353	1193.0269	1199.933	1236.2787	1284.6871	1354.5716	1405.6675	1412.8032	1432.308	1441.395	1475.7128	1491.3046	1502.0276	1764.9409	1836.9602	2932.8047	3030.7943	3030.9287	3095.792	3100.858	3126.1999	3135.4274	3158.9756	3178.3913	3231.6017
CC1CC1C(=O)CC=O	C[C@@H]1C[C@H]1C(=O)CC=O	
InChI=1S/C7H10O2/c1-5-4-6(5)7(9)2-3-8/h3,5-6H,2,4H2,1H3	InChI=1S/C7H10O2/c1-5-4-6(5)7(9)2-3-8/h3,5-6H,2,4H2,1H3/t5-,6-/m1/s1
