19
gdb 3555	2.0653619	1.579223	1.0525292	3.8702	79.97	-0.2381	-0.05119	0.18691000000000002	1187.9888	0.15671	-422.605247	-422.596343	-422.595398	-422.638755	33.426	
C	 1.0942723	 0.831549104	 0.0953426599	-0.478663
C	-0.2200178452	 0.1073051115	 0.0922138229	 0.309438
C	-0.2978550664	-1.2363689225	 0.085847533	-0.254428
C	-1.5719775957	-1.9798662381	 0.1185755987	 0.363835
O	-1.6034631649	-3.1948520974	 0.0867880336	-0.333488
C	-2.843492786	-1.1423993599	 0.2258686546	-0.329361
C	-2.7001025434	 0.2317747674	-0.4382944078	 0.094881
O	-2.6589181415	 0.1305894888	-1.8560860343	-0.436242
C	-1.4643681646	 0.965124793	 0.1064056259	-0.313062
H	 1.1592442958	 1.5086594418	 0.9566010938	 0.137554
H	 1.9416510197	 0.1432582507	 0.13129133	 0.133932
H	 1.1913573373	 1.4611958675	-0.7980136778	 0.139256
H	 0.5975632533	-1.8515656059	 0.0666743151	 0.098943
H	-3.6737477276	-1.7054275603	-0.2063370583	 0.130437
H	-3.0558387503	-1.0101263251	 1.2962800773	 0.121757
H	-3.5917902682	 0.8326048683	-0.2339590395	 0.092816
H	-1.8917771535	-0.401438508	-2.0966200236	 0.28411
H	-1.3002913725	 1.8720185832	-0.4862946292	 0.118175
H	-1.6516553364	 1.3025723809	 1.1367330655	 0.12011
83.9393	128.9133	151.5791	204.0695	294.7978	326.7375	356.7056	369.4007	452.2349	488.5769	507.6704	531.5473	596.1651	682.896	826.4076	841.4397	862.7889	921.4325	932.5552	950.8634	1028.7776	1034.8335	1065.757	1087.1819	1157.5275	1174.5609	1204.5186	1251.387	1277.7679	1311.2054	1333.8442	1364.9866	1392.9472	1410.2184	1430.3537	1443.7236	1460.3762	1477.2866	1481.0713	1684.4233	1771.9927	3004.5261	3021.319	3021.7437	3062.975	3065.9425	3070.5066	3111.7258	3124.1956	3171.9353	3796.5165
CC1=CC(=O)CC(O)C1	CC1=CC(=O)C[C@H](O)C1	
InChI=1S/C7H10O2/c1-5-2-6(8)4-7(9)3-5/h2,7,9H,3-4H2,1H3	InChI=1S/C7H10O2/c1-5-2-6(8)4-7(9)3-5/h2,7,9H,3-4H2,1H3/t7-/m1/s1
