19
gdb 5499	3.0001118	1.1367279	1.0014743	4.5491	75.85	-0.26789	0.00659	0.27448	1265.735	0.155439	-422.561125	-422.551905	-422.55096	-422.595129	33.544	
C	 1.4243792415	 1.0988199064	 0.1540928033	-0.376036
C	 1.0754221033	-0.3809875608	-0.0461732816	-0.230258
C	 1.6842302653	-0.970620294	-1.30290862	-0.067295
C	 1.9228952855	-2.4349414289	-1.3991586315	 0.022461
O	 2.293448662	-2.7662353736	-2.7670371212	-0.268737
C	 3.4563429347	-2.0136483284	-2.6332035057	 0.433044
O	 4.3464070466	-1.9146614184	-3.4137667406	-0.33047
C	 3.1292830565	-1.5409164639	-1.2359330639	 0.086215
C	 4.1429032865	-1.3057186252	-0.1545865945	-0.499303
H	 0.9318023608	 1.4995208008	 1.0448295773	 0.119091
H	 2.502633572	 1.2439548029	 0.2702104902	 0.125687
H	 1.1008029108	 1.69608669	-0.7046770068	 0.124505
H	 1.3824412834	-0.9616283362	 0.8317009934	 0.102418
H	-0.0138447182	-0.4940537571	-0.1146402448	 0.113623
H	 1.3889546673	-0.4732781265	-2.2251195614	 0.107799
H	 1.5218413985	-3.2303093069	-0.7860450586	 0.12736
H	 4.8027687423	-2.1714688216	-0.0405040386	 0.136445
H	 4.7693288116	-0.4422158771	-0.4011611313	 0.143531
H	 3.6708281297	-1.1129700814	 0.8115146762	 0.12992
98.803	109.8304	144.8675	172.8848	217.2117	253.805	290.6232	314.4813	374.6037	481.0062	558.013	657.9403	682.4523	775.192	792.1438	854.2749	865.8885	909.045	925.3021	982.4337	1028.2109	1057.9296	1063.4324	1104.8361	1116.2218	1132.2623	1148.0713	1228.6006	1248.1793	1290.3244	1331.1043	1385.9392	1414.2666	1418.007	1442.2652	1482.6425	1486.7702	1498.8323	1501.2864	1507.9852	1936.117	3028.2449	3039.5936	3040.9359	3059.453	3100.9886	3108.3729	3114.4331	3122.0482	3125.2584	3217.3174
CCC1C2OC(=O)C12C	CC[C@@H]1[C@H]2OC(=O)[C@@]12C	
InChI=1S/C7H10O2/c1-3-4-5-7(4,2)6(8)9-5/h4-5H,3H2,1-2H3	InChI=1S/C7H10O2/c1-3-4-5-7(4,2)6(8)9-5/h4-5H,3H2,1-2H3/t4-,5-,7+/m1/s1
