19
gdb 1811	3.0840174	1.2045359	1.0357855	1.6278	76.18	-0.2564	0.06618	0.32258000000000003	1201.5969	0.156885	-422.486752	-422.478591	-422.477647	-422.5199	31.382	
O	-1.1594997194	-0.6636565262	-0.0176335744	-0.466718
C	-0.1930418852	 0.0393286479	-0.7099226923	 0.378337
C	-0.2064040829	 0.2011728047	-2.2462759644	-0.255625
C	 1.0529551606	 0.9683418786	-1.7432066988	-0.071744
C	 1.3391724358	-0.2540380813	-0.823545796	-0.300944
C	 0.1420817632	 1.5751939108	-0.627446576	-0.030889
C	 0.7220771178	 2.1906114891	 0.6118721294	 0.025584
C	-0.1089994321	 3.0089166536	 1.5094584006	-0.186866
O	 0.8111077597	 3.6236153415	 0.6113236149	-0.235251
H	-0.9298275931	-0.6643784041	 0.9177830659	 0.284081
H	-0.022901191	-0.7052864397	-2.8278707634	 0.095176
H	-1.0145676152	 0.8034557484	-2.6684224679	 0.096329
H	 1.7736194884	 1.5090887544	-2.3509336535	 0.08918
H	 1.6095419417	-1.1833062694	-1.3313373427	 0.096109
H	 1.962893992	-0.0961964264	 0.0581931605	 0.091876
H	-0.654178009	 2.224814108	-1.0063108202	 0.073059
H	 1.5956868011	 1.7113408062	 1.051961801	 0.092029
H	-1.162674384	 3.157125631	 1.2741986771	 0.114065
H	 0.1436089816	 3.082628243	 2.5668316904	 0.112212
49.8175	136.5693	210.9553	244.8621	306.7988	356.91	378.0827	496.9024	531.8266	591.7884	656.4812	766.0746	805.6732	849.2927	860.4175	907.0989	932.9066	949.2715	955.9397	1000.1278	1022.1269	1036.5542	1086.8705	1104.8653	1111.3666	1129.5216	1153.9691	1161.2392	1165.3576	1187.6268	1198.0835	1219.5312	1229.0943	1281.8788	1297.3858	1341.1929	1369.8375	1466.2526	1503.8733	1528.7222	1548.6714	3053.0208	3058.4241	3065.6572	3077.0305	3112.6949	3127.253	3130.4425	3154.3402	3163.1061	3811.1076
OC12CC(C1)C2C1CO1	O[C@]12C[C@H](C1)[C@@H]2[C@@H]1CO1	
InChI=1S/C7H10O2/c8-7-1-4(2-7)6(7)5-3-9-5/h4-6,8H,1-3H2	InChI=1S/C7H10O2/c8-7-1-4(2-7)6(7)5-3-9-5/h4-6,8H,1-3H2/t4-,5-,6+,7-/m0/s1
