19
gdb 4482	2.8843331	1.8070207	1.3844233	2.3787	74.28	-0.22774	0.07818	0.30591999999999997	980.8496	0.158237	-422.515388	-422.507979	-422.507035	-422.5469	29.488	
C	 1.0224260674	-3.1201467962	-3.1217615893	-0.405452
C	 0.7520550051	-1.781358799	-2.4489914688	 0.126556
O	-0.0965875968	-2.0598702002	-1.3450992063	-0.257197
C	-0.3663811811	-0.9893561393	-0.4589761287	-0.093086
C	 0.8301387129	-0.1172288107	-0.1268888857	-0.080284
C	 2.2655863387	-0.5746275137	-0.0147779503	 0.095019
O	 2.5468767428	-1.7506425885	-0.770873256	-0.291968
C	 2.0344817617	-1.0968495596	-1.9715800744	 0.086427
C	 1.8206001911	 0.2222136594	-1.214085012	-0.187952
H	 1.5858868151	-3.766033367	-2.4429283534	 0.141953
H	 0.0796745213	-3.6144387917	-3.369455221	 0.123363
H	 1.5983215628	-2.9820508115	-4.0419853	 0.108471
H	 0.2528216162	-1.0941018485	-3.1572132657	 0.061564
H	-1.1506621081	-0.3344526443	-0.87947781	 0.085445
H	-0.7768840648	-1.4561300194	 0.4431354073	 0.111922
H	 0.5961666143	 0.7151321216	 0.5336061116	 0.092955
H	 2.9231224085	-0.3413670021	 0.8146889879	 0.105541
H	 2.7985640105	-1.0647925377	-2.7542093249	 0.082032
H	 2.0692575023	 1.2158185884	-1.5610376501	 0.094691
134.6151	196.9986	233.4959	274.986	336.6163	393.9562	478.8527	505.121	663.3403	716.755	730.4704	796.7274	819.3203	837.3996	877.0176	920.2317	951.1622	989.1189	995.6407	1020.8211	1051.2607	1055.0272	1085.5757	1091.2587	1115.3202	1129.9823	1161.2504	1182.7893	1240.5618	1275.8115	1290.9729	1302.9806	1325.3193	1363.6775	1376.8902	1403.4298	1411.1723	1450.1557	1483.8119	1498.671	1503.8483	2931.795	2942.5848	3044.6738	3060.2235	3063.6681	3120.1268	3129.5695	3138.8731	3180.4089	3202.9334
CC1OCC2C3OC1C23	C[C@H]1OC[C@H]2[C@H]3O[C@@H]1[C@@H]23	
InChI=1S/C7H10O2/c1-3-6-5-4(2-8-3)7(5)9-6/h3-7H,2H2,1H3	InChI=1S/C7H10O2/c1-3-6-5-4(2-8-3)7(5)9-6/h3-7H,2H2,1H3/t3-,4-,5-,6+,7-/m1/s1
