19
gdb 1136	2.3834926	1.5517947	1.1185972	3.2555	75.87	-0.2429	-0.01172	0.23118	1136.1975	0.155014	-422.542997	-422.533957	-422.533013	-422.577297	33.036	
C	-0.2599099092	 0.0154438344	-6.9880001535	-0.487322
C	 0.9588629467	 0.0673091933	-6.0911418264	 0.39226
O	 1.6630355158	 1.0469484124	-6.0031940884	-0.30062
C	 1.2696920558	-1.2212679883	-5.3309355863	-0.222568
C	 2.564880893	-1.1652458692	-4.4761578897	-0.233442
C	 3.3379120429	-1.9286529648	-5.5951784271	-0.309538
C	 1.9868372341	-2.2672522042	-6.2201290589	 0.457768
C	 1.4725586155	-3.5537206144	-6.6895405442	-0.266583
O	 1.7389135376	-2.4717294614	-7.5991405242	-0.263333
H	-1.1577171849	-0.2159609483	-6.4036962794	 0.130694
H	-0.3892860397	 0.9684150194	-7.5022718349	 0.138856
H	-0.1259985452	-0.7934159594	-7.7151534212	 0.164765
H	 0.3582090031	-1.5846174292	-4.8460356248	 0.086931
H	 2.9120574584	-0.1543382053	-4.2656313672	 0.131931
H	 2.4801033137	-1.7356017356	-3.549746167	 0.10298
H	 3.912716364	-1.2506962874	-6.2316628979	 0.131625
H	 3.9717640385	-2.7671631085	-5.2990264669	 0.107112
H	 2.1449564183	-4.405998562	-6.7774770176	 0.121924
H	 0.4202126716	-3.8017870215	-6.5558240545	 0.116558
57.3255	73.7761	148.8194	166.2346	246.1935	306.3247	344.2336	373.4012	414.0112	522.9421	599.9311	610.4897	727.008	764.0121	855.5945	882.8942	891.3643	916.7252	935.1364	962.1164	1008.1234	1026.4265	1105.5278	1115.1192	1130.2797	1157.7688	1168.172	1186.5028	1200.8043	1232.046	1247.9644	1278.6892	1330.8328	1378.5897	1420.6779	1466.9665	1468.7221	1477.6048	1486.5696	1532.4508	1807.737	3034.5237	3059.5976	3067.0274	3080.801	3086.8279	3100.5372	3120.519	3152.5375	3153.7087	3169.0242
CC(=O)C1CCC11CO1	CC(=O)[C@@H]1CC[C@]21CO2	
InChI=1S/C7H10O2/c1-5(8)6-2-3-7(6)4-9-7/h6H,2-4H2,1H3	InChI=1S/C7H10O2/c1-5(8)6-2-3-7(6)4-9-7/h6H,2-4H2,1H3/t6-,7+/m0/s1
