19
gdb 4916	1.9001254	1.8097799	1.1375578	1.1171	75.08	-0.25328	-0.03276	0.22052	1129.6899	0.154761	-422.526057	-422.516946	-422.516002	-422.560604	33.05	
C	 1.0591488854	 1.0814153179	 0.1588678859	-0.398292
C	 1.1022020301	-0.4455331447	 0.0145170101	-0.254997
C	 1.893294039	-0.9686116331	-1.194445591	 0.189652
C	 1.6156572491	-2.4479360848	-1.6522272332	-0.325885
C	 1.0875574911	-1.9058852305	-2.9817386078	 0.048024
O	 0.0079909127	-1.0007129169	-2.6898091991	-0.247474
C	 1.3436761685	-0.515710635	-2.5901117266	-0.012945
C	 3.3756990606	-0.6688269501	-1.1021522994	 0.102434
O	 4.2603821036	-1.4111811866	-1.4502562891	-0.250001
H	 0.4143609158	 1.3639824429	 0.9962760338	 0.122724
H	 2.0440344108	 1.5191176932	 0.347566093	 0.120253
H	 0.6509085742	 1.5501306027	-0.7425937293	 0.128029
H	 1.5026156106	-0.9003974751	 0.9296509406	 0.102627
H	 0.0789639947	-0.8167429643	-0.0953666488	 0.125134
H	 2.5486784128	-3.0032835883	-1.7577551779	 0.139751
H	 0.8953237841	-3.0098352835	-1.0536671504	 0.108706
H	 1.0864177889	-2.3691063379	-3.9608210947	 0.111241
H	 1.6077475751	 0.360564141	-3.1713433433	 0.108584
H	 3.6201789031	 0.3364980331	-0.6951984529	 0.082435
43.1246	76.3216	159.1166	203.5185	229.3627	254.8757	294.8116	386.6784	407.1123	471.3266	630.7623	681.0365	772.182	781.654	839.7185	857.2931	869.1855	899.0632	959.4317	992.3407	998.0781	1028.5111	1050.3877	1058.3183	1115.6153	1145.9801	1178.5663	1231.2832	1240.1223	1250.4128	1264.9707	1323.1379	1370.4286	1382.9079	1411.9282	1437.2935	1466.2867	1486.918	1503.2222	1507.5067	1814.6538	2895.2943	3028.7852	3040.8749	3074.4043	3081.1646	3108.051	3112.0829	3144.1317	3178.5369	3199.7999
CCC1(CC2OC12)C=O	CC[C@]1(C[C@H]2O[C@@H]12)C=O	
InChI=1S/C7H10O2/c1-2-7(4-8)3-5-6(7)9-5/h4-6H,2-3H2,1H3	InChI=1S/C7H10O2/c1-2-7(4-8)3-5-6(7)9-5/h4-6H,2-3H2,1H3/t5-,6-,7+/m1/s1
