19
gdb 4284	3.204512	1.6238925	1.4126635	1.6484	73.63	-0.23492	0.08391	0.31883	987.4109	0.159069	-422.552863	-422.545651	-422.544707	-422.584353	28.821	
C	 0.0187817761	-0.1070829877	-0.2661549072	-0.407
C	 1.4600521262	 0.2067176766	 0.1087473947	 0.132357
O	 1.5536586983	 1.6017733588	 0.4462336809	-0.282061
C	 2.4346528242	 1.768952537	 1.5493415889	 0.061314
C	 3.8985434357	 1.7730303491	 1.0887031071	-0.090386
O	 4.223301139	 0.3940845908	 0.8686695021	-0.26194
C	 3.4099727187	-0.373925194	 1.7240334546	 0.079672
C	 1.9560293324	-0.5517638608	 1.3377849924	-0.116774
C	 2.3605792266	 0.472498208	 2.3745246322	-0.135182
H	-0.6438069753	 0.0377725718	 0.592717552	 0.118857
H	-0.3118587179	 0.5554833516	-1.0707170432	 0.125955
H	-0.073955512	-1.1412164778	-0.6132334515	 0.11289
H	 2.1210883413	 0.0088063599	-0.7467304626	 0.086405
H	 2.1470634111	 2.6768347367	 2.0840531095	 0.08565
H	 4.0416888032	 2.3163735274	 0.1518197174	 0.117951
H	 4.5521553926	 2.1989834996	 1.8657316363	 0.090373
H	 3.9398524164	-1.169777034	 2.2362733989	 0.09824
H	 1.4517847009	-1.4681066161	 1.624011401	 0.090154
H	 2.0832840824	 0.4536024831	 3.4197427167	 0.093526
106.9171	198.1292	240.9774	282.2569	359.8743	437.2913	571.2649	619.3376	694.1599	723.807	775.1005	802.3504	815.9602	833.4849	897.0385	920.2351	947.7437	964.3472	998.1306	1023.6952	1039.5319	1061.4277	1086.8093	1095.2669	1112.296	1135.5886	1148.3749	1156.1361	1227.7251	1261.9738	1270.6994	1307.7983	1331.8736	1349.6003	1361.3768	1394.026	1403.3063	1409.9618	1485.9876	1496.8159	1500.3052	2987.1139	3004.1452	3038.4465	3095.6298	3107.8303	3112.0953	3119.177	3165.9133	3175.6674	3202.6372
CC1OC2COC3C1C23	C[C@H]1O[C@@H]2CO[C@@H]3[C@H]1[C@H]23	
InChI=1S/C7H10O2/c1-3-5-6-4(9-3)2-8-7(5)6/h3-7H,2H2,1H3	InChI=1S/C7H10O2/c1-3-5-6-4(9-3)2-8-7(5)6/h3-7H,2H2,1H3/t3-,4-,5-,6+,7-/m1/s1
