19
gdb 5346	3.7074237	1.1417997	1.0598329	1.9477	76.44	-0.2366	-0.00236	0.23424	1188.8821	0.158525	-422.544391	-422.536516	-422.535572	-422.576907	30.682	
O	 1.9144876405	 0.4664085448	-0.1916112049	-0.412173
C	 0.5304663842	 0.7483650728	 0.0126228217	-0.162414
C	-0.3000839474	 0.4489206844	-1.2024372098	 0.287915
C	-1.3222797233	-0.4118063852	-1.2140672458	-0.176895
C	-2.0547970145	-0.5763101274	-2.529694833	 0.052618
C	-1.0280802861	-0.8605954397	-3.6531941846	-0.239307
C	-0.9071357167	 0.6796398428	-3.6102821885	 0.080942
C	 0.0414292357	 1.1598613174	-2.5025986917	-0.295133
O	-2.273367691	 0.7502238705	-3.1051241078	-0.293774
H	 1.9848993111	-0.4736321866	-0.3894956142	 0.280422
H	 0.1327221397	 0.2058029088	 0.8832948882	 0.091226
H	 0.4936960497	 1.8194163308	 0.247027831	 0.114917
H	-1.6267716184	-0.969820157	-0.3333645044	 0.086954
H	-2.9760360145	-1.1583557137	-2.4672786511	 0.07518
H	-0.1560226332	-1.4732832437	-3.4165836451	 0.094348
H	-1.5062183792	-1.1966031945	-4.5747166536	 0.108973
H	-0.7834133245	 1.2295579117	-4.5468507005	 0.076254
H	 1.0892071859	 0.9786669976	-2.7713789209	 0.115405
H	-0.0606510281	 2.2457009761	-2.3717937551	 0.114542
75.1527	129.7906	243.2455	312.1292	323.013	384.4637	402.3427	498.4762	543.4048	570.3372	646.3718	795.2804	830.8169	853.5183	863.7931	878.0388	920.5834	942.3588	962.7075	994.1688	1005.2432	1049.2856	1069.845	1081.5815	1099.6777	1165.6471	1189.7756	1206.149	1218.6598	1247.7914	1305.7031	1315.8252	1325.0258	1352.313	1365.4805	1391.0023	1414.1337	1464.2464	1486.0953	1496.3244	1713.2215	2991.8171	3019.502	3052.3057	3059.912	3069.1568	3079.3421	3096.7327	3136.9199	3169.9109	3806.6613
OCC1=CC2CC(C1)O2	OCC1=C[C@@H]2C[C@H](C1)O2	
InChI=1S/C7H10O2/c8-4-5-1-6-3-7(2-5)9-6/h1,6-8H,2-4H2	InChI=1S/C7H10O2/c8-4-5-1-6-3-7(2-5)9-6/h1,6-8H,2-4H2/t6-,7+/m1/s1
