19
gdb 2291	2.3473347	1.9426068	1.4680321	3.4207	74.65	-0.22582	-0.01603	0.20979	974.2569	0.15788	-422.597721	-422.589899	-422.588955	-422.62963	30.783	
C	-0.252449944	 2.5575857982	-0.3639213891	-0.482757
C	-0.9384706258	 1.2439474145	-0.1040729294	 0.313443
C	-1.9707179591	 0.6739245298	-1.0854797594	-0.282533
C	-2.3405244786	-0.5155777239	-0.1662041935	-0.060439
C	-2.6628424821	 0.2541354307	 1.1212129364	-0.071247
O	-1.6813201645	 1.3066660179	 1.1454165198	-0.312109
C	-0.969742654	-1.1958389673	 0.0384883642	-0.337985
C	-0.0225330914	 0.0177382086	 0.1164817193	 0.41951
O	 1.1588859916	 0.0158360196	 0.3342395515	-0.332379
H	 0.4810671825	 2.7578716234	 0.4212056424	 0.144381
H	 0.2780552566	 2.5267166704	-1.3198702106	 0.123603
H	-0.979727954	 3.3733907653	-0.3874622882	 0.121311
H	-2.7989251501	 1.3638001061	-1.2678705835	 0.109924
H	-1.5325131773	 0.3664950165	-2.0396460841	 0.107129
H	-3.1380306709	-1.1730457525	-0.5124583114	 0.077312
H	-3.670299896	 0.6902048858	 1.106741617	 0.10033
H	-2.5621290747	-0.3588078661	 2.0245339457	 0.105192
H	-0.8974866813	-1.8173649536	 0.9354695284	 0.12891
H	-0.6871611269	-1.8160958935	-0.8195840956	 0.128402
118.4088	179.3073	221.1129	269.3778	312.1873	376.9443	425.6825	499.824	544.7623	595.3535	625.6314	702.343	791.4228	828.9134	867.6183	884.2042	924.5797	940.9191	957.8282	974.8067	1014.9917	1045.7132	1060.9537	1112.9964	1133.5813	1149.165	1183.1949	1222.603	1229.8964	1269.5014	1290.3497	1326.1281	1352.7545	1370.3305	1416.8992	1448.8192	1479.9875	1486.8331	1490.123	1530.9771	1860.7934	3012.7286	3049.0996	3049.8991	3056.7644	3058.8537	3101.4951	3112.8893	3115.8806	3123.391	3129.435
CC12CC(CO1)CC2=O	C[C@]12C[C@H](CO1)CC2=O	
InChI=1S/C7H10O2/c1-7-3-5(4-9-7)2-6(7)8/h5H,2-4H2,1H3	InChI=1S/C7H10O2/c1-7-3-5(4-9-7)2-6(7)8/h5H,2-4H2,1H3/t5-,7-/m1/s1
