19
gdb 5981	3.6499703	1.1107198	0.9528452	0.6638	75.18	-0.23232	0.07583	0.30815	1252.2566	0.156179	-422.464814	-422.456472	-422.455528	-422.498178	31.415	
O	 1.4177608389	 0.8475338214	-0.0709254936	-0.420368
C	 0.0822047867	 0.4595794976	 0.2222415855	-0.081178
C	-0.8233046349	 1.2133914	-0.7494229567	-0.332538
C	-2.2882237945	 0.9188581148	-0.5785943054	 0.325881
C	-3.4950190133	 1.4836881343	-1.3670263048	-0.331355
C	-4.168360962	 0.5360962032	-0.3539318676	-0.095265
C	-2.9880738263	-0.4777801407	-0.41162729	 0.047893
O	-2.7995769016	-0.5351449814	 1.0358063471	-0.329317
C	-3.1216114852	 0.8611379583	 0.7519703818	 0.047888
H	 2.002721309	 0.3808837625	 0.5327839122	 0.28547
H	-0.0564368744	-0.6249136763	 0.1034821556	 0.096715
H	-0.1891677926	 0.7054450956	 1.2592412505	 0.096703
H	-0.6469084268	 2.289384519	-0.625544322	 0.110607
H	-0.5150951357	 0.9678801987	-1.7736069547	 0.110603
H	-3.6970610349	 2.5522408991	-1.2475489388	 0.099343
H	-3.5623046841	 1.2010826296	-2.4217810739	 0.099343
H	-5.2206231079	 0.2991734292	-0.2020711059	 0.084509
H	-2.8773164212	-1.3945128183	-0.991432583	 0.092532
H	-3.1726421992	 1.5664966334	 1.5818528538	 0.092533
83.1322	91.6953	129.2897	265.993	299.6049	319.8173	358.4028	405.4149	551.1628	717.0957	726.1302	778.9651	787.8944	827.6195	859.2241	875.9542	910.2091	920.1188	995.8741	995.9075	1034.4137	1040.8948	1067.1231	1082.359	1097.2167	1143.4825	1151.7202	1168.9755	1173.4457	1209.2367	1240.2951	1241.2089	1264.8694	1292.966	1314.6299	1344.2054	1379.0819	1463.5651	1485.0022	1516.5628	1518.2066	2989.6308	3016.2491	3026.1786	3047.2094	3065.5059	3102.0591	3113.5636	3115.0689	3134.2373	3831.6033
OCCC12CC3C1OC23	OCC[C@@]12C[C@H]3[C@@H]1O[C@@H]23	
InChI=1S/C7H10O2/c8-2-1-7-3-4-5(7)9-6(4)7/h4-6,8H,1-3H2	InChI=1S/C7H10O2/c8-2-1-7-3-4-5(7)9-6(4)7/h4-6,8H,1-3H2/t4-,5-,6+,7+
