19
gdb 1422	2.4463437	1.7379957	1.3005138	1.0753	74.87	-0.22596	0.05748	0.28344	1038.9845	0.153831	-422.470141	-422.461137	-422.460193	-422.502997	34.709	
C	-0.212291192	-0.0309348851	 0.1290044576	-0.471972
C	 1.3046761881	-0.0775266467	-0.0068041258	 0.231325
C	 1.9361720661	-0.7701331545	 1.2020064057	-0.438435
C	 2.115027211	-0.3700409235	-1.2735803907	-0.205442
C	 1.6743060459	 0.367965493	-2.5734801728	 0.012857
O	 0.4962586104	 1.1607174398	-2.3510212506	-0.241557
C	 1.7622229331	 1.6678420451	-1.9192463331	-0.051691
C	 2.2238269505	 0.9827529922	-0.5793350073	 0.285569
O	 3.3381692619	 1.4870182554	 0.0720405769	-0.449184
H	-0.4807795999	 0.4586078644	 1.0734871471	 0.102483
H	-0.6980253487	 0.4907235942	-0.6877722463	 0.153971
H	-0.6063554752	-1.0533551664	 0.1760000265	 0.11021
H	 1.5389352015	-1.7861051167	 1.2987849175	 0.116951
H	 3.0237967205	-0.8249783518	 1.129902752	 0.129215
H	 1.6886986875	-0.2310239752	 2.1238840828	 0.108926
H	 2.8471406051	-1.1678472778	-1.2924689361	 0.095902
H	 1.8816011629	 0.0602358911	-3.5912094723	 0.11115
H	 2.0818670754	 2.6418614026	-2.2721754604	 0.110545
H	 3.037790426	 2.0888814	 0.7630295792	 0.289177
124.0372	167.4366	196.2474	235.5149	269.7874	284.735	315.2894	358.1561	381.4757	402.7732	507.4084	601.2089	627.7664	696.6536	742.1859	816.4148	839.871	905.0669	922.5908	943.2155	958.2163	969.7155	986.1076	1022.7645	1042.0927	1099.7081	1144.5969	1162.6206	1194.3813	1229.5999	1256.5688	1267.3521	1320.3952	1369.1077	1398.4762	1414.0676	1446.6467	1482.5988	1489.5293	1509.2623	1517.5073	3023.2757	3031.8419	3072.4157	3088.8594	3132.9225	3178.0216	3189.6793	3198.3435	3209.9716	3780.1027
CC1(C)C2C3OC3C12O	CC1(C)[C@H]2[C@H]3O[C@H]3[C@@]12O	
InChI=1S/C7H10O2/c1-6(2)4-3-5(9-3)7(4,6)8/h3-5,8H,1-2H3	InChI=1S/C7H10O2/c1-6(2)4-3-5(9-3)7(4,6)8/h3-5,8H,1-2H3/t3-,4-,5-,7-/m1/s1
