19
gdb 1156	3.4681972	1.093074	0.9625727	2.4938	76.11	-0.23851	-0.01372	0.22479	1274.2733	0.15474	-422.540863	-422.531708	-422.530764	-422.575973	33.059	
C	 3.2983373737	-2.9416086712	-0.3441443972	-0.481802
C	 2.9747381433	-2.0824174731	 0.8603928307	 0.382333
O	 3.8233789052	-1.6142670669	 1.5820112599	-0.299017
C	 1.4859872734	-1.7986186267	 1.1056016292	-0.408542
C	 1.0271742797	-0.6569714742	 0.2434030125	 0.421882
C	 1.3775821754	 0.8380245619	 0.3648462345	-0.280202
C	 0.0031076045	 1.1662612097	-0.3191564189	-0.239023
C	-0.2587114356	-0.3427451972	-0.4079556468	-0.049093
O	 0.8255345281	-0.9119194961	-1.1587555251	-0.288796
H	 2.9409519934	-3.9639673465	-0.1697119766	 0.138493
H	 2.7685671878	-2.5690252625	-1.2267650311	 0.167094
H	 4.3750935083	-2.9591008029	-0.5160394336	 0.138386
H	 0.8815248625	-2.6814133802	 0.873196947	 0.11527
H	 1.3629894117	-1.5374898787	 2.160332464	 0.124809
H	 1.426211068	 1.1848452355	 1.3992781389	 0.115262
H	 2.2822580469	 1.1442398033	-0.1642695971	 0.115983
H	-0.6861044823	 1.6846890183	 0.3512613541	 0.10901
H	 0.039336279	 1.6839122375	-1.2802307539	 0.114891
H	-1.199711093	-0.8818815499	-0.4208684504	 0.103065
34.0191	64.6194	116.2784	158.2612	224.4441	285.8561	358.8322	402.7534	480.2041	508.4872	556.6831	707.1752	726.3438	771.39	793.4217	870.9384	883.212	918.9477	930.6963	951.6458	980.4907	1031.0779	1039.162	1071.2497	1124.0276	1161.6471	1203.1671	1210.8618	1220.4444	1244.2253	1261.3817	1302.7955	1306.366	1385.2609	1435.4837	1456.7171	1464.2662	1467.8655	1475.3742	1490.7296	1816.9811	3034.9712	3049.9415	3068.5621	3076.6813	3101.0259	3111.2589	3120.6463	3137.0241	3155.6283	3179.8852
CC(=O)CC12CCC1O2	CC(=O)C[C@]12CC[C@H]1O2	
InChI=1S/C7H10O2/c1-5(8)4-7-3-2-6(7)9-7/h6H,2-4H2,1H3	InChI=1S/C7H10O2/c1-5(8)4-7-3-2-6(7)9-7/h6H,2-4H2,1H3/t6-,7-/m1/s1
