19
gdb 2077	2.4927658	1.4897813	1.0967957	3.042	75.49	-0.24541	-0.02326	0.22215	1139.7537	0.156093	-422.573445	-422.564713	-422.563768	-422.607211	32.219	
C	 0.7102619781	-0.1765013203	-3.2166672536	-0.486775
C	-0.0334469843	-0.481052173	-1.9456651472	 0.384664
O	-0.9628700456	 0.5187953619	-1.4827530823	-0.300409
C	-1.4709608722	-0.7747949674	-1.8491830294	-0.008634
C	-1.7426830195	-1.6761630415	-0.6661600993	-0.24692
C	-0.4708144256	-1.5346747768	 0.2038576597	-0.251645
C	 0.6796079113	-1.179817005	-0.7791089546	-0.124179
C	 1.7208400049	-0.2881280439	-0.1400156123	 0.152783
O	 2.8990792776	-0.5313911098	-0.0815283318	-0.255228
H	 1.1228670474	-1.0925571831	-3.6521368565	 0.128695
H	 0.0442044591	 0.2913752903	-3.9454491258	 0.133114
H	 1.5453681384	 0.5066772532	-3.0288895483	 0.138671
H	-2.1164729756	-0.786320441	-2.7244843743	 0.094663
H	-2.6507036903	-1.4008364408	-0.1212265425	 0.115502
H	-1.8724519776	-2.704461897	-1.0248417724	 0.108852
H	-0.6039435093	-0.714999521	 0.9153124901	 0.122222
H	-0.2474693844	-2.4347935679	 0.7799358059	 0.113841
H	 1.1866242267	-2.0751650338	-1.1543228521	 0.090769
H	 1.3022782409	 0.6528369469	 0.2846793367	 0.090012
55.885	97.9541	187.0399	225.0031	239.5458	283.1539	350.4669	411.053	452.5116	493.313	585.212	667.5375	718.4713	829.0069	851.4137	899.4924	914.6977	927.7049	992.1422	1000.6387	1030.9862	1049.0867	1067.2115	1121.248	1138.4668	1182.5131	1223.8653	1230.6033	1272.6941	1300.1217	1309.4603	1333.0572	1354.8667	1414.7512	1420.4357	1454.7095	1479.8319	1486.6573	1494.6038	1497.7309	1828.0746	2876.3406	3038.6932	3040.0135	3060.7628	3065.6635	3088.3864	3101.4147	3118.1292	3126.9185	3142.6738
CC12OC1CCC2C=O	C[C@@]12O[C@@H]1CC[C@@H]2C=O	
InChI=1S/C7H10O2/c1-7-5(4-8)2-3-6(7)9-7/h4-6H,2-3H2,1H3	InChI=1S/C7H10O2/c1-7-5(4-8)2-3-6(7)9-7/h4-6H,2-3H2,1H3/t5-,6-,7+/m1/s1
