19
gdb 5241	3.4805759	1.4116433	1.3565385	1.6843	73.18	-0.23531	0.09312	0.32843	1042.926	0.158505	-422.556904	-422.549435	-422.54849	-422.588899	29.461	
C	 1.1505180688	-0.4824391861	 0.9473902502	-0.375283
C	 0.9594299462	 0.1869888041	-0.4193618891	-0.305436
C	 1.6638616742	-0.5304329553	-1.528764767	 0.443835
O	 3.0744491109	-0.6690795259	-1.3861413357	-0.289239
C	 3.3292968082	-1.4385633274	-2.5536287834	 0.143857
C	 2.739035612	-0.569195415	-3.6854395782	-0.239261
C	 1.3715542062	-0.465923292	-3.0277316637	-0.229467
C	 1.2377811455	-1.781482067	-2.2613986082	-0.004206
O	 2.4204373384	-2.5319186057	-2.4707368181	-0.252912
H	 0.7493218785	-1.5008844309	 0.9461284329	 0.118576
H	 2.2116845838	-0.543098584	 1.201545169	 0.138447
H	 0.6397217528	 0.0835349503	 1.7318916164	 0.10949
H	-0.1064966923	 0.2390233721	-0.6711782384	 0.102992
H	 1.318147105	 1.2233639693	-0.3822305464	 0.110229
H	 4.359679106	-1.7809380919	-2.590489814	 0.098038
H	 3.2556536476	 0.3884279075	-3.7770880352	 0.111795
H	 2.7289215773	-1.0924398353	-4.6439459368	 0.112757
H	 0.5290959718	 0.0677668207	-3.4445023365	 0.095444
H	 0.3405025692	-2.3627939276	-2.1075619677	 0.110344
86.0299	145.9827	198.8804	300.8812	356.5509	444.0301	574.6825	600.1494	612.3346	731.9596	742.2941	781.8567	832.1342	857.7299	879.4829	893.5188	927.6533	952.6165	973.149	981.6105	1013.3039	1035.1757	1037.0481	1064.5486	1087.0732	1106.9294	1153.064	1175.289	1206.8255	1231.824	1286.0676	1289.5253	1321.3229	1346.5745	1361.7227	1409.3575	1443.8012	1476.9561	1478.1836	1495.6277	1509.4008	3026.8075	3043.0432	3062.2268	3075.2713	3110.3393	3126.3564	3133.247	3177.3157	3217.4819	3231.2942
CCC12OC3CC1C2O3	CC[C@]12O[C@@H]3C[C@H]1[C@H]2O3	
InChI=1S/C7H10O2/c1-2-7-4-3-5(9-7)8-6(4)7/h4-6H,2-3H2,1H3	InChI=1S/C7H10O2/c1-2-7-4-3-5(9-7)8-6(4)7/h4-6H,2-3H2,1H3/t4-,5+,6+,7-/m0/s1
