19
gdb 4469	2.7767528	1.6593701	1.2974656	2.3982	77.3	-0.22174	0.01979	0.24153	1029.7841	0.158462	-422.565032	-422.557045	-422.556101	-422.597553	30.53	
O	-0.263161591	 1.4490786604	-0.0279592705	-0.428203
C	-0.0056130312	 0.0558033612	-0.0173649557	 0.072529
C	 0.5271455396	-0.4511778017	-1.3858428743	-0.242171
C	-0.7242378467	-0.5834452579	-2.3239282832	-0.325311
C	-1.869000858	-0.4729733106	-1.3589644928	 0.34689
C	-3.1011747164	 0.0147969263	-1.3222814468	-0.273075
C	-3.5232559756	 0.172425243	 0.1197820873	-0.105643
O	-2.3698259828	-0.1662645172	 0.9006990218	-0.281989
C	-1.3683979809	-0.6674767335	 0.0454952166	 0.081208
H	 0.579698774	 1.9032459011	-0.1209757844	 0.28188
H	 0.6629410479	-0.2165905956	 0.8107318906	 0.061085
H	 1.2850406394	 0.2278811673	-1.7878114956	 0.094869
H	 1.0103332077	-1.4253926024	-1.2543437218	 0.104713
H	-0.7601065594	 0.2038991719	-3.0812396213	 0.120685
H	-0.7082621859	-1.5395803959	-2.8582489478	 0.112984
H	-3.7120467432	 0.3472534984	-2.1522682807	 0.098582
H	-3.8230472462	 1.2065552305	 0.3430121878	 0.111878
H	-4.3646274941	-0.4804364902	 0.4044625754	 0.098274
H	-1.1657186872	-1.727403195	 0.2832627155	 0.070816
83.7118	132.3906	224.6227	245.425	265.0303	355.474	376.8871	477.8861	610.2868	659.6431	740.2072	775.0456	789.895	826.4178	854.6795	885.8919	932.9372	962.4183	972.5454	999.6841	1023.1042	1040.443	1075.9185	1145.2549	1172.274	1177.095	1187.5626	1195.4039	1215.0101	1261.542	1290.2215	1305.2636	1327.8216	1345.4439	1370.0281	1393.7465	1427.8169	1472.6772	1491.0111	1517.7798	1749.7599	2934.0089	2968.4894	3007.9106	3008.6206	3041.1875	3052.5439	3082.0873	3100.4037	3211.7651	3824.117
OC1CCC2=CCOC12	O[C@@H]1CCC2=CCO[C@H]12	
InChI=1S/C7H10O2/c8-6-2-1-5-3-4-9-7(5)6/h3,6-8H,1-2,4H2	InChI=1S/C7H10O2/c8-6-2-1-5-3-4-9-7(5)6/h3,6-8H,1-2,4H2/t6-,7+/m1/s1
