19
gdb 4424	2.6041021	1.5068683	1.1560053	3.2256	77.48	-0.25038	-0.03299	0.21739	1105.2129	0.156392	-422.54757	-422.539019	-422.538075	-422.580487	32.528	
O	 1.6338636687	-1.6352752034	-3.2179805181	-0.441701
C	 0.448043903	-1.1938331498	-2.6284320031	 0.104365
C	-0.8507808813	-1.8950226472	-3.0943258442	-0.240899
C	-1.3532684876	-1.8892813625	-1.6167179131	-0.318135
C	 0.1035315025	-1.6648312739	-1.2032433565	 0.331742
C	 0.9538554493	-2.582337058	-0.4258127707	-0.322025
C	 0.7111598396	-1.1606980095	 0.1047419901	-0.21106
C	 1.8207145202	-0.196184981	 0.0122105107	 0.144504
O	 2.6272143624	-0.1480736268	-0.8971763526	-0.292287
H	 2.3432171403	-1.1823095583	-2.7389185158	 0.297021
H	 0.3420988899	-0.1007060796	-2.6995966582	 0.068727
H	-1.4591285412	-1.3847608051	-3.8427603766	 0.102106
H	-0.6219681694	-2.9075568421	-3.4345662085	 0.119788
H	-1.9938145379	-1.0298852871	-1.3983552764	 0.108831
H	-1.8384361982	-2.7953326273	-1.2473607695	 0.107617
H	 0.493050593	-3.3869172495	 0.1378290678	 0.121822
H	 1.9503720379	-2.7828725124	-0.8061334718	 0.138
H	 0.0589205411	-1.0523319386	 0.9652447961	 0.093826
H	 1.8928832176	 0.5288955321	 0.8505937904	 0.087758
117.4059	138.9472	171.6217	215.341	239.6787	286.2829	372.7028	401.6813	514.0028	532.361	591.7004	701.6693	727.7716	794.2071	811.7024	873.2045	885.9043	917.2694	929.8203	967.4932	1035.0887	1045.8562	1062.5328	1080.4457	1101.7042	1107.3508	1170.7482	1178.6582	1214.0111	1245.6437	1263.9238	1274.7074	1319.1247	1348.5554	1414.1893	1429.7318	1440.4065	1473.3344	1482.9635	1498.7692	1771.7247	2905.1342	2982.9333	3058.0117	3074.5924	3109.4154	3127.1522	3136.1542	3165.6657	3221.2444	3734.7288
OC1CCC11CC1C=O	O[C@H]1CC[C@]21C[C@H]2C=O	
InChI=1S/C7H10O2/c8-4-5-3-7(5)2-1-6(7)9/h4-6,9H,1-3H2	InChI=1S/C7H10O2/c8-4-5-3-7(5)2-1-6(7)9/h4-6,9H,1-3H2/t5-,6-,7-/m0/s1
