19
gdb 2422	3.3621197	1.5539725	1.3569441	2.156	74.58	-0.21116	0.0812	0.29235999999999995	1020.5708	0.155975	-422.523709	-422.51564	-422.514696	-422.555584	31.784	
C	 5.223856356	-0.4485436915	-0.6350282288	-0.482252
C	 3.8058138535	-0.2123510267	-0.2100012184	 0.441864
O	 3.6017980739	 1.0373666724	 0.421379424	-0.304297
C	 2.2260194289	 1.3902444239	 0.2602088904	-0.099827
C	 1.5418931491	 0.087554665	-0.145383044	 0.38354
C	 0.0924616644	 0.1313675172	-0.5467896309	-0.489794
O	 1.7938331449	-0.8463258826	 0.9676118983	-0.334583
C	 2.9205971299	-1.3567844499	 0.2623138177	 0.018462
C	 2.6081949465	-0.6227399398	-1.021130631	-0.301878
H	 5.8974106352	-0.3609651227	 0.2230690659	 0.135792
H	 5.3379876858	-1.4509140478	-1.0584022965	 0.120806
H	 5.5330987969	 0.2827723534	-1.3885712953	 0.127129
H	 1.841119946	 1.7662082445	 1.2133250073	 0.114451
H	 2.1135092229	 2.1686816201	-0.5109306609	 0.08729
H	-0.5191556857	 0.513712835	 0.276823083	 0.132684
H	-0.0491441911	 0.7840709372	-1.4145074362	 0.122676
H	-0.2634317113	-0.8703163134	-0.7997863746	 0.134453
H	 3.2428559877	-2.3715827553	 0.4714560254	 0.099977
H	 2.5493745565	-0.906252719	-2.0642584656	 0.093507
190.463	204.1137	212.4285	228.4158	248.9082	324.9245	371.934	419.0017	533.0221	586.8076	626.1759	709.5903	746.9083	829.2372	832.0133	838.511	882.153	916.2839	934.1785	984.802	1027.2394	1034.9087	1058.2761	1072.2637	1107.0365	1141.5789	1159.5957	1187.2106	1224.8409	1244.7529	1278.488	1290.7354	1388.1828	1405.246	1412.0316	1428.8992	1477.3035	1480.3422	1492.3978	1500.3268	1504.5834	2979.8201	3037.4385	3039.5421	3079.7559	3105.2275	3108.5166	3114.1847	3124.2515	3164.9626	3189.7193
CC12OCC3(C)OC1C23	C[C@]12OC[C@]3(C)O[C@H]1[C@H]23	
InChI=1S/C7H10O2/c1-6-3-8-7(2)4(6)5(7)9-6/h4-5H,3H2,1-2H3	InChI=1S/C7H10O2/c1-6-3-8-7(2)4(6)5(7)9-6/h4-5H,3H2,1-2H3/t4-,5-,6-,7+/m0/s1
