19
gdb 1095	3.2242993	1.3162632	1.0836008	2.1411	75.62	-0.24487	-0.02201	0.22286	1162.3282	0.156394	-422.580218	-422.571547	-422.570603	-422.613779	32.162	
C	 4.9701647254	-1.5651841006	-1.3420340122	-0.483207
C	 3.5939657054	-1.9053422237	-1.8741614576	 0.293521
O	 2.9121443245	-2.7941826569	-1.411419468	-0.305583
C	 3.0695003611	-1.0780623737	-3.0118540374	 0.314244
C	 1.5838115168	-1.0312024431	-3.3173579169	-0.281557
C	 1.5043990271	-0.3725410104	-4.7144580411	-0.225001
C	 2.8327157619	-0.7387140967	-5.4188695618	-0.240793
C	 3.8193721721	-0.8924290367	-4.2792231821	-0.00256
O	 3.767525044	 0.149113022	-3.3069684651	-0.292027
H	 5.2507591977	-2.2944971409	-0.5816075878	 0.138431
H	 5.7162542706	-1.5496384161	-2.1425565324	 0.139635
H	 4.9598732686	-0.5582860233	-0.9122026092	 0.155687
H	 1.2089615399	-2.0592066629	-3.3192664552	 0.128473
H	 1.0199038329	-0.4812774779	-2.5584660391	 0.113041
H	 0.6284733878	-0.6972229743	-5.2803260852	 0.104287
H	 1.4411629778	 0.712056497	-4.6036228313	 0.121144
H	 2.7608219866	-1.6980816846	-5.945741059	 0.110963
H	 3.149294838	 0.0132140791	-6.1483208567	 0.114262
H	 4.8026358517	-1.3272476263	-4.445013692	 0.097041
66.1602	120.8265	149.5528	188.1047	223.9352	335.6269	349.8754	433.4651	493.0509	583.2457	610.8582	657.6248	687.9449	812.5104	859.641	888.9418	893.4591	918.255	946.4844	972.4548	998.9502	1039.8129	1045.829	1110.4828	1124.6796	1169.3831	1207.7991	1248.1215	1276.9193	1300.1788	1325.2664	1341.1371	1348.9529	1387.187	1424.4146	1455.475	1470.7994	1478.2751	1484.8333	1500.2774	1794.5252	3038.7909	3047.8222	3061.8216	3074.1291	3086.7691	3100.8258	3109.2251	3123.1563	3141.1595	3157.2053
CC(=O)C12CCCC1O2	CC(=O)[C@]12CCC[C@H]1O2	
InChI=1S/C7H10O2/c1-5(8)7-4-2-3-6(7)9-7/h6H,2-4H2,1H3	InChI=1S/C7H10O2/c1-5(8)7-4-2-3-6(7)9-7/h6H,2-4H2,1H3/t6-,7-/m1/s1
