19
gdb 1410	3.231518	1.4698309	1.3012562	2.1571	74.57	-0.23991	0.0568	0.29671000000000003	1031.0828	0.156506	-422.485635	-422.477662	-422.476718	-422.517443	31.905	
C	-0.1445408989	-0.0279775216	 0.2051253099	-0.494444
C	 1.3519249945	 0.0109116482	-0.0301036597	 0.398917
O	 2.0573963583	-0.5453441754	 1.0673707837	-0.465067
C	 2.1462807707	-0.2186550538	-1.2996931201	-0.148791
C	 2.1646959247	 1.1535408209	-0.5518489997	-0.117461
C	 1.6330178281	 1.8158127346	-1.8403343894	 0.101253
O	 0.1974100248	 1.9345254473	-2.0478960238	-0.300801
C	 0.1800059535	 0.7336085905	-2.8704626096	-0.116423
C	 1.6745253823	 0.479053356	-2.5933911192	-0.086191
H	-0.3290886463	 0.2929130802	 1.2353361883	 0.123725
H	-0.6893965885	 0.6393334381	-0.45723621	 0.162207
H	-0.5312856322	-1.0493895094	 0.0976945692	 0.100184
H	 1.7899668073	-1.4682522402	 1.1411930548	 0.280315
H	 2.9138939219	-0.9835577709	-1.2827978314	 0.08961
H	 2.9442734478	 1.5761228298	 0.0712457876	 0.094868
H	 2.1714342911	 2.7124892124	-2.1566273872	 0.086477
H	-0.5438112532	-0.0082957806	-2.5177247461	 0.10434
H	-0.0401604508	 0.9853554606	-3.914857589	 0.10456
H	 2.3310681549	 0.3218211233	-3.4480643585	 0.082722
170.767	190.918	240.4835	270.6507	288.7218	329.6563	400.5458	426.9549	483.237	583.3019	666.0516	695.2103	766.0197	809.3131	864.5846	868.8688	904.3519	934.5617	952.095	979.7443	985.0736	1000.2196	1021.5658	1062.4712	1076.1186	1101.684	1136.1141	1163.7137	1197.3341	1220.481	1251.0758	1265.2863	1295.0779	1302.6899	1331.212	1351.2471	1406.0715	1446.6948	1489.6263	1508.45	1522.5288	3023.1725	3026.3827	3073.7748	3078.5223	3091.2858	3119.8838	3175.569	3183.577	3185.2702	3797.9037
CC1(O)C2C1C1OCC21	C[C@@]1(O)[C@@H]2[C@H]1[C@@H]1OC[C@H]21	
InChI=1S/C7H10O2/c1-7(8)4-3-2-9-6(3)5(4)7/h3-6,8H,2H2,1H3	InChI=1S/C7H10O2/c1-7(8)4-3-2-9-6(3)5(4)7/h3-6,8H,2H2,1H3/t3-,4+,5+,6-,7-/m1/s1
