19
gdb 5803	2.8627779	1.4492719	1.1356314	2.0784	78.11	-0.23565	0.00637	0.24201999999999999	1130.2513	0.156813	-422.499627	-422.491282	-422.490338	-422.532777	30.94	
C	-0.188279599	 1.2990752349	-0.0056415963	-0.234158
O	 0.1626263452	-0.0636260561	 0.0468939589	-0.22659
C	 0.7448194092	-0.5549399978	-1.1359122391	 0.06356
C	-0.3413811994	-0.9592561082	-2.2038313105	-0.281225
C	-0.7345623613	-2.3743165802	-1.7784610466	-0.198167
C	 0.2735907427	-2.8961655856	-1.0927498069	 0.201004
C	 0.697402001	-3.6315348495	 0.1537073668	-0.155986
O	 1.5367999878	-2.4849020044	 0.4984981794	-0.2977
C	 1.3867298779	-1.9358236159	-0.8462130191	 0.104446
H	 0.685110884	 1.933909854	-0.2230116222	 0.105668
H	-0.9609345378	 1.5107147095	-0.760403161	 0.102876
H	-0.5829144955	 1.5658442285	 0.9776912747	 0.130448
H	 1.4628385077	 0.1765717364	-1.5373752839	 0.05668
H	-1.1935917024	-0.2723884895	-2.1793460729	 0.111892
H	 0.0723814165	-0.9104816189	-3.2202020402	 0.108338
H	-1.7264637638	-2.7849026747	-1.9231079046	 0.100314
H	-0.0783383128	-3.8276368638	 0.9014536529	 0.123791
H	 1.3069394044	-4.5329618554	 0.0078867303	 0.107466
H	 2.3194545458	-2.0653298334	-1.4129017698	 0.077342
86.9055	109.9993	165.8612	208.99	258.5327	318.0798	349.2291	397.3927	504.4846	671.2178	740.8128	762.3979	831.4921	840.3798	873.5284	914.8225	923.1464	965.1811	970.8247	1008.2891	1039.6059	1070.2798	1110.6075	1137.1568	1142.9401	1181.0542	1187.6684	1226.0158	1232.6757	1239.0058	1286.9455	1317.6768	1341.943	1356.7741	1389.8825	1469.2438	1480.8307	1491.0551	1507.9388	1509.3402	1748.6043	2972.0043	2982.2841	3003.7705	3013.9746	3018.4448	3022.0139	3073.3637	3078.009	3114.9978	3205.1119
COC1CC=C2COC12	CO[C@@H]1C[CH][C]2CO[C@H]12	
InChI=1S/C7H10O2/c1-8-6-3-2-5-4-9-7(5)6/h2,6-7H,3-4H2,1H3	InChI=1S/C7H10O2/c1-8-6-3-2-5-4-9-7(5)6/h2,6-7H,3-4H2,1H3/t6-,7+/m1/s1
