19
gdb 3489	2.9725619	1.4894957	1.1754126	2.1889	75.72	-0.24499	0.00795	0.25294	1076.0567	0.159571	-422.57514	-422.567459	-422.566515	-422.607798	29.75	
O	 0.5871069778	 0.5814556909	 0.3932876608	-0.434627
C	-0.7931977359	 0.6891567353	 0.7387037426	 0.092576
C	-1.2039995976	 2.1066731905	 1.0440090254	-0.114573
C	-2.1599755542	 2.5462997767	 0.2283701678	-0.071179
C	-2.6463209512	 1.4961726714	-0.7368069119	-0.087509
C	-4.0833297479	 0.992943633	-0.4390337414	-0.087715
O	-3.9317381485	-0.0882927997	 0.4618842702	-0.239257
C	-2.7996773139	-0.8111732666	-0.0007833473	-0.098866
C	-1.7594160845	 0.2497012058	-0.4042131728	-0.066422
H	 0.7739205778	 1.2743308621	-0.250220128	 0.273094
H	-0.8984261448	 0.0354570253	 1.6124459615	 0.091733
H	-0.7230320923	 2.679494304	 1.8293415123	 0.100116
H	-2.5905436456	 3.5428477272	 0.2510415181	 0.098758
H	-2.5719180131	 1.832494258	-1.7765679506	 0.076916
H	-4.7231838517	 1.7427574262	 0.0338379405	 0.108081
H	-4.5676237508	 0.6573369127	-1.3713382372	 0.084324
H	-2.4695785594	-1.472413507	 0.8047351442	 0.110876
H	-3.0712162528	-1.4331175599	-0.870152667	 0.085073
H	-1.1589946314	-0.0896459059	-1.250987167	 0.078602
43.3375	172.0571	219.7998	319.1601	352.8702	356.1649	409.0786	527.9838	602.8284	700.4207	749.819	783.0892	833.8056	850.7404	871.5557	925.8124	954.7677	983.5587	991.1264	1010.7467	1020.0969	1049.9363	1086.6522	1115.3199	1123.3877	1137.1041	1196.8987	1213.9313	1246.0725	1275.7257	1285.5167	1297.1753	1314.7912	1334.9466	1349.8183	1374.8067	1406.111	1427.3104	1504.6608	1519.3553	1685.6243	2959.9383	2965.8466	3041.8714	3045.4559	3088.3949	3090.4817	3092.2148	3173.5517	3203.9273	3795.7217
OC1C=CC2COCC12	O[C@H]1C=C[C@@H]2COC[C@H]12	
InChI=1S/C7H10O2/c8-7-2-1-5-3-9-4-6(5)7/h1-2,5-8H,3-4H2	InChI=1S/C7H10O2/c8-7-2-1-5-3-9-4-6(5)7/h1-2,5-8H,3-4H2/t5-,6+,7+/m1/s1
