19
gdb 4346	2.6886262	1.3042425	0.9436672	4.7659	76.31	-0.23164	-0.06889	0.16275	1251.7999	0.156488	-422.604523	-422.595655	-422.594711	-422.638428	32.734	
C	-2.82749511	 2.5308727801	 0.9815486128	-0.404363
C	-1.9205612196	 1.2984813844	 1.0514445366	 0.019842
C	-2.7290002554	-0.0055643858	 1.1301859807	-0.207442
C	-1.8245457386	-1.243469757	 1.2684009931	-0.326812
C	-0.7672330599	-1.3186925909	 0.1807952037	 0.316451
O	-0.4600136275	-2.3293168664	-0.3990831214	-0.28039
C	-0.061389847	 0.0259368585	-0.1516968649	 0.298777
O	 1.119929301	 0.0507281051	-0.3892086742	-0.278808
C	-0.9577930282	 1.2509456867	-0.1544904085	-0.309824
H	-3.4839751682	 2.5865271114	 1.8557467757	 0.118539
H	-2.2405195402	 3.4538258854	 0.9425993195	 0.121589
H	-3.4613865394	 2.5007434157	 0.0876703364	 0.119066
H	-1.3117889053	 1.373303258	 1.9644564753	 0.085525
H	-3.4205795451	 0.0330702385	 1.9785947954	 0.108502
H	-3.3494077962	-0.1008554481	 0.2285601576	 0.107857
H	-1.2851615814	-1.1845897585	 2.2262765497	 0.131526
H	-2.3886841737	-2.1798869794	 1.2718804935	 0.128218
H	-0.3272627935	 2.1422990921	-0.220387735	 0.125129
H	-1.5586937318	 1.2062485604	-1.0768770059	 0.126617
52.9036	98.8458	202.4531	233.8565	267.8423	299.8135	336.0248	378.9288	400.7853	450.0284	531.5029	646.8618	659.9683	720.2271	803.7389	869.2004	889.5618	939.0331	964.927	1012.6518	1041.274	1090.5113	1101.9832	1132.0593	1141.0077	1213.1883	1264.2618	1268.4576	1294.8031	1325.0276	1342.5612	1365.8863	1388.7504	1416.4002	1456.6031	1459.7234	1494.731	1498.0191	1500.4891	1815.0736	1823.449	2990.2551	3002.8178	3003.3875	3021.6844	3030.5472	3070.8752	3091.327	3098.0834	3099.1067	3106.3828
CC1CCC(=O)C(=O)C1	C[C@H]1CCC(=O)C(=O)C1	
InChI=1S/C7H10O2/c1-5-2-3-6(8)7(9)4-5/h5H,2-4H2,1H3	InChI=1S/C7H10O2/c1-5-2-3-6(8)7(9)4-5/h5H,2-4H2,1H3/t5-/m0/s1
