19
gdb 1112	3.0149963	1.1237767	1.0711264	3.6776	77.55	-0.22925	-0.00444	0.22481	1230.8267	0.155154	-422.536769	-422.527668	-422.526724	-422.571224	33.071	
C	-0.714559886	-3.7401804682	 1.1356306773	-0.508837
C	-1.4715809842	-3.7484506247	-0.178772158	 0.399936
O	-1.6334890854	-4.7705136887	-0.81263856	-0.32177
C	-2.0395855706	-2.4647642764	-0.6998139031	-0.195391
C	-1.4655144743	-1.0816308598	-0.3549816284	-0.380015
C	-2.7863814763	-1.4717998755	 0.1776143781	 0.444898
C	-4.1848708532	-0.9089054481	-0.0523949652	-0.350533
C	-4.3943804822	-1.2575749224	 1.4366782734	-0.073412
O	-3.0142224713	-1.6842081216	 1.5688964397	-0.296442
H	-1.3121766445	-3.2654290845	 1.9190996025	 0.166438
H	-0.4715761584	-4.7678962741	 1.4074596289	 0.136529
H	 0.2152422584	-3.1679076307	 1.039074722	 0.133753
H	-2.445581442	-2.585087201	-1.6995161336	 0.106005
H	-0.6439883794	-1.0502742711	 0.352711363	 0.133269
H	-1.4060500055	-0.3510321153	-1.1550871277	 0.126257
H	-4.213476198	 0.1581555773	-0.2818552069	 0.121415
H	-4.8051108604	-1.454355828	-0.7648657163	 0.126137
H	-4.6181691117	-0.4210545255	 2.1056204684	 0.115026
H	-5.089774585	-2.0806096517	 1.6331010158	 0.116738
57.3211	84.9637	140.2924	160.3756	180.4297	288.4659	342.4378	400.7951	495.6571	516.107	537.4412	643.7992	735.8694	781.4549	838.2183	868.6905	890.3605	903.8486	958.0178	987.4849	1009.2202	1028.88	1057.466	1060.7955	1110.8763	1115.5726	1164.1269	1200.0603	1213.2918	1248.0467	1258.8881	1297.0173	1353.7633	1384.3523	1405.4613	1469.6489	1478.4146	1482.7803	1489.3004	1530.5921	1783.8977	3038.391	3040.8261	3077.8383	3087.4202	3110.1917	3130.9837	3135.2711	3155.7238	3161.2483	3221.2976
CC(=O)C1CC11CCO1	CC(=O)[C@@H]1C[C@]21CCO2	
InChI=1S/C7H10O2/c1-5(8)6-4-7(6)2-3-9-7/h6H,2-4H2,1H3	InChI=1S/C7H10O2/c1-5(8)6-4-7(6)2-3-9-7/h6H,2-4H2,1H3/t6-,7-/m0/s1
