19
gdb 828	4.3464969	0.7807969	0.698295	3.0364	78.86	-0.257	-0.03667	0.22033	1601.6789	0.155666	-422.529516	-422.520622	-422.519677	-422.564188	31.901	
O	 0.9581482937	-0.8724331244	 0.4968821654	-0.248943
C	 0.2235193435	-0.017031259	 0.0741344731	 0.148495
C	-0.843314521	 0.6415007129	 0.8818355006	-0.060639
O	-1.2211199756	 1.9505471775	 0.4371243636	-0.245562
C	-2.162204537	 0.900501858	 0.2530381846	 0.047508
C	-3.4260762362	 0.9339659481	 1.0603318444	 0.021805
C	-4.312441086	-0.3458600306	 1.0899643002	-0.23623
C	-5.5656580363	 0.5669541749	 1.0048480211	-0.210137
C	-4.6507484801	 1.7102832413	 0.4899199352	-0.23154
H	 0.2767048889	 0.3558171988	-0.9737023443	 0.087182
H	-0.7879159949	 0.4951863816	 1.9590801696	 0.115612
H	-2.2841968644	 0.6005683496	-0.7913602736	 0.095777
H	-3.194668929	 1.2740117355	 2.0741587979	 0.082396
H	-4.1840455061	-0.9395029417	 0.1786918007	 0.104475
H	-4.2103616956	-1.0095778103	 1.9512196138	 0.1065
H	-6.3843651931	 0.2430318105	 0.3590726	 0.102504
H	-5.9722461632	 0.7880569728	 1.9955652963	 0.108309
H	-4.623011711	 1.7443279301	-0.6041608687	 0.103751
H	-4.8224304067	 2.7214279745	 0.8641486901	 0.108737
51.3115	96.188	114.1635	144.2357	222.6655	299.2804	330.9126	385.1175	479.539	526.7462	646.471	776.5464	785.9331	869.8751	882.4346	903.5132	935.1059	951.7063	977.5807	1011.3321	1027.8303	1078.9683	1100.8272	1118.1008	1158.5763	1190.4426	1206.1189	1238.2208	1239.3876	1255.5698	1258.9909	1276.3603	1285.6254	1315.1935	1341.4461	1409.8263	1471.228	1478.1902	1487.6537	1510.5459	1827.7028	2884.9344	3049.7831	3053.1555	3062.2137	3063.8289	3078.4337	3105.2374	3111.4219	3124.7159	3140.7999
O=CC1OC1C1CCC1	O=C[C@H]1O[C@@H]1C1CCC1	
InChI=1S/C7H10O2/c8-4-6-7(9-6)5-2-1-3-5/h4-7H,1-3H2	InChI=1S/C7H10O2/c8-4-6-7(9-6)5-2-1-3-5/h4-7H,1-3H2/t6-,7-/m1/s1
