19
gdb 2751	1.979779	1.7239678	1.208492	4.6491	76.56	-0.23279	-0.00196	0.23083	1115.9552	0.154886	-422.553317	-422.543961	-422.543017	-422.58697	34.797	
C	-0.6096428193	-1.9283537255	-1.3406247177	-0.415069
C	-0.8148097624	-1.0460362716	-0.1123092943	-0.167823
C	 0.182459966	 0.1379303704	-0.0724014041	 0.456668
O	 1.3658067586	 0.1909330995	-0.2610156751	-0.338175
C	-0.8865792122	 1.1842879148	-0.0302300202	-0.275069
C	-1.886621507	 0.8542659264	 1.0452695948	 0.054549
O	-1.4188988366	 0.3964687853	 2.2822559552	-0.413267
C	-1.945916842	 0.012114765	-0.181135973	 0.261924
C	-3.1401507348	-0.0553896056	-1.0891749219	-0.495642
H	-1.413835849	-2.6639464746	-1.4428983294	 0.115115
H	-0.5683138851	-1.3377827725	-2.2617325571	 0.121135
H	 0.338023694	-2.4663713846	-1.2525120947	 0.139432
H	-0.8358165288	-1.650029856	 0.7995702041	 0.087233
H	-0.8318452196	 2.171892883	-0.4740228068	 0.1058
H	-2.6803718594	 1.6008809354	 1.1173601447	 0.09374
H	-2.1270141134	-0.1027667168	 2.7039062209	 0.288539
H	-3.8209053402	-0.8584926559	-0.7811651055	 0.125471
H	-3.7038795848	 0.8826478692	-1.0674160786	 0.123759
H	-2.8517663841	-0.248394866	-2.1270892815	 0.13168
83.6455	171.7749	189.6512	209.4712	228.2209	244.9341	270.8075	299.768	366.4605	445.5264	480.0564	556.5119	618.6728	654.184	704.4476	778.5631	816.0863	903.97	935.2494	977.6878	1008.5554	1045.889	1055.336	1094.2593	1115.7169	1129.3154	1152.4709	1230.6247	1240.5856	1262.5395	1293.9445	1337.3883	1339.9546	1406.3243	1419.8788	1464.1997	1484.159	1492.1168	1500.0791	1501.3808	1876.1979	3025.7049	3036.7963	3062.7987	3082.4568	3087.4086	3103.4461	3105.5849	3118.9057	3183.4086	3801.1582
CC1C(=O)C2C(O)C12C	C[C@H]1C(=O)[C@@H]2[C@H](O)[C@]12C	
InChI=1S/C7H10O2/c1-3-5(8)4-6(9)7(3,4)2/h3-4,6,9H,1-2H3	InChI=1S/C7H10O2/c1-3-5(8)4-6(9)7(3,4)2/h3-4,6,9H,1-2H3/t3-,4+,6-,7+/m0/s1
