19
gdb 2811	3.3128105	1.4319307	1.4123526	0.9078	73.43	-0.24258	0.08011	0.32269	1002.0637	0.159726	-422.543893	-422.536926	-422.535982	-422.57477	29.109	
O	 0.220617317	-0.2654635335	 0.5166786969	-0.444686
C	-0.7262289318	 0.6475081858	 0.9956080168	 0.074509
C	-1.6288895095	 0.0784383501	 2.0543049952	-0.067962
C	-0.5766896486	 1.127988446	 2.4183026302	-0.091766
C	-1.4527775574	 2.3089984598	 2.8771732156	 0.078509
C	-2.5557071789	 1.5819729284	 3.6665918726	-0.218574
C	-2.9692069951	 0.7600295217	 2.4147487713	-0.066138
C	-3.2418644953	 1.930256915	 1.4619619177	-0.092413
O	-2.1766233975	 2.8597116222	 1.7577247783	-0.283273
H	 1.0069656922	 0.2314941886	 0.2673854811	 0.285461
H	-1.1106638602	 1.3430606672	 0.2550298137	 0.106501
H	-1.4855509666	-0.9676001212	 2.29862176	 0.095624
H	 0.3259818126	 0.8765569059	 2.9648697936	 0.084182
H	-0.920710971	 3.1235851023	 3.3687443546	 0.07498
H	-2.1661003845	 0.9613033222	 4.4764447792	 0.099833
H	-3.3363669923	 2.2508109467	 4.0422846779	 0.096935
H	-3.8072444495	 0.0723439266	 2.5284318294	 0.069669
H	-3.2050014555	 1.6534258771	 0.4030893695	 0.103375
H	-4.2121737979	 2.402700609	 1.6645842163	 0.095233
210.2768	251.1374	305.8312	308.4909	398.6485	414.2765	480.2816	539.1227	626.4031	762.5974	781.3703	830.117	845.042	883.5433	901.8963	926.7715	934.7392	952.8588	964.5635	989.867	1000.4987	1026.7609	1069.2599	1090.8724	1102.3583	1135.0093	1144.9365	1173.8844	1178.7252	1209.5174	1255.6706	1270.9524	1281.4065	1291.4555	1299.9981	1317.5939	1339.9262	1381.7268	1457.8099	1489.8767	1532.6044	3012.3533	3057.2152	3064.2903	3116.6214	3120.5659	3121.7396	3143.4365	3166.6177	3182.5597	3806.5375
OC1C2C1C1CC2CO1	O[C@H]1[C@H]2[C@@H]1[C@@H]1C[C@H]2CO1	
InChI=1S/C7H10O2/c8-7-5-3-1-4(6(5)7)9-2-3/h3-8H,1-2H2	InChI=1S/C7H10O2/c8-7-5-3-1-4(6(5)7)9-2-3/h3-8H,1-2H2/t3-,4-,5+,6-,7-/m0/s1
