19
gdb 1843	2.2743441	1.7295039	1.4117246	1.8976	74.62	-0.24841	-0.02963	0.21878	1009.5752	0.157413	-422.567554	-422.559401	-422.558457	-422.600402	31.431	
O	 0.2640655102	-1.1814106143	-2.897189439	-0.487143
C	 0.1752319473	 0.0233909047	-2.2122314835	 0.408962
C	 0.1922328336	 1.3475573243	-3.0159748964	-0.258785
C	 0.5726385185	 1.9508089444	-1.6300668775	-0.054033
C	-0.7154596384	 1.7071208453	-0.8118196494	-0.218819
C	-1.0290005592	 0.2479461688	-1.2667323013	-0.275974
C	 1.377000068	 0.6225877857	-1.4077443759	-0.140676
C	 1.7330332763	 0.1350253708	-0.0357880589	 0.121451
O	 1.2632608345	-0.848099069	 0.488136083	-0.257533
H	 0.213816527	-1.8916592306	-2.2471076721	 0.287864
H	 1.0100425749	 1.3871003273	-3.7382023465	 0.104924
H	-0.7454298328	 1.6755791725	-3.47289199	 0.095204
H	 1.0583232796	 2.921418513	-1.5448374237	 0.071462
H	-0.5503159532	 1.7872936231	 0.2665922252	 0.104543
H	-1.5048232514	 2.4139889103	-1.0811962806	 0.102245
H	-1.0409457656	-0.4637688631	-0.4398476473	 0.119529
H	-1.9694666855	 0.1642083002	-1.8179463498	 0.100411
H	 2.2906915312	 0.6409586724	-2.0147162953	 0.098495
H	 2.503889975	 0.7413061543	 0.495657469	 0.077871
51.2235	159.4031	203.3705	281.7898	303.6313	356.7007	413.2462	440.1579	476.0874	583.3355	653.7709	744.1751	764.2251	833.8706	863.1825	873.202	893.9085	942.3129	959.8608	982.9622	997.542	1042.4567	1069.3394	1090.529	1118.1741	1149.7375	1157.8357	1213.1024	1231.967	1238.9363	1250.7526	1262.2171	1312.1185	1323.7521	1380.8622	1392.3202	1423.9466	1492.9321	1498.4708	1523.069	1807.0724	2854.214	3042.5382	3054.5911	3060.3593	3069.1383	3096.3557	3126.1751	3128.386	3131.3233	3799.3373
OC12CC(CC1)C2C=O	O[C@@]12C[C@@H](CC1)[C@H]2C=O	
InChI=1S/C7H10O2/c8-4-6-5-1-2-7(6,9)3-5/h4-6,9H,1-3H2	InChI=1S/C7H10O2/c8-4-6-5-1-2-7(6,9)3-5/h4-6,9H,1-3H2/t5-,6-,7-/m1/s1
