19
gdb 5148	2.2141191	1.8057029	1.2176076	2.2478	75.79	-0.24027	0.081	0.32127	1079.1278	0.155351	-422.482775	-422.47408	-422.473135	-422.516362	32.394	
C	 1.5078926125	-0.1276010835	 0.1287612528	-0.260216
O	 0.0988873795	 0.0252478988	 0.0459214276	-0.269981
C	-0.4580097367	 0.6697185664	 1.1204822948	 0.380125
C	-0.7503900026	-0.0159202531	 2.43566117	-0.347783
C	-1.8890137105	 0.5614700119	 1.6237552681	-0.147121
C	-1.959307919	 2.0850498161	 1.8298069003	-0.321995
C	-0.5042175422	 2.1808466566	 1.3272955245	 0.379906
C	 0.5513362172	 3.1630616102	 1.58170292	-0.277142
O	-0.1281945759	 3.0898004736	 0.3143366221	-0.276778
H	 1.8016037308	-0.6380874054	 1.0563876362	 0.109825
H	 1.8107286814	-0.734088465	-0.7275077888	 0.13002
H	 2.0217406603	 0.8406983877	 0.0742143363	 0.123663
H	-0.6652076708	-1.0971782049	 2.3908017625	 0.119627
H	-0.4670431023	 0.4253837961	 3.3888199098	 0.105597
H	-2.6905666379	-0.0584778332	 1.2445053193	 0.102398
H	-2.6344937573	 2.5831154769	 1.1296731569	 0.125194
H	-2.1638640988	 2.4319836439	 2.847646765	 0.100537
H	 0.3332379624	 4.0530369426	 2.1710228694	 0.114776
H	 1.5975544501	 2.8606115442	 1.570157793	 0.109347
54.0183	121.7557	169.603	208.1841	246.6745	293.9685	378.5303	418.572	441.9562	514.8809	581.3764	667.4321	791.9247	843.6426	848.5065	875.1006	927.9101	946.848	966.6527	1010.8874	1021.2941	1065.3187	1078.7591	1087.4242	1124.0065	1132.5266	1159.4696	1166.5378	1176.9167	1219.9988	1227.3152	1261.2344	1279.9578	1373.7931	1437.765	1468.5169	1479.1432	1489.8996	1503.2271	1504.6921	1538.2956	2999.1695	3048.9565	3058.6991	3080.069	3103.3669	3112.4398	3123.5534	3165.816	3198.2378	3206.6134
COC12CC1CC21CO1	CO[C@]12C[C@H]1C[C@]12CO1	
InChI=1S/C7H10O2/c1-8-7-3-5(7)2-6(7)4-9-6/h5H,2-4H2,1H3	InChI=1S/C7H10O2/c1-8-7-3-5(7)2-6(7)4-9-6/h5H,2-4H2,1H3/t5-,6-,7-/m1/s1
