19
gdb 3679	2.6847266	1.4580016	1.0684879	2.9	78.32	-0.23867	0.00692	0.24559	1167.2434	0.155898	-422.550263	-422.541396	-422.540452	-422.583603	33.343	
C	 0.0835767222	 0.0249767328	-0.35017362	-0.424144
C	 1.0874691105	 0.453075247	 0.6891702123	 0.003245
O	 2.3365098237	 0.9755639751	 0.2211279425	-0.286035
C	 2.34501168	-0.2516410736	 0.9708410736	 0.387417
C	 2.8787568454	-1.4686924642	 0.3038520935	-0.145133
C	 3.9333451353	-1.9473262927	 0.9676987187	-0.07687
C	 4.265605812	-1.1236986826	 2.1900551571	-0.310465
C	 2.9965593174	-0.2507651227	 2.3651533099	 0.023911
O	 3.204225304	 1.0701788721	 2.8096073691	-0.421609
H	-0.6968972013	-0.5970237603	 0.1017095051	 0.119835
H	-0.4017117992	 0.9014266749	-0.7924992296	 0.129486
H	 0.5586655902	-0.539415814	-1.1560310148	 0.124714
H	 0.6729883218	 1.0279846973	 1.5211495372	 0.088418
H	 2.4795661629	-1.8614352703	-0.6224036326	 0.10183
H	 4.5142699435	-2.8136253935	 0.6711443004	 0.100386
H	 4.4846405457	-1.7339543256	 3.073492526	 0.098693
H	 5.1392907536	-0.4832268027	 2.011327278	 0.124801
H	 2.3066741174	-0.7849443018	 3.0386057712	 0.075176
H	 3.457008105	 1.0346051947	 3.7370014426	 0.286344
82.5662	160.6523	175.3335	191.6522	259.965	275.5959	285.9301	425.5391	461.6771	488.0198	527.1748	610.3562	681.6427	756.8513	771.8907	813.5206	923.0629	927.5373	961.1106	971.5016	993.2884	1019.6371	1060.4471	1115.2353	1123.3679	1136.0164	1167.6249	1180.3412	1227.5476	1232.3299	1285.7352	1319.4635	1338.0151	1393.7321	1408.8828	1431.4854	1470.1256	1483.3894	1491.0886	1515.1006	1670.0615	2964.2571	3024.1459	3036.58	3065.0766	3077.8398	3098.3565	3126.5559	3189.8141	3221.0548	3826.9808
CC1OC11C=CCC1O	C[C@@H]1O[C@@]21C=CC[C@H]2O	
InChI=1S/C7H10O2/c1-5-7(9-5)4-2-3-6(7)8/h2,4-6,8H,3H2,1H3	InChI=1S/C7H10O2/c1-5-7(9-5)4-2-3-6(7)8/h2,4-6,8H,3H2,1H3/t5-,6+,7+/m0/s1
