19
gdb 6060	5.813077	0.4738382	0.442968	2.538	85.15	-0.25475	-0.04613	0.20861999999999997	2428.1837	0.15304	-422.528485	-422.51731	-422.516366	-422.567844	36.5	
C	-2.918600544	-4.8125864892	 3.865049133	-0.232035
O	-3.2198236012	-3.9450270748	 2.7963738666	-0.227987
C	-2.1299927546	-3.1386922832	 2.4199953832	-0.044387
C	-2.6000678721	-2.2544826364	 1.2587185042	-0.362113
C	-1.5580856265	-1.3653205828	 0.7716100675	 0.025569
C	-0.6675027357	-0.6418289277	 0.3951284075	 0.058446
C	 0.3977173769	 0.2303864374	-0.0621043694	 0.249101
C	 0.0417893154	 1.1409905238	-1.2203365156	-0.476989
O	 1.4946464125	 0.2219382439	 0.4557194374	-0.277727
H	-3.8207235552	-5.3899946959	 4.0797352092	 0.130862
H	-2.103100987	-5.5068482056	 3.6090946897	 0.109005
H	-2.6260471042	-4.2580327146	 4.7702710386	 0.109026
H	-1.791229601	-2.5101855548	 3.259155895	 0.104038
H	-1.2715358461	-3.752335996	 2.1030169283	 0.103958
H	-2.9546903675	-2.8985240564	 0.444751382	 0.149018
H	-3.4679925623	-1.6701811538	 1.5879774858	 0.149121
H	-0.8042341601	 1.7816367086	-0.9490125405	 0.145464
H	 0.9058831166	 1.7528193358	-1.4833313525	 0.142078
H	-0.2735715339	 0.5450519217	-2.0836329398	 0.145552
12.6735	54.219	69.9141	103.6278	120.4443	143.7239	161.4212	233.813	256.3829	362.1771	394.4978	449.5945	486.8694	603.3012	614.2316	689.9083	789.364	959.3358	991.0318	1042.5154	1043.6184	1063.629	1081.5573	1164.0756	1181.7869	1226.9059	1229.9192	1246.7966	1298.6958	1310.8838	1380.1777	1419.604	1460.8228	1463.8992	1468.6569	1482.6749	1486.8069	1504.3637	1531.5731	1767.3378	2332.3607	2967.0473	2979.1007	3002.1032	3021.171	3033.8178	3039.1256	3070.6555	3103.2407	3118.779	3151.6801
COCCC#CC(C)=O	COCCC#CC(=O)C	
InChI=1S/C7H10O2/c1-7(8)5-3-4-6-9-2/h4,6H2,1-2H3	InChI=1S/C7H10O2/c1-7(8)5-3-4-6-9-2/h4,6H2,1-2H3
