19
gdb 949	3.5185464	1.0496169	0.9052544	2.0664	77.61	-0.24714	0.01104	0.25818	1308.1931	0.158246	-422.604899	-422.596501	-422.595557	-422.638575	31.03	
O	 0.7540503872	 0.4319489019	-0.8231893779	-0.308032
C	 0.3295041176	 0.0032928592	 0.2157980402	 0.173653
O	-0.6249906161	 0.5516698483	 0.9761879938	-0.221916
C	-1.2013202205	 1.8017800562	 0.5120402566	 0.131875
C	-1.7337231039	 2.5344871872	 1.7367261716	-0.222541
C	-2.3073479938	 3.9010987298	 1.32987202	-0.2635
C	-3.1552932913	 3.8119920901	 0.0874097704	-0.042239
C	-3.1643709442	 2.7539347608	-0.7221256567	-0.05816
C	-2.3098296551	 1.5299676692	-0.5062567271	-0.26719
H	 0.6777803498	-0.9213401949	 0.7030486995	 0.107533
H	-0.4029799918	 2.378644532	 0.0357769983	 0.112357
H	-2.5188199581	 1.9236003044	 2.1978884493	 0.109846
H	-0.9366942175	 2.6503891299	 2.4774403398	 0.103822
H	-2.897377129	 4.3141756794	 2.1569882963	 0.109036
H	-1.4921253158	 4.6214142714	 1.1665793574	 0.114049
H	-3.7822220955	 4.6702442497	-0.1418187329	 0.087904
H	-3.8071232493	 2.7478553477	-1.5986727589	 0.089704
H	-2.925270422	 0.692567438	-0.1472558366	 0.114607
H	-1.8653649406	 1.2020816297	-1.451817753	 0.129191
51.3048	106.6284	170.8923	206.3946	269.5555	366.6378	402.7052	435.0343	469.8099	504.2106	675.3941	734.9355	782.1457	845.471	878.7736	930.4762	939.5278	964.8246	1004.7055	1019.6112	1045.7722	1052.1466	1089.1082	1121.4708	1154.8917	1210.5401	1214.3786	1247.98	1276.0509	1329.3843	1333.4414	1364.4087	1386.9213	1400.3088	1410.7186	1417.2519	1477.3055	1482.894	1502.3526	1725.8128	1814.9252	3002.3018	3010.5163	3022.175	3035.7653	3050.0925	3066.3192	3076.6614	3092.8389	3146.9986	3170.4255
O=COC1CCC=CC1	O=CO[C@@H]1CCC=CC1	
InChI=1S/C7H10O2/c8-6-9-7-4-2-1-3-5-7/h1-2,6-7H,3-5H2	InChI=1S/C7H10O2/c8-6-9-7-4-2-1-3-5-7/h1-2,6-7H,3-5H2/t7-/m0/s1
