19
gdb 1473	3.3760993	1.3058888	1.2661911	2.649	73.86	-0.24667	0.07482	0.32149	1070.6841	0.156766	-422.540324	-422.532191	-422.531247	-422.572395	32.072	
C	-0.1669314116	-0.0760273905	 0.2425525686	-0.463197
C	 1.3348955184	-0.1236019981	 0.0732362452	 0.387086
O	 1.9911964866	-0.7676000983	 1.1404681003	-0.466697
C	 2.0248126131	-0.266017066	-1.2712829817	-0.113158
C	 1.2473727368	 0.0205053643	-2.5579092193	-0.276243
C	 0.9373376356	 1.5131168913	-2.4897486374	 0.05709
O	 2.1006587065	 2.3433692666	-2.5105671839	-0.257931
C	 1.4672838944	 2.0918346921	-1.2447887356	 0.004502
C	 2.1575535139	 1.0201796646	-0.4577356726	-0.10865
H	-0.4154133338	 0.364084721	 1.2132638655	 0.129733
H	-0.6581565559	 0.5104340147	-0.5362148226	 0.124928
H	-0.590382484	-1.0881272339	 0.2151946834	 0.108039
H	 1.7602903501	-1.7028261937	 1.104708677	 0.279342
H	 2.8593785555	-0.9564758265	-1.3045727101	 0.088301
H	 1.8509939499	-0.2035665297	-3.4436182685	 0.116156
H	 0.32317149	-0.5644156562	-2.6383108962	 0.099218
H	 0.0678752331	 1.9206313291	-3.0006957946	 0.092777
H	 1.0300881618	 2.9648582558	-0.765912654	 0.096184
H	 3.0757134797	 1.2518757435	 0.0702767367	 0.10252
159.2814	188.0643	200.2857	253.3108	312.713	319.2834	382.9643	429.2946	452.5713	499.4297	668.5429	725.0559	740.6664	826.4273	854.8568	867.1507	885.9895	933.543	965.9689	977.881	997.2068	1023.7294	1041.8091	1064.2328	1096.6396	1103.6095	1130.6877	1180.6524	1214.2322	1259.7017	1272.9487	1287.7603	1300.7471	1331.818	1349.1002	1414.1449	1426.8527	1436.8454	1479.1688	1491.3005	1503.1336	3025.5735	3033.4661	3075.1782	3090.7289	3130.1626	3133.5453	3145.7682	3175.1179	3183.3819	3789.4635
CC1(O)C2CC3OC3C12	C[C@@]1(O)[C@H]2C[C@@H]3O[C@@H]3[C@@H]12	
InChI=1S/C7H10O2/c1-7(8)3-2-4-6(9-4)5(3)7/h3-6,8H,2H2,1H3	InChI=1S/C7H10O2/c1-7(8)3-2-4-6(9-4)5(3)7/h3-6,8H,2H2,1H3/t3-,4-,5-,6-,7+/m0/s1
