19
gdb 6095	3.5563466	0.5847742	0.525943	3.3964	79.46	-0.25977	-0.05959	0.20018	2026.1916	0.153586	-422.532418	-422.521604	-422.52066	-422.570319	36.752	
O	-2.2122676705	 0.7083082708	 2.9021194649	-0.416223
C	-1.8334600142	-0.4657672674	 2.2033215279	-0.060273
C	-0.3408656189	-0.5055672422	 1.8695413726	-0.195596
C	 0.0521157982	-1.7450777209	 1.0591333068	-0.195681
C	 1.5558798787	-1.7800415842	 0.7266081769	-0.302358
C	 1.9469258491	-3.018722952	-0.058383321	 0.253612
O	 2.3310569227	-2.9850456659	-1.2069478428	-0.276709
C	 1.8238079103	-4.2835800676	 0.6558636576	 0.280699
C	 1.7296459084	-5.3244725616	 1.2536332332	-0.460969
H	-1.7523616355	 0.7090865746	 3.7475985235	 0.280636
H	-2.11736048	-1.3740493532	 2.7602008892	 0.086443
H	-2.4225761594	-0.4613302317	 1.2794044904	 0.114544
H	-0.0813424451	 0.4071036595	 1.3198928799	 0.112474
H	 0.2374781814	-0.4825048281	 2.8048933743	 0.087177
H	-0.2168346336	-2.6525517958	 1.6133080613	 0.113893
H	-0.5209408156	-1.7700034772	 0.12366216	 0.115693
H	 1.8418077607	-0.9123643981	 0.1254046694	 0.125592
H	 2.1333907123	-1.7621383824	 1.6600371956	 0.119269
H	 1.6515868609	-6.2530398066	 1.7654230502	 0.217778
31.6586	48.862	90.9583	105.5388	140.2684	163.3952	218.6209	271.9845	304.4871	332.802	437.0144	470.616	611.7875	649.4895	705.4767	717.1739	739.5173	765.1418	810.2895	926.0173	996.3995	1042.935	1055.0908	1065.1339	1083.8255	1136.7099	1212.8558	1245.0242	1272.48	1316.8656	1325.9793	1329.5639	1381.5076	1401.0124	1424.8521	1466.4632	1485.9089	1499.195	1516.4159	1770.5032	2208.3163	2969.1489	3002.7485	3023.2841	3032.7145	3052.1611	3063.557	3079.2919	3104.9202	3493.757	3815.7415
OCCCCC(=O)C#C	OCCCCC(=O)C#C	
InChI=1S/C7H10O2/c1-2-7(9)5-3-4-6-8/h1,8H,3-6H2	InChI=1S/C7H10O2/c1-2-7(9)5-3-4-6-8/h1,8H,3-6H2
