19
gdb 3332	2.5228352	1.9420051	1.527717	1.2299	74.16	-0.24506	0.05638	0.30144	944.9013	0.158413	-422.469355	-422.46209	-422.461146	-422.50054	29.548	
C	 1.4657906074	 1.3810703496	 0.0234311898	-0.448773
C	 1.2427058863	-0.1276200155	 0.0498826963	-0.015684
C	 1.9918076789	-1.0050493202	 1.0614536494	 0.036619
O	 1.4060651316	-2.3224034084	 0.7625213419	-0.293919
C	 1.3982207001	-2.3986324195	-0.7039690816	-0.157536
C	 2.0914810594	-1.0669539929	-0.9159046751	 0.383534
O	 2.865751331	-0.4679448791	-1.9392713077	-0.345631
C	 3.8696924522	-0.1261578715	-0.9137413245	-0.14892
C	 3.2253553013	-1.0965244286	 0.1286635828	-0.092489
H	 0.6355242225	 1.885924767	 0.525590705	 0.119003
H	 2.3808621355	 1.6908860591	 0.5337988217	 0.121671
H	 1.5085494925	 1.7515336136	-1.0063184979	 0.135325
H	 0.1718607986	-0.3460551818	 0.0264011997	 0.077572
H	 1.9924131315	-0.8805665007	 2.144029965	 0.079833
H	 1.9771761206	-3.2638307069	-1.0398656773	 0.111345
H	 0.3664285398	-2.4734726255	-1.0622092433	 0.106623
H	 4.8593631971	-0.4601986921	-1.2351196223	 0.120243
H	 3.8892934575	 0.9451381056	-0.7135833752	 0.117706
H	 3.8064325064	-2.0099091722	 0.2575604233	 0.093478
166.7581	211.1137	256.9993	340.3376	371.0049	394.0947	447.5927	529.8881	589.7345	643.6442	731.0744	787.4173	828.0983	850.6729	865.526	905.6496	918.9456	956.197	1010.6199	1031.7505	1044.9071	1074.7295	1098.3305	1116.5872	1126.3596	1154.4088	1175.1048	1193.8698	1209.0354	1250.2672	1260.9528	1270.7039	1313.3196	1337.1104	1357.5058	1397.5594	1410.8175	1495.8644	1499.5941	1525.9633	1528.3151	3039.1188	3039.8144	3065.8495	3068.5104	3091.0472	3104.4704	3104.9931	3113.9932	3123.9864	3135.4115
CC1C2OCC11OCC21	C[C@@H]1[C@H]2OC[C@]31OC[C@@H]23	
InChI=1S/C7H10O2/c1-4-6-5-2-9-7(4,5)3-8-6/h4-6H,2-3H2,1H3	InChI=1S/C7H10O2/c1-4-6-5-2-9-7(4,5)3-8-6/h4-6H,2-3H2,1H3/t4-,5+,6-,7-/m1/s1
