19
gdb 1590	2.2924114	1.6064746	1.259218	1.0538	76.41	-0.2499	0.02995	0.27985	1087.9239	0.154437	-422.529872	-422.520364	-422.519419	-422.564155	35.013	
C	 0.324128185	-1.1155550928	-0.5277303486	-0.426995
C	 1.4650451877	-0.2045265045	-0.093360887	 0.369707
C	 2.2734193197	-0.8143348209	 1.0585239339	-0.422983
O	 0.9059181283	 1.0505188384	 0.3355363795	-0.301728
C	 1.6988961973	 2.1058963821	-0.1685538517	 0.015741
O	 2.8462875589	 1.5343137472	-0.7579918239	-0.240842
C	 2.4308632483	 0.2534371248	-1.2306078338	-0.169843
C	 1.8302278987	 0.3335338399	-2.5640745059	 0.361642
C	 1.3583157559	 0.4150952033	-3.6665422289	-0.457875
H	-0.3222519613	-1.3286656666	 0.3282592041	 0.123491
H	-0.2731894286	-0.6421503694	-1.3083447873	 0.134891
H	 0.7097382087	-2.065781487	-0.910031414	 0.116624
H	 1.6384482787	-0.9054907873	 1.9437216748	 0.124639
H	 2.6459462045	-1.8100790113	 0.7960205951	 0.112473
H	 3.1254031287	-0.176286819	 1.3083474196	 0.12939
H	 1.1153574775	 2.6758405804	-0.9092050386	 0.100168
H	 2.0323983154	 2.7685912965	 0.6385824213	 0.112796
H	 3.3246915938	-0.3757966195	-1.267526755	 0.116309
H	 0.9446486027	 0.4839461457	-4.6425768138	 0.202395
49.6977	113.3166	150.7154	209.7766	251.7021	264.2308	295.5093	340.9479	375.3186	402.7086	507.3626	552.7792	633.1834	636.5268	671.7359	740.5061	842.1819	875.8155	930.6333	950.4354	961.9308	996.0351	1033.4783	1043.3109	1119.1259	1155.0426	1178.86	1206.5146	1216.2561	1266.7006	1295.7293	1353.1597	1398.3785	1416.5848	1428.6942	1476.3219	1483.9143	1495.9474	1507.347	1547.168	2231.7699	2974.411	3039.0258	3048.5001	3052.975	3073.6971	3111.2647	3117.3652	3126.3731	3143.0738	3500.1799
CC1(C)OCOC1C#C	CC1(C)OCO[C@@H]1C#C	
InChI=1S/C7H10O2/c1-4-6-7(2,3)9-5-8-6/h1,6H,5H2,2-3H3	InChI=1S/C7H10O2/c1-4-6-7(2,3)9-5-8-6/h1,6H,5H2,2-3H3/t6-/m1/s1
