19
gdb 1089	2.5465987	1.410643	1.150649	3.0569	77.5	-0.23674	-0.01768	0.21906	1144.1762	0.154406	-422.541743	-422.532426	-422.531482	-422.57581	34.131	
C	 2.4697117789	 0.0386041787	 2.8183787267	-0.503239
C	 3.5938335051	 0.0503311224	 1.7959550617	 0.288142
O	 4.7481040203	 0.2434347114	 2.1263003413	-0.319036
C	 3.2582130906	-0.1824415745	 0.3771829212	 0.12421
C	 1.9636302735	-0.7651723954	-0.1881426575	-0.395165
C	 2.3568494367	 0.6000957939	-0.6210171661	 0.428965
C	 1.5485381362	 1.8516899854	-0.5185345479	-0.485216
O	 3.3464911436	 0.5447980897	-1.640597891	-0.315415
C	 4.2822861117	-0.1247552075	-0.7462703007	-0.139934
H	 2.0461246528	-0.9683613604	 2.9040486884	 0.144133
H	 2.8682341527	 0.3443272982	 3.7862317099	 0.145069
H	 1.6531400991	 0.7090855179	 2.5294673758	 0.132903
H	 2.0265999689	-1.5953113636	-0.8872483357	 0.121486
H	 1.1405978921	-0.8193194692	 0.5167477045	 0.121364
H	 0.8688631312	 1.8131558384	 0.3367497407	 0.127591
H	 2.1935584745	 2.7296986687	-0.4239973902	 0.139758
H	 0.9420759432	 1.9713812597	-1.4238213074	 0.142354
H	 4.6363639549	-1.0765085242	-1.1571199715	 0.108634
H	 5.1275245738	 0.5251358403	-0.5083808521	 0.133396
71.5803	121.3247	144.0804	178.454	203.9143	247.6702	330.6245	363.1744	424.6071	456.6321	494.4648	589.0106	605.7685	687.1311	757.0178	794.8917	916.3673	944.5168	954.135	979.893	986.2488	1023.2291	1045.9488	1065.1539	1099.8544	1132.9221	1153.6491	1178.8024	1234.5275	1320.1642	1350.5462	1377.2061	1401.4439	1427.1521	1464.6237	1471.6277	1475.3305	1485.5669	1499.2716	1518.6196	1768.2163	3036.5812	3037.4759	3042.7269	3098.296	3102.0841	3112.3585	3114.5932	3125.5736	3153.1515	3212.2444
CC(=O)C12CC1(C)OC2	CC(=O)[C@@]12C[C@]1(C)OC2	
InChI=1S/C7H10O2/c1-5(8)7-3-6(7,2)9-4-7/h3-4H2,1-2H3	InChI=1S/C7H10O2/c1-5(8)7-3-6(7,2)9-4-7/h3-4H2,1-2H3/t6-,7-/m0/s1
