19
gdb 4530	2.826515	1.1833541	0.8622899	2.6455	81.06	-0.25101	-0.05481	0.1962	1326.1495	0.156455	-422.583622	-422.574866	-422.573921	-422.617108	32.343	
C	-3.4699221059	-0.6980577254	-0.3437192038	-0.401361
C	-2.109562725	-1.219203114	 0.0895247055	 0.119439
C	-0.9667731824	-0.2353231655	-0.1852857226	-0.305291
C	 0.3638718168	-0.9175559027	-0.0024682154	 0.205379
C	 1.5731120403	-0.1030203164	 0.2037178177	 0.09015
O	 1.5837718044	 1.1065364208	 0.2470625542	-0.27377
C	 0.4582447179	-2.2537333853	 0.0037289855	-0.145021
C	-0.7358040147	-3.1349470994	-0.2012763796	-0.124042
O	-1.884969658	-2.4384549162	-0.6224754303	-0.260115
H	-3.7034563374	 0.237937495	 0.1722825827	 0.119289
H	-3.4780456516	-0.512023917	-1.4221035511	 0.126962
H	-4.250670507	-1.4282012113	-0.1154712324	 0.123463
H	-2.1273526786	-1.4391263156	 1.1711464344	 0.068071
H	-1.0509416747	 0.1590386948	-1.2062576461	 0.121589
H	-1.0277783522	 0.6306318223	 0.4824665319	 0.125961
H	 2.5098334137	-0.6936631377	 0.3238741842	 0.066301
H	 1.4159780482	-2.741746508	 0.1750309191	 0.106462
H	-0.524844889	-3.8856824771	-0.9734418514	 0.128705
H	-0.9295622249	-3.6963818612	 0.7333457277	 0.107829
93.9413	135.5052	176.3156	197.0737	225.4236	310.9651	316.7991	403.2343	441.0652	472.7935	502.9828	614.5927	732.9647	812.3172	835.1573	876.5796	922.4112	933.7088	986.971	1027.4975	1039.4182	1067.1378	1122.3847	1155.2026	1161.1476	1194.2823	1234.3682	1268.4768	1293.7354	1364.174	1378.1233	1394.2792	1407.186	1413.0905	1425.7404	1467.0091	1474.9024	1483.2963	1499.5158	1707.3691	1789.8398	2871.5418	2921.4578	2952.0378	3030.1335	3042.8872	3043.969	3079.5691	3117.7612	3123.7925	3151.3909
CC1CC(C=O)=CCO1	C[C@@H]1CC(=CCO1)C=O	
InChI=1S/C7H10O2/c1-6-4-7(5-8)2-3-9-6/h2,5-6H,3-4H2,1H3	InChI=1S/C7H10O2/c1-6-4-7(5-8)2-3-9-6/h2,5-6H,3-4H2,1H3/t6-/m1/s1
