19
gdb 5752	4.6925268	1.1401643	1.070002	1.6042	74.36	-0.23503	0.0693	0.30433	1178.5968	0.157179	-422.496454	-422.488801	-422.487857	-422.528715	29.804	
C	 2.7175961442	-0.9024537131	 1.1940899762	-0.382471
C	 1.809247313	-0.1742902716	 0.1997730792	-0.184766
C	 2.0360282578	-0.6190549843	-1.2411530748	 0.102956
O	 1.7638246195	-2.0438192007	-1.3863278679	-0.28687
C	 0.7817686251	-2.0787154925	-2.3840403125	 0.095844
C	-0.2288441475	-0.9019043936	-2.2381509278	 0.024931
O	-0.3803235134	-0.8178278986	-3.6928709207	-0.317332
C	 1.056665082	-1.0177794293	-3.4922844135	 0.016353
C	 1.0765361583	-0.0434933051	-2.2743134933	-0.089737
H	 2.5188747409	-0.5786720361	 2.2198912131	 0.112047
H	 2.557932907	-1.9823088316	 1.1370955815	 0.137974
H	 3.7742983747	-0.706943477	 0.9802508086	 0.11355
H	 0.7569885924	-0.3422500918	 0.4604267946	 0.099369
H	 1.9790838869	 0.9088676594	 0.2543275057	 0.097331
H	 3.0850360029	-0.4466008611	-1.5213400262	 0.081717
H	 0.455758476	-3.0885981322	-2.6229836565	 0.101827
H	-1.1201343012	-0.7972856055	-1.6205982803	 0.095342
H	 1.7031622315	-1.0516130033	-4.3688057214	 0.094817
H	 1.01850609	 1.0313186079	-2.4357294442	 0.087117
91.8547	129.263	189.8099	256.8499	346.7558	448.1802	463.5796	513.0125	686.0097	720.6334	773.5859	784.9963	813.8818	870.1005	885.3318	898.2909	904.0234	945.218	978.2978	997.8983	1005.8207	1056.7482	1086.1102	1108.5888	1136.5993	1145.5293	1148.2209	1164.4676	1183.7492	1225.3578	1261.4531	1273.7271	1289.2256	1310.2302	1331.9491	1379.5259	1407.2908	1410.5146	1474.9513	1497.9149	1509.9466	3003.3712	3022.6867	3037.8976	3061.1632	3104.049	3122.3876	3124.1795	3125.1247	3147.8673	3161.8022
CCC1OC2C3OC2C13	CC[C@H]1O[C@H]2[C@@H]3O[C@H]2[C@H]13	
InChI=1S/C7H10O2/c1-2-3-4-5-7(8-3)6(4)9-5/h3-7H,2H2,1H3	InChI=1S/C7H10O2/c1-2-3-4-5-7(8-3)6(4)9-5/h3-7H,2H2,1H3/t3-,4-,5-,6+,7+/m1/s1
