19
gdb 2203	2.3820324	2.0165247	1.5143404	1.9352	73.41	-0.23082	0.08532	0.31614	962.5252	0.157649	-422.561991	-422.554227	-422.553283	-422.59368	30.738	
C	 2.1303359591	-1.5944766283	-1.0848544258	-0.501667
C	 2.2582103878	-0.4221533508	-0.1533570399	 0.180645
C	 3.403543676	-0.2496815773	 0.8391506606	-0.287939
C	 2.8942206686	 1.1033608413	 1.372340916	 0.143165
O	 2.7638373221	 1.8924643317	 0.1933450828	-0.255303
C	 1.90552186	 1.0213843142	-0.5213301388	-0.04396
C	 1.0847058949	 0.2978428074	 0.5247073335	 0.378038
C	-0.3660364541	-0.0562292409	 0.4924051479	-0.504888
O	 1.5586683748	 0.8163733094	 1.7632246817	-0.284191
H	 2.0473315976	-2.5376481439	-0.5328210208	 0.123085
H	 1.2440255677	-1.5081200691	-1.7220048528	 0.118069
H	 3.0012696845	-1.6705615964	-1.7457991848	 0.124169
H	 3.4244226971	-1.0166297644	 1.6172085916	 0.108062
H	 4.3830958773	-0.1645069518	 0.3622201357	 0.10859
H	 3.4318094555	 1.6381968371	 2.1504984066	 0.0968
H	 1.5714849437	 1.383949657	-1.4833608686	 0.106498
H	-0.5931065059	-0.8536257401	 1.2076389361	 0.130313
H	-0.9792937481	 0.8145100752	 0.7446290887	 0.136379
H	-0.6565062786	-0.40052387	-0.5037381296	 0.124136
184.6189	188.3363	214.6157	217.4963	295.2825	340.6764	440.7297	545.5625	584.0787	627.3795	637.2473	707.8131	734.94	843.1996	875.0197	907.9188	908.4769	933.3111	966.057	976.2141	999.414	1039.8614	1074.1625	1093.3784	1118.1989	1156.2991	1182.1783	1204.4134	1217.8921	1243.6516	1299.0271	1338.0021	1348.8869	1411.8148	1421.6568	1445.3428	1477.0582	1479.8653	1492.0187	1495.1426	1509.377	3023.6718	3038.9859	3067.217	3083.5047	3092.6087	3102.7068	3119.907	3124.2186	3175.2109	3220.6261
CC12CC3OC1C2(C)O3	C[C@@]12C[C@H]3O[C@@H]1[C@]2(C)O3	
InChI=1S/C7H10O2/c1-6-3-4-8-5(6)7(6,2)9-4/h4-5H,3H2,1-2H3	InChI=1S/C7H10O2/c1-6-3-4-8-5(6)7(6,2)9-4/h4-5H,3H2,1-2H3/t4-,5-,6+,7-/m0/s1
