19
gdb 5297	2.745446	1.7041996	1.2707499	1.2276	74.42	-0.23525	0.07379	0.30904	1040.3583	0.157065	-422.499536	-422.491807	-422.490863	-422.531656	30.233	
C	 1.0092067596	-1.3143176797	 0.6655574382	-0.383047
C	 1.5728258438	-0.0458692122	 0.0141176532	-0.288413
C	 2.1965651414	-0.3000701978	-1.3292300926	 0.476204
O	 3.2847529308	-1.1958600805	-1.2795960466	-0.322099
C	 3.7125145594	-1.2880572363	-2.6546049555	-0.1182
C	 2.7307851675	-0.3531150684	-3.336010108	-0.09284
C	 2.4793848798	 0.8405760668	-2.3659629777	-0.021999
O	 1.0607997851	 0.8948585203	-2.7293710577	-0.317439
C	 1.352857069	-0.5380479964	-2.6324305262	-0.013324
H	 0.5745042558	-1.0877812778	 1.643346982	 0.112487
H	 0.223430235	-1.7604537969	 0.0467493206	 0.114121
H	 1.7938349118	-2.0627708978	 0.8032518232	 0.134464
H	 0.7840143179	 0.6988002882	-0.1335409439	 0.121563
H	 2.3291193948	 0.404112739	 0.6685240633	 0.10591
H	 4.7567301649	-0.964737158	-2.7409076194	 0.110484
H	 3.6373433636	-2.3264525056	-2.9991679407	 0.110104
H	 2.7747589668	-0.181810508	-4.4095483414	 0.089167
H	 3.0211421701	 1.7808247321	-2.2600645079	 0.091189
H	 0.5496347529	-1.2428414011	-2.847958793	 0.091666
97.167	163.38	197.866	286.26	310.4215	350.4647	453.2434	527.6466	651.7274	684.5714	724.8554	768.7948	785.3626	832.1633	892.7527	907.0629	923.8359	949.8309	972.5808	986.2858	1002.3121	1029.3162	1068.8802	1096.477	1121.7773	1153.3845	1163.2066	1170.581	1215.9653	1221.4953	1260.9342	1295.2727	1310.1457	1326.9897	1374.714	1404.7157	1409.8947	1476.3293	1497.9239	1508.9351	1520.7148	3024.499	3036.5853	3041.2594	3062.8711	3084.5543	3107.2858	3114.8688	3119.8726	3124.6976	3152.3737
CCC12OCC3C1OC23	CC[C@]12OC[C@@H]3[C@H]1O[C@H]23	
InChI=1S/C7H10O2/c1-2-7-5-4(3-8-7)6(7)9-5/h4-6H,2-3H2,1H3	InChI=1S/C7H10O2/c1-2-7-5-4(3-8-7)6(7)9-5/h4-6H,2-3H2,1H3/t4-,5-,6+,7+
