19
gdb 5061	2.7151915	1.5592483	1.21248	2.3941	75.97	-0.22269	0.01558	0.23827	1068.2649	0.157021	-422.553629	-422.545233	-422.544288	-422.586032	33.174	
O	 0.3802608552	 1.2288871542	 0.7087679498	-0.414319
C	 0.4185802162	 0.1712035277	-0.2555573479	-0.192012
C	-0.6426650761	 0.3126837189	-1.3260910046	 0.204066
C	-2.0289085254	 0.8831558829	-1.002311486	-0.397123
C	-1.0761371684	 1.6611561642	-1.8794613852	 0.40855
O	-0.544183995	 2.8751621603	-1.454097584	-0.489212
C	-1.2238508404	 1.5219532066	-3.3914700666	-0.320453
C	-0.9630862097	 0.0507159623	-3.6343572692	-0.080227
C	-0.6252322273	-0.5948582351	-2.5146363047	-0.148558
H	-0.3608640465	 1.0638199507	 1.3000208393	 0.294133
H	 1.4129619648	 0.2300209735	-0.7114902447	 0.125846
H	 0.3470995356	-0.8058227323	 0.2451961753	 0.102353
H	-2.8994629659	 0.3892560764	-1.4232891375	 0.109531
H	-2.1817124129	 1.3029903721	-0.0114924436	 0.089619
H	-0.1449205943	 2.719248223	-0.5858033958	 0.288098
H	-2.2115447092	 1.8377708984	-3.7485589235	 0.112398
H	-0.4861056281	 2.1582786323	-3.8968567632	 0.119967
H	-1.0652556088	-0.4057829861	-4.6124177562	 0.096044
H	-0.3920787039	-1.6525930898	-2.4443254417	 0.091299
108.523	195.4243	201.5278	240.8766	317.3416	340.5264	400.4081	433.9815	464.0025	535.3581	555.7009	585.4744	701.6426	736.8075	750.7643	765.6008	887.7374	916.1927	946.6039	951.8139	961.9205	999.4565	1013.5323	1040.904	1053.0927	1099.4974	1151.0304	1166.0374	1186.709	1222.5305	1242.2011	1309.1388	1353.311	1366.7719	1384.9517	1412.8293	1448.6483	1469.4964	1482.0023	1504.295	1665.9731	2991.3003	3026.6996	3058.7755	3067.2939	3108.0906	3174.5128	3197.9801	3204.4017	3720.5404	3825.3624
OCC12CC1(O)CC=C2	OC[C@@]12C[C@]1(O)CC=C2	
InChI=1S/C7H10O2/c8-5-6-2-1-3-7(6,9)4-6/h1-2,8-9H,3-5H2	InChI=1S/C7H10O2/c8-5-6-2-1-3-7(6,9)4-6/h1-2,8-9H,3-5H2/t6-,7-/m1/s1
