19
gdb 4116	2.7655877	1.3231797	1.3168801	3.6546	74.55	-0.23286	-0.01215	0.22071000000000002	1077.1743	0.158701	-422.574729	-422.566817	-422.565873	-422.606994	30.967	
O	-1.7240231867	 0.0219103728	 3.5133606546	-0.43892
C	-1.9720960503	-0.0374333166	 2.1158470855	 0.134116
C	-1.415513279	 1.2627328481	 1.5005258191	-0.219704
C	-1.0957453693	 1.0816688065	-0.001917203	-0.145362
C	-2.0220382127	-0.0067053083	-0.6418166375	-0.254792
C	-1.062168765	-1.0844787684	-0.0346256765	-0.138681
C	-1.3699882204	-1.309296549	 1.4651411018	-0.256532
C	 0.0064923005	 0.0173166027	-0.1082615452	 0.438575
O	 1.1900572767	 0.0371687409	-0.2840976652	-0.324484
H	-2.1538597214	-0.7337406277	 3.9267720788	 0.281579
H	-3.0577173913	-0.0533039853	 1.9405120476	 0.073459
H	-2.1383471098	 2.0718005161	 1.64476274	 0.108151
H	-0.5074441114	 1.5459180747	 2.0437249984	 0.129875
H	-0.9467559488	 2.0335212398	-0.5141771551	 0.087626
H	-3.0678204453	-0.0266094009	-0.3314312859	 0.105737
H	-1.9677887242	 0.0097174846	-1.7322230389	 0.113164
H	-0.8846530757	-2.0170443842	-0.5728510577	 0.086423
H	-2.0638516884	-2.1497404893	 1.5872640652	 0.095373
H	-0.4478652177	-1.5722571864	 1.9957297039	 0.124397
91.4351	172.9187	220.9786	288.0376	347.9961	380.8034	446.3058	463.7458	468.6578	470.8693	677.0458	779.3453	789.299	818.688	848.384	864.7697	916.2329	967.0271	1013.2895	1029.9748	1048.9281	1053.5648	1084.1642	1095.2925	1117.1191	1145.724	1177.3182	1205.6923	1247.2627	1261.0887	1267.2205	1279.2363	1304.6008	1337.7153	1353.7755	1389.7981	1438.1217	1493.2731	1500.0782	1507.0157	1892.8241	2976.6664	3026.5831	3045.7705	3073.5998	3075.9185	3088.0745	3099.9834	3103.6273	3132.931	3814.8562
OC1CC2CC(C1)C2=O	O[C@H]1C[C@@H]2C[C@H](C1)C2=O	
InChI=1S/C7H10O2/c8-6-2-4-1-5(3-6)7(4)9/h4-6,8H,1-3H2	InChI=1S/C7H10O2/c8-6-2-4-1-5(3-6)7(4)9/h4-6,8H,1-3H2/t4-,5+,6-
