19
gdb 730	2.6867046	1.5104557	1.1667068	3.5941	74.61	-0.24325	-0.02734	0.21591	1097.4131	0.157854	-422.567368	-422.559203	-422.558259	-422.600714	30.368	
O	 0.9221459274	 0.0998717928	 0.8640561405	-0.32165
C	-0.1263064991	 0.1014940544	 0.2701354129	 0.348199
C	-0.8042669914	 1.3138144515	-0.373085355	-0.319441
C	-2.2182196057	 0.8260012289	-0.7269359702	-0.224834
C	-2.0306955063	-0.6834271205	-1.0007549994	-0.306451
C	-1.0036381288	-1.1319146812	 0.0407321549	 0.191585
C	-0.2772710943	-2.4842440262	-0.1080512211	-0.129706
O	-0.8987065854	-3.0233198263	 1.0751239831	-0.268542
C	-1.5418044137	-1.7726327322	 1.3586358485	-0.103744
H	-0.7568422664	 2.1872169249	 0.2812870801	 0.1313
H	-0.2330180584	 1.561718236	-1.2779303713	 0.134634
H	-2.8890385765	 0.9677503216	 0.1284395325	 0.110368
H	-2.6583997576	 1.3561125975	-1.5743942149	 0.108584
H	-2.9653952247	-1.2483985663	-0.9506500382	 0.109695
H	-1.6171323657	-0.8291770643	-2.0073947616	 0.105638
H	-0.5331523505	-3.0578631766	-1.0074490597	 0.099863
H	 0.8119407722	-2.415514484	-0.0024096952	 0.119647
H	-2.6342385212	-1.8653028501	 1.4142718137	 0.101136
H	-1.162819774	-1.3168498696	 2.2816401605	 0.11372
63.2412	81.1348	177.7842	216.7532	283.0994	358.5646	407.8616	527.7596	548.2311	631.6972	644.8335	808.3396	819.4421	843.9962	895.8515	934.3655	952.811	966.0709	990.4552	1013.4776	1050.112	1056.4315	1063.7441	1162.2299	1170.1637	1172.8324	1195.1248	1225.1596	1245.2912	1274.6941	1299.3347	1314.9119	1337.213	1349.79	1375.7425	1449.2273	1490.0639	1500.9276	1505.6197	1526.6706	1837.1653	3003.406	3016.5481	3024.7945	3030.9646	3043.8053	3056.1463	3067.6508	3090.9515	3103.4219	3110.4293
O=C1CCCC11COC1	O=C1CCCC21COC2	
InChI=1S/C7H10O2/c8-6-2-1-3-7(6)4-9-5-7/h1-5H2	InChI=1S/C7H10O2/c8-6-2-1-3-7(6)4-9-5-7/h1-5H2
