19
gdb 879	3.0456535	1.2641403	0.9927624	1.6236	75.68	-0.2441	-0.0231	0.221	1191.6206	0.157768	-422.552023	-422.543849	-422.542904	-422.58536	30.715	
O	 1.3911438032	-0.1297783782	 0.8352804336	-0.249081
C	 0.5168785755	 0.0438458839	 0.0262831359	 0.156862
C	 0.3254666617	 1.3087637508	-0.7885531638	-0.08559
C	-0.965073027	 2.0426083509	-0.3582375545	-0.242742
C	-1.3323734927	 3.0977603647	-1.3997723193	-0.073316
O	-1.6637503124	 2.4957568519	-2.6424978685	-0.256199
C	-0.6541538416	 1.6989343163	-3.1939206714	 0.094271
C	-0.7630346234	 0.2137623053	-2.9821848761	-0.311921
C	 0.3298113354	 1.0044308089	-2.283541051	-0.07493
H	-0.2424910977	-0.7458507564	-0.1804091794	 0.074052
H	 1.1794134564	 1.9583980279	-0.5673694087	 0.094583
H	-1.8032124393	 1.3413874455	-0.260347185	 0.110857
H	-0.8120056785	 2.5057520553	 0.6218616011	 0.116012
H	-2.2229140196	 3.6552995553	-1.0972697324	 0.113165
H	-0.5047511578	 3.8153173345	-1.5199103432	 0.093282
H	-0.2992074703	 2.0722527969	-4.1518674995	 0.096946
H	-1.6224145198	-0.1116987022	-2.4068897462	 0.12343
H	-0.4687554053	-0.4612268366	-3.7780455614	 0.117259
H	 1.325878933	 0.8638256552	-2.6923403302	 0.10306
56.3615	91.9593	194.8574	264.9643	311.1756	347.7091	406.2225	454.8079	493.9763	582.0194	664.8229	753.1	808.2624	832.047	875.3178	921.4598	959.8746	994.5744	1012.7086	1037.7543	1051.8118	1063.4816	1089.7314	1116.8366	1134.6347	1169.7928	1190.412	1224.2395	1241.6664	1272.5366	1301.7571	1339.3601	1359.2806	1369.6067	1398.4533	1416.6863	1426.8096	1475.5252	1488.3223	1504.3002	1831.8222	2863.9261	2978.491	3032.7585	3050.6698	3086.8148	3092.0133	3125.6212	3138.7513	3150.6169	3227.6493
O=CC1CCOC2CC12	O=C[C@@H]1CCO[C@@H]2C[C@H]12	
InChI=1S/C7H10O2/c8-4-5-1-2-9-7-3-6(5)7/h4-7H,1-3H2	InChI=1S/C7H10O2/c8-4-5-1-2-9-7-3-6(5)7/h4-7H,1-3H2/t5-,6+,7+/m0/s1
