19
gdb 5572	3.4487782	1.3858279	1.2323656	0.3819	73.43	-0.24135	0.06182	0.30317	1078.6341	0.158009	-422.507812	-422.500399	-422.499454	-422.539859	29.226	
C	-0.4028217396	-1.7281600555	-0.5499961714	-0.382115
C	 1.1022553742	-1.9467208114	-0.7390169464	-0.211015
C	 1.8733727896	-0.6508674999	-0.9814618835	 0.047507
C	 1.6690040244	 0.0134246612	-2.3640957657	 0.010846
O	 2.0670969715	-1.0512845475	-3.281513915	-0.288084
C	 3.3928767384	-0.8021409769	-2.8198753825	 0.057729
C	 3.1228298321	 0.6716325538	-2.51907568	 0.055771
O	 3.7903284428	 0.6407784668	-1.2603358406	-0.291281
C	 3.3968879677	-0.7653084956	-1.2167162791	-0.005232
H	-0.6051433501	-1.0445517932	 0.2822662337	 0.113309
H	-0.8608230941	-1.3021820422	-1.4487738706	 0.119828
H	-0.912938987	-2.6723541056	-0.3366612855	 0.114135
H	 1.5138440922	-2.4313240018	 0.1556833425	 0.092947
H	 1.2750918513	-2.6297984879	-1.5760110746	 0.117246
H	 1.7097155225	 0.0636739423	-0.1681221079	 0.08383
H	 0.7313721376	 0.4959214461	-2.6311193843	 0.086029
H	 4.2019820848	-1.2525213627	-3.3910722045	 0.097935
H	 3.2977398928	 1.543955912	-3.1456199273	 0.096789
H	 4.0186685189	-1.382557782	-0.5709748873	 0.083825
76.5646	168.6259	201.8281	281.0126	354.4939	482.3261	529.3352	581.2757	706.6796	737.5934	761.923	798.2548	844.1897	848.7194	875.4313	901.5129	938.4585	953.0099	961.3078	993.8005	1025.732	1045.4216	1073.3504	1105.8925	1116.1288	1140.8968	1161.9767	1164.207	1198.5931	1227.3338	1254.0555	1277.0357	1294.6291	1304.3823	1345.7587	1356.2888	1389.9985	1414.7033	1488.2621	1501.1981	1505.4319	3026.8259	3032.0697	3060.6074	3081.2704	3103.8356	3105.3534	3139.2161	3142.8872	3148.7097	3157.3722
CCC1C2OC3C2OC13	CC[C@@H]1[C@@H]2O[C@H]3[C@@H]2O[C@@H]13	
InChI=1S/C7H10O2/c1-2-3-4-6-7(8-4)5(3)9-6/h3-7H,2H2,1H3	InChI=1S/C7H10O2/c1-2-3-4-6-7(8-4)5(3)9-6/h3-7H,2H2,1H3/t4-,5-,6+,7+/m0/s1
