19
gdb 4881	3.0319595	1.1493022	0.9958622	2.8142	77.86	-0.25226	0.02357	0.27582999999999996	1262.2715	0.15346	-422.502926	-422.492873	-422.491929	-422.538006	36.287	
C	 1.4186737648	 0.4675363628	 1.2264142597	-0.416245
C	 1.5567941526	 0.6663041556	-0.2870139135	-0.229274
C	 2.0159842219	-0.5852259316	-1.0382595968	 0.356269
O	 3.2828186639	-1.0313185256	-0.6313409981	-0.465248
C	 0.9206918244	-1.6670233957	-1.2311637898	-0.126641
O	 0.7238592983	-1.2718960955	-2.6044701888	-0.274055
C	 1.9044141447	-0.4283178588	-2.5905701139	-0.170982
C	 2.9989035555	-0.9456583591	-3.392852569	 0.394319
C	 3.8923877428	-1.3589901696	-4.0818170554	-0.449662
H	 0.7222061896	-0.3432439266	 1.4667728955	 0.125267
H	 2.3807708493	 0.2400188698	 1.7004293376	 0.114176
H	 1.0427708282	 1.3770593851	 1.7030058005	 0.129083
H	 0.5938513613	 0.9830096703	-0.7043944858	 0.115083
H	 2.2742850922	 1.4700491474	-0.4930038604	 0.110947
H	 3.2890318645	-1.0992248982	 0.3288866985	 0.282936
H	 1.3152889367	-2.6871160706	-1.1487209504	 0.107701
H	-0.0001552265	-1.5727250945	-0.6443550189	 0.097406
H	 1.6538331945	 0.5892440304	-2.9168911264	 0.101101
H	 4.6862111211	-1.7298702656	-4.6818928647	 0.197819
50.5148	107.8596	137.3199	165.875	193.546	219.5332	258.7223	320.6292	358.1923	384.7065	425.9456	529.881	599.8504	624.408	669.3399	674.2023	791.3944	856.7487	890.9756	927.4354	972.3739	1003.5458	1015.6899	1036.2933	1070.0894	1102.7098	1158.0385	1185.8706	1214.9308	1267.2074	1300.841	1314.3304	1357.1426	1361.7615	1394.8044	1415.3964	1478.074	1500.0337	1509.5906	1512.5828	2236.7596	3016.0304	3021.3658	3028.3315	3032.5231	3067.3117	3071.3203	3094.81	3111.1344	3503.4074	3818.0309
CCC1(O)COC1C#C	CC[C@@]1(O)CO[C@@H]1C#C	
InChI=1S/C7H10O2/c1-3-6-7(8,4-2)5-9-6/h1,6,8H,4-5H2,2H3	InChI=1S/C7H10O2/c1-3-6-7(8,4-2)5-9-6/h1,6,8H,4-5H2,2H3/t6-,7-/m1/s1
