19
gdb 3501	2.7224842	1.5554822	1.1303087	2.4514	76.22	-0.25147	0.01481	0.26628	1111.7269	0.156999	-422.564556	-422.556125	-422.55518	-422.597204	32.61	
C	-1.8437370765	 4.2149511441	 1.5906473443	-0.469378
C	-1.6216587851	 2.7258687518	 1.455304926	 0.40319
C	-2.7192087024	 1.8402956502	 2.0138618783	-0.338565
C	-2.6294998424	 0.4003127586	 1.5947466774	-0.051249
C	-1.8115769213	-0.0582714531	 0.6509566068	-0.096611
C	-0.8361693354	 0.7873816621	-0.1216764116	 0.067455
O	 0.4592722314	 0.1870914779	-0.1392668512	-0.436898
C	-0.7340531392	 2.2048188735	 0.4016384404	-0.052909
O	-0.2839220742	 2.2934532402	 1.7637206464	-0.304344
H	-2.0011932077	 4.4863026684	 2.6405027388	 0.126621
H	-0.9758936913	 4.7672796167	 1.2225507351	 0.130988
H	-2.7271528983	 4.5316275786	 1.0261345201	 0.12219
H	-2.7016280739	 1.9119846029	 3.1105674594	 0.119776
H	-3.6932179522	 2.2528759881	 1.7129862704	 0.116561
H	-3.2959762131	-0.28852071	 2.1084743793	 0.092789
H	-1.7953552323	-1.1150611917	 0.3982501354	 0.097673
H	-1.1370621468	 0.8265228704	-1.1773419804	 0.092872
H	 0.7850407203	 0.243165493	 0.7680119882	 0.289781
H	-0.2455518897	 2.9105290984	-0.2709866232	 0.090057
96.4057	159.9005	200.6346	260.445	295.6599	352.1705	379.7227	428.8951	452.0248	484.8728	509.673	633.8095	693.0794	750.807	804.8319	877.6392	891.1005	913.6468	942.2005	990.7162	1007.7746	1022.9986	1048.8908	1082.2092	1109.8094	1129.521	1192.0124	1224.1678	1249.3081	1262.7271	1321.6085	1360.9632	1383.5376	1408.0012	1414.6077	1427.3394	1457.1062	1469.5246	1488.2891	1503.1776	1731.9085	3004.3265	3020.8023	3029.0822	3034.5582	3097.2499	3106.8729	3125.2801	3148.7724	3174.566	3780.2368
CC12CC=CC(O)C1O2	C[C@@]12CC=C[C@H](O)[C@@H]1O2	
InChI=1S/C7H10O2/c1-7-4-2-3-5(8)6(7)9-7/h2-3,5-6,8H,4H2,1H3	InChI=1S/C7H10O2/c1-7-4-2-3-5(8)6(7)9-7/h2-3,5-6,8H,4H2,1H3/t5-,6-,7+/m0/s1
