19
gdb 4493	3.0519791	1.5486999	1.2519488	1.6746	74.68	-0.2474	0.01222	0.25962	1034.2533	0.15963	-422.579611	-422.572105	-422.571161	-422.611536	29.707	
O	 0.4430192697	 0.5552842419	 0.183318126	-0.44531
C	-0.7586001442	-0.0652211332	 0.6125050892	 0.13395
C	-1.0400877361	 0.2527862459	 2.0835055353	-0.132267
O	-1.51798939	 1.5958642299	 2.0362733241	-0.280009
C	-2.4372912297	 1.6597236431	 0.9266681094	 0.059385
C	-3.8439748264	 1.2796369336	 1.3140052778	-0.082918
C	-4.2542722968	 0.1693295479	 0.7052252936	-0.061821
C	-3.2187751605	-0.4029594489	-0.2301772775	-0.283433
C	-1.9994788475	 0.545955976	-0.0830545612	-0.072808
H	 0.4301126487	 1.4519322959	 0.5401607721	 0.285112
H	-0.6441356916	-1.1328784749	 0.4089328388	 0.083483
H	-1.7930163865	-0.4277329389	 2.5085985156	 0.095268
H	-0.1409797323	 0.231302891	 2.7034183509	 0.114103
H	-2.3655815073	 2.6811400896	 0.5399417461	 0.082909
H	-4.4130959311	 1.859770709	 2.0312851408	 0.099733
H	-5.224835254	-0.2964102139	 0.8433079164	 0.098514
H	-2.9759172331	-1.4430601323	 0.0264130037	 0.106571
H	-3.5827415631	-0.4294640737	-1.2644324286	 0.113386
H	-1.6907622182	 0.9521245223	-1.0465792124	 0.086152
88.9762	168.7963	231.2126	312.5574	373.3756	417.2666	449.4964	492.9517	614.6595	715.6293	759.7211	785.4195	809.4079	866.9169	877.7938	903.0777	939.8088	956.3543	981.6534	999.3591	1022.1633	1029.7771	1064.439	1078.3094	1105.6512	1129.9547	1175.611	1217.055	1230.5634	1266.7862	1289.4762	1301.7805	1322.4504	1331.0776	1342.6641	1372.1528	1383.0642	1431.6499	1485.6878	1504.1729	1688.8245	2995.725	3016.1837	3045.3531	3055.8469	3087.2909	3107.4795	3110.5094	3179.2366	3209.4112	3782.812
OC1COC2C=CCC12	O[C@H]1CO[C@@H]2C=CC[C@H]12	
InChI=1S/C7H10O2/c8-6-4-9-7-3-1-2-5(6)7/h1,3,5-8H,2,4H2	InChI=1S/C7H10O2/c8-6-4-9-7-3-1-2-5(6)7/h1,3,5-8H,2,4H2/t5-,6+,7-/m1/s1
