19
gdb 967	5.7896298	0.7378754	0.7295667	2.747	77.37	-0.25763	-0.02864	0.22899000000000003	1572.6675	0.155786	-422.500965	-422.492376	-422.491432	-422.535753	30.861	
O	-3.6482340931	 1.0878149803	-3.2588408126	-0.23757
C	-2.7801985536	 1.6064281334	-2.6092823937	 0.138557
C	-1.7564541204	 0.8300723676	-1.7990970647	-0.160324
O	-0.8272587256	 1.745084657	-1.2736565441	-0.272805
C	 0.0877519827	 1.1738250744	-0.3768947699	 0.200423
C	 1.2794856325	 2.067377593	 0.0320476554	-0.088794
C	 1.9867282566	 0.7505822517	 0.4675608753	-0.223338
C	 1.3545761158	 0.4320873807	-0.9167140228	-0.090632
C	 1.872204776	 1.824143957	-1.3907772809	-0.217159
H	-2.6563961534	 2.7097386275	-2.540614241	 0.097396
H	-2.2878138597	 0.28369603	-1.000487166	 0.122498
H	-1.2845697893	 0.0746620085	-2.4466694395	 0.127241
H	-0.4467604261	 0.6663372789	 0.4399686503	 0.063721
H	 1.2297399145	 3.0072701528	 0.5822647495	 0.076584
H	 3.0773778127	 0.7836176084	 0.4964872474	 0.100623
H	 1.5774569601	 0.2282971501	 1.3374020013	 0.092339
H	 1.397095754	-0.5150757836	-1.4558909958	 0.072606
H	 2.9561802184	 1.926886468	-1.4844778715	 0.090877
H	 1.344783338	 2.2879425944	-2.2235905468	 0.107757
49.7651	61.9908	94.248	121.2291	299.1206	319.4855	370.653	530.9832	547.9005	648.9579	740.5909	771.857	806.8294	880.5128	902.0095	909.5223	919.3968	1009.9717	1020.5007	1026.1208	1039.8677	1084.7491	1103.3906	1111.5312	1116.488	1120.8371	1154.1155	1185.15	1198.9441	1217.4099	1238.4188	1246.7566	1259.2675	1280.3348	1346.6773	1398.5725	1422.1808	1482.7701	1496.3021	1534.2098	1845.367	2899.5306	2963.0028	2994.4965	3005.8482	3054.2774	3069.0234	3104.8339	3113.9267	3126.198	3149.3182
O=CCOC1C2CC1C2	O=CCO[C@@H]1[C@H]2C[C@@H]1C2	
InChI=1S/C7H10O2/c8-1-2-9-7-5-3-6(7)4-5/h1,5-7H,2-4H2	InChI=1S/C7H10O2/c8-1-2-9-7-5-3-6(7)4-5/h1,5-7H,2-4H2/t5-,6+,7-
