19
gdb 1763	2.2282167	1.7403525	1.2745045	3.2187	74.46	-0.23598	-0.02151	0.21447	1050.3668	0.156844	-422.586969	-422.578731	-422.577787	-422.619713	32.086	
O	-2.7682604799	-0.0631944732	 1.2127285029	-0.488322
C	-2.0330792777	-0.0651619574	 0.0095601598	 0.414308
C	-0.9302393856	-1.1746536309	-0.0924287877	-0.419974
C	 0.1124261497	-0.0576929101	-0.2410972702	 0.416857
O	 1.2862713222	-0.0453534509	-0.4791108363	-0.305827
C	-0.9325338375	 1.051911583	-0.039616498	-0.172596
C	-1.2081003075	 1.9081680696	-1.2862214321	-0.220972
C	-1.9960382267	 0.9607325079	-2.2161583279	-0.223474
C	-2.8868304794	 0.1489787968	-1.2546418699	-0.279492
H	-3.3958071464	-0.7934436373	 1.1836867592	 0.277991
H	-0.8152403224	-1.7222457178	 0.8487125371	 0.133462
H	-0.9856481332	-1.8883492765	-0.9203138695	 0.120417
H	-0.7962405901	 1.6201624799	 0.8835230321	 0.105515
H	-1.8261277748	 2.7695831148	-1.0098403095	 0.107596
H	-0.2885039294	 2.2894232818	-1.7385407129	 0.118161
H	-2.5728783761	 1.4926141581	-2.9771322962	 0.103898
H	-1.3034577735	 0.2960613226	-2.7468069231	 0.112221
H	-3.7584225938	 0.7452973099	-0.9607460303	 0.107796
H	-3.2519802778	-0.7866517104	-1.6913801974	 0.092434
60.8262	165.781	236.4398	264.0339	308.2713	360.7004	381.9805	439.7785	524.0538	565.3635	584.3803	603.0622	731.7981	799.3048	828.8943	872.3178	893.7712	904.8188	933.1877	973.874	1009.577	1033.3488	1059.144	1082.7507	1116.0871	1135.6194	1183.963	1195.0051	1221.02	1252.5482	1262.3483	1274.914	1317.8572	1333.4721	1346.1147	1378.0782	1420.9431	1482.8078	1490.0515	1504.5925	1886.3632	3035.0068	3035.762	3045.0002	3047.943	3081.4923	3093.3151	3094.9039	3102.8732	3106.9842	3803.8841
OC12CC(=O)C1CCC2	O[C@]12CC(=O)[C@H]1CCC2	
InChI=1S/C7H10O2/c8-6-4-7(9)3-1-2-5(6)7/h5,9H,1-4H2	InChI=1S/C7H10O2/c8-6-4-7(9)3-1-2-5(6)7/h5,9H,1-4H2/t5-,7-/m1/s1
