19
gdb 2731	2.8323834	1.409961	1.2198672	1.9208	76.05	-0.2439	0.08573	0.32963	1110.5521	0.155442	-422.510089	-422.501385	-422.500441	-422.543029	33.352	
C	 1.1487913506	-0.8247193903	-3.217311207	-0.512651
C	 0.4391976591	 0.0833362608	-2.2689669808	 0.391604
O	 0.5885031682	 1.5078325707	-2.4338088142	-0.305373
C	-0.7476410603	 0.9513579851	-2.3891018587	-0.160459
C	-1.0900006915	 0.7848530463	-0.9283334719	 0.349134
C	-2.4347073481	 0.5573123843	-0.307758372	-0.344043
C	-1.6311630012	 1.7919995049	 0.0368298777	-0.32137
C	 0.177831636	-0.1025452744	-0.7499986214	-0.017978
O	 1.1832556961	 0.3468391133	 0.1148280519	-0.435685
H	 2.2110620726	-0.8951614477	-2.9584673026	 0.137704
H	 0.7258286553	-1.8336100511	-3.1766442665	 0.127106
H	 1.06931659	-0.4500145567	-4.2412612551	 0.134347
H	-1.3914806911	 1.1468697033	-3.2393911858	 0.105714
H	-3.3153871168	 0.6800769314	-0.9307163071	 0.113487
H	-2.5244937702	-0.225377159	 0.4390823069	 0.117341
H	-1.9682098008	 2.7498106721	-0.3454442082	 0.116285
H	-1.1569451312	 1.8348368771	 1.0121572294	 0.125574
H	-0.0575070419	-1.1335096181	-0.4699924383	 0.090618
H	 1.4359846253	 1.2194119876	-0.2155857765	 0.288646
97.0494	185.2176	199.0824	213.537	214.6295	260.0571	328.5139	451.5244	480.4122	511.0795	570.3469	613.6011	718.8199	779.3578	793.205	848.2219	866.7119	895.8655	935.7082	965.7793	979.5576	1015.652	1030.5898	1052.3325	1077.3379	1096.2405	1124.2583	1186.08	1187.5239	1201.3505	1219.8632	1263.3903	1291.491	1396.8662	1403.9136	1428.8913	1462.3431	1466.5543	1482.9622	1492.6718	1505.2708	3035.6077	3075.8084	3099.4273	3120.8807	3121.377	3128.6229	3183.3305	3200.5613	3217.7312	3764.8972
CC12OC1C1(CC1)C2O	C[C@@]12O[C@@H]1C1(CC1)[C@@H]2O	
InChI=1S/C7H10O2/c1-6-4(8)7(2-3-7)5(6)9-6/h4-5,8H,2-3H2,1H3	InChI=1S/C7H10O2/c1-6-4(8)7(2-3-7)5(6)9-6/h4-5,8H,2-3H2,1H3/t4-,5+,6+/m1/s1
