19
gdb 3358	3.1410353	1.4897544	1.2883998	1.1164	75.08	-0.23424	0.07722	0.31146	1047.4335	0.157425	-422.507501	-422.49972	-422.498775	-422.539392	30.524	
C	 2.4512941338	-0.0203784647	-1.666584179	-0.445076
C	 1.8231327066	 0.3557490974	-0.3361082729	 0.02589
C	 2.4340058044	 1.4848104094	 0.5805663043	-0.196304
C	 3.8491161678	 0.9420071693	 0.8161176357	-0.087012
O	 3.5589081246	-0.4643420535	 1.0349358259	-0.280041
C	 2.1243826933	-0.4951081138	 0.934092753	-0.017762
C	 1.7124877247	 0.750135976	 1.728429275	 0.525449
C	 1.4484455919	 1.0316410537	 3.1301074258	-0.309197
O	 0.3948660584	 1.033111764	 2.1355310293	-0.302992
H	 1.8914645144	-0.8360525399	-2.1361851636	 0.119857
H	 2.4438575992	 0.8265216646	-2.3613017688	 0.116717
H	 3.4832132684	-0.3579412065	-1.5437265641	 0.134959
H	 0.746602721	 0.520064131	-0.4301619181	 0.098304
H	 2.3063627013	 2.5478072209	 0.3829146307	 0.080526
H	 4.5210271371	 1.0581938846	-0.0411152598	 0.103571
H	 4.3299630824	 1.366016715	 1.7051539828	 0.104172
H	 1.7511968632	-1.501319409	 1.1146827418	 0.086277
H	 1.401013547	 0.2173527308	 3.8510241533	 0.123746
H	 1.6861993904	 2.0095651705	 3.5461193389	 0.118917
148.4425	175.803	222.1569	259.3438	283.1831	324.3708	425.9452	461.2685	586.142	652.0766	692.4995	749.4786	801.2165	882.8568	892.3192	919.5968	934.2261	968.403	979.4195	1017.8989	1053.2706	1062.4261	1079.8751	1112.7463	1119.5461	1134.3059	1155.4798	1159.8535	1192.0334	1217.4924	1230.2859	1263.9286	1282.9704	1361.7632	1390.5248	1410.7683	1462.6027	1490.8143	1502.8507	1529.6799	1551.6539	3028.773	3037.0073	3068.3092	3082.4898	3087.2419	3096.0113	3123.9962	3137.6979	3147.8637	3174.4578
CC1C2COC1C21CO1	C[C@@H]1[C@@H]2CO[C@H]1[C@]12CO1	
InChI=1S/C7H10O2/c1-4-5-2-8-6(4)7(5)3-9-7/h4-6H,2-3H2,1H3	InChI=1S/C7H10O2/c1-4-5-2-8-6(4)7(5)3-9-7/h4-6H,2-3H2,1H3/t4-,5+,6-,7-/m1/s1
