19
gdb 2749	2.7448894	1.5844209	1.4994638	0.6131	73.9	-0.21646	0.06642	0.28288	989.3602	0.157943	-422.512384	-422.504559	-422.503615	-422.544213	30.948	
O	 0.0723196826	-0.2987200206	-0.3047157365	-0.423044
C	-0.4599505304	 0.5211962995	 0.689967423	 0.013261
C	-1.6824731803	 0.0555464536	 1.4288385353	 0.168566
C	-1.6413672078	-1.4648478186	 1.6987061056	-0.276155
C	-0.3029022996	-1.2873710807	 2.4913574787	-0.286353
C	-0.3426717488	 0.2122944357	 2.1550338975	 0.261278
O	-0.3980641804	 1.2743147499	 3.0525515705	-0.285434
C	-1.7924226851	 1.5275194501	 3.3289205631	-0.081342
C	-2.5958446333	 1.0904502351	 2.0621015193	-0.326721
H	 1.029440148	-0.189446612	-0.2962932403	 0.290349
H	-0.4463454065	 1.5906625752	 0.4767446503	 0.09208
H	-2.4675648332	-1.8005576226	 2.3293431299	 0.099695
H	-1.5951515536	-2.0919894137	 0.8066420346	 0.117753
H	-0.4256486929	-1.459983687	 3.5623654961	 0.109919
H	 0.5700741898	-1.8444779747	 2.1401013613	 0.096262
H	-2.108566664	 0.9432185091	 4.205495137	 0.09784
H	-1.8926864854	 2.5894252271	 3.5709621304	 0.110726
H	-3.5705605713	 0.6765327872	 2.3355705659	 0.109581
H	-2.7723304477	 1.9441680874	 1.400259018	 0.11174
139.4242	195.5195	223.3101	254.684	308.8963	345.4925	385.4452	489.1946	557.0222	645.427	691.061	755.8819	765.3406	772.8887	825.1469	855.1728	916.0386	944.6073	963.6191	972.5639	1015.7364	1029.7608	1086.6068	1134.1009	1167.9381	1189.932	1220.9834	1228.3575	1238.1227	1245.9109	1258.1897	1289.5345	1306.0586	1309.7137	1321.9707	1376.9983	1453.5467	1467.362	1482.7084	1496.657	1517.6695	2996.8309	3050.0019	3057.5253	3069.1894	3087.7175	3099.7651	3103.3648	3112.2616	3130.4189	3804.6203
OC1C23CCC12OCC3	O[C@H]1[C@@]23CC[C@@]12OCC3	
InChI=1S/C7H10O2/c8-5-6-1-2-7(5,6)9-4-3-6/h5,8H,1-4H2	InChI=1S/C7H10O2/c8-5-6-1-2-7(5,6)9-4-3-6/h5,8H,1-4H2/t5-,6-,7+/m0/s1
