19
gdb 3902	2.8273178	1.3705745	1.0797457	1.166	76.49	-0.25322	-0.0356	0.21762	1156.1994	0.15593	-422.533093	-422.524421	-422.523477	-422.566734	31.847	
C	 1.6554091236	 1.3780962922	 0.1787107031	-0.407095
C	 1.3296083036	-0.0840208954	-0.0810307236	 0.024386
C	 1.698763408	-1.1439905817	 1.0074321427	-0.325466
C	 2.4686754256	-1.9825228105	-0.0426261953	 0.200208
C	 3.9420736591	-1.5841982027	-0.2380459271	-0.132284
O	 3.6016567075	-0.4655969007	-1.0845159022	-0.282315
C	 2.2133854513	-0.8393302928	-1.1042437465	 0.058983
C	 2.0576754053	-3.3931263021	-0.2901859757	 0.056931
O	 1.1220224494	-3.9412101315	 0.2393815115	-0.251074
H	 1.0972588027	 1.7508912705	 1.0437769031	 0.117135
H	 2.7237229167	 1.5052156255	 0.3738681929	 0.13011
H	 1.3963700382	 2.0028262059	-0.6828572569	 0.118138
H	 0.278981706	-0.1963240901	-0.3708071388	 0.083733
H	 2.3267741104	-0.7706049945	 1.8212147886	 0.101468
H	 0.8483526746	-1.6806703692	 1.4299905125	 0.132209
H	 4.4846821463	-1.2807931403	 0.6646737766	 0.111987
H	 4.5362384703	-2.3286457689	-0.786779071	 0.105879
H	 1.8410291328	-0.9962679452	-2.1210121265	 0.083094
H	 2.6762957686	-3.9247324084	-1.0508047774	 0.073971
67.4935	97.8512	188.7684	217.2046	232.5736	258.1557	352.1814	368.6683	469.6499	540.2717	627.2828	729.2105	789.6624	839.6603	877.979	890.0167	904.8678	958.6656	973.882	1018.6994	1033.4701	1073.9598	1082.8066	1124.9593	1162.1678	1181.7536	1193.0205	1220.528	1251.7676	1273.8142	1300.5397	1324.1264	1354.1875	1367.6098	1407.6003	1427.7291	1480.3697	1490.4767	1500.7985	1519.0125	1811.321	2857.2009	2998.7796	3034.9226	3043.2249	3059.6158	3063.6289	3066.7579	3099.3293	3118.9099	3132.2276
CC1CC2(COC12)C=O	C[C@@H]1C[C@@]2(CO[C@H]12)C=O	
InChI=1S/C7H10O2/c1-5-2-7(3-8)4-9-6(5)7/h3,5-6H,2,4H2,1H3	InChI=1S/C7H10O2/c1-5-2-7(3-8)4-9-6(5)7/h3,5-6H,2,4H2,1H3/t5-,6-,7+/m1/s1
