19
gdb 1426	2.8844969	1.7522117	1.5593665	2.0306	73.06	-0.23654	0.0879	0.32444	941.3381	0.158147	-422.54122	-422.533789	-422.532845	-422.57243	30.57	
C	 0.0817036972	-0.0356726179	 0.0367043526	-0.430256
C	 1.5992448196	 0.0308916603	-0.0084294397	 0.438314
O	 2.0642302457	-0.2285131361	 1.2989142596	-0.488026
C	 2.2205958977	-0.7951634626	-1.1377886029	-0.170718
C	 3.6068921743	-0.2556313074	-1.4247136388	 0.084435
O	 4.27469031	 0.4690708176	-0.4017788478	-0.289054
C	 3.5209318565	 1.6822893123	-0.2004190314	-0.104228
C	 2.1348777601	 1.3389914134	-0.7287266877	-0.150725
C	 2.4379815175	 0.4749847862	-1.9779583877	-0.112473
H	-0.299568502	 0.678784108	 0.7727050068	 0.122442
H	-0.3526972154	 0.1968373336	-0.9391137857	 0.115233
H	-0.2432115139	-1.0367236922	 0.3361325819	 0.121484
H	 3.0212475408	-0.3400778759	 1.2346044069	 0.290888
H	 1.905502919	-1.7844162418	-1.4541814764	 0.082096
H	 4.2770704521	-0.8334491016	-2.0490999526	 0.107699
H	 3.5281323328	 1.910577026	 0.869005793	 0.118534
H	 3.9825053233	 2.5129290216	-0.7528399425	 0.098914
H	 1.4428089281	 2.1769783568	-0.8073316881	 0.072605
H	 2.2270935867	 0.6876251099	-3.0165372994	 0.092837
176.1972	238.6322	239.4155	288.2542	341.2731	397.3947	484.6574	554.4828	586.0042	623.296	693.5082	742.9053	775.6852	807.6094	848.1141	895.6459	922.254	929.3408	960.4936	980.0901	1000.2131	1012.4977	1040.0921	1061.2406	1062.2311	1098.1457	1129.8649	1171.273	1186.211	1216.2823	1235.0585	1247.9131	1267.9902	1311.8053	1356.454	1394.1981	1403.1393	1438.4329	1481.8332	1497.7977	1511.5036	3005.8907	3040.8426	3093.3397	3111.7939	3120.2022	3123.5701	3161.0125	3195.1605	3213.2523	3772.3867
CC1(O)C2C3OCC1C23	C[C@@]1(O)[C@@H]2[C@@H]3OC[C@H]1[C@H]23	
InChI=1S/C7H10O2/c1-7(8)3-2-9-6-4(3)5(6)7/h3-6,8H,2H2,1H3	InChI=1S/C7H10O2/c1-7(8)3-2-9-6-4(3)5(6)7/h3-6,8H,2H2,1H3/t3-,4+,5-,6+,7-/m0/s1
