19
gdb 5782	2.7588335	1.3165025	0.9800915	2.032	75.42	-0.23676	-0.0104	0.22636	1213.4715	0.157739	-422.578161	-422.569649	-422.568705	-422.611559	31.935	
O	-0.1651908068	 0.3781577549	-1.0896119262	-0.428755
C	 0.3273015808	-0.2484518171	 0.0865174139	-0.093121
C	-0.0800188898	 0.61145031	 1.2725434752	-0.117841
C	 0.5573785526	 2.0172224812	 1.3187192491	-0.226895
C	 0.7601323282	 2.3333022597	 2.8006134089	-0.040735
C	-0.414768335	 2.1548091492	 3.7010550187	-0.290147
C	 0.6236235352	 1.0394633389	 3.5941679525	-0.139229
C	 0.3131229071	-0.0405612582	 2.6144265405	 0.414109
O	 0.4156447486	-1.2295019707	 2.803199908	-0.345758
H	 0.0809818934	-0.1659436531	-1.8434030714	 0.288011
H	-0.0844405375	-1.2578142947	 0.2201157106	 0.109983
H	 1.4251146172	-0.3419528464	 0.0603778721	 0.088186
H	-1.1753451344	 0.6911465418	 1.2510425037	 0.11065
H	 1.5308644681	 1.9918416154	 0.8154807669	 0.108136
H	-0.0484306032	 2.7709426681	 0.8084999478	 0.114943
H	 1.5173853198	 3.0579087294	 3.0773168123	 0.095059
H	-0.4180786041	 2.6920659996	 4.6426907893	 0.12451
H	-1.4011023743	 1.9955609287	 3.2777515799	 0.123726
H	 1.2200604439	 0.7905247032	 4.4623336082	 0.105167
80.3868	101.5497	170.7692	212.8701	276.6633	313.3579	370.2662	403.0632	503.7949	576.7837	609.1119	696.0189	795.174	827.8114	832.6389	877.3496	916.884	929.4295	971.6172	1003.9588	1050.5438	1067.3342	1082.6671	1101.5903	1107.0032	1132.9518	1181.7545	1196.9752	1204.0233	1235.9944	1252.9518	1295.3961	1317.4484	1329.0078	1347.7305	1385.709	1454.821	1488.121	1497.8806	1523.1494	1821.3752	2972.2228	3019.3241	3034.4424	3044.1537	3092.0761	3133.3819	3175.1872	3201.6443	3220.2327	3828.6833
OCC1CC2CC2C1=O	OC[C@@H]1C[C@H]2C[C@H]2C1=O	
InChI=1S/C7H10O2/c8-3-5-1-4-2-6(4)7(5)9/h4-6,8H,1-3H2	InChI=1S/C7H10O2/c8-3-5-1-4-2-6(4)7(5)9/h4-6,8H,1-3H2/t4-,5-,6+/m0/s1
