19
gdb 5512	2.3405456	1.291847	1.151092	3.0199	76.25	-0.24984	-0.00611	0.24373	1207.4828	0.154253	-422.513078	-422.503701	-422.502757	-422.547397	33.96	
C	 1.5717195225	 1.3378487263	 0.3173596631	-0.377069
C	 1.1158199277	-0.1174731262	 0.1564755305	-0.236605
C	 1.657225158	-0.7669684709	-1.1080195982	-0.010449
C	 1.0658461375	-0.4540592506	-2.5099748252	-0.080352
O	 1.6296175169	-1.7409875508	-2.9912896278	-0.339161
C	 1.0832154337	-2.1138714795	-1.6456557899	 0.258086
C	 1.2521903683	-3.5148508101	-1.1600531596	-0.526155
C	-0.1654197673	-1.3196519843	-2.1373807756	 0.420393
O	-1.3402686385	-1.4109540148	-2.2804740578	-0.319481
H	 1.1868650038	 1.7700593662	 1.2454837617	 0.120531
H	 2.664344736	 1.4098528141	 0.3421862551	 0.120274
H	 1.2170443283	 1.9595190455	-0.511412029	 0.122459
H	 1.4485588705	-0.7044087791	 1.0218502994	 0.106844
H	 0.0193595642	-0.1630355745	 0.1599130894	 0.115285
H	 2.7507748228	-0.7784984083	-1.1600354932	 0.089547
H	 1.185346978	 0.4160205157	-3.1514097418	 0.109385
H	 0.7776601638	-3.6275006858	-0.1802814766	 0.139613
H	 0.7806562441	-4.2187285098	-1.8516085694	 0.148588
H	 2.3113130398	-3.7717179232	-1.064360585	 0.138266
71.6562	129.3532	141.398	157.9584	204.1727	222.0698	263.3133	317.1981	435.9491	473.0832	553.1819	655.0982	680.8033	738.3603	788.8454	805.0454	856.8888	872.1914	893.4526	965.0031	986.524	1027.2088	1053.4187	1097.7111	1116.4524	1160.8974	1190.3687	1213.1223	1222.2835	1284.0524	1330.2123	1354.2208	1398.3979	1413.5115	1424.8756	1474.3577	1484.9699	1487.3373	1500.123	1506.0546	1926.8706	3022.9217	3035.2091	3042.8507	3052.7101	3074.1329	3103.0501	3110.4471	3115.7425	3120.9406	3156.4506
CCC1C2OC1(C)C2=O	CC[C@@H]1[C@H]2O[C@]1(C)C2=O	
InChI=1S/C7H10O2/c1-3-4-5-6(8)7(4,2)9-5/h4-5H,3H2,1-2H3	InChI=1S/C7H10O2/c1-3-4-5-6(8)7(4,2)9-5/h4-5H,3H2,1-2H3/t4-,5-,7+/m1/s1
