19
gdb 3346	2.5624153	1.2503487	0.9425235	3.1995	76.49	-0.23486	-0.02273	0.21213	1267.4746	0.154633	-422.522633	-422.513379	-422.512435	-422.557785	33.077	
C	-3.4302445567	 0.7932487595	 0.5546241148	-0.430268
C	-2.5226972402	 1.9604414743	 0.2302054366	-0.060959
C	-2.1816879302	 2.9145553787	 1.3671060813	-0.212104
C	-1.3170201642	 4.0431171657	 0.8254569035	-0.098484
O	-0.4029937847	 3.095960055	 0.2050160173	-0.328211
C	-1.1264907247	 1.9954394197	 0.7837707488	 0.454147
C	-0.3009459741	 0.8502540508	 1.2973373085	-0.390477
C	 0.3971442439	 0.1173061866	 0.1625618248	 0.159577
O	 0.3870658145	-1.078355756	 0.0221438125	-0.239926
H	-3.2806570754	 0.4367575459	 1.5788546582	 0.119331
H	-4.4818772916	 1.0838635995	 0.4613628479	 0.125073
H	-3.2515832812	-0.050178595	-0.12012587	 0.134261
H	-2.6550702856	 2.388372115	-0.7627848053	 0.089351
H	-2.6903021321	 2.8904579867	 2.3221447109	 0.100981
H	-1.7693781484	 4.7236402815	 0.0942788131	 0.10751
H	-0.7996550838	 4.6218935127	 1.5990409942	 0.110508
H	 0.4749826267	 1.2460722476	 1.9676238528	 0.13008
H	-0.9069698364	 0.1322033724	 1.8541936724	 0.129092
H	 0.9365707342	 0.7795299794	-0.5487763724	 0.100518
37.7784	55.7727	149.7644	200.962	239.4833	253.3117	263.8375	379.5613	406.8504	470.5566	492.4051	686.7796	735.8437	813.5587	833.5879	917.7912	944.8089	950.5806	981.7228	987.8649	1018.1247	1056.9005	1076.8979	1097.8347	1133.3626	1136.9037	1157.427	1173.0771	1238.2638	1251.4099	1290.027	1337.938	1345.4287	1417.978	1422.3882	1440.7798	1454.6395	1497.1742	1504.0612	1518.6739	1832.0939	2903.4625	3019.475	3022.6908	3033.6355	3070.9946	3096.1222	3100.3758	3115.1349	3118.8979	3196.7219
CC1C2COC12CC=O	C[C@H]1[C@@H]2CO[C@]12CC=O	
InChI=1S/C7H10O2/c1-5-6-4-9-7(5,6)2-3-8/h3,5-6H,2,4H2,1H3	InChI=1S/C7H10O2/c1-5-6-4-9-7(5,6)2-3-8/h3,5-6H,2,4H2,1H3/t5-,6-,7+/m0/s1
