19
gdb 2988	2.533712	1.799668	1.3134675	4.2917	74.43	-0.25818	0.00982	0.268	1016.5001	0.158711	-422.593048	-422.585414	-422.58447	-422.624947	30.142	
C	-0.4223722962	-2.1814736706	 1.2307507206	-0.407469
C	-0.8632212988	-1.2727777824	 0.075813778	-0.123413
C	-2.3716475744	-0.9927830287	 0.0389650715	-0.025787
C	-2.7058461336	 0.1337901328	 1.0624971053	-0.251677
C	-2.2097628266	 1.1001534911	-0.0352299341	 0.126361
C	-2.6483207643	 0.0517064804	-1.0806980412	-0.25781
O	-0.7722955213	 1.1981791123	 0.0042914146	-0.239258
C	-0.0629820691	 0.0420626563	 0.0992307998	 0.417804
O	 1.1333343648	 0.0849698861	 0.1868811928	-0.339447
H	-0.8714659581	-3.1736931923	 1.12592797	 0.114529
H	 0.6644785205	-2.283586746	 1.2325496884	 0.148212
H	-0.7267624259	-1.7733466553	 2.2000261091	 0.12158
H	-0.5727016434	-1.7608971667	-0.8646314338	 0.11128
H	-2.9567790404	-1.9148471724	 0.0587295789	 0.070948
H	-3.7809269163	 0.2344645275	 1.2271741389	 0.111117
H	-2.181117562	 0.1548156022	 2.0209015156	 0.112464
H	-2.5699339284	 2.1271126445	-0.0853147243	 0.091663
H	-3.7121258544	 0.1413724918	-1.3126351812	 0.109784
H	-2.068603402	-0.0055693306	-2.0059017393	 0.109119
93.5344	212.6699	227.2527	273.6962	383.5557	395.356	442.0055	477.1368	518.284	595.8632	682.858	766.5987	817.4271	840.6993	891.9371	896.975	921.1052	962.5984	977.5815	1029.2669	1058.4135	1074.4912	1096.3594	1112.5404	1124.0971	1151.0447	1168.9437	1209.2899	1246.1409	1269.3845	1282.8176	1306.4344	1335.1074	1362.4541	1389.7123	1405.8511	1470.1417	1495.5994	1498.5514	1504.0631	1846.7098	3017.4547	3042.1823	3060.4326	3065.4069	3083.7657	3107.835	3119.8386	3122.2219	3126.7541	3137.9453
CC1C2CC(C2)OC1=O	C[C@H]1[C@H]2C[C@H](C2)OC1=O	
InChI=1S/C7H10O2/c1-4-5-2-6(3-5)9-7(4)8/h4-6H,2-3H2,1H3	InChI=1S/C7H10O2/c1-4-5-2-6(3-5)9-7(4)8/h4-6H,2-3H2,1H3/t4-,5-,6+/m0/s1
