19
gdb 5932	1.8035191	1.3577525	0.8904254	2.0892	77.45	-0.2582	0.048	0.30619999999999997	1360.5259	0.153366	-422.486369	-422.476239	-422.475295	-422.522265	35.73	
C	 1.4165701472	-0.0583396188	-0.0564973203	-0.223988
O	 0.0145227837	 0.0329846055	 0.0339005176	-0.237604
C	-0.4233558415	 0.5921388421	 1.2522715207	-0.118641
C	-1.9295925307	 0.6984924339	 1.2154625138	 0.399386
C	-2.5185303501	 1.4262577672	 0.0090326572	-0.422926
C	-2.1777943933	 2.8440363875	-0.0161709733	 0.310701
C	-1.8884292547	 4.010688306	-0.0152343799	-0.46705
C	-2.6850224547	 0.641424432	 2.4712171096	-0.229483
O	-2.6404957559	-0.4845763458	 1.5895545835	-0.274513
H	 1.8341381767	-0.7074329956	 0.7290946101	 0.106868
H	 1.6531128362	-0.4886881248	-1.0323204822	 0.130406
H	 1.8953683403	 0.9303585938	 0.0235067051	 0.107185
H	-0.1255638435	-0.0378604399	 2.1049202676	 0.093326
H	 0.0131060749	 1.594582809	 1.3963132391	 0.103658
H	-2.1473824569	 0.9375970899	-0.8983867937	 0.15673
H	-3.6057252494	 1.2947983498	 0.0272508207	 0.136598
H	-1.639934471	 5.0428927017	-0.0261573813	 0.197222
H	-2.1616528314	 0.513953916	 3.4179811488	 0.114199
H	-3.645070676	 1.1511019006	 2.5385960768	 0.117925
41.354	84.4046	107.8133	139.2591	175.3644	232.2873	310.4857	336.3539	352.3094	370.3382	418.6736	454.9613	568.1217	620.9855	647.2284	779.9161	845.9688	909.2172	919.0333	969.4037	990.5273	1028.3581	1049.5043	1128.6045	1155.3525	1165.9696	1184.4819	1196.1521	1228.5925	1255.5841	1297.5397	1332.3688	1384.2074	1449.4957	1464.142	1479.0485	1486.0517	1495.94	1519.0714	1533.3867	2238.6052	2964.1088	2975.6092	3006.2837	3018.0141	3045.4348	3082.4621	3086.2399	3118.0404	3168.329	3506.4472
COCC1(CC#C)CO1	COC[C@]1(CC#C)CO1	
InChI=1S/C7H10O2/c1-3-4-7(5-8-2)6-9-7/h1H,4-6H2,2H3	InChI=1S/C7H10O2/c1-3-4-7(5-8-2)6-9-7/h1H,4-6H2,2H3/t7-/m1/s1
