19
gdb 4138	3.1283425	1.658211	1.3658682	2.4435	74.42	-0.24969	0.0609	0.31059	995.2884	0.157935	-422.489048	-422.481772	-422.480828	-422.520268	29.536	
C	-0.0536064689	 0.0110151701	 0.1406657843	-0.409237
C	 1.4521817147	 0.1455918869	-0.0649585228	-0.07544
C	 2.0134096998	 1.6240954236	 0.129973504	-0.243501
C	 2.9394278796	 1.392547603	 1.3729372776	 0.015532
O	 2.1005657265	 0.5074609558	 2.1539937424	-0.324701
C	 2.3363420948	-0.432992494	 1.0363933944	 0.361958
C	 3.0392196605	-1.647062382	 1.6290222196	-0.18277
O	 4.2474295172	-0.8401791866	 1.7810012027	-0.29596
C	 3.7351462539	 0.172119734	 0.8795173016	 0.103563
H	-0.3291147772	 0.354427631	 1.1413618183	 0.135519
H	-0.6031139654	 0.6109773126	-0.5920521819	 0.113505
H	-0.3787041453	-1.029107953	 0.0303442171	 0.113038
H	 1.7410464117	-0.2519159853	-1.0431623235	 0.077323
H	 2.5434358831	 1.9975289462	-0.7511687377	 0.102442
H	 1.2168524249	 2.326732495	 0.383805177	 0.11486
H	 3.3216339141	 2.2633062369	 1.9084675022	 0.084631
H	 2.6569328589	-2.0099706431	 2.5863115732	 0.124975
H	 3.2034299247	-2.4789068946	 0.9322064075	 0.104745
H	 4.3038967026	 0.2294467434	-0.0522712758	 0.07952
175.0507	228.4359	243.6417	309.6155	316.3958	425.7696	462.8797	510.5943	602.2895	701.0863	755.6749	803.1447	826.6975	863.0574	890.0317	919.8844	926.7693	957.0513	963.0445	1010.6757	1027.4197	1049.6872	1072.1365	1089.5103	1119.3276	1156.2232	1183.005	1202.1315	1223.5187	1232.6026	1272.1823	1289.0022	1295.4741	1323.0458	1355.1781	1384.1927	1406.2862	1480.1738	1495.7931	1496.167	1507.0953	3021.4844	3034.3124	3053.2393	3063.07	3075.5289	3097.3005	3105.4542	3107.6118	3119.2115	3123.4989
CC1CC2OC11COC21	C[C@H]1C[C@H]2O[C@]31CO[C@H]23	
InChI=1S/C7H10O2/c1-4-2-5-6-7(4,9-5)3-8-6/h4-6H,2-3H2,1H3	InChI=1S/C7H10O2/c1-4-2-5-6-7(4,9-5)3-8-6/h4-6H,2-3H2,1H3/t4-,5+,6+,7-/m0/s1
