19
gdb 3877	2.5744085	1.5520179	1.1606373	2.2081	75.7	-0.2548	0.05985	0.31465000000000004	1102.886	0.155931	-422.505707	-422.497189	-422.496245	-422.538815	32.727	
O	 0.3177692584	 0.0159297966	 1.0513762552	-0.444309
C	-1.0532203311	 0.272904891	 1.1323471312	 0.093351
C	-2.0450302341	-0.4712289137	 0.1697470338	-0.373886
C	-2.6761174218	 0.8920560791	-0.1690416112	 0.305895
C	-3.4208774755	 1.3306409013	-1.3923536911	-0.319052
C	-4.1255498666	 1.2842162916	-0.0593656135	-0.323483
C	-1.5199335513	 1.5949746081	 0.4979877746	 0.303592
C	-1.2020576515	 2.9782505897	 0.8322443655	-0.26729
O	-0.5458454162	 2.3164836635	-0.2675263983	-0.282676
H	 0.6624723666	 0.6199782559	 0.3785621713	 0.291597
H	-1.3645301045	 0.1744733155	 2.1779921456	 0.090318
H	-1.5110665552	-0.9149812978	-0.6754448817	 0.110253
H	-2.6935337402	-1.2226917804	 0.6261213606	 0.102547
H	-3.1665827289	 2.2989976641	-1.8108512357	 0.122579
H	-3.6669839917	 0.5743194608	-2.1303191233	 0.118766
H	-4.3671220212	 2.2224467738	 0.4299074684	 0.113544
H	-4.847475348	 0.4920022435	 0.1111642006	 0.116899
H	-1.8778367778	 3.7819915507	 0.5420600116	 0.117592
H	-0.5680012892	 3.1930707668	 1.6915081565	 0.123761
58.2727	178.3829	192.8848	234.1361	248.142	315.5201	409.8808	423.9432	471.4489	515.1392	578.7455	654.9198	766.9267	783.1598	829.2431	864.6369	875.9756	917.7196	941.2739	968.1273	999.4398	1049.8419	1053.0154	1073.2148	1114.5605	1117.091	1141.5553	1161.2243	1170.2575	1188.2541	1192.8688	1239.0161	1259.9834	1342.7581	1371.3876	1429.7121	1452.6154	1464.966	1483.6636	1501.1916	1536.5227	3049.4994	3056.6415	3081.1644	3115.4354	3124.468	3130.0134	3167.5176	3204.1134	3219.4641	3739.9524
OC1CC2(CC2)C11CO1	O[C@@H]1CC2(CC2)[C@]21CO2	
InChI=1S/C7H10O2/c8-5-3-6(1-2-6)7(5)4-9-7/h5,8H,1-4H2	InChI=1S/C7H10O2/c8-5-3-6(1-2-6)7(5)4-9-7/h5,8H,1-4H2/t5-,7-/m1/s1
