19
gdb 3510	2.2764695	1.8066887	1.2987996	1.8505	76.36	-0.23978	0.00968	0.24946	1040.9389	0.157439	-422.546322	-422.538115	-422.537171	-422.57876	32.088	
O	 0.3948812812	-0.190381647	 0.4389823807	-0.432622
C	-0.9375131929	 0.1419479894	 0.8335212976	 0.027833
C	-0.9584079344	 0.7209136209	 2.2290290674	-0.100163
C	-1.2183914199	 2.008803279	 2.4432769843	-0.065194
C	-1.4978269316	 2.9599140336	 1.3134700427	-0.140383
O	-1.1262417981	 2.4294107386	 0.0498733075	-0.298499
C	-1.5938952902	 1.1135142401	-0.1281600036	 0.410664
C	-1.8686849115	 0.7222820068	-1.5388464673	-0.326746
C	-3.0233180697	 0.9258185757	-0.57483817	-0.334174
H	 0.8813773259	 0.6421814977	 0.4124968506	 0.280466
H	-1.4792649479	-0.8102283874	 0.8129131138	 0.085305
H	-0.7157644357	 0.0492515081	 3.0471204389	 0.098021
H	-1.2391041819	 2.4240484387	 3.4478437765	 0.097063
H	-2.5647967137	 3.2457988233	 1.3138788554	 0.103272
H	-0.9208649446	 3.8836574716	 1.4350921159	 0.117336
H	-1.7128104081	 1.4848957729	-2.293156711	 0.122852
H	-1.6077185631	-0.2848428797	-1.8437572462	 0.123653
H	-3.6206967269	 1.8216183709	-0.7028462561	 0.1173
H	-3.572852717	 0.0588663868	-0.2237107873	 0.114017
90.5578	173.7233	219.6535	250.0244	297.8559	354.5914	390.1379	443.7566	507.2342	531.3119	582.8194	709.2116	752.1521	769.2835	848.2217	883.8296	912.9034	924.0398	970.1447	992.2941	1003.9607	1013.2589	1045.4625	1054.4969	1067.6866	1076.562	1110.4334	1183.4092	1186.1944	1256.019	1267.1705	1282.936	1291.2663	1379.5485	1400.2212	1405.886	1432.4538	1455.0258	1483.1079	1499.5785	1718.2608	2948.9986	3052.8836	3059.0886	3132.9133	3141.2441	3154.7625	3180.5904	3217.5232	3233.6361	3793.4811
OC1C=CCOC11CC1	O[C@H]1C=CCOC21CC2	
InChI=1S/C7H10O2/c8-6-2-1-5-9-7(6)3-4-7/h1-2,6,8H,3-5H2	InChI=1S/C7H10O2/c8-6-2-1-5-9-7(6)3-4-7/h1-2,6,8H,3-5H2/t6-/m0/s1
