19
gdb 1443	3.1999351	1.4714758	1.3588526	1.8887	76.57	-0.24184	0.06678	0.30862	1031.3415	0.155822	-422.445665	-422.437794	-422.43685	-422.477343	32.026	
C	-0.1513281582	-0.2420114384	 0.141942403	-0.461806
C	 1.3458845539	-0.1219869579	-0.033578944	 0.367479
O	 1.9564943897	-0.7931820999	 1.0113149108	-0.471508
C	 2.0849931913	-0.3117338839	-1.4681949284	-0.041974
O	 3.2293037093	 0.385323149	-0.8790304536	-0.367692
C	 2.01383834	 1.2281392782	-0.5250993463	 0.292202
C	 2.3803048325	 2.700582252	-0.7716328008	-0.324512
C	 2.3705587831	 2.3146892332	-2.3050656559	-0.251139
C	 1.5208022835	 1.0299959296	-1.9632765542	-0.050362
H	-0.4355094048	 0.1630682675	 1.1176454769	 0.135502
H	-0.7129348988	 0.2815053808	-0.6315967905	 0.120495
H	-0.4335604218	-1.2987302373	 0.1279440691	 0.13474
H	 2.9060968752	-0.6787095552	 0.8486795712	 0.288158
H	 2.2865335805	-1.2580993643	-1.9799284041	 0.086642
H	 1.5633335669	 3.3806339572	-0.5169418618	 0.11374
H	 3.3130775964	 3.0544225999	-0.3277861113	 0.117618
H	 1.8453996495	 3.0166774594	-2.9547656355	 0.102208
H	 3.3638502968	 2.1176661038	-2.7019398097	 0.129481
H	 0.4599408949	 1.1054959163	-2.1952282849	 0.080729
164.3236	196.2661	242.3071	245.839	323.4723	385.2059	424.5905	520.0287	573.7783	621.3378	641.3855	652.8796	704.0886	728.7222	757.7871	837.4079	846.2226	868.4802	921.9183	965.3544	981.2588	1019.828	1060.5072	1090.6077	1091.1745	1104.1592	1132.7782	1159.7128	1192.5665	1200.9869	1236.5002	1243.2539	1261.5201	1267.0503	1334.9119	1396.2288	1437.8894	1459.8862	1472.5664	1479.6057	1496.8508	3053.2689	3062.9816	3067.0597	3090.0647	3115.5489	3126.6627	3128.3929	3152.8765	3167.6424	3705.76
CC1(O)C2OC11CCC21	C[C@@]1(O)[C@@H]2O[C@@]31CC[C@@H]23	
InChI=1S/C7H10O2/c1-6(8)5-4-2-3-7(4,6)9-5/h4-5,8H,2-3H2,1H3	InChI=1S/C7H10O2/c1-6(8)5-4-2-3-7(4,6)9-5/h4-5,8H,2-3H2,1H3/t4-,5+,6+,7-/m0/s1
