19
gdb 6089	6.6224054	0.4159441	0.3952146	4.7163	85.79	-0.26273	-0.05822	0.20451000000000003	2643.6079	0.153324	-422.515493	-422.504348	-422.503404	-422.555634	35.765	
C	-6.5355661461	 1.5193980581	-2.4054784201	-0.230978
O	-5.1328627432	 1.5218141155	-2.2869404912	-0.230564
C	-4.6665434292	 0.6947341219	-1.2481988282	-0.050299
C	-3.1458506712	 0.7785557014	-1.2170787694	-0.190105
C	-2.547747199	-0.101553032	-0.1025205117	-0.369683
C	-1.0954808789	-0.0472751531	-0.0418392676	 0.073978
C	 0.1106755607	 0.0199628539	-0.018265886	 0.056884
C	 1.5475253227	 0.0664514731	 0.049914478	 0.023034
O	 2.2508860394	 0.7241892845	-0.6827411859	-0.230128
H	-7.0242950558	 1.8840714101	-1.4879367574	 0.104578
H	-6.7947253196	 2.1853402279	-3.2318198751	 0.130881
H	-6.9259369822	 0.5126358009	-2.6240355856	 0.104576
H	-5.08975072	 1.0141608564	-0.2785243458	 0.08465
H	-4.9914927638	-0.349376311	-1.4083302047	 0.084658
H	-2.7475942633	 0.4676424259	-2.1876148798	 0.127789
H	-2.845103229	 1.819899385	-1.0675199382	 0.127791
H	-2.9533033443	 0.2002116165	 0.8729315993	 0.143285
H	-2.8564572492	-1.1466052542	-0.2425337816	 0.143281
H	 1.982839232	-0.5662655008	 0.8506519908	 0.096372
8.8676	49.0543	50.0815	94.908	119.4475	139.9042	188.6877	228.3678	230.4483	331.6348	403.8038	404.6139	509.0195	628.7267	750.0831	829.642	861.7298	979.4849	1022.7001	1039.2862	1069.5971	1110.5956	1157.5052	1168.6329	1180.2219	1222.6448	1223.7401	1279.7502	1295.8445	1309.693	1368.1933	1423.5748	1429.607	1460.4919	1481.1724	1485.0733	1496.3716	1505.7295	1532.2592	1767.6661	2331.0656	2913.2748	2933.5917	2957.9794	2969.9273	3012.7413	3012.7525	3041.2501	3061.4524	3108.3212	3117.4591
COCCCC#CC=O	COCCCC#CC=O	
InChI=1S/C7H10O2/c1-9-7-5-3-2-4-6-8/h6H,3,5,7H2,1H3	InChI=1S/C7H10O2/c1-9-7-5-3-2-4-6-8/h6H,3,5,7H2,1H3
