19
gdb 2611	2.4669577	1.5455329	1.2033262	3.0773	77.74	-0.24879	-0.05427	0.19452000000000003	1097.6016	0.155772	-422.600163	-422.59109	-422.590146	-422.633421	34.389	
C	-3.0725130243	-1.021077079	 1.2503141995	-0.405257
C	-2.3699234927	-0.7023109206	-0.0848111254	 0.187753
C	-3.2347680284	-1.170202897	-1.2649738795	-0.440553
C	-2.0688166276	 0.7851670251	-0.1663029351	-0.054133
C	-0.7867299532	 1.1042545965	 0.0631944184	-0.20482
C	-0.0358380262	-0.1352109893	 0.33074825	 0.338416
O	 1.0477007965	-0.2935959499	 0.8508807921	-0.352508
C	-0.9318399637	-1.2972213289	-0.1131361512	 0.010137
O	-0.7263235852	-2.4442382963	 0.6644971853	-0.436515
H	-3.2433440118	-2.0968372391	 1.3350742125	 0.137855
H	-2.4645510114	-0.7099002117	 2.1036969706	 0.122587
H	-4.0370222445	-0.5061783532	 1.3092455481	 0.108196
H	-3.3911295301	-2.2524543818	-1.2189572103	 0.133217
H	-4.2182948844	-0.6878878755	-1.247175041	 0.113816
H	-2.761570418	-0.9363630151	-2.2242162452	 0.118129
H	-2.8613975283	 1.5012593302	-0.3656092488	 0.116068
H	-0.3561411734	 2.0956448958	 0.119291052	 0.123027
H	-0.6754794953	-1.4958540042	-1.1698531784	 0.091656
H	 0.1492701919	-2.3289849659	 1.0644067366	 0.292929
74.6141	190.6278	211.1724	242.2808	261.546	272.367	315.9134	331.1717	380.5201	421.8201	526.4093	544.6331	572.3733	688.6285	701.6618	797.7771	828.2341	893.6333	911.1541	956.2719	984.2138	1000.772	1029.096	1084.9548	1135.1721	1156.7583	1185.9418	1233.0919	1243.3515	1281.9244	1351.3266	1370.8943	1397.0754	1406.2457	1427.4959	1481.112	1483.8793	1500.5942	1506.3377	1631.4114	1809.0128	2937.0788	3029.4179	3041.4967	3097.6788	3107.9568	3113.3346	3130.009	3173.7619	3224.9432	3710.0944
CC1(C)C=CC(=O)C1O	CC1(C)C=CC(=O)[C@H]1O	
InChI=1S/C7H10O2/c1-7(2)4-3-5(8)6(7)9/h3-4,6,9H,1-2H3	InChI=1S/C7H10O2/c1-7(2)4-3-5(8)6(7)9/h3-4,6,9H,1-2H3/t6-/m1/s1
