19
gdb 609	3.2746505	1.522992	1.0990132	0.6912	76.49	-0.2386	0.01271	0.25131000000000003	1096.2135	0.159538	-422.555096	-422.54765	-422.546706	-422.587053	29.002	
C	-0.3011126682	 0.3475947009	-1.3120620333	-0.071385
C	-0.0893571752	 0.0638312539	 0.2082635856	-0.319699
C	 0.7605385079	 1.2647159088	 0.6011668425	 0.149202
O	 1.6063378178	 1.1308672158	 1.7167995927	-0.272115
C	 2.3254362918	 2.344703661	 1.9361028011	-0.129115
C	 2.7156028616	 3.1047653446	 0.6864396362	-0.058074
C	 2.3561268186	 2.7402355741	-0.5455070023	-0.148072
C	 1.5730639103	 1.4726012485	-0.6725925413	 0.11527
O	 0.5899790335	 1.4185145779	-1.6901004008	-0.28427
H	-0.08833265	-0.5444149344	-1.9152419825	 0.102426
H	-1.3197251539	 0.6760576082	-1.5382975975	 0.112026
H	-1.0312949755	-0.0101462896	 0.7551973063	 0.109178
H	 0.4748082393	-0.8596631126	 0.3689294785	 0.11749
H	 0.1103915797	 2.1469091239	 0.7211942194	 0.073691
H	 1.7334689608	 3.0165327148	 2.5837220231	 0.105682
H	 3.2207699502	 2.0693483731	 2.506334904	 0.121815
H	 3.3093297294	 3.9989515032	 0.8595061941	 0.098254
H	 2.6477556299	 3.2980266164	-1.4295552699	 0.102414
H	 2.2719774421	 0.6216282114	-0.7817408457	 0.075282
99.5949	157.2787	202.3558	314.6162	365.9496	433.3067	466.0848	545.518	566.2717	667.548	701.5489	805.2345	835.8423	885.5886	917.854	933.5658	978.454	984.1021	1020.71	1030.4548	1067.968	1109.3548	1131.2433	1144.2943	1167.2948	1193.1906	1209.1869	1235.5818	1261.8812	1286.5202	1293.128	1348.1435	1376.4103	1381.8718	1390.4874	1410.1273	1430.6925	1488.2868	1499.149	1523.0019	1701.454	2915.1597	2945.7446	2969.6039	3017.8176	3048.5816	3065.2184	3077.4632	3119.5686	3158.3738	3187.8942
C1CC2OCC=CC2O1	C1C[C@H]2OCC=C[C@@H]2O1	
InChI=1S/C7H10O2/c1-2-6-7(8-4-1)3-5-9-6/h1-2,6-7H,3-5H2	InChI=1S/C7H10O2/c1-2-6-7(8-4-1)3-5-9-6/h1-2,6-7H,3-5H2/t6-,7+/m0/s1
