19
gdb 3865	2.9201498	1.2455733	1.0471381	2.4394	75.91	-0.24865	0.07898	0.32763	1192.2052	0.156509	-422.503292	-422.494908	-422.493964	-422.536579	31.963	
O	-1.116599489	-3.5100247041	 0.3341328478	-0.436697
C	-1.7413415449	-2.354665793	 0.8399705114	 0.161883
C	-1.6145843202	-1.0827558149	-0.0662358342	-0.351854
C	-0.8078767743	-0.3892147582	 1.0430101095	 0.390295
C	-1.6334047582	-0.3270318685	 2.2972218845	-0.34813
C	-0.9647947542	-1.6272843185	 1.946245438	-0.152005
C	 0.3901519693	 0.4507450617	 0.8202581912	-0.057835
C	 0.5759185725	 1.25700162	-0.3945288134	-0.183395
O	 1.2824165804	 0.0266790288	-0.2223727401	-0.24293
H	-0.2085971549	-3.2780650374	 0.105710757	 0.282754
H	-2.7594900671	-2.6615942896	 1.099418795	 0.087781
H	-1.0068538953	-1.310964084	-0.9453771594	 0.117623
H	-2.5377696542	-0.5862781798	-0.3832333578	 0.093027
H	-1.1884195471	 0.2090127779	 3.1306489163	 0.116126
H	-2.7145312971	-0.2229246048	 2.2312755972	 0.109016
H	-0.2414512726	-2.0983496344	 2.6026511282	 0.093748
H	 0.8995354611	 0.7798825373	 1.7279697432	 0.088825
H	-0.1941236648	 1.2479385806	-1.164691182	 0.115348
H	 1.1865315607	 2.1583328509	-0.3594644623	 0.116419
65.4906	104.4736	187.4799	222.2192	323.9191	376.2848	398.5607	422.2938	471.7748	508.962	629.8735	744.6346	816.4998	834.514	850.2443	875.7055	907.718	943.3415	991.5762	1004.7338	1008.5074	1033.3237	1048.0135	1087.2615	1097.8764	1117.614	1143.6997	1156.812	1167.9046	1224.9106	1232.2071	1262.4723	1269.5948	1294.3773	1321.4651	1362.0041	1433.3708	1454.2677	1477.2843	1501.6064	1528.4894	3042.062	3061.0733	3082.2649	3092.0938	3101.1524	3111.8889	3169.4691	3175.9672	3191.6872	3786.2204
OC1CC2(CC12)C1CO1	O[C@@H]1C[C@]2(C[C@@H]12)[C@@H]1CO1	
InChI=1S/C7H10O2/c8-5-2-7(1-4(5)7)6-3-9-6/h4-6,8H,1-3H2	InChI=1S/C7H10O2/c8-5-2-7(1-4(5)7)6-3-9-6/h4-6,8H,1-3H2/t4-,5+,6-,7-/m0/s1
