19
gdb 2103	2.7410992	1.6349899	1.2207828	0.5207	75.57	-0.21228	0.07019	0.28247	1073.0149	0.154444	-422.507163	-422.498344	-422.4974	-422.539724	34.256	
C	 4.2585110291	-1.8077840264	 0.5877236486	-0.517222
C	 3.1731713064	-0.8418572944	 0.2613870759	 0.403647
O	 2.0275288154	-1.2691686926	-0.4812580917	-0.359482
C	 1.4071186484	 0.0074221658	-0.1107009676	 0.419503
C	-0.0869807775	-0.0355591663	-0.0402444267	-0.50168
C	 2.2051972272	 1.0417147343	-0.9572541106	-0.336758
C	 3.3717698567	 0.6629478736	-0.044562487	 0.29357
O	 4.5682473908	 1.321805459	 0.1469723539	-0.457075
C	 2.4452723271	 0.1928617631	 1.0641746057	-0.306426
H	 3.8946565824	-2.61806097	 1.2269396427	 0.131466
H	 4.6656635468	-2.2539879239	-0.3268497098	 0.127265
H	 5.0689072913	-1.2896832905	 1.1086921775	 0.133519
H	-0.4191357891	-0.7974035423	 0.6705961566	 0.130723
H	-0.4859549227	 0.934519099	 0.2707097345	 0.123084
H	-0.5017779427	-0.2794842693	-1.0243358438	 0.132037
H	 2.2692254855	 0.8427701817	-2.0325065166	 0.090819
H	 1.8724215959	 2.0657486124	-0.7668481977	 0.104059
H	 5.1734777285	 1.0649989241	-0.5581591208	 0.288837
H	 2.3686107205	 0.4220219726	 2.118425887	 0.100115
183.324	195.5904	200.5481	216.1428	233.9036	261.2925	303.8363	382.4936	442.9908	467.9222	524.4875	581.8611	642.1735	666.6912	755.2603	788.228	827.6705	871.8242	893.0917	928.0279	979.6526	1009.3577	1038.9468	1057.1198	1106.7203	1126.1924	1131.3579	1174.2864	1182.6644	1237.5538	1298.1175	1338.0504	1372.7544	1410.5844	1415.4108	1455.8649	1477.6622	1479.7909	1490.2657	1491.4901	1505.4187	3032.4194	3036.9442	3040.6233	3095.6548	3106.3208	3109.0262	3117.6562	3119.4577	3206.1902	3786.5788
CC12OC3(C)CC1(O)C23	C[C@]12O[C@]3(C)C[C@@]1(O)[C@H]23	
InChI=1S/C7H10O2/c1-5-3-7(8)4(5)6(7,2)9-5/h4,8H,3H2,1-2H3	InChI=1S/C7H10O2/c1-5-3-7(8)4(5)6(7,2)9-5/h4,8H,3H2,1-2H3/t4-,5+,6+,7+/m0/s1
