19
gdb 436	3.487049	1.2456042	1.1645227	1.1237	74.3	-0.25315	0.0919	0.34504999999999997	1118.3851	0.158039	-422.522233	-422.514377	-422.513433	-422.554852	29.944	
C	 0.7146764328	 0.2253241769	-0.9832877402	-0.178917
O	 0.0308921627	 0.0818689944	 0.2643209899	-0.232951
C	 1.4309014903	 0.3685866923	 0.293219093	-0.041516
C	 1.8319711462	 1.6964447672	 0.8427199796	 0.313422
C	 1.3034322243	 2.1644651766	 2.1775542026	-0.33092
C	 0.8948221122	 2.8795554269	 0.9134462039	-0.106831
C	 1.7333443012	 4.0847754244	 0.5338212746	-0.095404
O	 3.0894125954	 3.6800352416	 0.7170799154	-0.256029
C	 3.1790618437	 2.2865245854	 0.4431346332	-0.14472
H	 0.8188952249	-0.6891641451	-1.5650378985	 0.117826
H	 0.4583946958	 1.1171054122	-1.5527978374	 0.114351
H	 2.0403054004	-0.4764268645	 0.6210780574	 0.093322
H	 0.5499653888	 1.540992062	 2.6454300416	 0.125286
H	 1.98621275	 2.6643151907	 2.8576208345	 0.120809
H	-0.1286598856	 2.8013070819	 0.568139593	 0.104198
H	 1.5400975497	 4.3701118405	-0.5134271616	 0.090262
H	 1.5731244822	 4.9650336278	 1.1651576459	 0.111157
H	 3.3642299072	 2.0974218324	-0.6279531586	 0.088264
H	 4.030331088	 1.8989688765	 1.0132754616	 0.108391
72.742	146.2899	185.7297	244.9206	284.0896	380.3885	439.6478	487.861	589.3129	690.9965	728.6121	828.7035	866.1127	885.2014	918.1268	932.6193	942.2673	949.7851	991.4845	1036.9718	1072.3426	1087.9412	1098.2174	1105.7466	1114.2979	1128.7205	1154.4841	1173.0176	1219.7028	1247.1132	1255.5334	1270.3398	1300.584	1351.7341	1362.8837	1409.733	1446.4594	1484.9094	1510.7437	1522.1132	1524.1677	2959.6931	2971.0992	3062.6557	3069.0259	3082.4153	3088.091	3128.6298	3175.7928	3195.2676	3223.4343
C1OC1C12CC1COC2	C1O[C@@H]1[C@]12C[C@H]1COC2	
InChI=1S/C7H10O2/c1-5-2-8-4-7(1,5)6-3-9-6/h5-6H,1-4H2	InChI=1S/C7H10O2/c1-5-2-8-4-7(1,5)6-3-9-6/h5-6H,1-4H2/t5-,6-,7-/m0/s1
