19
gdb 4582	2.5297188	1.4584305	0.9855342	0.3886	78.36	-0.23738	0.03167	0.26905	1203.1033	0.156037	-422.521222	-422.512356	-422.511412	-422.554462	33.561	
C	 0.1280245946	 0.6295803282	-0.0850894251	-0.412317
C	 1.1587324725	-0.4860776157	-0.1017176812	 0.112179
O	 1.343008904	-0.9140446275	 1.2420676151	-0.263375
C	 2.2863851474	-1.9676809513	 1.3490084065	-0.081246
C	 3.6271407096	-1.5271916018	 0.7796273123	-0.07555
O	 3.4745631353	-1.1087367349	-0.568466799	-0.265866
C	 2.5265212974	-0.0481716905	-0.6816906962	-0.076153
C	 2.4337264402	 0.3338781043	-2.0854044668	 0.30718
C	 2.3239635806	 0.6541246333	-3.2378668997	-0.417197
H	 0.4917596589	 1.4784317727	 0.5025368354	 0.123715
H	-0.0876854937	 0.9699785908	-1.1001618111	 0.133741
H	-0.7965415494	 0.2701842853	 0.3735721519	 0.127879
H	 0.8040979745	-1.3326474362	-0.7124102621	 0.080228
H	 2.3688374203	-2.2126738353	 2.4123660675	 0.108016
H	 1.929555761	-2.8581413082	 0.8068402951	 0.096808
H	 4.0356801146	-0.705897044	 1.3908851682	 0.095457
H	 4.3472199837	-2.3506539493	 0.7695394366	 0.110761
H	 2.8738750237	 0.8147051825	-0.0857625021	 0.09683
H	 2.2384333549	 0.9388804277	-4.2575168853	 0.19891
95.8583	143.7261	178.9899	209.1361	274.5968	303.8404	354.9896	427.7369	446.266	453.0793	511.3931	556.5265	609.9413	630.1098	674.0975	851.1231	881.536	909.7698	925.5283	1004.5812	1035.0435	1073.8479	1120.8848	1124.397	1140.9542	1152.709	1162.4657	1270.7643	1286.187	1299.0333	1354.9077	1370.1599	1374.6005	1399.8199	1411.5878	1417.9946	1484.2193	1485.4804	1488.0935	1498.6653	2243.5486	2944.5298	2973.9903	2977.285	2985.8911	3048.4285	3086.1257	3090.6359	3119.7685	3138.8928	3503.4433
CC1OCCOC1C#C	C[C@@H]1OCCO[C@H]1C#C	
InChI=1S/C7H10O2/c1-3-7-6(2)8-4-5-9-7/h1,6-7H,4-5H2,2H3	InChI=1S/C7H10O2/c1-3-7-6(2)8-4-5-9-7/h1,6-7H,4-5H2,2H3/t6-,7-/m0/s1
