19
gdb 5701	4.8130836	1.012938	0.9496543	2.0627	77.5	-0.22565	0.06906	0.29470999999999997	1299.9685	0.154965	-422.466198	-422.457571	-422.456627	-422.499611	32.257	
C	 1.3944756867	-0.0010048868	-0.0975226369	-0.228598
O	-0.0099053093	 0.0497088774	 0.0585592806	-0.23023
C	-0.4044856123	 0.7361492024	 1.1943672884	 0.02992
C	-0.4730143938	 2.2637541805	 1.1656269146	-0.406777
C	-1.7215209284	 1.4332267507	 1.1549125779	 0.435822
O	-2.5733572833	 1.3594319057	 0.0030771826	-0.303992
C	-3.7019369086	 1.1491848882	 0.8631487586	 0.103765
C	-3.9322204996	 2.3336750596	 1.7465742001	-0.299382
C	-2.8745311304	 1.3074903096	 2.1179177316	-0.219114
H	 1.8771058576	-0.5187617466	 0.7454683008	 0.104276
H	 1.5939282262	-0.5567562677	-1.0165455035	 0.129516
H	 1.8301201456	 1.0048550557	-0.1810934476	 0.109531
H	-0.1128936535	 0.2694252077	 2.1394938291	 0.083147
H	-0.2085074504	 2.8331491198	 2.0507347533	 0.114677
H	-0.2184738895	 2.7253827713	 0.2168861486	 0.132094
H	-4.4408141938	 0.420058488	 0.555278928	 0.108621
H	-3.6454158015	 3.3233674145	 1.403139764	 0.119398
H	-4.8295468916	 2.2937428171	 2.3567778537	 0.114318
H	-2.8732108303	 0.7482962829	 3.0432664261	 0.103007
83.5702	109.0507	149.2873	196.9253	232.7115	317.9955	334.7656	435.8881	482.1252	568.7283	651.3526	754.741	801.8672	815.1285	871.2916	873.0322	944.7778	951.0923	974.5166	1004.4175	1022.9615	1043.0456	1044.2762	1051.6131	1067.7545	1087.1563	1116.6864	1170.2018	1175.2008	1184.4908	1200.3438	1241.1646	1278.6954	1319.9163	1353.5667	1410.2641	1467.4806	1472.921	1485.0823	1500.9386	1511.4209	2982.088	3034.3317	3058.1624	3118.1976	3119.9439	3126.1994	3191.4558	3205.107	3214.6092	3220.9938
COC1CC11OC2CC12	CO[C@H]1C[C@]21O[C@@H]1C[C@H]21	
InChI=1S/C7H10O2/c1-8-6-3-7(6)4-2-5(4)9-7/h4-6H,2-3H2,1H3	InChI=1S/C7H10O2/c1-8-6-3-7(6)4-2-5(4)9-7/h4-6H,2-3H2,1H3/t4-,5+,6-,7-/m0/s1
