19
gdb 4868	1.9184151	1.6506077	1.1405409	2.5005	78.63	-0.24665	0.02645	0.2731	1150.243	0.153238	-422.51191	-422.501671	-422.500727	-422.546368	38.161	
C	 3.2245532563	-2.4354990192	 0.0173130434	-0.457604
C	 2.2084553315	-2.1092957742	 1.0936471309	 0.253239
C	 1.1108686858	-1.1531947356	 0.6490642343	-0.124322
O	 0.2875719261	-1.705949896	-0.3627438027	-0.422386
C	 2.6378204035	-2.0423045192	 2.5397348948	-0.400374
C	 1.7985104835	-3.2186288738	 2.0551708548	 0.175908
O	 2.4485207293	-4.4485060536	 1.8665799732	-0.4467
C	 0.4200240387	-3.3345284495	 2.4632316796	 0.302722
C	-0.7308985724	-3.4629068165	 2.7938451797	-0.483832
H	 3.8909043406	-3.2429518429	 0.3217404817	 0.132283
H	 2.7080448779	-2.7366607602	-0.8984593145	 0.137207
H	 3.8272495506	-1.548714748	-0.2097231737	 0.11252
H	 0.5156290574	-0.8301213897	 1.5141631334	 0.093119
H	 1.5696285563	-0.2585147244	 0.2127061316	 0.107633
H	-0.2055500183	-2.4280167428	 0.0441575675	 0.289034
H	 3.6715679362	-2.2789839971	 2.7690020835	 0.120079
H	 2.1725214991	-1.3124799977	 3.1939655555	 0.119922
H	 2.4973294825	-4.8879502344	 2.7230221178	 0.289109
H	-1.7424222545	-3.5750337053	 3.0980377293	 0.202443
85.8253	115.7633	158.9245	190.2529	205.5195	264.1669	286.7986	297.2495	343.7033	410.1655	427.8416	447.2563	505.8982	564.4363	572.4141	594.8791	670.6404	677.166	777.37	883.1725	903.7795	923.3645	963.6458	988.6903	1051.5877	1072.9508	1107.1051	1127.9502	1207.2605	1219.8683	1307.1438	1309.6519	1377.7062	1398.2886	1414.8239	1422.9501	1471.0381	1488.5833	1498.5922	1505.6925	2220.4677	3006.5605	3038.4976	3065.9255	3105.4112	3127.4152	3147.4694	3220.6881	3498.5334	3792.671	3796.7171
CC1(CO)CC1(O)C#C	C[C@]1(CO)C[C@@]1(O)C#C	
InChI=1S/C7H10O2/c1-3-7(9)4-6(7,2)5-8/h1,8-9H,4-5H2,2H3	InChI=1S/C7H10O2/c1-3-7(9)4-6(7,2)5-8/h1,8-9H,4-5H2,2H3/t6-,7+/m1/s1
