19
gdb 3980	4.8116961	0.8834403	0.8433834	3.6994	78.4	-0.23795	-0.01769	0.22025999999999998	1406.7461	0.156531	-422.560525	-422.551965	-422.551021	-422.593892	31.804	
C	 2.1782467433	-0.5302789096	-1.476894738	-0.40945
C	 1.8998164433	-0.0060587458	-0.0791148045	 0.140199
C	 2.631901029	-0.7464560022	 1.069783116	-0.264874
C	 2.9794651963	 0.3648058673	 2.0455180798	-0.106938
C	 2.7805590352	 1.6231125928	 1.2876888953	 0.107907
O	 2.3321104126	 1.3670782724	-0.0038946133	-0.266747
C	 1.8301635495	 1.298073627	 2.4554392019	-0.16363
C	 1.9860983151	 2.0868977244	 3.6910867504	 0.153879
O	 1.0804341044	 2.4429046436	 4.4056585436	-0.271862
H	 1.8210106512	-1.5601878212	-1.5749478185	 0.120186
H	 1.6675900091	 0.0822890954	-2.2247317256	 0.132577
H	 3.2516883018	-0.5101197099	-1.6880649118	 0.124611
H	 0.8167710885	-0.0328060372	 0.1063519523	 0.086806
H	 2.0101556453	-1.5371812374	 1.4983075399	 0.116435
H	 3.5578891755	-1.2054570121	 0.7053159313	 0.111819
H	 3.8004665942	 0.2308790235	 2.7406405456	 0.103261
H	 3.4237687315	 2.493051726	 1.3462344448	 0.116396
H	 0.8099708234	 1.0145426407	 2.2209269909	 0.109764
H	 3.0441850608	 2.3537414521	 3.93194054	 0.059661
90.3009	101.8649	193.5322	224.495	240.0127	286.8601	347.0352	367.3872	485.7506	521.028	651.5497	698.4707	795.4391	825.8871	870.8512	900.2092	923.2924	975.7093	991.1875	1025.5002	1046.9448	1067.5515	1090.2462	1114.8937	1148.8961	1153.6393	1156.8796	1207.4128	1225.4529	1254.866	1303.7943	1315.8859	1369.96	1393.3503	1412.0909	1415.4328	1447.0601	1484.1863	1491.9757	1500.2929	1814.3478	2830.5819	2997.2234	3041.265	3045.179	3096.955	3116.0775	3122.7858	3174.6458	3180.6911	3190.1019
CC1CC2C(O1)C2C=O	C[C@H]1C[C@H]2[C@@H](O1)[C@@H]2C=O	
InChI=1S/C7H10O2/c1-4-2-5-6(3-8)7(5)9-4/h3-7H,2H2,1H3	InChI=1S/C7H10O2/c1-4-2-5-6(3-8)7(5)9-4/h3-7H,2H2,1H3/t4-,5+,6+,7+/m0/s1
