19
gdb 4642	5.8185229	0.5478245	0.5226891	0.4736	80.71	-0.24869	0.02647	0.27516	2064.7785	0.155769	-422.494979	-422.48488	-422.483936	-422.533944	33.875	
O	-4.7036322792	 1.001709033	-3.9934425678	-0.401503
C	-4.336124263	 0.6245580055	-2.673317693	-0.190534
C	-2.9895219321	 1.0558791434	-2.2968033546	 0.093813
C	-1.8639467469	 1.4023062442	-2.0405212073	 0.0142
C	-0.5115923516	 1.8140243829	-1.678634104	-0.374955
C	-0.1420658731	 1.4147965151	-0.2439671318	-0.015395
C	 1.3502830146	 1.5587136204	 0.1282452057	-0.090775
O	 1.5059672652	 0.1314542532	 0.2503152494	-0.2707
C	 0.1014424688	-0.0902827372	 0.0015477302	-0.071463
H	-4.0024110629	 0.7042203576	-4.5824248378	 0.28718
H	-5.0794630106	 1.088674196	-2.0154942849	 0.139367
H	-4.4234460836	-0.4644976002	-2.52943599	 0.11663
H	 0.2121993634	 1.3648944404	-2.3723610735	 0.133028
H	-0.4098232063	 2.9017274806	-1.7903171068	 0.132083
H	-0.8349304481	 1.8798783175	 0.459778746	 0.091562
H	 1.9988117264	 1.98056866	-0.6512726836	 0.099484
H	 1.5521293217	 2.0772417046	 1.0741644492	 0.100215
H	-0.0685975868	-0.746296663	-0.8613525359	 0.105441
H	-0.4070929061	-0.5149622638	 0.8758515406	 0.102321
6.1408	48.4371	57.1195	87.1256	158.751	201.8493	296.2937	313.0608	365.7835	392.314	496.4645	547.8738	776.8816	786.1976	867.0624	889.0304	889.541	973.1218	989.2824	1037.9781	1045.28	1055.3646	1095.6363	1135.8819	1153.9825	1159.1628	1163.332	1215.4449	1239.0157	1267.5387	1310.2156	1325.514	1358.9225	1369.2135	1392.7932	1419.4623	1474.0192	1493.8967	1514.1397	1539.0803	2360.7346	2973.9313	3001.8604	3010.4682	3017.109	3041.9467	3044.7687	3055.2623	3060.835	3095.4697	3817.2312
OCC#CCC1COC1	OCC#CCC1COC1	
InChI=1S/C7H10O2/c8-4-2-1-3-7-5-9-6-7/h7-8H,3-6H2	InChI=1S/C7H10O2/c8-4-2-1-3-7-5-9-6-7/h7-8H,3-6H2
