19
gdb 4863	3.195953	1.0740944	1.0436027	3.3011	78.01	-0.23866	-0.04937	0.18929	1249.5474	0.155811	-422.597815	-422.588718	-422.587773	-422.631611	34.171	
C	 1.9972972471	 1.909197006	-0.5531715009	-0.389795
C	 1.2533704685	 0.5796517179	-0.4063293781	-0.226435
C	 1.8790888167	-0.5963786823	-1.191847497	 0.338145
O	 3.2352664904	-0.7977983598	-0.7904703954	-0.473551
C	 1.0138061742	-1.8764790809	-1.0878765911	-0.400743
C	 0.3889890419	-2.0671529589	-2.4783474939	 0.382719
O	-0.4826998824	-2.8507735206	-2.7691998903	-0.325616
C	 1.0727504405	-1.1081766361	-3.3814393688	-0.196345
C	 1.9070717122	-0.3310597778	-2.6862976181	-0.055597
H	 1.57879794	 2.6630096094	 0.1196966794	 0.116514
H	 3.0577532956	 1.7875212272	-0.3168357838	 0.127617
H	 1.9234385097	 2.3005303996	-1.5725495121	 0.119784
H	 1.2265007138	 0.2851779523	 0.6528942852	 0.093315
H	 0.2074727107	 0.690082309	-0.715826793	 0.109155
H	 3.2464374989	-0.9058580835	 0.1670544491	 0.280591
H	 1.6628436742	-2.7336844018	-0.8825418697	 0.136622
H	 0.240546398	-1.8429833755	-0.3161251409	 0.119171
H	 0.8885841821	-1.0820976171	-4.4480957571	 0.119396
H	 2.5550505279	 0.4357801329	-3.0947919435	 0.12505
59.4111	120.9194	187.22	223.9168	265.7011	291.5763	353.0657	362.9022	384.0351	439.8627	521.7947	583.4952	634.3904	691.1009	787.8079	798.3508	828.0432	845.2285	896.2111	975.3079	1002.0638	1008.7996	1037.2209	1074.6392	1098.6095	1127.6798	1168.8304	1190.454	1222.4656	1250.2357	1284.613	1342.7849	1363.1875	1406.0799	1412.9377	1448.5184	1482.6934	1498.5862	1510.4519	1657.283	1820.7681	3005.4916	3044.9156	3059.7559	3060.5298	3110.0832	3111.6995	3123.9174	3202.3279	3227.4472	3800.9684
CCC1(O)CC(=O)C=C1	CC[C@@]1(O)CC(=O)C=C1	
InChI=1S/C7H10O2/c1-2-7(9)4-3-6(8)5-7/h3-4,9H,2,5H2,1H3	InChI=1S/C7H10O2/c1-2-7(9)4-3-6(8)5-7/h3-4,9H,2,5H2,1H3/t7-/m0/s1
