19
gdb 5050	2.877108	1.4655665	1.2216872	2.2888	74.26	-0.19748	0.05205	0.24952999999999997	1075.8575	0.156027	-422.479299	-422.470764	-422.46982	-422.511948	33.551	
O	 0.5474651736	-0.5577011813	 0.3533461569	-0.416149
C	 0.3895069631	 0.7511318271	-0.2118420209	-0.198528
C	-0.5819113408	 0.7447113115	-1.358125353	 0.230942
C	-0.621039634	-0.3334509955	-2.4335174428	-0.436936
C	-1.7835631547	-0.1568882765	-1.4858072133	 0.397594
O	-2.2355358543	-1.1367254051	-0.6206689858	-0.473337
C	-2.7011380158	 1.0560615979	-1.7940652739	-0.097382
C	-2.2563952897	 1.8706703479	-2.9749836863	-0.304651
C	-1.4897926233	 1.9737284132	-1.6832845578	-0.120117
H	 1.1590302312	-1.0488891439	-0.2034766877	 0.293178
H	-0.0077617082	 1.3733662716	 0.5990024913	 0.118195
H	 1.368289074	 1.1703129064	-0.4900814565	 0.101826
H	-0.6369841126	-0.1137506168	-3.4960212537	 0.109566
H	-0.0331541179	-1.2145577546	-2.1889796947	 0.092155
H	-1.5119141585	-1.3081566727	-0.002257802	 0.292213
H	-3.6736028392	 1.1587138043	-1.3315667474	 0.096788
H	-1.8425029782	 1.4242232248	-3.8718452825	 0.113459
H	-2.8862092673	 2.7321446885	-3.1790929925	 0.113892
H	-1.4032742474	 2.9075608529	-1.1414534374	 0.087292
93.3679	159.2681	212.5769	257.572	282.7759	343.0599	364.5471	445.413	482.734	492.4939	533.4841	611.121	710.7568	760.2445	786.9527	823.894	832.2138	894.0873	935.7563	962.2506	984.	998.6971	1020.2316	1036.1312	1048.1669	1059.9875	1089.215	1127.2955	1146.8995	1191.8184	1222.1166	1234.8587	1291.4239	1315.1393	1376.4374	1397.632	1405.1016	1418.0444	1486.7661	1504.9158	1512.537	2985.9504	3053.8816	3112.8827	3131.1987	3180.6089	3191.689	3203.17	3210.4544	3750.1615	3830.6178
OCC12CC1(O)C1CC21	OC[C@@]12C[C@]1(O)[C@@H]1C[C@H]21	
InChI=1S/C7H10O2/c8-3-6-2-7(6,9)5-1-4(5)6/h4-5,8-9H,1-3H2	InChI=1S/C7H10O2/c8-3-6-2-7(6,9)5-1-4(5)6/h4-5,8-9H,1-3H2/t4-,5+,6+,7-/m0/s1
