19
gdb 2330	2.5605947	1.7016386	1.5129727	2.4095	74.76	-0.23566	0.07226	0.30792	976.9752	0.156804	-422.506633	-422.498622	-422.497678	-422.538884	31.212	
O	 0.0559373529	-0.0415318737	 0.3115562337	-0.483102
C	-0.5577984341	 1.1706739632	 0.6414037396	 0.357293
C	-1.1381064654	 1.2803803786	 2.0957438409	-0.282246
C	-2.5938882343	 1.2606523097	 1.5210802474	-0.343472
C	-2.0056122507	 1.4456746408	 0.1263665324	 0.283747
C	-2.4311835622	 1.1416073719	-1.3000552901	-0.182195
O	-1.7496134322	 2.3318496927	-1.7824845545	-0.294866
C	-1.4750614512	 2.7921418569	-0.4407101478	 0.084222
C	-0.0255133744	 2.4931625098	 0.0190696345	-0.321861
H	 0.9455082614	-0.0455423393	 0.6825930247	 0.279317
H	-0.8821056459	 0.4213662609	 2.7191329105	 0.10559
H	-0.8694999315	 2.1986808382	 2.62450328	 0.098265
H	-3.0687195097	 0.2836827069	 1.6508964362	 0.111864
H	-3.2849949137	 2.0309610226	 1.8742602054	 0.101187
H	-2.0348729739	 0.22316702	-1.7475128653	 0.116177
H	-3.512978767	 1.2015519297	-1.4841358254	 0.097225
H	-1.9128182137	 3.7745172621	-0.2361175611	 0.068838
H	 0.6380331414	 2.3383558935	-0.8351401796	 0.113255
H	 0.423985094	 3.2059003653	 0.7173609688	 0.090764
95.3908	184.1121	200.1494	211.7489	319.0718	384.8636	401.4264	468.9358	517.4788	603.842	668.2591	734.959	771.7442	829.1617	864.2789	886.4186	928.4891	937.9012	967.2332	990.157	1010.2465	1032.85	1098.4217	1118.5182	1163.62	1167.2675	1184.3481	1191.6475	1221.0621	1236.9457	1241.2494	1252.6415	1270.4411	1301.1291	1313.61	1368.9492	1374.6641	1455.0034	1465.8272	1488.6485	1513.8481	3000.9991	3044.6555	3050.8764	3056.6136	3062.3708	3063.3202	3097.3242	3116.6951	3125.1185	3794.4391
OC12CCC11COC1C2	O[C@]12CC[C@@]31CO[C@@H]3C2	
InChI=1S/C7H10O2/c8-7-2-1-6(7)4-9-5(6)3-7/h5,8H,1-4H2	InChI=1S/C7H10O2/c8-7-2-1-6(7)4-9-5(6)3-7/h5,8H,1-4H2/t5-,6-,7+/m1/s1
