19
gdb 5086	3.5579236	1.0018941	0.8956079	3.0814	76.82	-0.24144	-0.03384	0.20759999999999998	1351.2796	0.154543	-422.525177	-422.515976	-422.515032	-422.559905	33.16	
C	 2.4550930582	 1.5997507778	-0.525899893	-0.377176
C	 1.7167629385	 0.2818415055	-0.2514917447	-0.290582
C	 2.033050417	-0.7652430246	-1.2718955321	 0.490073
C	 1.3931665093	-0.960730044	-2.6103467033	-0.34022
C	 1.4675554152	-2.1250953192	-1.6376364022	-0.209668
C	 2.9187960659	-2.6060958812	-1.5744359573	 0.021692
O	 3.3890279649	-1.2576511409	-1.3215502729	-0.335416
C	 3.1844148453	-3.4979648203	-0.3764535373	 0.147228
O	 3.2603414958	-4.6964510765	-0.4394072376	-0.24202
H	 2.2313075052	 2.3390995331	 0.2482737208	 0.115034
H	 3.5367286664	 1.4387484105	-0.5410442677	 0.139125
H	 2.163675917	 2.0200750511	-1.4935066271	 0.121083
H	 1.9854821365	-0.0943758247	 0.7430326622	 0.1079
H	 0.6329265101	 0.4458639423	-0.2490165837	 0.106421
H	 0.397443415	-0.5409366097	-2.7180621949	 0.12027
H	 1.9988077443	-0.955341292	-3.5123129701	 0.119622
H	 0.6025117053	-2.6672597338	-1.2806070079	 0.113373
H	 3.3465417311	-3.0505761714	-2.4797526468	 0.105649
H	 3.285200529	-2.9386362517	 0.5807310556	 0.087611
57.0726	74.739	105.1064	189.4027	223.24	256.0911	350.1306	376.9434	426.2848	458.7908	499.4647	680.575	778.1217	805.1003	836.853	870.6555	944.1846	968.1669	977.1572	990.1454	1001.6483	1003.8865	1056.2769	1070.471	1072.8726	1104.8951	1137.8569	1194.0456	1237.7983	1252.5171	1298.948	1309.5066	1353.6163	1399.583	1406.4925	1415.8005	1473.4819	1487.5968	1499.2064	1510.8135	1835.4983	2886.7542	3030.4751	3042.7365	3058.2599	3069.3781	3113.4558	3114.9958	3121.2393	3202.8822	3210.2436
CCC12CC1C(O2)C=O	CC[C@]12C[C@H]1[C@@H](O2)C=O	
InChI=1S/C7H10O2/c1-2-7-3-5(7)6(4-8)9-7/h4-6H,2-3H2,1H3	InChI=1S/C7H10O2/c1-2-7-3-5(7)6(4-8)9-7/h4-6H,2-3H2,1H3/t5-,6-,7-/m0/s1
