19
gdb 6012	5.4978265	0.8151283	0.7935174	2.4349	75.85	-0.23189	0.05858	0.29047	1491.0069	0.155358	-422.454227	-422.445666	-422.444722	-422.488049	31.634	
C	 1.3100422616	-0.1150467544	 0.0048378457	-0.223363
O	-0.0876852049	 0.0416356389	 0.004906114	-0.230875
C	-0.5473477791	 0.8438094404	 1.0729524318	-0.102326
C	-2.0393734559	 1.0123916786	 0.9459385096	-0.024338
C	-2.805313387	 1.231184465	 2.227296931	-0.123113
C	-4.3292108614	 1.4525994863	 1.9537190838	 0.005395
O	-4.5760235702	 1.4171814375	 0.5410437149	-0.238015
C	-4.4182258031	 0.1786841641	 1.2504223758	 0.008125
C	-2.8990881197	-0.0987318503	 1.4900305726	-0.091435
H	 1.6688397474	-0.6042736578	 0.9251537722	 0.100173
H	 1.5693456193	-0.7426843364	-0.8512621356	 0.127253
H	 1.8319152952	 0.8507588276	-0.0919984322	 0.102469
H	-0.2879877668	 0.3787061841	 2.0407057509	 0.078211
H	-0.054358678	 1.831052602	 1.0487392958	 0.08964
H	-2.3651863031	 1.5272242685	 0.0501576546	 0.118466
H	-2.3302885956	 1.4432692249	 3.1763949264	 0.090568
H	-5.0339843334	 1.9927057271	 2.5740358068	 0.108847
H	-5.2141345298	-0.5511783992	 1.1675795564	 0.10919
H	-2.4992646656	-1.0617146269	 1.7778801755	 0.09513
69.4976	93.4564	112.6172	222.3402	258.1523	307.529	360.8704	410.9074	501.317	627.69	761.7637	765.7777	785.6523	832.9548	861.3066	870.1412	932.0327	952.9319	991.4524	992.1591	1018.6744	1029.4106	1047.2893	1116.685	1119.0879	1158.5473	1168.9052	1188.1522	1219.4064	1225.3095	1237.4125	1250.2127	1253.5511	1280.8248	1364.8456	1410.7346	1438.1766	1480.8312	1484.8158	1503.1306	1525.8755	2940.2214	2965.324	2969.9539	3006.1175	3113.2233	3183.808	3188.1508	3195.706	3199.461	3210.2743
COCC1C2C3OC3C12	COC[C@@H]1[C@H]2[C@H]3O[C@H]3[C@@H]12	
InChI=1S/C7H10O2/c1-8-2-3-4-5(3)7-6(4)9-7/h3-7H,2H2,1H3	InChI=1S/C7H10O2/c1-8-2-3-4-5(3)7-6(4)9-7/h3-7H,2H2,1H3/t3-,4-,5+,6-,7+
