19
gdb 5905	2.1809663	1.0011658	0.7218772	2.3262	77.73	-0.26064	0.04357	0.30421	1545.9599	0.154043	-422.496535	-422.486303	-422.485359	-422.532557	35.923	
O	 1.49325229	 0.8575623874	-0.2848873145	-0.420139
C	 0.2066246216	 0.4033477386	 0.1064170228	-0.08679
C	-0.8198176552	 1.2476202399	-0.6368815086	-0.177167
C	-2.2799230889	 0.8448803647	-0.3334331214	-0.204114
C	-2.6348935785	 1.0376733494	 1.0724995842	 0.335896
C	-2.938564565	 1.228844461	 2.2200440313	-0.476608
C	-3.2386293431	 1.6289623754	-1.2214927323	 0.085709
C	-4.4468352739	 1.0219029041	-1.7845289381	-0.178563
O	-3.280092269	 1.2313413084	-2.5889651765	-0.237173
H	 2.1501370769	 0.3630903387	 0.2134678507	 0.286475
H	 0.0646777987	-0.6607531436	-0.1472516496	 0.083553
H	 0.056327957	 0.504952339	 1.1913623896	 0.100311
H	-0.6662588626	 2.3011940445	-0.3786658386	 0.113054
H	-0.6553586005	 1.14519688	-1.7141775086	 0.128197
H	-2.4042108441	-0.2167505122	-0.5884429045	 0.107799
H	-3.2051204866	 1.3841878507	 3.2362153992	 0.198881
H	-3.2247590875	 2.7080920649	-1.0624790799	 0.104217
H	-4.677926606	-0.0185460844	-1.5602718097	 0.116827
H	-5.3036274733	 1.6458039435	-2.0328431656	 0.119636
65.3057	90.1397	93.8064	130.4908	140.5308	215.996	252.6393	298.9859	328.0766	414.3436	453.4144	505.8756	592.9022	636.3366	646.8141	793.167	852.4039	864.9843	907.6031	959.8227	1014.9397	1061.4685	1072.4472	1105.5297	1111.1521	1130.8024	1158.1957	1173.8834	1220.4482	1238.4363	1277.9412	1292.3026	1309.5097	1336.6802	1352.8419	1437.096	1465.0752	1492.1286	1529.2248	1529.6262	2233.0464	2959.9122	3008.5646	3013.0756	3048.6434	3086.3007	3099.4068	3106.1199	3174.52	3503.3132	3832.7319
OCCC(C#C)C1CO1	OCC[C@@H](C#C)[C@@H]1CO1	
InChI=1S/C7H10O2/c1-2-6(3-4-8)7-5-9-7/h1,6-8H,3-5H2	InChI=1S/C7H10O2/c1-2-6(3-4-8)7-5-9-7/h1,6-8H,3-5H2/t6-,7+/m1/s1
