19
gdb 2019	3.7491214	1.0169453	0.9122987	2.555	76.24	-0.24844	-0.02134	0.2271	1291.6973	0.156674	-422.570415	-422.561867	-422.560923	-422.603786	32.451	
O	 4.2847879048	 2.9542076618	-2.5796728629	-0.468117
C	 3.0217525488	 2.3946472173	-2.3876627499	 0.410373
C	 2.0117799419	 2.4270979779	-3.5082121016	-0.354672
C	 2.6643659568	 1.117309643	-3.0938748042	-0.071666
C	 1.907862091	 0.2242098873	-2.1259924353	-0.246923
C	 1.4366450895	 1.1751378381	-0.9854068846	-0.074509
C	 2.4938647536	 2.3096482392	-0.9608847323	-0.311146
C	 1.3474359754	 0.4566813541	 0.3397525459	 0.150881
O	 0.3523941262	 0.3379021634	 1.0056591782	-0.249831
H	 4.1938319213	 3.9131611276	-2.5627301667	 0.283702
H	 0.9615677857	 2.6030591479	-3.2970042669	 0.112675
H	 2.3630579631	 2.849400849	-4.4432108564	 0.115428
H	 3.3684031195	 0.6697741915	-3.7857142947	 0.098029
H	 1.062086499	-0.3049140436	-2.5756724838	 0.114726
H	 2.591094462	-0.5371532844	-1.7262271541	 0.106537
H	 0.444021675	 1.5750078484	-1.2048436446	 0.096825
H	 2.0736210601	 3.2482098374	-0.5837406728	 0.105982
H	 3.3373313932	 2.0406557602	-0.3115637219	 0.111549
H	 2.319615583	 0.0184842339	 0.6741674485	 0.070156
68.4903	96.0744	213.47	288.017	297.8814	349.6443	363.2797	379.9583	413.3148	479.233	567.3827	659.1969	705.3031	836.7783	865.4577	889.2064	902.831	924.0258	960.0149	975.5722	1041.4751	1045.524	1052.4202	1081.0116	1104.7603	1126.0244	1169.3119	1218.7187	1248.4983	1263.8635	1280.6312	1318.6218	1328.6118	1337.5815	1346.0346	1411.9146	1426.5751	1482.3171	1487.0765	1505.6638	1834.7968	2835.0863	3020.877	3025.8028	3068.7258	3076.3695	3092.9328	3127.2478	3181.5367	3218.0349	3797.8775
OC12CC1CC(C2)C=O	O[C@@]12C[C@@H]1C[C@H](C2)C=O	
InChI=1S/C7H10O2/c8-4-5-1-6-3-7(6,9)2-5/h4-6,9H,1-3H2	InChI=1S/C7H10O2/c8-4-5-1-6-3-7(6,9)2-5/h4-6,9H,1-3H2/t5-,6+,7+/m1/s1
