19
gdb 2915	2.1872144	1.9574388	1.7309955	2.2098	73.48	-0.24632	0.0873	0.33362	936.6323	0.157813	-422.544215	-422.53649	-422.535546	-422.575814	30.989	
C	 1.4405653715	-0.3947694303	-3.222185687	-0.487283
C	 0.5326222288	 0.3446517097	-2.274048767	 0.353838
O	 0.9575653253	 1.7199562706	-2.1842487735	-0.31943
C	-0.1346852285	 2.505237457	-1.6795571635	-0.121952
C	-1.315494687	 1.5546963035	-1.6124984821	-0.071507
C	-1.1419879657	 0.2199638642	-0.9163766837	-0.127821
C	-1.0027472306	 0.3479778432	-2.4386088932	-0.130703
C	 0.3357799029	-0.1757025321	-0.8098019861	 0.128383
O	 1.1675093087	 0.3755125142	 0.1748332877	-0.457941
H	 2.4732499079	-0.3646688871	-2.8616177825	 0.132659
H	 1.1356925009	-1.4415760742	-3.3057617625	 0.121449
H	 1.4120134389	 0.0598784228	-4.2170531196	 0.126054
H	 0.1288747575	 2.926950108	-0.7014736323	 0.105149
H	-0.3249608752	 3.3335053094	-2.3736167432	 0.106761
H	-2.3187464698	 1.9647334735	-1.6256786131	 0.09558
H	-1.9575724451	-0.2200525053	-0.3544601746	 0.086582
H	-1.5926825689	-0.0609244631	-3.2470005229	 0.091768
H	 0.4201823551	-1.2673581934	-0.7642551872	 0.079145
H	 1.5644548135	 1.1583852792	-0.2315091339	 0.28927
160.8862	198.4283	226.5385	272.0699	305.0808	322.15	465.9916	523.1663	591.7434	608.1011	660.8809	733.2785	777.5609	815.6295	827.2568	868.7823	886.9608	935.7986	968.8143	983.9483	1009.2711	1034.5087	1046.8977	1079.057	1114.2399	1124.1812	1154.6905	1169.9345	1195.5422	1210.6116	1228.5524	1314.6025	1322.8684	1336.7365	1372.4086	1411.6359	1412.9414	1425.4937	1482.1176	1491.8243	1524.7661	3013.9623	3040.8013	3046.7964	3049.3145	3113.2688	3119.7033	3177.0035	3186.7574	3213.119	3741.4231
CC12OCC3C(C13)C2O	C[C@@]12OC[C@@H]3[C@@H]([C@H]13)[C@@H]2O	
InChI=1S/C7H10O2/c1-7-5-3(2-9-7)4(5)6(7)8/h3-6,8H,2H2,1H3	InChI=1S/C7H10O2/c1-7-5-3(2-9-7)4(5)6(7)8/h3-6,8H,2H2,1H3/t3-,4+,5-,6+,7-/m1/s1
