19
gdb 3398	2.770407	1.8923699	1.6978985	2.1138	72.8	-0.24351	0.07295	0.31646	894.5033	0.160495	-422.534343	-422.527722	-422.526778	-422.564828	28.17	
O	 0.7085815249	 0.6504071029	 0.6686668752	-0.450402
C	-0.6784537046	 0.4879483948	 0.7952573095	 0.179421
C	-1.326204005	 0.2485738878	 2.2027247851	-0.120119
C	-0.3767558936	-0.6368031271	 3.0027129603	-0.103819
O	 0.1064633059	-1.6885135288	 2.1489961031	-0.291708
C	-0.8851942359	-2.06052786	 1.190230594	 0.102415
C	-2.2952882542	-2.141599511	 1.8318345115	-0.259516
C	-2.4237297294	-0.6425383338	 1.4988927415	-0.039608
C	-1.3669629016	-0.8095867198	 0.3529987905	-0.106461
H	 1.107598616	-0.1652246835	 0.9980399853	 0.291293
H	-1.1409979546	 1.3477055034	 0.3007637605	 0.0866
H	-1.6587949179	 1.113421446	 2.7801091527	 0.07022
H	 0.5032743639	-0.077699279	 3.3343192954	 0.116682
H	-0.8666713743	-1.0596364059	 3.8900284706	 0.103125
H	-0.4887646923	-2.9240765636	 0.6553195673	 0.084099
H	-2.9735635801	-2.7329276238	 1.2097067638	 0.104928
H	-2.3660151102	-2.4909356325	 2.8658632683	 0.101389
H	-3.3988621399	-0.1760952269	 1.3602124794	 0.067727
H	-1.615969497	-1.0038785391	-0.691409444	 0.063734
199.6618	261.1215	327.8377	422.8541	438.7648	509.5233	569.8075	600.4268	619.4776	710.4215	760.1893	803.8217	825.4037	838.8406	858.525	938.2952	950.072	985.5659	997.331	1012.079	1034.7281	1053.38	1086.4466	1108.9157	1132.1627	1138.4388	1183.8671	1194.6042	1228.5025	1233.7341	1256.0021	1271.7393	1291.3437	1305.7531	1307.8041	1337.746	1354.7855	1404.9692	1451.3965	1481.912	1517.6199	3011.9761	3051.6458	3064.1372	3081.1593	3091.0208	3094.9393	3102.4211	3108.3674	3114.4045	3767.2378
OC1C2COC3CC2C13	O[C@@H]1[C@@H]2CO[C@H]3C[C@@H]2[C@@H]13	
InChI=1S/C7H10O2/c8-7-4-2-9-5-1-3(4)6(5)7/h3-8H,1-2H2	InChI=1S/C7H10O2/c8-7-4-2-9-5-1-3(4)6(5)7/h3-8H,1-2H2/t3-,4+,5-,6+,7+/m0/s1
