19
gdb 2453	2.469942	2.2505197	1.5848953	1.027	73.24	-0.24267	0.0843	0.32697	907.6879	0.159185	-422.550925	-422.54399	-422.543046	-422.581697	28.723	
C	 0.0698285577	 0.1388410063	 0.1866154302	-0.482779
C	 1.5020098568	-0.2118402247	-0.1223548751	 0.446481
O	 2.00555084	-1.1804746533	 0.7748665788	-0.321239
C	 3.0041996624	-1.9345784145	 0.0591018828	-0.092744
C	 3.3534098611	-1.0356829072	-1.125647646	-0.090209
C	 3.8424179801	 0.3267565592	-0.5439440965	-0.221882
C	 2.4583401753	 0.993456584	-0.4932136193	 0.0102
O	 2.0231490228	 0.8499128228	-1.8796115448	-0.302213
C	 1.9283914745	-0.5548772913	-1.5682489205	 0.021303
H	-0.0113004366	 0.5606459303	 1.1934113906	 0.126106
H	-0.2948764753	 0.8755313665	-0.5333005126	 0.13592
H	-0.563799896	-0.7517934234	 0.1414458436	 0.121666
H	 3.8517020378	-2.1209014923	 0.72634663	 0.110061
H	 2.586469802	-2.9044523319	-0.2506695989	 0.094182
H	 3.9837006963	-1.4922109099	-1.8874436235	 0.075506
H	 4.322505311	 0.2227421339	 0.4323258793	 0.105056
H	 4.5031949837	 0.8735457674	-1.219435734	 0.108452
H	 2.3511340708	 2.0037689661	-0.0972807254	 0.074709
H	 1.3515398055	-1.1484007578	-2.2772916087	 0.081422
227.0936	238.1112	249.1196	310.378	399.7322	442.104	511.8344	592.6037	641.8932	690.5838	788.9653	829.9057	850.6897	865.7939	886.6573	912.8457	947.7154	948.9547	969.6504	983.4278	1027.5731	1047.5297	1057.9602	1129.5602	1131.841	1167.0055	1186.4375	1206.7734	1211.7841	1237.8923	1257.6963	1273.9062	1310.1591	1331.0631	1353.8986	1384.2593	1409.5635	1481.6357	1486.8312	1495.774	1522.9916	2990.206	3042.8895	3068.503	3072.8169	3109.0713	3118.1681	3119.7775	3124.7788	3131.1093	3132.1088
CC12OCC3CC1OC23	C[C@]12OC[C@@H]3C[C@H]1O[C@H]23	
InChI=1S/C7H10O2/c1-7-5-2-4(3-8-7)6(7)9-5/h4-6H,2-3H2,1H3	InChI=1S/C7H10O2/c1-7-5-2-4(3-8-7)6(7)9-5/h4-6H,2-3H2,1H3/t4-,5+,6-,7-/m0/s1
