19
gdb 5263	3.2363347	1.4810182	1.3310855	2.132	74.95	-0.23945	0.00341	0.24286	1028.8407	0.157949	-422.543539	-422.535785	-422.534841	-422.575544	30.507	
C	 1.4461542616	-0.0840327068	-0.1614355276	-0.260619
O	 0.0469821414	-0.0302429881	 0.0332755773	-0.312094
C	-0.3667578578	 0.6491334693	 1.1774017922	 0.369886
C	-1.9230201995	 0.7426687061	 1.2255733739	-0.104807
O	-2.1790129961	 1.7576009712	 2.1961640019	-0.278579
C	-0.8669025282	 2.2001469088	 2.6637421438	 0.053523
C	-0.0443016587	 2.1636610528	 1.3698760697	-0.289167
C	-0.2569563577	 1.0448636743	 3.4454196048	-0.083236
C	 0.0411125865	 0.1044223414	 2.5430228636	-0.151587
H	 1.9658595231	-0.5220551866	 0.7022194202	 0.11136
H	 1.6192081688	-0.7158160944	-1.035448448	 0.130085
H	 1.8715370288	 0.9107177597	-0.3539292739	 0.11346
H	-2.3128601045	 1.0429030282	 0.2455662801	 0.105625
H	-2.3852331681	-0.2046658648	 1.5237306156	 0.100193
H	-1.0018677448	 3.1494921977	 3.1779732448	 0.077761
H	-0.4541077894	 2.8022218551	 0.5829052842	 0.105006
H	 1.0168731173	 2.3627389609	 1.5229769077	 0.102753
H	-0.2305146196	 0.9653567972	 4.5244631803	 0.105067
H	 0.3616911069	-0.9157236221	 2.7147920392	 0.105371
99.0217	172.3012	207.0091	280.5538	369.7909	389.3552	443.3571	498.7092	509.3967	620.7064	680.4171	744.8668	783.1663	803.9578	867.2775	913.1828	944.5624	950.1004	970.5277	981.6402	1024.6458	1059.2862	1078.6649	1106.089	1128.6263	1166.7361	1182.5445	1208.3797	1217.1474	1247.5468	1264.6614	1279.3615	1293.7043	1348.1791	1369.1878	1481.3288	1485.5185	1489.1821	1509.1313	1522.1091	1634.2461	2993.951	3023.9647	3045.7713	3069.0292	3072.061	3120.7243	3138.9898	3143.206	3199.7086	3225.3408
COC12COC(C1)C=C2	CO[C@]12CO[C@H](C1)C=C2	
InChI=1S/C7H10O2/c1-8-7-3-2-6(4-7)9-5-7/h2-3,6H,4-5H2,1H3	InChI=1S/C7H10O2/c1-8-7-3-2-6(4-7)9-5-7/h2-3,6H,4-5H2,1H3/t6-,7-/m0/s1
