19
gdb 1736	2.1302863	2.0569221	1.5960135	2.4792	73.85	-0.21194	0.07599	0.28793	963.4084	0.156134	-422.520803	-422.512606	-422.511661	-422.552944	31.735	
C	 3.4873666757	-0.579705331	-0.3000850332	-0.518118
C	 2.562437824	-0.4763098565	 0.8740155472	 0.160655
C	 2.1179549591	-1.4032148752	 1.9833119482	 0.009784
O	 0.7287954431	-1.1261254439	 1.8271424182	-0.338789
C	 1.0663414361	-0.027808286	 0.9068327594	 0.341945
C	 0.2180000341	-0.0344811037	-0.3365747354	-0.491284
C	 1.0849970647	 1.2336036497	 1.7658493511	-0.097269
O	 2.083304925	 0.9781028871	 2.7598534613	-0.269157
C	 2.8517003188	-0.1092068064	 2.3003796717	 0.029826
H	 3.0582388591	-1.1896097567	-1.1029005602	 0.124704
H	 3.7212131213	 0.4080269551	-0.7146819132	 0.124624
H	 4.434860029	-1.042159344	-0.0055032625	 0.126642
H	 2.413669963	-2.4046842162	 2.2779053213	 0.099903
H	 0.3033259335	-0.9932622143	-0.8543450353	 0.133188
H	-0.8343907951	 0.1184414229	-0.0770060134	 0.134286
H	 0.5234119877	 0.762879461	-1.0217480037	 0.123246
H	 1.3455989006	 2.1268186966	 1.1754497555	 0.086699
H	 0.1246059961	 1.3967753278	 2.2645639984	 0.115477
H	 3.8567254342	-0.1384987462	 2.7057548846	 0.103638
173.1248	184.1706	189.1197	207.3014	248.3876	299.6355	364.7846	424.8705	551.0136	579.654	634.471	691.1674	756.1019	784.5847	837.6628	880.0841	917.1159	934.8011	978.9984	991.9767	1000.2575	1035.7364	1043.332	1108.4098	1133.865	1136.4124	1182.8706	1203.4372	1233.0099	1258.0671	1275.34	1301.06	1382.4398	1410.1142	1415.9358	1459.8089	1482.524	1484.9026	1494.1575	1496.5459	1498.5355	2975.0845	3023.1627	3040.5106	3080.3285	3083.1321	3097.7061	3110.0918	3121.6807	3167.072	3185.6584
CC12C3OC1(C)COC23	C[C@]12[C@@H]3O[C@@]1(C)CO[C@H]23	
InChI=1S/C7H10O2/c1-6-3-8-4-5(9-6)7(4,6)2/h4-5H,3H2,1-2H3	InChI=1S/C7H10O2/c1-6-3-8-4-5(9-6)7(4,6)2/h4-5H,3H2,1-2H3/t4-,5+,6-,7-/m0/s1
