19
gdb 909	3.5615084	0.9837236	0.8503348	2.006	79.54	-0.23917	-0.03307	0.2061	1362.7911	0.156817	-422.57053	-422.561736	-422.560792	-422.605155	31.644	
O	-0.1217133129	-0.9564523114	 0.6618097864	-0.234917
C	 0.1647897042	-0.0659140287	-0.0959803542	 0.155021
C	 0.4181240304	 1.3748649464	 0.3201655668	-0.363236
C	-0.845022464	 2.1730254748	 0.0713897371	 0.290623
C	-0.9914769578	 2.9877058995	-0.9749526866	-0.1733
C	-2.2493667785	 3.7765434528	-1.217956648	-0.113475
O	-3.1508307784	 3.7542591467	-0.1309873955	-0.245235
C	-3.2982713218	 2.4585074055	 0.4257747591	-0.08617
C	-1.9855693599	 1.9732828305	 1.0430941678	-0.298007
H	 0.2096167168	-0.2361865917	-1.1958711849	 0.081194
H	 0.6850610855	 1.3857387298	 1.3819761738	 0.124738
H	 1.2466970042	 1.7789505677	-0.2709213263	 0.11351
H	-0.1915240755	 3.119156347	-1.7002799939	 0.087255
H	-2.0083422224	 4.8323326126	-1.391817375	 0.119771
H	-2.7410536373	 3.4099666107	-2.1393075576	 0.098223
H	-4.0879593233	 2.5368615324	 1.1776777234	 0.110376
H	-3.6328994243	 1.7456241183	-0.3459332196	 0.091133
H	-1.7796089041	 2.5202822959	 1.9732855908	 0.117578
H	-2.0668500909	 0.9147405111	 1.3199758665	 0.124918
46.6933	64.2747	113.6656	212.7154	267.3717	303.2158	330.5262	437.4986	483.7327	512.0923	557.7035	694.5316	791.7897	832.2902	862.9281	881.8904	924.8407	987.2699	1020.6498	1025.8193	1044.0189	1057.0784	1096.9897	1145.7481	1163.7995	1204.2707	1229.0617	1259.718	1283.7569	1309.2765	1338.0655	1374.7059	1390.4162	1418.0538	1422.5795	1465.8355	1473.506	1486.3379	1502.3516	1732.57	1826.6442	2874.0216	2924.1226	2971.4431	3017.0418	3040.2182	3046.5501	3058.7661	3092.2535	3101.3241	3152.3988
O=CCC1=CCOCC1	O=CCC1=CCOCC1	
InChI=1S/C7H10O2/c8-4-1-7-2-5-9-6-3-7/h2,4H,1,3,5-6H2	InChI=1S/C7H10O2/c8-4-1-7-2-5-9-6-3-7/h2,4H,1,3,5-6H2
