19
gdb 5286	2.8051139	1.5316108	1.2212991	2.2874	75.44	-0.24722	0.01553	0.26275	1065.8166	0.158107	-422.554875	-422.546867	-422.545923	-422.587429	30.838	
O	 0.8977125048	 0.9232463704	 0.3171514071	-0.423684
C	 0.1127154103	-0.2410736003	 0.4927484209	-0.125418
C	-1.3393826341	 0.1371951934	 0.7248203057	 0.413807
C	-1.6499492891	 0.8545731792	 2.0512754832	-0.306153
C	-2.9903458493	 0.2800346555	 2.4456076816	-0.064745
C	-3.414416976	-0.6775476737	 1.6190516307	-0.085756
C	-2.4550952701	-0.9205581222	 0.4880246335	-0.179556
C	-2.730083415	-0.1292153714	-0.8135425554	-0.082813
O	-1.8077214512	 0.9128839881	-0.4232593747	-0.338272
H	 0.44761561	 1.434263645	-0.3678427134	 0.292463
H	 0.1832488547	-0.9094833033	-0.3811404307	 0.08104
H	 0.5169259579	-0.7776444852	 1.3580767726	 0.106591
H	-0.8821990247	 0.6733682119	 2.8144735762	 0.109252
H	-1.6847989296	 1.9377436262	 1.8900596912	 0.124899
H	-3.5315490189	 0.6247481104	 3.3203988287	 0.096873
H	-4.3480219776	-1.2206873004	 1.7180563169	 0.096486
H	-2.1647837026	-1.9664794792	 0.3552317165	 0.080366
H	-2.4087237504	-0.6346622853	-1.733432829	 0.098804
H	-3.746921469	 0.2557462809	-0.9462540016	 0.105817
90.1496	127.7012	187.6307	247.6054	339.9304	367.0202	412.3137	478.6361	493.6559	661.1578	687.2692	741.8146	777.3024	859.3327	879.1043	904.4635	932.3711	963.5202	975.9488	1003.2546	1038.1736	1058.2663	1063.1216	1078.8108	1103.4805	1147.4552	1160.47	1164.8748	1207.3619	1243.6343	1249.9761	1301.6172	1336.8852	1352.0141	1368.3765	1386.8065	1433.7352	1464.0977	1501.2477	1518.6771	1677.9945	2967.9841	3012.2173	3026.2737	3064.8138	3067.2971	3071.8359	3074.0801	3179.3178	3203.9364	3774.3505
OCC12CC=CC1CO2	OC[C@]12CC=C[C@H]1CO2	
InChI=1S/C7H10O2/c8-5-7-3-1-2-6(7)4-9-7/h1-2,6,8H,3-5H2	InChI=1S/C7H10O2/c8-5-7-3-1-2-6(7)4-9-7/h1-2,6,8H,3-5H2/t6-,7+/m0/s1
