19
gdb 570	3.3071286	1.6979591	1.6955911	0.6919	72.42	-0.24171	0.08467	0.32638	894.3057	0.161601	-422.574287	-422.568021	-422.567077	-422.604553	26.47	
C	 0.6394118263	 1.4582739193	 0.4468672646	-0.111767
O	 0.2396326537	 0.0756859567	 0.4096987749	-0.272927
C	 0.5458638941	-0.3689971566	-0.9144049002	 0.099731
C	-0.3616434378	 0.4150772536	-1.9001597121	-0.251878
C	 0.5143192498	 1.6784050118	-2.1163554366	 0.09973
O	 1.4318413179	 1.3979813173	-3.1766815909	-0.272927
C	 2.2834077999	 0.3516650368	-2.6738773523	-0.111767
C	 1.9393173188	 0.2523116304	-1.1853428685	-0.056233
C	 1.4150264798	 1.6736033927	-0.8554628556	-0.056234
H	-0.2430782548	 2.1077925748	 0.5294940602	 0.098071
H	 1.2642493395	 1.622062693	 1.3321925102	 0.106454
H	 0.4619030843	-1.455809367	-0.9386969085	 0.076742
H	-0.5271716263	-0.0906728489	-2.854466503	 0.109144
H	-1.3296429172	 0.6162233566	-1.4349685574	 0.109145
H	-0.0159843761	 2.6001462809	-2.3571285977	 0.076742
H	 2.0974083129	-0.5849879128	-3.2175466436	 0.098071
H	 3.3287304289	 0.6366876194	-2.8385297501	 0.106454
H	 2.7281167637	-0.1464895653	-0.5471456089	 0.076726
H	 2.1472135325	 2.4811400974	-0.8373409943	 0.076725
235.963	247.7279	337.3911	378.1919	483.6925	508.8272	663.2011	728.0967	752.2626	791.7278	863.3521	874.6566	897.3065	913.5086	938.1177	949.7392	957.2978	988.7191	993.5724	1025.6074	1059.4539	1062.9035	1085.0225	1092.1529	1152.5681	1179.288	1186.8749	1203.3661	1236.1779	1256.5045	1273.1718	1287.6771	1302.1943	1320.1092	1330.6285	1348.058	1375.4283	1397.3904	1476.9419	1526.9286	1527.8474	3005.7595	3005.9665	3052.8474	3052.943	3066.9338	3111.5967	3114.1922	3116.404	3122.5271	3126.8325
C1OC2CC3OCC2C13	C1O[C@H]2C[C@@H]3OC[C@H]2[C@H]13	
InChI=1S/C7H10O2/c1-6-4-2-8-7(1)5(4)3-9-6/h4-7H,1-3H2	InChI=1S/C7H10O2/c1-6-4-2-8-7(1)5(4)3-9-6/h4-7H,1-3H2/t4-,5-,6-,7-/m0/s1
