19
gdb 4979	2.7871272	1.46884	1.4414249	2.4975	74.65	-0.23379	0.06234	0.29613	1021.1747	0.157694	-422.507797	-422.49994	-422.498996	-422.540165	30.343	
O	 1.0247620253	 0.8006125717	-0.7258847762	-0.422446
C	-0.0815662581	 0.4274361678	 0.0878769344	-0.254419
C	-1.3226358362	 0.636567133	-0.7152279376	 0.372855
C	-1.8427878142	 1.990127801	-1.3502554471	-0.102793
C	-3.1809006106	 1.7972206187	-0.5859791366	-0.241534
C	-2.7942126754	 0.3252167775	-0.3095803814	 0.03214
O	-2.9826671195	-0.5090334246	-1.4734947284	-0.310075
C	-1.722216369	-0.0758948539	-2.0406919734	 0.062674
C	-1.8452123638	 1.2964169168	-2.7389498116	-0.238773
H	 1.8313397015	 0.6564188693	-0.2222599889	 0.290289
H	-0.0135213736	-0.6290534275	 0.3968223736	 0.094148
H	-0.1226855241	 1.0344987501	 1.0080934784	 0.088264
H	-1.3269267166	 2.9448409857	-1.2554616933	 0.073099
H	-3.1858538706	 2.3723040545	 0.3465279975	 0.097564
H	-4.1184075583	 1.9682937198	-1.122201295	 0.100748
H	-3.1325230127	-0.1656909435	 0.6064471952	 0.072816
H	-1.1888362041	-0.8936708612	-2.5291516808	 0.077561
H	-0.9229963785	 1.5244919796	-3.2824928528	 0.111284
H	-2.7084320316	 1.4441340054	-3.3937760162	 0.096598
86.9202	133.128	217.3237	271.101	316.9009	357.4448	396.0939	454.2098	625.4562	665.6285	698.2771	822.8242	843.5548	851.8599	882.6462	935.0235	946.7913	958.3875	995.6486	1020.9051	1039.2846	1072.3164	1109.0471	1114.8881	1118.7284	1136.6631	1168.4304	1179.3806	1201.7167	1241.502	1252.9702	1269.859	1279.4325	1295.4561	1322.1655	1338.4686	1368.5799	1459.3384	1467.5621	1472.6754	1513.6315	2953.2682	2979.7459	3040.7971	3048.3377	3075.3578	3091.422	3101.1798	3107.7634	3116.5371	3828.7899
OCC12C3CC1OC2C3	OC[C@]12[C@@H]3C[C@H]1O[C@H]2C3	
InChI=1S/C7H10O2/c8-3-7-4-1-5(7)9-6(7)2-4/h4-6,8H,1-3H2	InChI=1S/C7H10O2/c8-3-7-4-1-5(7)9-6(7)2-4/h4-6,8H,1-3H2/t4-,5-,6+,7+
