19
gdb 1936	3.0761576	1.4794264	1.2337586	1.0209	74.18	-0.2481	0.08061	0.32871	1064.5705	0.156359	-422.547907	-422.539684	-422.538739	-422.580025	32.611	
C	 0.2429074647	 0.6718994746	 0.1726668734	-0.482935
C	 1.5874757055	 0.0067705675	 0.0632360003	 0.42578
O	 1.8330923007	-0.7368106354	-1.1491070104	-0.309659
C	 2.6534334243	 0.4070597039	-0.8752814639	-0.017561
C	 4.0300357387	 0.0452330052	-0.337077965	-0.329614
C	 3.741823293	-0.5965195702	 1.0244744459	 0.435553
O	 4.5843957631	-1.6104196347	 1.4736979601	-0.477143
C	 3.1403230277	 0.2742815387	 2.084717925	-0.324132
C	 2.2429123956	-0.6310037161	 1.2554000318	-0.207388
H	 0.2519603954	 1.4361269772	 0.9566305631	 0.125107
H	-0.0366840082	 1.1395131971	-0.7748099278	 0.127687
H	-0.5289425399	-0.061580049	 0.4306041702	 0.127559
H	 2.5327067092	 1.2373937373	-1.5679190918	 0.089561
H	 4.5235196495	-0.6730274746	-1.0022931027	 0.105832
H	 4.6816856878	 0.9228821392	-0.2575214635	 0.105629
H	 4.4903261189	-2.3580698602	 0.8720846955	 0.282195
H	 3.3222190888	-0.0351100452	 3.1074094051	 0.124118
H	 3.0978109302	 1.3487872189	 1.9315881854	 0.107959
H	 1.7742032549	-1.4820425342	 1.7381564593	 0.091452
136.5157	184.4989	211.1108	268.1866	335.4979	355.955	395.7505	413.0574	460.8344	485.1437	562.3139	626.0715	715.0948	754.6692	815.4606	872.2333	903.2359	915.8096	942.0155	976.2422	1004.719	1018.1197	1038.2	1054.8338	1076.2274	1094.2676	1123.7128	1190.6177	1211.5759	1255.105	1260.8165	1301.4347	1335.2328	1336.2516	1411.269	1418.1876	1445.0935	1471.1359	1485.3158	1492.1871	1496.7212	3032.5355	3035.8028	3072.9261	3098.3833	3122.0185	3124.6611	3134.8998	3169.1861	3221.2881	3787.9325
CC12OC1CC1(O)CC21	C[C@@]12O[C@@H]1C[C@@]1(O)C[C@@H]21	
InChI=1S/C7H10O2/c1-6-4-2-7(4,8)3-5(6)9-6/h4-5,8H,2-3H2,1H3	InChI=1S/C7H10O2/c1-6-4-2-7(4,8)3-5(6)9-6/h4-5,8H,2-3H2,1H3/t4-,5+,6-,7-/m0/s1
