19
gdb 5816	3.0694645	1.1350911	0.8632435	4.4945	76.05	-0.22936	-0.08665	0.14271	1340.863	0.155954	-422.599643	-422.590489	-422.589545	-422.634122	33.109	
C	 1.1631072963	 1.2779137088	 0.1240783125	-0.393248
C	 0.9020861584	-0.2279054399	 0.0365774234	-0.183535
C	 1.8640691347	-0.9675487995	-0.895669181	-0.099939
C	 3.3477717204	-1.0478937575	-0.4588871424	-0.245266
C	 3.9449989276	-2.2387969133	-1.2396703549	-0.338186
C	 2.795961132	-3.2249705627	-1.379333606	 0.323409
O	 2.8421294344	-4.4002910775	-1.6205051722	-0.276864
C	 1.479735653	-2.4229941166	-1.1336570188	 0.301872
O	 0.3796668247	-2.9067228221	-1.1233257295	-0.289611
H	 0.4399861797	 1.760590048	 0.7880792215	 0.121045
H	 2.1636266656	 1.4950130356	 0.5126265863	 0.118279
H	 1.0788717931	 1.7521611771	-0.8602473774	 0.116835
H	 0.9666095869	-0.6761183744	 1.0364004145	 0.103389
H	-0.1184574469	-0.4165141874	-0.3134059647	 0.123264
H	 1.8289594428	-0.4935480696	-1.8917976599	 0.108447
H	 3.8895171373	-0.1172668861	-0.6377740946	 0.116606
H	 3.3962808722	-1.2493966698	 0.6181884256	 0.116611
H	 4.2425077345	-1.9298932223	-2.2513550758	 0.138746
H	 4.8177718633	-2.7021923909	-0.7749285264	 0.138147
55.9602	88.6087	143.279	167.9133	226.6685	307.4151	318.9835	337.4594	425.557	506.957	562.2808	585.4226	679.8784	740.003	770.1528	855.7149	884.8685	949.6691	956.4308	997.8618	1023.9499	1047.6724	1076.654	1130.988	1170.0256	1182.5168	1216.6929	1273.1075	1279.0891	1305.2258	1325.465	1344.1677	1377.667	1415.3663	1446.8639	1487.3055	1499.2554	1503.7603	1507.6837	1839.0983	1858.6635	2966.9635	3026.3855	3028.9912	3033.3244	3041.0333	3072.2147	3100.6015	3105.7519	3108.6956	3113.9459
CCC1CCC(=O)C1=O	CC[C@H]1CCC(=O)C1=O	
InChI=1S/C7H10O2/c1-2-5-3-4-6(8)7(5)9/h5H,2-4H2,1H3	InChI=1S/C7H10O2/c1-2-5-3-4-6(8)7(5)9/h5H,2-4H2,1H3/t5-/m0/s1
