19
gdb 2738	2.0532644	1.5491608	1.2242728	2.8905	78.65	-0.23747	-0.01985	0.21761999999999998	1124.0556	0.155245	-422.542929	-422.533745	-422.532801	-422.57642	34.157	
C	 0.5983732112	-2.6879695964	-2.2745823475	-0.493298
C	 0.8231326552	-1.4300401095	-1.487242068	 0.264577
C	 2.1966830642	-0.9143970745	-1.0366632532	-0.284066
C	 1.7718430787	 0.5570358699	-1.3440241128	-0.303418
C	 0.4057491254	 0.0664918486	-1.8116953831	 0.176744
C	-0.3334049513	 0.5682676999	-2.9668874657	 0.040167
O	 0.0362656148	 1.4955509473	-3.6568405415	-0.28151
C	-0.2419996116	-0.7650024249	-0.6993346823	 0.000994
O	-1.5234497841	-1.2663783512	-0.9230194781	-0.421865
H	 0.8851821988	-3.5585428519	-1.6714206794	 0.126714
H	-0.4513996525	-2.8045934543	-2.5491612614	 0.145346
H	 1.2065355138	-2.7013624192	-3.1846903117	 0.124576
H	 2.4669638415	-1.1447855028	-0.0006401136	 0.101598
H	 3.0000592828	-1.2609498661	-1.6903975339	 0.114545
H	 1.7588175559	 1.2454074611	-0.4927448241	 0.100138
H	 2.3417867188	 1.0132044616	-2.1542442092	 0.132276
H	-1.2778530767	 0.0273575208	-3.1917033903	 0.069249
H	-0.044373341	-0.4508493673	 0.3299492525	 0.089408
H	-2.1588587539	-0.561048861	-0.7619121767	 0.297825
97.4838	164.4293	192.6543	201.0362	218.9053	266.288	278.4521	346.0367	361.664	419.9697	526.8515	549.349	630.777	691.9584	774.5716	782.158	808.7793	948.122	956.2696	995.7772	1030.6893	1062.3607	1066.884	1106.8964	1159.4487	1165.2116	1218.8704	1239.4575	1243.8725	1257.54	1282.9537	1334.0401	1372.6925	1411.826	1435.3553	1460.4827	1481.2705	1491.1597	1495.5259	1507.3086	1778.1613	2895.164	3028.5024	3044.3778	3048.4012	3054.0542	3086.9905	3104.4479	3130.1993	3136.8729	3811.8568
CC12CCC1(C=O)C2O	C[C@@]12CC[C@]1(C=O)[C@H]2O	
InChI=1S/C7H10O2/c1-6-2-3-7(6,4-8)5(6)9/h4-5,9H,2-3H2,1H3	InChI=1S/C7H10O2/c1-6-2-3-7(6,4-8)5(6)9/h4-5,9H,2-3H2,1H3/t5-,6-,7-/m0/s1
