19
gdb 5887	2.764444	0.6508012	0.5452237	3.0472	83.52	-0.25663	-0.05239	0.20424000000000003	2025.2202	0.153813	-422.536972	-422.525902	-422.524958	-422.576038	36.745	
C	 5.4818806072	-1.630229803	-2.9657150592	-0.378131
C	 4.6706241825	-1.3753500426	-1.6930187097	-0.173744
C	 4.7955863526	 0.0789112291	-1.199754959	-0.281172
C	 3.9797173966	 0.3396710299	 0.0537272023	 0.23832
O	 4.480232234	 0.5727279859	 1.1341406103	-0.284442
C	 2.5366049363	 0.2821422111	-0.1077655521	 0.042638
C	 1.3361320864	 0.2506905119	-0.2422515414	 0.032735
C	-0.1215920965	 0.193575355	-0.3271730662	-0.194063
O	-0.7825759535	 0.7601441604	 0.789611437	-0.395166
H	 5.3821382821	-2.6693459813	-3.2937588039	 0.117489
H	 5.1447247399	-0.9862932237	-3.7853506288	 0.117558
H	 6.5467248667	-1.4314381331	-2.8042062579	 0.121421
H	 3.6142532778	-1.6058198007	-1.8729385562	 0.110414
H	 5.0058353549	-2.0511131543	-0.8971012444	 0.112854
H	 5.8363113966	 0.3197157205	-0.9636405606	 0.121437
H	 4.4527804257	 0.7590979759	-1.9903267601	 0.116282
H	-0.465434716	 0.7578647091	-1.2013751547	 0.150904
H	-0.4199653289	-0.8549012703	-0.492945456	 0.129532
H	-0.4090321345	 0.36583319	 1.5850892508	 0.295133
21.4341	36.0613	64.9564	99.3958	124.7663	164.7167	217.7042	252.685	301.1725	346.0101	383.4111	401.7499	508.8548	625.7396	671.9662	730.5784	763.0399	892.7991	906.6914	968.6946	991.2939	1044.2664	1061.3358	1094.2657	1104.5879	1216.6049	1224.1775	1271.5653	1292.9524	1326.0246	1354.2307	1374.6754	1412.5714	1416.8996	1467.4892	1479.6118	1492.6707	1499.318	1508.8035	1762.0741	2319.2718	2971.924	3025.3803	3031.7664	3036.5744	3064.1554	3064.9348	3096.1683	3105.6067	3107.2775	3815.436
CCCC(=O)C#CCO	CCCC(=O)C#CCO	
InChI=1S/C7H10O2/c1-2-4-7(9)5-3-6-8/h8H,2,4,6H2,1H3	InChI=1S/C7H10O2/c1-2-4-7(9)5-3-6-8/h8H,2,4,6H2,1H3
