19
gdb 2859	2.2939937	1.9182952	1.4637387	1.1325	73.04	-0.24626	0.07579	0.32205	967.8632	0.158578	-422.543062	-422.535316	-422.534372	-422.574865	30.99	
O	-0.7653467052	-0.3053752722	 3.2476509189	-0.445905
C	-0.8763342515	 0.6349388324	 2.1868880006	 0.082629
C	-2.2050549481	 1.3759691307	 2.1471257208	-0.078312
C	-3.4767548068	 0.5659140378	 1.8869915886	-0.091059
C	-3.1625925561	-0.7571923986	 1.1807255472	-0.259536
C	-2.1994297412	 0.0254209464	 0.2337874461	-0.051878
C	-2.805223332	 1.355532636	 0.7749241465	-0.069652
C	-0.7694537565	-0.0051118934	 0.7631467644	 0.112383
O	 0.0107326013	 0.7933570451	-0.1143466217	-0.445748
H	-1.658296582	-0.5320105028	 3.5241019628	 0.287178
H	-0.0441125373	 1.3395880559	 2.3097426378	 0.070791
H	-2.3405829865	 2.2562816339	 2.7655780683	 0.08825
H	-4.3876292946	 0.7975588789	 2.426915592	 0.085962
H	-2.7356013529	-1.581935693	 1.7633699205	 0.090334
H	-4.0351059812	-1.1275231079	 0.6370935722	 0.106307
H	-2.2745545461	-0.190209519	-0.8308223036	 0.077402
H	-3.1416618738	 2.2190113043	 0.2184391763	 0.089861
H	-0.3703331275	-1.0262218934	 0.8445754898	 0.06924
H	 0.9059865279	 0.835533749	 0.2374807026	 0.281752
112.8629	200.5132	260.6629	300.5731	319.0532	335.6622	385.1474	471.0098	564.1464	672.7798	704.0932	757.2915	799.8005	828.8448	872.4944	902.7986	913.7574	961.3869	984.1403	1003.5128	1009.4018	1031.5964	1052.842	1069.6225	1087.5339	1102.6725	1119.0574	1149.2178	1180.9492	1229.9974	1235.4482	1255.5528	1279.6903	1288.2416	1305.7292	1312.3278	1345.2737	1399.8624	1407.2557	1431.4829	1502.6397	3005.8642	3025.1249	3032.441	3096.4905	3127.3961	3170.6617	3179.5846	3213.0172	3811.3255	3830.2554
OC1C2C3CC(C23)C1O	O[C@@H]1[C@@H]2[C@@H]3C[C@@H]([C@H]23)[C@H]1O	
InChI=1S/C7H10O2/c8-6-3-1-2-4(3)5(2)7(6)9/h2-9H,1H2	InChI=1S/C7H10O2/c8-6-3-1-2-4(3)5(2)7(6)9/h2-9H,1H2/t2-,3+,4-,5-,6-,7-/m1/s1
