19
gdb 4689	2.3654909	1.3975549	1.012147	1.8895	77.27	-0.24544	-0.03906	0.20638	1224.9563	0.154942	-422.582508	-422.572934	-422.57199	-422.618622	33.682	
C	 2.8881691032	-0.2240876657	 0.227043984	-0.398024
C	 1.4070701313	-0.0513166285	-0.1629194233	-0.271312
C	 0.9716973054	 1.405447301	-0.1336714704	 0.36718
O	 0.8784031172	 2.0684718644	-1.1420322301	-0.302349
C	 0.6884413698	 2.0243327764	 1.2377704624	-0.222678
C	-0.0015960139	 3.4166323043	 1.193185944	-0.239261
C	 1.3350777792	 4.1243578012	 1.5683127263	-0.323416
C	 1.9333480451	 2.747592039	 1.8484419933	 0.398527
O	 2.9169259132	 2.3513405064	 2.3994653565	-0.286033
H	 3.0911570374	 0.1553337557	 1.2314387941	 0.15801
H	 3.1606352288	-1.2825447787	 0.1941053159	 0.120804
H	 3.5340071238	 0.3139227516	-0.4732328014	 0.131811
H	 1.2394310457	-0.4169451242	-1.1794661285	 0.122434
H	 0.7773931341	-0.6318883433	 0.5213850574	 0.108309
H	 0.2717031814	 1.274120116	 1.9149288563	 0.106441
H	-0.3957398961	 3.6711292466	 0.2104291435	 0.134726
H	-0.7766966879	 3.5278002567	 1.952565972	 0.11175
H	 1.8231082196	 4.5982561669	 0.7099369705	 0.150205
H	 1.3447056026	 4.8236246244	 2.4078777775	 0.132874
28.3228	53.7466	75.1001	140.9222	231.8806	238.5862	279.8613	385.518	427.8903	479.1648	564.9157	659.1265	701.1209	711.0407	759.823	809.0349	876.2978	922.1511	947.7071	1001.5161	1002.3666	1024.3874	1068.067	1091.871	1102.4683	1159.6388	1188.4275	1221.1335	1230.994	1271.5957	1279.5429	1312.5196	1331.9377	1417.6966	1430.4981	1475.1708	1479.2024	1503.7197	1512.6799	1791.6276	1883.4216	3039.1744	3046.9264	3058.0182	3081.2439	3093.4419	3099.9241	3116.6081	3117.5146	3134.8247	3159.1407
CCC(=O)C1CCC1=O	CCC(=O)[C@@H]1CCC1=O	
InChI=1S/C7H10O2/c1-2-6(8)5-3-4-7(5)9/h5H,2-4H2,1H3	InChI=1S/C7H10O2/c1-2-6(8)5-3-4-7(5)9/h5H,2-4H2,1H3/t5-/m0/s1
