19
gdb 3428	3.2257761	1.3139336	1.0310289	1.8922	77.51	-0.23409	0.01272	0.24681	1170.3515	0.15777	-422.533234	-422.525104	-422.52416	-422.56548	31.735	
O	 0.2841321858	 0.2847117098	-0.1158190301	-0.428657
C	-0.7813812183	 0.3973635798	 0.7781957427	 0.043983
C	-2.1052732485	-0.0927955761	 0.3017437204	 0.077119
O	-3.1836137574	 0.7085264309	 0.6618524678	-0.242379
C	-4.3946464285	 0.0289670803	 0.9570275346	-0.056336
C	-4.2416277682	-1.1926191	 1.8903684645	-0.286773
C	-3.2461965726	-0.984998636	 3.0070873071	-0.044792
C	-1.9392101822	-0.8495499389	 2.7750577643	-0.070708
C	-1.3749244787	-0.8599560849	 1.399078563	-0.161007
H	 1.0805818046	 0.0992594829	 0.3928839841	 0.286764
H	-0.8123192262	 1.3043438772	 1.38165123	 0.099508
H	-2.1452913846	-0.5390485326	-0.6923356497	 0.092822
H	-5.0261946383	 0.7893114004	 1.4266145242	 0.110711
H	-4.8925132127	-0.2921347349	 0.028776136	 0.090439
H	-5.2336722175	-1.4312869715	 2.2872019304	 0.101461
H	-3.9342168494	-2.0585236853	 1.2931557699	 0.118663
H	-3.6189940493	-0.9526125663	 4.0275021405	 0.089213
H	-1.2469482308	-0.7281941084	 3.6062805465	 0.084178
H	-0.8806773973	-1.7754009865	 1.0742626938	 0.095791
140.6066	177.5337	228.0222	261.6831	303.643	322.5811	363.8406	403.7377	461.8391	498.7563	623.4522	721.479	784.595	804.8204	858.1159	899.168	913.2378	940.5279	986.7916	1003.2076	1034.8755	1060.7339	1074.1451	1096.9977	1113.6791	1153.3424	1165.4771	1204.651	1220.5127	1268.99	1276.5749	1290.5126	1317.5175	1333.9278	1361.0954	1406.6428	1422.7607	1477.9984	1484.418	1507.8052	1706.2438	2983.1578	3038.2111	3070.1751	3088.1482	3097.6725	3106.0436	3113.4629	3134.7566	3166.9844	3803.9585
OC1C2OCCC=CC12	O[C@H]1[C@@H]2OCCC=C[C@H]12	
InChI=1S/C7H10O2/c8-6-5-3-1-2-4-9-7(5)6/h1,3,5-8H,2,4H2	InChI=1S/C7H10O2/c8-6-5-3-1-2-4-9-7(5)6/h1,3,5-8H,2,4H2/t5-,6-,7-/m1/s1
