19
gdb 5363	3.1700434	1.3899797	1.2554038	2.6353	76.02	-0.24215	0.0012	0.24335	1070.5974	0.159151	-422.557899	-422.550132	-422.549188	-422.59034	30.166	
O	 0.3440771849	 0.2868980997	 1.027781736	-0.418298
C	 0.2477732174	 0.750737367	-0.3160698358	-0.173851
C	-0.9999763489	 0.2540882984	-0.9685314726	 0.300539
C	-1.9996743094	 0.9274282404	-1.555488267	-0.196904
C	-3.1356385867	-0.0532150587	-1.7955261744	-0.094929
C	-3.6421101396	-0.4342425051	-0.369302432	-0.070045
O	-2.5344460725	-1.1357205613	 0.2147720328	-0.286956
C	-1.5028456442	-1.1784973404	-0.8229725554	 0.015863
C	-2.3352678336	-1.3481862587	-2.0978248717	-0.225986
H	-0.5418981342	 0.3182574125	 1.4061362836	 0.290449
H	 0.2948467475	 1.8498235398	-0.3731257074	 0.091184
H	 1.1412725489	 0.3631345096	-0.8228644755	 0.111046
H	-2.0663561156	 1.9985576229	-1.7063376215	 0.098651
H	-3.9186841626	 0.2438857948	-2.4920668615	 0.071154
H	-3.8956421033	 0.4425797429	 0.2370376052	 0.096289
H	-4.5136206707	-1.0995289818	-0.4143968647	 0.100889
H	-0.7822166027	-1.9438370195	-0.5426346095	 0.084249
H	-1.7490669931	-1.2787403211	-3.0151138696	 0.105157
H	-2.9390141616	-2.2600784116	-2.0952992493	 0.101498
85.4063	98.3493	237.5304	308.5219	337.3969	388.6994	438.7386	488.7914	552.3819	695.853	728.791	814.4559	831.9067	858.9906	869.1197	906.3072	929.6169	933.548	964.9273	984.2629	995.7562	1033.5177	1057.6131	1066.4627	1128.4141	1158.7991	1200.2777	1203.15	1233.1206	1251.9299	1274.5504	1287.0799	1296.2214	1327.8634	1360.3467	1365.81	1430.0099	1490.1011	1509.6596	1521.3131	1683.3568	2977.6595	3016.646	3032.5997	3061.0403	3066.8986	3125.3032	3134.3692	3149.0096	3199.432	3802.5037
OCC1=CC2COC1C2	OCC1=C[C@@H]2CO[C@H]1C2	
InChI=1S/C7H10O2/c8-3-6-1-5-2-7(6)9-4-5/h1,5,7-8H,2-4H2	InChI=1S/C7H10O2/c8-3-6-1-5-2-7(6)9-4-5/h1,5,7-8H,2-4H2/t5-,7-/m0/s1
