19
gdb 3599	2.5090568	1.514529	1.1697134	2.6111	78.83	-0.23604	-0.05596	0.18008	1110.0998	0.157622	-422.595364	-422.586647	-422.585703	-422.628837	32.872	
C	-3.7453538278	 0.0334989321	 1.036027094	-0.389585
C	-3.0053941062	 0.1393516568	-0.3167317723	-0.034952
C	-2.2840229979	-1.1592852718	-0.7260903642	-0.253651
C	-0.9353174475	-1.3693350589	-0.0467080508	 0.03453
O	-1.1487591906	-1.7543715817	 1.3127388254	-0.43077
C	-0.0552815396	-0.108368165	-0.0363614696	 0.351108
O	 1.1383690892	-0.213261473	 0.1830058188	-0.351652
C	-0.7222850111	 1.1925473144	-0.1879632743	-0.152568
C	-2.0538128756	 1.3035443066	-0.2977757414	-0.043707
H	-4.5122808981	-0.745737266	 0.9847252811	 0.11721
H	-3.0468498216	-0.2249883337	 1.8334863538	 0.149073
H	-4.2396024828	 0.9773785086	 1.2884200145	 0.109576
H	-3.7656287072	 0.3535111315	-1.0802342087	 0.0848
H	-2.9192180133	-2.0296391501	-0.5308610415	 0.111037
H	-2.1012605363	-1.1303392871	-1.8068021817	 0.106429
H	-0.3708395425	-2.1516195708	-0.5743276834	 0.084505
H	-0.27774967	-1.8160049094	 1.7233565388	 0.293476
H	-0.0740772402	 2.0629568664	-0.1541042346	 0.106882
H	-2.5018394508	 2.2951166911	-0.3410657641	 0.108258
45.7087	155.8864	205.6349	243.4568	264.2748	310.1342	372.5081	404.4651	428.2087	462.2781	524.892	590.6589	699.0352	741.4228	774.096	838.1182	884.289	914.2023	955.1722	978.0144	1031.7281	1040.4629	1062.062	1118.4036	1131.8329	1156.5868	1231.7631	1249.5326	1280.5543	1329.2499	1355.9493	1359.9519	1385.7249	1400.6853	1417.7798	1427.464	1472.2366	1494.5517	1505.4724	1677.2604	1763.5403	2997.4919	3005.9744	3037.9093	3041.3969	3082.252	3102.7749	3140.4685	3145.7359	3183.8971	3790.1735
CC1CC(O)C(=O)C=C1	C[C@@H]1C[C@H](O)C(=O)C=C1	
InChI=1S/C7H10O2/c1-5-2-3-6(8)7(9)4-5/h2-3,5,7,9H,4H2,1H3	InChI=1S/C7H10O2/c1-5-2-3-6(8)7(9)4-5/h2-3,5,7,9H,4H2,1H3/t5-,7-/m0/s1
