19
gdb 2799	2.9342043	1.4196489	1.2074099	0.6591	74.78	-0.23423	0.0578	0.29203	1101.9602	0.156131	-422.498011	-422.489851	-422.488907	-422.530114	32.169	
C	 1.550079483	-0.8594956703	-0.949268607	-0.428351
C	 1.2685405848	-0.0768845735	 0.3168457769	-0.018087
C	 2.0822846076	 1.1633145097	 0.5584786397	-0.069347
C	 2.3176840304	-0.112563836	 1.3927881495	-0.110232
C	 1.9061420685	 0.6311827061	 2.6817980621	 0.35716
O	 2.881261801	 0.5100114912	 3.6649192608	-0.475757
C	 0.4076268788	 0.7003096499	 3.0636829311	-0.163124
O	 0.200721446	 1.8104970083	 2.1543362115	-0.296372
C	 1.6163107372	 1.8939226284	 1.8352808281	 0.010296
H	 1.2442562579	-1.9054623124	-0.8411236105	 0.120354
H	 1.005923571	-0.436394112	-1.8001477807	 0.12192
H	 2.6170599021	-0.8484878581	-1.1960262451	 0.116729
H	 0.2204723659	-0.046386218	 0.5998409082	 0.1019
H	 2.701867936	 1.6011039381	-0.2156323526	 0.082898
H	 3.1495958579	-0.8062104725	 1.3680646184	 0.092869
H	 2.6730009325	 1.1216821701	 4.3799746929	 0.283102
H	-0.2312468953	-0.1598180086	 2.8340141242	 0.107934
H	 0.2430514332	 1.002816734	 4.1087354163	 0.088015
H	 2.0464685716	 2.8790117553	 2.0317906861	 0.078092
180.718	183.185	226.8912	232.2724	278.7228	342.5836	352.8577	382.3684	459.0379	526.7003	655.3571	718.234	768.7416	828.9097	852.2942	886.1075	900.3047	945.0854	974.7876	998.2286	1001.3824	1029.3572	1043.2454	1073.2294	1094.3667	1106.2976	1143.9051	1146.6761	1173.4637	1195.3053	1230.9197	1267.5288	1272.1102	1313.5401	1357.3022	1392.0946	1416.1214	1423.319	1494.4337	1502.0602	1510.4156	2989.3428	3030.0696	3060.7211	3083.6047	3096.358	3097.3236	3149.8964	3173.7322	3188.232	3799.2269
CC1C2C1C1(O)COC21	C[C@@H]1[C@@H]2[C@H]1[C@]1(O)CO[C@H]21	
InChI=1S/C7H10O2/c1-3-4-5(3)7(8)2-9-6(4)7/h3-6,8H,2H2,1H3	InChI=1S/C7H10O2/c1-3-4-5(3)7(8)2-9-6(4)7/h3-6,8H,2H2,1H3/t3-,4-,5+,6-,7-/m1/s1
