19
gdb 1280	3.4365545	1.3119216	1.225494	2.0477	74.33	-0.23716	0.07414	0.3113	1097.9466	0.156236	-422.496326	-422.488026	-422.487082	-422.52917	32.011	
C	 0.4150925848	 1.4777764892	 5.319081513	-0.396984
C	 0.8902363914	 1.90389197	 3.9250968899	-0.004319
O	 1.0406226727	 3.3165505368	 3.8379087166	-0.432827
C	-0.0395208421	 1.4204122934	 2.8572427349	 0.499707
O	-1.3681461893	 1.9733115507	 2.8565864516	-0.348358
C	-1.500776166	 1.4225826499	 1.5121644825	 0.064305
C	-1.5748128662	-0.1060050755	 1.7590340026	-0.234933
C	-0.1171445371	 0.0302035084	 2.2037943864	-0.170952
C	 0.0613928546	 1.3057907803	 1.3754135288	-0.21527
H	 0.425931055	 0.3880029839	 5.4225354435	 0.113188
H	 1.0684033584	 1.9129226841	 6.0791315778	 0.121023
H	-0.6073789588	 1.8264170115	 5.4943508587	 0.12858
H	 1.8848597987	 1.4840189738	 3.7308979392	 0.090132
H	 0.1538083412	 3.6753196134	 3.7117126658	 0.287407
H	-2.203150595	 1.9683348544	 0.88619195	 0.089475
H	-2.3265218479	-0.4465285207	 2.4778507418	 0.102887
H	-1.6533230506	-0.6638168022	 0.8224221592	 0.107284
H	 0.6103680096	-0.7478371967	 2.3974701553	 0.093964
H	 0.7950189066	 1.6257195952	 0.6493728025	 0.105691
73.1857	132.3867	177.6445	244.1802	318.1365	335.5796	382.5566	469.0079	484.7977	580.4798	659.1854	783.3394	799.0743	805.0806	830.4188	877.3893	904.8169	929.5526	939.7165	952.573	987.1768	1003.8045	1038.5568	1067.5312	1088.6253	1100.089	1108.1262	1147.4886	1162.6403	1179.2358	1244.1214	1268.4159	1282.3592	1312.8419	1336.6554	1398.818	1408.404	1461.4576	1487.5991	1490.37	1502.5079	3040.1617	3040.9926	3050.5887	3112.8469	3114.0965	3127.7987	3148.2754	3197.8011	3219.1886	3787.9139
CC(O)C12OC3CC1C23	C[C@H](O)[C@]12O[C@@H]3C[C@H]1[C@H]23	
InChI=1S/C7H10O2/c1-3(8)7-4-2-5(9-7)6(4)7/h3-6,8H,2H2,1H3	InChI=1S/C7H10O2/c1-3(8)7-4-2-5(9-7)6(4)7/h3-6,8H,2H2,1H3/t3-,4-,5+,6-,7-/m0/s1
