19
gdb 2999	2.9143987	1.152439	0.9550999	2.0603	76.34	-0.26416	0.01133	0.27549	1282.8243	0.156447	-422.557138	-422.548411	-422.547467	-422.59122	31.934	
C	-4.7689919841	 0.7314483787	 0.2123040816	-0.425359
C	-3.4906457643	 0.9865713661	-0.5568131589	 0.004191
C	-3.1103058656	 2.4075585497	-0.84966679	-0.063079
C	-1.8707681827	 2.441796692	-1.7540658339	-0.291439
C	-1.090571898	 1.6777972687	-0.6513815943	 0.122623
O	-0.5158680238	 0.4365826815	-1.1184129795	-0.215168
C	 0.1789121966	-0.2574503026	-0.2097467405	 0.179849
O	 0.359821764	 0.0575222107	 0.9353357236	-0.309122
C	-2.3414845053	 1.5931940458	 0.208156409	-0.067203
H	-4.948969183	 1.5188940693	 0.9519502738	 0.117195
H	-5.6339387576	 0.7012864635	-0.458758152	 0.119912
H	-4.7252398739	-0.2230199097	 0.7473045883	 0.123445
H	-3.2594072769	 0.2349383079	-1.3105484593	 0.08624
H	-3.7932293979	 3.2323584974	-0.688541334	 0.089453
H	-1.9639582441	 1.9176054039	-2.7098091933	 0.108756
H	-1.4654699171	 3.4395939939	-1.9319481902	 0.111115
H	-0.2996458114	 2.2677773134	-0.1863391658	 0.106819
H	 0.5674119929	-1.1741646218	-0.6814959274	 0.106549
H	-2.3531790979	 1.6700682416	 1.2878585027	 0.095223
41.8636	121.0192	168.3438	224.1347	249.8613	261.3978	299.3667	375.1091	424.4408	572.1824	683.2398	764.9953	797.7416	814.333	860.0758	878.4325	972.6608	984.0635	1006.5019	1033.9315	1046.7007	1048.9911	1056.3623	1090.2523	1109.7744	1148.1305	1163.5771	1202.4144	1220.8669	1243.2661	1256.2457	1293.6189	1319.0446	1376.0449	1408.0712	1419.2653	1431.2858	1485.1212	1494.0702	1505.1306	1816.3047	3020.9916	3030.4047	3058.3272	3093.9409	3096.1854	3100.0932	3114.8158	3120.6107	3187.3932	3198.9692
CC1C2CC(OC=O)C12	C[C@H]1[C@@H]2C[C@H](OC=O)[C@H]12	
InChI=1S/C7H10O2/c1-4-5-2-6(7(4)5)9-3-8/h3-7H,2H2,1H3	InChI=1S/C7H10O2/c1-4-5-2-6(7(4)5)9-3-8/h3-7H,2H2,1H3/t4-,5-,6-,7+/m0/s1
