19
gdb 6083	7.3842923	0.5586629	0.5539749	2.4105	81.48	-0.2601	0.01919	0.27929	2022.6256	0.15313	-422.483702	-422.473417	-422.472473	-422.520147	35.59	
C	-2.0249136858	 0.2151643382	-2.7646525754	-0.385289
C	-1.2680388999	 0.8978798835	-1.6387837754	-0.026065
O	 0.0647817579	 0.4231728733	-1.6403330256	-0.244898
C	 0.8629945469	 1.0027887066	-0.6369866505	-0.082172
C	 2.2491840291	 0.4274692225	-0.7445633116	 0.055175
O	 2.5161531506	-0.78226338	-0.0419558393	-0.233594
C	 3.158837279	 0.4179422958	 0.4188424442	-0.163936
C	 4.585376088	 0.5173754229	 0.2653932459	 0.318477
C	 5.7786691192	 0.6144769072	 0.1608161599	-0.409411
H	-2.020380939	-0.8694858316	-2.6259793735	 0.131761
H	-3.0631799308	 0.5591793371	-2.7885405239	 0.115664
H	-1.5618338945	 0.4392876713	-3.7297092776	 0.127685
H	-1.2793922076	 1.9935580896	-1.7703315118	 0.085628
H	-1.743841866	 0.6859704277	-0.66645309	 0.089325
H	 0.9105352402	 2.0996901292	-0.7605049914	 0.092569
H	 0.4575485219	 0.7960140698	 0.3671544199	 0.095923
H	 2.6943395142	 0.4771265935	-1.7377488946	 0.11366
H	 2.7700056273	 0.786486832	 1.3683479923	 0.115953
H	 6.8329500692	 0.6963518912	 0.0625606783	 0.203545
43.2491	68.8764	86.2128	121.7125	165.878	198.601	248.5268	289.2695	325.4025	413.2815	475.1735	542.836	583.7548	621.9242	672.2317	791.3167	821.6625	886.6291	921.4278	984.994	1008.9389	1046.3158	1073.8445	1120.7106	1144.9475	1155.3201	1171.3771	1190.8654	1265.3527	1269.6175	1295.2712	1338.9599	1384.4506	1405.3085	1438.1426	1483.5381	1483.675	1496.6217	1501.5337	1532.3553	2242.9292	2943.7245	2956.6051	2979.4485	2988.6947	3046.2999	3107.3589	3120.7205	3124.1195	3128.5582	3503.5546
CCOCC1OC1C#C	CCOC[C@@H]1O[C@H]1C#C	
InChI=1S/C7H10O2/c1-3-6-7(9-6)5-8-4-2/h1,6-7H,4-5H2,2H3	InChI=1S/C7H10O2/c1-3-6-7(9-6)5-8-4-2/h1,6-7H,4-5H2,2H3/t6-,7-/m0/s1
