19
gdb 2288	2.7110728	1.7096995	1.7061894	2.2834	74.26	-0.23832	0.00589	0.24421	935.8838	0.158712	-422.568862	-422.56139	-422.560446	-422.600145	30.144	
C	 0.039240737	 0.0416877739	 0.0342907728	-0.480549
C	 1.5612459637	 0.0054973025	-0.0290196896	 0.161935
C	 2.176751784	-0.7492843287	 1.1772010322	-0.069786
O	 3.603468653	-0.7120303514	 1.1083395164	-0.266751
C	 4.0398376645	-0.008435777	-0.0466655648	 0.146732
O	 3.6073067921	 1.3433069743	 0.0256175345	-0.266754
C	 2.1808130598	 1.4253425131	 0.0315739507	-0.069787
C	 3.4608545436	-0.6580438381	-1.2818586205	-0.083231
C	 2.1285781958	-0.6493340145	-1.2700271601	-0.11747
H	-0.3100103509	 0.5251766242	 0.9526788698	 0.119984
H	-0.3744655769	 0.5952526622	-0.8151584528	 0.122944
H	-0.3774403689	-0.9706540247	 0.0080899254	 0.122943
H	 1.8624495805	-0.2686399773	 2.1140102447	 0.099213
H	 1.8426444562	-1.7950696001	 1.1924995789	 0.096305
H	 5.1282804412	 0.0104620461	-0.0069348418	 0.087559
H	 1.8665163196	 1.9271166048	 0.9572399255	 0.099212
H	 1.849818659	 2.0302998524	-0.8228259061	 0.096302
H	 4.0910676939	-1.0695252489	-2.0606775379	 0.106864
H	 1.4883368628	-1.0566613228	-2.0454904474	 0.094335
175.705	206.7897	272.2415	278.5675	363.0786	389.1726	443.271	462.9966	551.7151	632.4497	656.3699	719.4386	741.3274	859.5174	901.5297	913.5848	941.5775	950.4815	985.1623	987.8829	1005.2369	1031.7453	1033.2374	1105.9869	1151.254	1196.6818	1197.7816	1216.5106	1242.6428	1295.8084	1329.7963	1342.0239	1382.9471	1387.9485	1406.0635	1419.8209	1494.0341	1497.0324	1509.4606	1521.4934	1678.4194	2995.8942	2999.3909	3030.9781	3036.2593	3040.2716	3100.3337	3100.4067	3130.3781	3176.1988	3209.9135
CC12COC(OC1)C=C2	C[C@]12CO[C@H](OC1)C=C2	
InChI=1S/C7H10O2/c1-7-3-2-6(8-4-7)9-5-7/h2-3,6H,4-5H2,1H3	InChI=1S/C7H10O2/c1-7-3-2-6(8-4-7)9-5-7/h2-3,6H,4-5H2,1H3/t6-,7+
