19
gdb 773	2.5034173	1.5170083	1.0564958	2.8652	78.1	-0.23151	-0.02396	0.20754999999999998	1147.4389	0.157803	-422.568612	-422.560291	-422.559347	-422.601737	31.502	
O	-2.3368122123	-0.5499576099	 2.3691259333	-0.295616
C	-1.6511342271	 0.4376129158	 2.4702644176	 0.352622
C	-1.8466722812	 1.6018652708	 1.4824920185	-0.171932
O	-1.2409377968	 2.8186771375	 1.8460775917	-0.239973
C	 0.0153210007	 3.143766925	 1.2745975716	-0.065619
C	 1.2113705458	 2.7727944216	 2.1729391281	-0.256369
C	 1.5234608137	 1.2989592316	 2.2357062431	-0.053681
C	 0.7818405625	 0.3621661761	 2.8307136447	-0.063037
C	-0.5449831064	 0.590141257	 3.5134688485	-0.343397
H	-1.5140425095	 1.2588282769	 0.4916229606	 0.124893
H	-2.9276476682	 1.7702372269	 1.4170497195	 0.136768
H	 0.1194974086	 2.6766768016	 0.2847729747	 0.097728
H	 0.0064734511	 4.2304863397	 1.1326591705	 0.10824
H	 2.0864865597	 3.3151915434	 1.7982151052	 0.10283
H	 1.0027844766	 3.1735194193	 3.1729532878	 0.122265
H	 2.4345642582	 0.9801581873	 1.7344459406	 0.092594
H	 1.1025135269	-0.67501135	 2.7750556338	 0.102647
H	-0.7191203743	-0.1522797281	 4.294828639	 0.121277
H	-0.6001122978	 1.5978216076	 3.9354048614	 0.127758
60.7751	142.417	185.7277	246.9632	257.4844	389.6071	411.9602	475.6363	498.2522	531.9858	544.5942	629.5338	721.581	790.0438	810.6169	889.9778	930.8182	978.1871	994.5302	1004.4938	1013.7431	1049.437	1092.6628	1131.649	1165.8179	1221.4247	1259.4509	1269.3337	1283.3824	1298.7531	1310.9616	1356.2485	1366.465	1399.5507	1424.8323	1450.7688	1462.751	1481.1525	1494.9496	1711.0754	1816.6461	2999.3875	3003.4796	3028.0145	3060.4349	3063.9476	3070.2657	3073.3332	3123.86	3145.0302	3169.9503
O=C1COCCC=CC1	O=C1COCCC=CC1	
InChI=1S/C7H10O2/c8-7-4-2-1-3-5-9-6-7/h1-2H,3-6H2/b2-1-	InChI=1S/C7H10O2/c8-7-4-2-1-3-5-9-6-7/h1-2H,3-6H2/b2-1-
