19
gdb 1424	2.4284206	1.7537674	1.3066081	1.2665	75.47	-0.22313	0.05667	0.2798	1035.2755	0.153771	-422.474779	-422.465816	-422.464872	-422.507483	34.724	
C	-0.1126212076	 0.1562883306	 0.1991436598	-0.479663
C	 1.3624292686	-0.016453263	-0.0965308492	 0.357011
O	 1.9896446	-0.7821250653	 0.9164250771	-0.464053
C	 2.0474800078	-0.2776635782	-1.438051057	-0.227986
C	 1.6143147739	 0.6360850343	-2.615398439	 0.010711
O	 0.5280559806	 1.489861376	-2.2237337553	-0.246567
C	 1.8615737422	 1.8383432014	-1.8265381517	-0.044841
C	 2.3629414936	 0.9885964705	-0.6092749593	 0.244145
C	 3.6219500786	 1.3845143802	 0.1065213488	-0.495295
H	-0.2252905071	 0.5851933152	 1.2004845493	 0.119543
H	-0.6123261455	 0.7863621112	-0.5294438231	 0.158862
H	-0.6032339241	-0.8266325251	 0.2012523712	 0.09894
H	 1.5223173433	-1.6233219691	 0.9654258646	 0.28099
H	 2.6756974339	-1.1513870384	-1.5589774296	 0.090817
H	 1.7270107558	 0.4306897878	-3.6733947735	 0.111422
H	 2.2207495689	 2.8257347915	-2.0943577391	 0.107485
H	 3.9432141713	 0.5928382969	 0.784536665	 0.148463
H	 4.4336130223	 1.585496365	-0.6028908934	 0.112628
H	 3.4658197835	 2.2972201788	 0.6955789844	 0.117389
163.0345	184.7842	188.338	216.1361	267.1536	282.5018	287.412	364.0985	385.5381	431.8386	495.3665	612.8054	629.9335	712.7987	744.8255	803.3931	837.6405	877.4544	898.1122	922.5462	936.1254	973.3679	982.6719	1043.3088	1084.2986	1108.4147	1142.8363	1165.5036	1197.5481	1213.273	1253.1505	1270.0567	1297.6693	1373.4319	1398.7925	1407.4588	1461.1597	1488.4229	1493.0148	1499.2371	1508.4714	3017.6484	3019.9826	3069.8911	3083.3874	3142.0652	3173.9215	3187.6099	3196.5669	3202.2111	3800.4865
CC1(O)C2C3OC3C12C	C[C@@]1(O)[C@H]2[C@H]3O[C@H]3[C@@]12C	
InChI=1S/C7H10O2/c1-6-4(7(6,2)8)3-5(6)9-3/h3-5,8H,1-2H3	InChI=1S/C7H10O2/c1-6-4(7(6,2)8)3-5(6)9-3/h3-5,8H,1-2H3/t3-,4+,5-,6+,7-/m1/s1
