19
gdb 4232	2.2113337	2.0385836	1.5004135	1.7373	73.49	-0.23711	0.07031	0.30741999999999997	956.8882	0.158132	-422.541124	-422.53339	-422.532446	-422.572704	31.398	
O	 0.5051709519	 0.7471584643	 0.4134204773	-0.436391
C	-0.6345862671	 0.0446543128	 0.8983386547	 0.056512
C	-1.7593242265	 0.0773660532	-0.1600806082	-0.219915
C	-2.7710785883	 1.0965274592	 0.3886086038	-0.060951
C	-2.0960920808	 2.49575542	 0.593850396	-0.237939
C	-1.813223677	 2.0953232027	 2.0383062314	-0.083387
C	-2.7548180652	 0.8972977526	 1.9332091496	-0.168836
C	-1.2764892752	 0.6816026878	 2.1302409726	 0.377744
O	-0.7469941797	 0.3794097283	 3.3872513843	-0.493004
H	 1.073064509	 0.9262286871	 1.1708868985	 0.285748
H	-0.3485866698	-0.9920901388	 1.1424112434	 0.04878
H	-1.3592456932	 0.3491057598	-1.1407985381	 0.111448
H	-2.2246804965	-0.9106132242	-0.2428338338	 0.092953
H	-3.7332221372	 1.0989241755	-0.1229885456	 0.067675
H	-1.2430267198	 2.7325770516	-0.0476249857	 0.107586
H	-2.8306924618	 3.3040998516	 0.5473281776	 0.096594
H	-1.6641597608	 2.7517714211	 2.8875250188	 0.08892
H	-3.5374540909	 0.5544190545	 2.597367781	 0.084644
H	-0.9431959611	-0.5444027993	 3.5805109024	 0.281821
129.9979	234.7792	276.115	313.3983	336.2751	367.7653	379.585	430.5329	551.9485	581.1679	650.4792	683.1924	810.484	845.4801	849.5586	861.6203	889.9489	934.1683	950.526	989.671	1003.9032	1010.2447	1037.124	1053.48	1098.0682	1122.5136	1158.1116	1194.9687	1210.9826	1216.5934	1238.3598	1267.0646	1279.0648	1299.8414	1323.5986	1341.2156	1362.0741	1404.4535	1436.2505	1477.9633	1489.9604	2951.9604	3047.3818	3053.0639	3101.4798	3105.3126	3113.7129	3181.501	3199.8455	3787.6917	3806.0156
OC1CC2CC3C2C13O	O[C@@H]1C[C@@H]2C[C@H]3[C@@H]2[C@@]13O	
InChI=1S/C7H10O2/c8-5-2-3-1-4-6(3)7(4,5)9/h3-6,8-9H,1-2H2	InChI=1S/C7H10O2/c8-5-2-3-1-4-6(3)7(4,5)9/h3-6,8-9H,1-2H2/t3-,4-,5+,6+,7-/m0/s1
