19
gdb 5864	3.8410497	0.5403901	0.4975352	3.9593	83.94	-0.24295	-0.03281	0.21014	2142.1679	0.15278	-422.533354	-422.522062	-422.521117	-422.573207	37.359	
C	 1.9947613135	 4.359709773	-5.339931058	-0.382672
C	 1.4300537465	 3.9077357368	-3.9921496856	-0.157052
C	 1.9492214153	 2.5142349087	-3.5803694776	-0.338774
C	 1.4281369514	 2.0599226112	-2.2970344637	 0.018168
C	 0.9742369002	 1.7330112152	-1.2282397836	 0.075785
C	 0.4697219482	 1.2410877485	 0.0481935727	-0.08496
O	-0.6218071269	 0.3367349988	-0.0889232071	-0.416401
C	 1.6154881961	 0.5276988291	 0.7910952732	 0.160825
O	 2.2194438224	 0.9920982834	 1.7171500985	-0.231116
H	 1.7189444761	 3.6644849637	-6.1406628489	 0.117423
H	 1.6154585422	 5.3486815085	-5.6128930535	 0.119531
H	 3.0885295535	 4.4180442423	-5.3136964409	 0.118958
H	 1.6944804237	 4.6278719562	-3.2102194633	 0.115257
H	 0.3355436258	 3.8802487177	-4.0298692087	 0.112782
H	 1.6887081479	 1.7826235692	-4.3570461164	 0.13095
H	 3.0466465475	 2.5298662946	-3.5394132834	 0.135722
H	 0.130242877	 2.0653144713	 0.6846309592	 0.134494
H	-0.5226978341	-0.1169651022	-0.9325607611	 0.292965
H	 1.8200317436	-0.4897707161	 0.3868475683	 0.078114
7.5357	53.1033	75.3191	80.264	134.8944	165.6532	204.2649	240.6977	286.911	321.3429	344.8598	436.0936	480.9433	496.2467	587.7118	741.985	791.0457	870.8914	893.2073	992.9431	1022.8792	1044.0953	1054.3072	1107.6555	1121.688	1163.6058	1251.6331	1258.3616	1268.5877	1305.5554	1322.5615	1380.5603	1389.1214	1408.8265	1414.093	1468.6187	1491.6777	1499.0656	1508.4631	1844.0114	2350.2472	2877.5949	3012.9883	3030.9409	3040.8354	3044.2772	3061.7083	3076.3116	3102.2605	3108.7104	3819.0708	7.5286	53.1045	75.3198	80.2645	134.8945	165.654	204.2646	240.6973	286.911	321.3439	344.8602	436.0939	480.9443	496.2474	587.7121	741.985	791.0461	870.8916	893.2073	992.9434	1022.8794	1044.0954	1054.3073	1107.6557	1121.6885	1163.6061	1251.6328	1258.362	1268.5869	1305.5557	1322.562	1380.5605	1389.1208	1408.8261	1414.0931	1468.6193	1491.678	1499.0658	1508.4634	1844.0122	2350.2481	2877.5951	3012.9882	3030.9409	3040.8353	3044.2772	3061.7082	3076.3116	3102.2604	3108.7104	3819.0705
CCCC#CC(O)C=O	CCCC#C[C@@H](O)C=O	
InChI=1S/C7H10O2/c1-2-3-4-5-7(9)6-8/h6-7,9H,2-3H2,1H3	InChI=1S/C7H10O2/c1-2-3-4-5-7(9)6-8/h6-7,9H,2-3H2,1H3/t7-/m1/s1
