19
gdb 5951	3.4358133	1.0172259	0.9016422	2.4191	77.44	-0.24088	0.01313	0.25401	1348.7992	0.156107	-422.511203	-422.50231	-422.501366	-422.545584	32.019	
C	 1.5637181661	 0.7403590683	 0.0739678139	-0.220788
O	 0.1870930971	 0.9940189607	 0.2308584456	-0.240363
C	-0.4702128442	-0.003419424	 0.9845796606	-0.211782
C	-1.9202569736	 0.3518779634	 1.0964339845	 0.192196
C	-2.564535906	 1.6329520392	 1.738530039	-0.259625
C	-3.8090593509	 0.823306793	 1.2368769838	-0.178227
C	-2.969847375	 0.5439014747	-0.0568306372	-0.259619
C	-3.0667376026	-0.3929514566	 1.8070131376	 0.419896
O	-3.255674991	-1.3799818057	 2.4486876775	-0.332093
H	 1.7465977516	-0.2094437721	-0.4530361966	 0.106352
H	 1.9815089975	 1.5587835148	-0.5170491462	 0.128608
H	 2.084540803	 0.6988714917	 1.0436719132	 0.106352
H	-0.3624672991	-0.9907233289	 0.5033070223	 0.098799
H	-0.0263797471	-0.0876204676	 1.9915171256	 0.098798
H	-2.4491440838	 1.7721009085	 2.8153256505	 0.11063
H	-2.3690579225	 2.5516089551	 1.1820572692	 0.117149
H	-4.8581442829	 1.0989341071	 1.3065284017	 0.095952
H	-3.2322487802	-0.3320545514	-0.6534983694	 0.110626
H	-2.7886503764	 1.4241650799	-0.6765933458	 0.117139
61.6282	90.1416	105.5345	192.5013	231.1769	268.8081	316.6344	344.2559	515.794	558.6509	669.0063	740.5068	766.2278	807.7866	835.5304	892.1288	920.4385	986.6199	1002.8997	1004.7422	1033.573	1048.4667	1080.6358	1143.7663	1145.9232	1164.9204	1185.6698	1186.2022	1198.0505	1225.8548	1233.6622	1272.5658	1341.7492	1431.1159	1481.5588	1485.5996	1496.0124	1500.5841	1520.0769	1533.5465	1910.5421	2950.9956	2972.6906	2978.4432	3016.12	3067.1818	3067.615	3116.2897	3139.9334	3140.7615	3157.1349
COCC12CC(C1)C2=O	COC[C@@]12C[C@@H](C1)C2=O	
InChI=1S/C7H10O2/c1-9-4-7-2-5(3-7)6(7)8/h5H,2-4H2,1H3	InChI=1S/C7H10O2/c1-9-4-7-2-5(3-7)6(7)8/h5H,2-4H2,1H3/t5-,7+
