19
gdb 3386	2.7885081	1.509535	1.0781337	2.7865	74.54	-0.25238	-0.02854	0.22383999999999998	1121.4023	0.157824	-422.578105	-422.570123	-422.569179	-422.610723	30.99	
O	-0.4567828747	 2.2729312134	 0.7727455078	-0.443284
C	-0.7868360538	 1.1398754796	 0.0190876736	 0.046437
C	-2.2561013531	 0.7033775108	 0.0971485878	-0.040273
C	-3.0997361837	 0.868274481	-1.1929388814	-0.230579
C	-2.6924347673	-0.5707160339	-1.6196954634	-0.237278
C	-2.2118812928	-0.848646698	-0.1636162776	 0.000423
C	-0.7834653068	-1.3557606234	 0.0959715527	-0.361372
C	-0.0096224516	-0.098054166	 0.4854219294	 0.365513
O	 1.0055823692	-0.0208600242	 1.1319313477	-0.325052
H	 0.3829796597	 2.057361958	 1.2076039651	 0.289999
H	-0.5101246736	 1.2844092222	-1.0442842143	 0.086593
H	-2.6873370881	 1.0569835161	 1.0360177146	 0.083953
H	-4.1673782685	 0.9422373252	-0.9708854145	 0.105443
H	-2.8281244162	 1.6900571596	-1.8607626958	 0.104685
H	-3.4809441686	-1.2176570486	-2.0106463098	 0.103023
H	-1.8632898292	-0.5774823846	-2.3345925361	 0.100914
H	-2.9561466152	-1.4038473742	 0.4094239274	 0.08104
H	-0.7076052621	-2.0869977585	 0.9054215413	 0.136325
H	-0.3231854838	-1.8132336945	-0.7881848445	 0.133491
79.1487	113.637	244.9159	300.3876	328.5177	356.566	403.9081	458.6209	566.8902	633.0683	643.4049	679.3371	753.8268	770.2894	879.6256	882.1016	896.2058	949.0733	970.6089	1001.8042	1035.2231	1078.885	1105.8371	1112.6575	1167.5335	1173.4967	1199.5435	1222.4993	1247.2209	1259.5872	1263.418	1281.1741	1283.2872	1307.4207	1340.8973	1379.8562	1416.1152	1446.7441	1482.0827	1497.5343	1835.4056	2905.0803	3043.3003	3050.5269	3059.3965	3082.8317	3091.5365	3098.3533	3104.6649	3117.8278	3701.2355
OC1C2CCC2CC1=O	O[C@@H]1[C@H]2CC[C@H]2CC1=O	
InChI=1S/C7H10O2/c8-6-3-4-1-2-5(4)7(6)9/h4-5,7,9H,1-3H2	InChI=1S/C7H10O2/c8-6-3-4-1-2-5(4)7(6)9/h4-5,7,9H,1-3H2/t4-,5-,7+/m0/s1
