19
gdb 1201	3.0843805	1.1783879	0.9018912	1.6084	77.79	-0.24775	0.05633	0.30408	1300.0448	0.155514	-422.525022	-422.515566	-422.514622	-422.560378	33.781	
C	-2.3795690622	 1.6035626774	-2.7564175004	-0.397805
C	-0.9811027787	 1.1371437729	-3.2066654206	-0.18443
C	-0.5176338093	 1.8907246294	-4.3684484885	 0.331379
C	-0.1621490735	 2.5388122661	-5.3159399787	-0.472598
C	 0.033884348	 1.2522673255	-2.0554594807	 0.231606
O	-0.4279093805	 0.4965773084	-0.9576655704	-0.25955
C	 0.7298892965	-0.0103855214	-0.3097559366	-0.100809
C	 1.6671707951	-0.2767177382	-1.4874745211	-0.08956
O	 1.3025967965	 0.7316193035	-2.4235165954	-0.267725
H	-2.7187300318	 1.0060783653	-1.9079310514	 0.135494
H	-2.3575040479	 2.6562384097	-2.4579642645	 0.125225
H	-3.0947621957	 1.5014169513	-3.5758282838	 0.126224
H	-1.0235930063	 0.0711837099	-3.4645386752	 0.109138
H	 0.1653791138	 3.0969171893	-6.1576376873	 0.193844
H	 0.1638860933	 2.3108158383	-1.7713128247	 0.079435
H	 1.1534870328	 0.7353086212	 0.3794815844	 0.103214
H	 0.4494260442	-0.9030942898	 0.2530612718	 0.119713
H	 2.7265025876	-0.1681019517	-1.236572681	 0.112826
H	 1.5021341081	-1.2758306572	-1.9135492462	 0.10438
31.494	68.566	123.1383	205.8411	220.7039	234.5701	246.3495	382.898	412.0211	496.6778	557.3634	629.1659	643.3803	660.8892	745.2384	853.5031	902.3703	913.0531	953.5084	984.8311	1013.7453	1068.5182	1079.2876	1094.4836	1142.9692	1151.2335	1176.3178	1227.1109	1247.7811	1287.7846	1313.7782	1335.4921	1383.4827	1389.5391	1397.835	1420.3107	1494.9021	1498.2079	1513.0695	1526.8209	2238.7689	2955.1542	2996.0596	3011.0959	3031.416	3049.4533	3083.498	3112.4206	3121.2639	3140.8012	3506.0831
CC(C#C)C1OCCO1	C[C@@H](C#C)C1OCCO1	
InChI=1S/C7H10O2/c1-3-6(2)7-8-4-5-9-7/h1,6-7H,4-5H2,2H3	InChI=1S/C7H10O2/c1-3-6(2)7-8-4-5-9-7/h1,6-7H,4-5H2,2H3/t6-/m0/s1
