19
gdb 3733	2.9268831	1.3100308	1.1324534	1.6907	76.29	-0.23121	0.06953	0.30074	1162.0768	0.154958	-422.491805	-422.483007	-422.482063	-422.525345	32.684	
C	 2.5675732739	 1.494290291	 0.3271887574	-0.40269
C	 1.6720098629	 0.2776505389	 0.2468489109	-0.088943
C	 1.914405146	-0.786265096	-0.8173015683	-0.358694
C	 2.2111153003	-1.0664941325	 0.619762695	 0.382587
O	 3.5422268583	-1.2608973771	 1.1167529792	-0.32301
C	 3.1202244094	-2.3670722667	 1.9534434033	-0.152409
C	 1.6751694907	-2.1600396474	 1.5070326837	 0.289841
C	 0.3989799021	-2.3406549981	 2.1914506009	-0.262623
O	 0.7972774934	-3.1826425219	 1.0930090909	-0.261626
H	 2.5240649929	 1.949902942	 1.3221217414	 0.118774
H	 3.609631704	 1.2240695538	 0.1360584058	 0.134264
H	 2.2691588218	 2.2520050949	-0.4049000102	 0.117027
H	 0.6304474898	 0.4534084134	 0.5091151375	 0.085094
H	 1.0663884425	-1.2921709759	-1.267226535	 0.124463
H	 2.7704044042	-0.6492293184	-1.470706288	 0.123349
H	 3.558149934	-3.3195287336	 1.6339138342	 0.120504
H	 3.3404614945	-2.1877860566	 3.0114639441	 0.112429
H	 0.3688864775	-2.8274604937	 3.1654790824	 0.120628
H	-0.4300089781	-1.665762326	 1.9830222248	 0.121037
81.2664	121.613	151.7091	180.9171	237.1773	285.1421	334.749	421.4204	450.1913	545.4541	575.3863	613.7064	795.5427	843.1542	868.9496	888.8682	890.6073	921.9947	964.2911	988.4521	1007.7385	1036.4841	1083.4189	1103.4023	1119.9818	1123.5813	1146.0913	1148.2458	1167.8598	1183.4768	1227.4975	1295.4998	1328.663	1402.4255	1417.2504	1459.0684	1483.2221	1491.6962	1502.2125	1515.1443	1552.4253	3028.8257	3034.557	3080.1766	3081.8345	3095.2496	3110.5302	3125.7019	3128.052	3168.7897	3216.9759
CC1CC11OCC11CO1	C[C@H]1C[C@]21OC[C@]12CO1	
InChI=1S/C7H10O2/c1-5-2-7(5)6(3-8-6)4-9-7/h5H,2-4H2,1H3	InChI=1S/C7H10O2/c1-5-2-7(5)6(3-8-6)4-9-7/h5H,2-4H2,1H3/t5-,6-,7+/m0/s1
