19
gdb 4903	2.8351402	1.0809941	0.9075002	2.2197	78.79	-0.24816	0.03865	0.28681	1315.7249	0.155151	-422.509336	-422.499528	-422.498584	-422.543788	36.353	
O	 0.6051741455	-0.3252444036	 0.2246358449	-0.415177
C	-0.7578109128	-0.4596069966	-0.1892265235	-0.143389
C	-1.0835470243	 0.3958646036	-1.3977436567	 0.2733
C	-0.8715148952	 1.8875037538	-1.1892441009	-0.131919
O	 0.4955364338	 2.2262194712	-1.0403418622	-0.430673
C	-0.811574382	-0.1809343553	-2.7607031317	-0.325323
C	-2.2468321975	-0.0808547605	-2.2638145512	-0.266899
C	-3.1710191396	 0.8402910535	-2.8585722882	 0.325621
C	-3.9613554267	 1.5981957575	-3.3569031936	-0.442848
H	 1.1585064828	-0.6296534778	-0.5040402508	 0.292435
H	-1.0006452173	-1.5144491953	-0.386092822	 0.094974
H	-1.3499545879	-0.139182734	 0.6747583319	 0.123803
H	-1.2444418755	 2.4438036067	-2.053196306	 0.115895
H	-1.4630274945	 2.2120672989	-0.31648052	 0.087052
H	 0.8384925136	 1.656718508	-0.3388922105	 0.283768
H	-0.5095325125	 0.5036815896	-3.5445585265	 0.137858
H	-0.3897579053	-1.1782306803	-2.8422594597	 0.111421
H	-2.6974299841	-1.0196578605	-1.9504624926	 0.112628
H	-4.6550996905	 2.270763991	-3.7969743306	 0.197474
91.8022	114.9872	118.3319	166.3644	230.9195	276.3046	300.9741	320.5476	389.9109	412.8128	440.0615	529.802	589.4479	610.0985	634.0737	653.7447	749.3567	835.7957	923.7215	934.2122	937.6494	973.9482	994.9006	1032.2515	1070.0794	1081.6169	1088.3211	1136.3342	1197.5315	1203.6463	1296.0006	1327.8932	1369.7685	1395.1195	1411.0748	1421.7022	1461.9591	1484.4426	1496.2029	1513.4254	2236.3127	2961.9798	2992.1257	3074.7749	3093.9117	3127.4024	3131.7353	3223.452	3504.09	3750.6421	3799.1012
OCC1(CO)CC1C#C	OCC1(CO)C[C@@H]1C#C	
InChI=1S/C7H10O2/c1-2-6-3-7(6,4-8)5-9/h1,6,8-9H,3-5H2	InChI=1S/C7H10O2/c1-2-6-3-7(6,4-8)5-9/h1,6,8-9H,3-5H2/t6-/m0/s1
