19
gdb 3105	2.8311629	1.2952704	1.0441672	1.9977	77.21	-0.27911	0.00743	0.28654	1193.5891	0.157041	-422.531633	-422.523228	-422.522284	-422.565472	31.165	
C	-3.3680065017	 0.3866702729	 1.9733748908	-0.450067
C	-3.1166220392	 1.72009384	 1.2821777306	 0.066093
C	-1.8222641013	 2.5846227961	 1.4904420043	-0.122786
C	-2.2674530076	 3.3709071615	 0.217536508	-0.22905
C	-2.4675711989	 1.866454278	-0.1407398931	-0.108027
C	-1.0610140807	 1.6859026469	 0.4911483097	 0.205059
O	-0.6236335882	 0.4028877398	 0.9590107148	-0.23031
C	 0.1054665605	-0.322948889	 0.0967465565	 0.163251
O	 0.3871918036	-0.0186190917	-1.0290471441	-0.300203
H	-3.656274878	 0.5606048613	 3.0165588669	 0.114125
H	-4.2066289737	-0.1290788453	 1.4914007011	 0.114199
H	-2.5075543727	-0.27816138	 1.9670508459	 0.136669
H	-4.0233821421	 2.3302624959	 1.3710520701	 0.067237
H	-1.4372445717	 3.0022685	 2.4215046975	 0.076557
H	-3.1785883576	 3.9618943806	 0.3185577668	 0.102957
H	-1.491682972	 3.9124918363	-0.3287195979	 0.099348
H	-2.8193086781	 1.4560479174	-1.0872701822	 0.083044
H	-0.2355673457	 2.1436791514	-0.0554973957	 0.10349
H	 0.4121678549	-1.2553973723	 0.59601151	 0.108416
33.2259	147.143	163.7206	207.6867	267.6125	302.0069	363.1874	425.9449	511.4403	616.7924	745.1107	762.437	790.8922	809.9363	888.5166	904.2458	948.4129	994.8671	1019.9214	1029.277	1043.8988	1051.9487	1090.7161	1092.2516	1122.47	1143.4961	1170.9536	1174.9062	1200.8239	1222.4995	1226.4615	1261.5344	1290.8088	1405.4965	1412.4547	1422.0904	1450.8122	1497.4085	1508.3725	1524.6197	1821.2157	3024.8874	3026.897	3037.206	3067.0517	3083.5502	3101.1115	3110.2863	3120.4099	3137.6638	3177.8253
CC1C2CC1C2OC=O	C[C@H]1[C@@H]2C[C@H]1[C@@H]2OC=O	
InChI=1S/C7H10O2/c1-4-5-2-6(4)7(5)9-3-8/h3-7H,2H2,1H3	InChI=1S/C7H10O2/c1-4-5-2-6(4)7(5)9-3-8/h3-7H,2H2,1H3/t4-,5-,6+,7+
