19
gdb 1539	3.3578506	1.2501655	1.1858363	3.7863	75.66	-0.23149	-0.03185	0.19963999999999998	1128.9516	0.154794	-422.547011	-422.53826	-422.537316	-422.580256	33.22	
C	-2.4425035754	 0.4832967675	-2.5506005156	-0.435722
C	-2.5904046527	-0.3522375938	-1.2904929812	 0.411871
C	-3.9701481605	-0.9935884483	-1.1919029851	-0.422374
O	-1.5617678653	-1.4018632271	-1.2283287785	-0.335434
C	-1.1833668828	-1.0274400686	 0.1111661374	-0.004172
C	-2.1116086086	 0.2270579134	 0.0694131353	-0.130105
C	-0.8765026447	 1.1674311507	 0.0431374488	-0.39073
C	 0.0401104796	-0.0774747007	 0.0684581859	 0.40914
O	 1.2230461634	-0.2403944391	 0.0716221486	-0.286189
H	-2.6563594623	-0.1323467075	-3.4302345888	 0.129775
H	-3.1461119955	 1.3224702634	-2.5445661429	 0.119466
H	-1.4290489094	 0.8751627314	-2.6582554835	 0.126651
H	-4.0586214075	-1.5917898739	-0.2803508045	 0.120599
H	-4.7525599805	-0.2268330469	-1.1783657985	 0.116047
H	-4.1434832676	-1.6500325706	-2.0498609433	 0.127463
H	-1.2116055398	-1.8554326383	 0.8247221596	 0.091811
H	-2.8779987338	 0.438252152	 0.8125550686	 0.082773
H	-0.7581653028	 1.8575337954	-0.7949861042	 0.132398
H	-0.7641602336	 1.7391827409	 0.9709722019	 0.136732
61.4735	156.7117	183.3898	244.1899	259.1659	335.7279	354.8903	377.5147	432.3667	473.0824	518.1317	598.6225	690.2134	771.781	809.2137	871.3861	883.5876	927.3554	951.7464	974.547	991.8179	1003.8114	1028.2413	1071.1059	1096.556	1156.8981	1169.52	1196.7901	1217.6705	1236.0096	1278.8241	1287.7489	1324.7993	1400.3763	1413.986	1435.5798	1471.4843	1483.3875	1493.2041	1508.2088	1897.523	3033.2515	3041.575	3056.8422	3075.9318	3103.7149	3109.5662	3115.7247	3116.4256	3128.998	3132.6769
CC1(C)OC2C1CC2=O	CC1(C)O[C@@H]2[C@H]1CC2=O	
InChI=1S/C7H10O2/c1-7(2)4-3-5(8)6(4)9-7/h4,6H,3H2,1-2H3	InChI=1S/C7H10O2/c1-7(2)4-3-5(8)6(4)9-7/h4,6H,3H2,1-2H3/t4-,6-/m1/s1
