19
gdb 2563	2.9577734	1.4510454	1.1494563	1.5551	77.08	-0.24088	0.00762	0.2485	1115.9517	0.157942	-422.540679	-422.532609	-422.531665	-422.573363	30.54	
C	 1.1619740983	 0.9952327818	-1.2625729083	-0.47541
C	-0.1177384405	 0.410676789	-0.7346386475	 0.276204
C	-1.2501714578	 1.1069242755	-0.6140692576	-0.159649
C	-2.4880246697	 0.5211796334	-0.0167293319	 0.035937
O	-2.6644351826	 0.8924182925	 1.3886507272	-0.292355
C	-2.2196360788	-0.4052936163	 1.8349928804	-0.123447
C	-2.3217304666	-0.9583465867	 0.3922715526	 0.076827
O	-1.2874556745	-1.6979236394	-0.1900463773	-0.259932
C	-0.0404747247	-1.0351778715	-0.3090293758	-0.160008
H	 1.9781491388	 0.8810704896	-0.5374910683	 0.12911
H	 1.4842047589	 0.4833445446	-2.1782513602	 0.129535
H	 1.0526818291	 2.0596864239	-1.4838025155	 0.129276
H	-1.2848316726	 2.1523458904	-0.912465746	 0.088292
H	-3.3847963979	 0.7835771755	-0.588894913	 0.078819
H	-1.1996055827	-0.3797899573	 2.2416549469	 0.099571
H	-2.8926775423	-0.83831427	 2.5825393991	 0.10595
H	-3.227389982	-1.5478737216	 0.2395483645	 0.098685
H	 0.5253969659	-1.0999919807	 0.6376308533	 0.105865
H	 0.5288209917	-1.6138205426	-1.0463403726	 0.11673
88.0689	139.5063	188.3725	203.181	311.6104	382.6402	411.0181	463.8929	490.3811	548.4339	669.2205	759.8427	842.5484	854.9463	894.213	915.6065	960.5129	984.2888	995.749	1006.6269	1051.8308	1078.0608	1090.7555	1104.1134	1150.9162	1186.5933	1199.3183	1260.9232	1274.2883	1280.5692	1330.077	1355.568	1366.759	1393.8883	1411.1546	1428.7199	1477.9984	1486.9298	1495.4716	1518.4185	1737.203	2946.5013	3011.2162	3017.5376	3041.4412	3048.9939	3064.6807	3066.9493	3100.5213	3117.6696	3149.9708
CC1=CC2OCC2OC1	CC1=C[C@@H]2OC[C@@H]2OC1	
InChI=1S/C7H10O2/c1-5-2-6-7(4-9-6)8-3-5/h2,6-7H,3-4H2,1H3	InChI=1S/C7H10O2/c1-5-2-6-7(4-9-6)8-3-5/h2,6-7H,3-4H2,1H3/t6-,7-/m0/s1
