19
gdb 1226	2.9696288	0.687829	0.6026402	3.9017	83.36	-0.24316	-0.03323	0.20992999999999998	1879.7493	0.152523	-422.535557	-422.524278	-422.523333	-422.574404	37.932	
C	 1.9840834105	-0.799773912	 1.3415843141	-0.375995
C	 1.5408586666	-0.056069951	 0.0656270902	-0.126831
C	 0.0090967892	 0.1156612361	 0.0155546878	-0.376638
C	 2.0294017847	-0.7390394589	-1.1323609324	 0.102014
C	 2.4235835008	-1.3425249814	-2.1000130842	-0.01754
C	 2.9011607087	-1.9805823196	-3.3213864683	-0.081897
O	 1.8875942204	-2.1306573063	-4.3103677982	-0.416079
C	 4.0457459303	-1.1320020301	-3.9072737351	 0.160739
O	 5.2088185505	-1.4147485409	-3.8344731948	-0.231007
H	 1.5478562933	-1.8026571046	 1.3737602506	 0.12846
H	 3.0715573369	-0.9005461338	 1.3813427277	 0.130525
H	 1.6538096235	-0.2515886847	 2.2293533729	 0.1172
H	 1.9911502186	 0.9460984025	 0.0855885331	 0.111689
H	-0.3357567709	 0.6624357336	 0.8984509093	 0.119055
H	-0.2983025591	 0.6699428021	-0.8751698534	 0.122104
H	-0.4875115443	-0.8591546783	-0.0010961237	 0.129019
H	 3.3048308703	-2.9779155492	-3.1164239083	 0.134547
H	 1.253427972	-1.4157645099	-4.1912957593	 0.29276
H	 3.6782235379	-0.2204241134	-4.4312036582	 0.077875
12.4523	52.9529	92.4027	97.488	181.2595	186.665	217.9448	225.5217	263.9438	322.2699	343.0508	435.7529	461.6526	494.7021	540.0679	592.5811	729.9596	876.3466	932.5563	965.7292	990.9553	1005.463	1052.6081	1087.0888	1118.4446	1151.7263	1206.1916	1251.793	1268.4162	1324.0895	1349.825	1389.2137	1395.9411	1408.9175	1418.2397	1485.6199	1488.7575	1498.537	1510.5382	1844.4419	2346.2321	2877.3535	3009.2678	3039.2846	3042.3917	3062.6364	3112.0046	3116.7712	3119.9392	3124.1652	3819.7253
CC(C)C#CC(O)C=O	CC(C)C#C[C@@H](O)C=O	
InChI=1S/C7H10O2/c1-6(2)3-4-7(9)5-8/h5-7,9H,1-2H3	InChI=1S/C7H10O2/c1-6(2)3-4-7(9)5-8/h5-7,9H,1-2H3/t7-/m1/s1
