19
gdb 5509	4.4405684	0.8358086	0.7657557	2.9319	77.35	-0.25009	-0.0211	0.22898999999999997	1483.6755	0.155732	-422.531424	-422.522364	-422.52142	-422.565866	32.663	
O	 1.1066054668	 0.7545958869	-1.2944090516	-0.421099
C	 0.490330877	 0.0263370147	-0.2402849302	-0.119051
C	-0.2166722013	 1.0042378341	 0.660435989	-0.002455
C	-0.3462311432	 0.6418951285	 2.1161414009	-0.057677
C	-1.206622883	 1.6793421313	 2.8478789788	-0.270063
C	-0.2205526162	 2.7982730766	 2.3990226856	-0.108399
C	 0.5413775708	 3.4632544045	 3.5192216278	 0.134147
O	 0.4148336369	 3.2231199453	 4.6930435162	-0.237015
C	 0.6293340461	 1.7305978294	 1.6699790924	-0.044344
H	 1.4712130145	 0.1222802401	-1.9209340862	 0.286653
H	-0.2351943985	-0.7027416082	-0.6342572313	 0.091603
H	 1.2357737941	-0.5385641652	 0.3439175898	 0.08364
H	-1.0306581062	 1.5435936713	 0.176877833	 0.083377
H	-0.129078067	-0.3572391144	 2.4754771952	 0.087107
H	-2.242330318	 1.7744792555	 2.5087182857	 0.097153
H	-1.1845056005	 1.5738995969	 3.9336734999	 0.134918
H	-0.6072143537	 3.5841984505	 1.736595237	 0.087981
H	 1.2861959845	 4.2159433233	 3.170802165	 0.078147
H	 1.7117371169	 1.717011719	 1.617526203	 0.095376
66.7236	81.2597	150.6175	174.5706	199.4534	266.4293	312.2892	346.3222	401.1228	487.775	683.2806	702.7933	787.6228	850.2204	860.1773	893.7195	922.4117	981.7821	994.386	1023.4735	1042.1857	1047.1276	1071.2221	1071.4178	1107.2545	1122.781	1167.0887	1198.5611	1210.3912	1240.5013	1248.3614	1266.4988	1283.701	1298.735	1348.5292	1415.1899	1427.103	1471.6364	1487.1696	1518.0625	1826.1934	2864.1825	2960.706	2991.6518	3020.4608	3057.9279	3108.0168	3129.0478	3173.4269	3184.0134	3825.5214
OCC1C2CC(C=O)C12	OC[C@H]1[C@@H]2C[C@@H](C=O)[C@H]12	
InChI=1S/C7H10O2/c8-2-4-1-5-6(3-9)7(4)5/h2,4-7,9H,1,3H2	InChI=1S/C7H10O2/c8-2-4-1-5-6(3-9)7(4)5/h2,4-7,9H,1,3H2/t4-,5-,6-,7-/m0/s1
