19
gdb 3094	2.5414402	1.5383947	1.1059927	1.4295	76.61	-0.24324	-0.03265	0.21059	1139.0115	0.154162	-422.497866	-422.488892	-422.487947	-422.531254	33.498	
C	 0.0659433687	-0.2410288145	-0.1950912094	-0.441058
C	 1.5356973687	-0.0053055885	 0.0974890261	 0.027257
C	 2.0438619011	-0.1520377351	 1.5628487118	-0.000811
O	 1.2889390661	 1.0839475109	 1.9094392291	-0.311979
C	 1.9754005757	 1.3818513047	 0.639186957	-0.018978
C	 3.2829700113	 0.7357594615	 1.2468904223	 0.25772
C	 3.9403119953	 1.4928635898	 2.3988809126	-0.486303
C	 4.3493970258	 0.2239948708	 0.3109869461	 0.080807
O	 4.5269961584	-0.9304617072	 0.0095349931	-0.255002
H	-0.5617261457	 0.1990267375	 0.5817108327	 0.138652
H	-0.2103756101	 0.198755449	-1.1594977139	 0.116532
H	-0.1466910887	-1.3136996246	-0.2529304526	 0.120832
H	 2.1835058518	-0.4480017733	-0.6603494698	 0.098301
H	 1.9643169037	-0.9967891394	 2.2472975205	 0.100373
H	 1.8430332697	 2.380448772	 0.218516855	 0.09446
H	 4.5736731286	 0.8258520003	 2.9934460794	 0.129202
H	 4.5747860998	 2.3034156811	 2.0233713749	 0.120458
H	 3.1714247083	 1.9170892033	 3.0450787057	 0.153577
H	 5.0240874317	 1.023664412	-0.0771164804	 0.075957
84.6222	161.9737	200.9128	213.0543	225.206	231.704	306.6974	352.5087	378.1994	479.655	541.9499	675.3768	731.2379	748.7945	794.0854	808.5196	859.9404	899.8653	929.559	987.4536	1026.4678	1055.9149	1077.2912	1095.0039	1122.0052	1145.4971	1155.0884	1188.0068	1207.7133	1235.4881	1267.8206	1299.0473	1390.8035	1398.8444	1421.8052	1427.6182	1488.7784	1495.0362	1504.1759	1506.8025	1815.2805	2849.9947	3036.066	3038.9517	3093.9609	3095.4836	3101.4158	3108.5626	3122.3853	3140.9686	3148.5209
CC1C2OC1C2(C)C=O	C[C@@H]1[C@@H]2O[C@H]1[C@]2(C)C=O	
InChI=1S/C7H10O2/c1-4-5-7(2,3-8)6(4)9-5/h3-6H,1-2H3	InChI=1S/C7H10O2/c1-4-5-7(2,3-8)6(4)9-5/h3-6H,1-2H3/t4-,5+,6-,7-
