19
gdb 5217	2.4253102	1.6393515	1.4870341	1.518	75.75	-0.23946	0.07354	0.313	1013.1244	0.155912	-422.480573	-422.472104	-422.47116	-422.513379	32.373	
C	 1.3249287315	-0.1218338237	-0.0258924789	-0.269077
O	-0.083869662	 0.0633280726	-0.0645637978	-0.301385
C	-0.6117007717	 0.5354212469	 1.1124381818	 0.422478
C	-0.6579687162	-0.1206498806	 2.5147596901	-0.340347
C	-1.4478768544	 1.1985702601	 2.6586027045	-0.12168
C	-2.0601878789	 1.0965160693	 1.2213795748	-0.109296
C	-1.6307100499	 2.5295103413	 0.8312174019	-0.336514
C	-0.478145831	 1.9866888252	 1.7020843501	 0.331901
O	 0.739050822	 2.5630443336	 2.0194260333	-0.479415
H	 1.609611751	-0.872022292	 0.724522165	 0.11311
H	 1.6236295943	-0.4781327968	-1.0140010482	 0.124789
H	 1.8461601866	 0.8164949125	 0.1984462664	 0.135189
H	-1.231827808	-1.0481913916	 2.6016278666	 0.093671
H	 0.2826840787	-0.1854352059	 3.0680867318	 0.101692
H	-1.955759346	 1.6024693555	 3.5321141596	 0.075365
H	-2.9675316916	 0.5566664863	 0.9613987346	 0.083561
H	-1.407586488	 2.7027118126	-0.2247811451	 0.107134
H	-2.226733435	 3.3481773756	 1.2484322549	 0.084551
H	 0.577547009	 3.3783640891	 2.5070899746	 0.284273
82.1739	159.8257	176.1345	250.9616	275.0688	313.9563	321.3425	436.7226	483.8809	499.626	643.4671	673.1449	723.5836	787.029	873.8691	898.5983	923.6872	934.3817	974.3931	1003.8636	1041.2209	1058.3414	1072.0589	1083.7103	1115.3826	1129.9507	1145.2457	1183.0724	1186.1761	1200.8295	1211.9181	1234.4003	1269.9158	1285.241	1311.4198	1389.26	1484.4648	1489.7081	1503.163	1508.9573	1514.1847	3004.6281	3042.6165	3049.6481	3069.0548	3109.5317	3111.4343	3125.3798	3136.6786	3151.1713	3797.1629
COC12CC3C1CC23O	CO[C@]12C[C@@H]3[C@H]1C[C@]23O	
InChI=1S/C7H10O2/c1-9-7-3-4-5(7)2-6(4,7)8/h4-5,8H,2-3H2,1H3	InChI=1S/C7H10O2/c1-9-7-3-4-5(7)2-6(4,7)8/h4-5,8H,2-3H2,1H3/t4-,5-,6-,7-/m1/s1
