19
gdb 739	2.6778598	1.4947706	1.0915831	4.2571	76.08	-0.25417	0.01425	0.26842	1137.2577	0.157907	-422.589157	-422.581103	-422.580159	-422.621957	31.087	
O	 0.935350058	 0.0280462794	 0.8646160471	-0.321283
C	-0.0622104042	 0.0363804502	 0.1968867453	 0.386728
C	-0.8559483186	 1.3055334949	-0.0862548275	-0.321793
C	-1.8010487905	 1.2371828273	-1.2890095607	-0.224833
C	-2.5633927316	-0.0887643648	-1.2442588089	-0.277758
C	-1.5706959852	-1.2232981966	-1.2540851772	 0.466849
C	-1.9659022548	-2.6296099672	-1.565076057	-0.330392
C	-1.1131229886	-1.8459524583	-2.5473320862	-0.317607
O	-0.5582603063	-1.1469743834	-0.2526393147	-0.269987
H	-1.434764637	 1.4926408552	 0.8283365594	 0.139455
H	-0.1332342411	 2.1207662056	-0.1614746178	 0.137005
H	-2.4854464178	 2.0908116436	-1.2792127886	 0.104194
H	-1.2289034766	 1.2951026558	-2.2224848958	 0.112697
H	-3.1788449665	-0.1390653126	-0.3360448168	 0.108015
H	-3.2380108137	-0.1937008353	-2.0989528325	 0.106916
H	-1.4743320658	-3.4090763929	-0.9948756782	 0.135138
H	-3.0031112534	-2.8265605274	-1.8135916798	 0.117977
H	-0.0665513759	-2.1173914453	-2.6183304862	 0.132608
H	-1.5638184102	-1.5040270281	-3.4730880539	 0.116071
84.8311	89.7958	223.5991	268.9136	355.7567	392.1974	432.9505	469.231	523.6439	542.77	618.3337	718.1066	771.2314	807.7236	855.6791	900.5709	910.1367	948.8458	956.8812	986.8577	1015.5262	1054.9468	1061.1749	1081.2543	1096.9678	1154.7112	1186.9488	1199.0473	1236.0097	1265.8819	1309.3854	1335.4657	1355.1613	1376.1696	1399.5361	1453.2857	1459.697	1484.4677	1497.487	1503.1077	1843.6079	3021.8595	3030.5855	3039.7949	3084.495	3088.97	3112.2382	3135.499	3139.3701	3223.1349	3236.2667
O=C1CCCC2(CC2)O1	O=C1CCCC2(CC2)O1	
InChI=1S/C7H10O2/c8-6-2-1-3-7(9-6)4-5-7/h1-5H2	InChI=1S/C7H10O2/c8-6-2-1-3-7(9-6)4-5-7/h1-5H2
