19
gdb 4084	3.0469278	1.6794787	1.4433739	1.8036	72.9	-0.23089	0.07697	0.30786	957.2408	0.159849	-422.559731	-422.552618	-422.551674	-422.590979	28.909	
O	 0.2022082578	 0.1601630511	-0.1549325199	-0.444004
C	-0.8458585909	 0.478991253	 0.75314252	 0.146137
C	-2.1677292309	 0.1956734738	 0.0137377502	-0.239388
C	-2.5322802394	 1.5164982221	-0.6608483892	-0.076593
C	-3.0265392227	 2.6300890215	 0.240366368	 0.089508
O	-3.1640668236	 2.3409437141	 1.6118421281	-0.259583
C	-1.8554760706	 2.345844028	 2.1919987686	-0.087943
C	-0.882328677	 1.9967809631	 1.0511828332	-0.104571
C	-1.5895264389	 2.6066743306	-0.1752704812	-0.104805
H	 1.0365714371	 0.4201163519	 0.2486934981	 0.277044
H	-0.7479794835	-0.1148656737	 1.674801644	 0.058062
H	-2.0114595029	-0.603482713	-0.713616713	 0.111956
H	-2.9447658195	-0.121667313	 0.7154858695	 0.111065
H	-2.8787011068	 1.5132275653	-1.688439637	 0.083137
H	-3.7426649497	 3.3579071573	-0.1261372956	 0.093183
H	-1.6287003248	 3.341447917	 2.6018282847	 0.092962
H	-1.8499804396	 1.6230842709	 3.0145109864	 0.105038
H	 0.1181344926	 2.3982114178	 1.2361372149	 0.062245
H	-1.1209052369	 3.3429106023	-0.8145489497	 0.086552
124.1656	219.4731	268.4138	309.0758	375.5515	417.761	511.0195	652.6987	715.4772	728.4494	767.8086	792.2982	805.3011	865.8248	903.5296	928.8035	930.498	957.5383	988.9564	1011.5655	1023.7898	1061.5125	1063.0703	1082.0152	1097.5058	1124.6243	1158.4063	1196.7081	1211.2099	1235.9346	1250.3101	1276.2509	1295.1658	1319.1428	1328.3853	1357.649	1379.486	1406.4583	1425.5458	1478.9039	1514.0791	2983.0428	2990.3617	3063.7963	3071.8092	3073.9015	3117.1512	3161.8325	3171.8812	3197.6736	3813.2877
OC1CC2C3OCC1C23	O[C@@H]1C[C@H]2[C@H]3OC[C@@H]1[C@@H]23	
InChI=1S/C7H10O2/c8-5-1-3-6-4(5)2-9-7(3)6/h3-8H,1-2H2	InChI=1S/C7H10O2/c8-5-1-3-6-4(5)2-9-7(3)6/h3-8H,1-2H2/t3-,4+,5-,6-,7-/m1/s1
