19
gdb 1677	2.8876594	1.3164536	1.2430494	1.5312	75.26	-0.24621	-0.02545	0.22076	1097.9736	0.155774	-422.531952	-422.523372	-422.522428	-422.565489	31.799	
C	-0.1591562973	-0.1007114345	-0.0309077814	-0.475062
C	 1.3600870432	 0.0338056142	 0.0815877007	 0.220711
C	 1.9552148621	 1.4404644235	-0.3276060645	-0.306285
C	 2.7906254602	 0.7382987194	-1.4156602411	 0.134682
O	 2.0937247471	 0.644470218	-2.6766433876	-0.295788
C	 1.7114157914	-0.7281079478	-2.4117210069	-0.101899
C	 2.2647927314	-0.6580949218	-0.9838128536	-0.124077
C	 1.784308547	-0.2960704848	 1.4957595422	 0.116893
O	 2.5929561108	-1.1287902984	 1.8163986928	-0.253959
H	-0.6568904187	 0.4712606301	 0.7606871881	 0.1229
H	-0.5151953507	 0.288817329	-0.9881527952	 0.139329
H	-0.4775423293	-1.1450156627	 0.0576139844	 0.129406
H	 1.2314253806	 2.1617454923	-0.7135518189	 0.117152
H	 2.5522544885	 1.9145900132	 0.4582185621	 0.109352
H	 3.8411778492	 1.0149231913	-1.5357184899	 0.081408
H	 0.6371234019	-0.8976591313	-2.5458347259	 0.102132
H	 2.2618559542	-1.4228287047	-3.0593521357	 0.104427
H	 2.8831827828	-1.4714592566	-0.6116134761	 0.101874
H	 1.2785373154	 0.3357955718	 2.2645964966	 0.076803
63.7759	87.9489	190.1411	234.5696	271.7978	296.9531	330.1499	395.7983	431.966	577.8507	630.8967	729.4997	795.9988	836.3517	886.7919	912.3531	928.9092	964.5645	979.4224	992.8254	1013.5949	1030.9723	1066.6413	1108.7146	1146.9342	1162.4633	1194.5812	1208.4192	1234.9598	1242.7405	1265.7132	1309.3797	1328.3864	1362.714	1402.0312	1420.8759	1462.9333	1492.081	1497.0262	1529.8417	1824.0919	2848.8222	3013.1851	3029.1304	3047.5751	3060.7405	3076.0337	3093.4624	3113.5898	3116.8717	3146.6828
CC1(CC2OCC12)C=O	C[C@@]1(C[C@@H]2OC[C@H]12)C=O	
InChI=1S/C7H10O2/c1-7(4-8)2-6-5(7)3-9-6/h4-6H,2-3H2,1H3	InChI=1S/C7H10O2/c1-7(4-8)2-6-5(7)3-9-6/h4-6H,2-3H2,1H3/t5-,6-,7+/m0/s1
