19
gdb 1355	4.8568782	0.7569898	0.6898589	0.8063	78.95	-0.26319	0.04068	0.30387	1634.7134	0.153344	-422.509555	-422.499346	-422.498402	-422.54516	36.568	
C	-2.2768170423	 4.5446167166	 2.502698662	-0.42117
C	-2.4805521922	 3.2003503327	 1.8563166338	 0.079561
O	-1.9054522309	 2.0674310395	 2.5281359255	-0.268506
C	-1.3838035426	 2.4386686868	 1.249657891	 0.053823
C	-1.6078570592	 1.4359863707	 0.141374393	 0.099307
O	-1.2381241211	 2.0722566787	-1.0655616049	-0.441415
C	-0.7719409229	 0.1572172369	 0.392713811	-0.363034
C	-0.8899519773	-0.7719493965	-0.7233576351	 0.254018
C	-1.0186867872	-1.4747053853	-1.6915343899	-0.421146
H	-2.9383596344	 4.6610548595	 3.3673488268	 0.129825
H	-1.2443275225	 4.6594721883	 2.8432109376	 0.128406
H	-2.5037703335	 5.3473159417	 1.793166288	 0.128055
H	-3.4842504749	 3.0103518871	 1.4718180301	 0.092393
H	-0.3804992299	 2.8689271341	 1.268459923	 0.094485
H	-2.6708198412	 1.1483036217	 0.1328224337	 0.079195
H	-1.2280449193	 1.3946011956	-1.7530944665	 0.29006
H	 0.2794794456	 0.4402761339	 0.5289112921	 0.134565
H	-1.1092872949	-0.3068847166	 1.3259749453	 0.150894
H	-1.1175554592	-2.1289388053	-2.5223225968	 0.200682
55.2091	77.8985	96.9192	164.9011	198.72	224.1928	286.8374	353.0231	371.3622	389.4546	415.7727	460.1798	515.0394	592.3929	627.0067	659.0891	796.9788	869.9023	873.5125	959.9822	978.7836	1006.6196	1036.7163	1088.1215	1104.9723	1116.5691	1165.0776	1176.0837	1225.4807	1267.0451	1278.6671	1296.0528	1352.3229	1370.4759	1409.3088	1435.2814	1463.1725	1479.5842	1491.844	1520.1356	2230.3528	2981.607	3031.5271	3038.0895	3079.8402	3091.2934	3098.0735	3103.9342	3125.1315	3504.1266	3773.0516
CC1OC1C(O)CC#C	C[C@@H]1O[C@H]1[C@@H](O)CC#C	
InChI=1S/C7H10O2/c1-3-4-6(8)7-5(2)9-7/h1,5-8H,4H2,2H3	InChI=1S/C7H10O2/c1-3-4-6(8)7-5(2)9-7/h1,5-8H,4H2,2H3/t5-,6-,7+/m0/s1
