19
gdb 854	2.4761959	1.2270733	0.9258093	2.5009	76.63	-0.25073	-0.03085	0.21988000000000002	1297.018	0.155862	-422.526859	-422.517847	-422.516902	-422.562079	31.788	
O	 1.0335922051	-0.5593124382	 0.3696786908	-0.240943
C	 0.1416074317	-0.1772161169	-0.3453352087	 0.142827
C	 0.0331148835	 1.2100138444	-0.9161523538	-0.17282
C	-0.9984106626	 2.1547437259	-0.2346011395	-0.085368
O	 0.0191033614	 3.1293645204	 0.0328855442	-0.29133
C	 1.0736579476	 2.2604622591	-0.4730574262	 0.136844
C	 1.9243622592	 2.9073194528	-1.5186018824	-0.001591
C	 3.1604967071	 3.6695235976	-1.1095556413	-0.267839
C	 3.2975520986	 2.3364016985	-1.7940937499	-0.273381
H	-0.6987420075	-0.8561570105	-0.6194475366	 0.080367
H	-0.1107103438	 1.1431678892	-1.9993472013	 0.101044
H	-1.7932093018	 2.5438461543	-0.8808104309	 0.111069
H	-1.4475269547	 1.7575299043	 0.6856218402	 0.10764
H	 1.697687835	 1.889407756	 0.3500850158	 0.093134
H	 1.372433996	 3.2950139172	-2.370748549	 0.081659
H	 3.4105605218	 4.5649785333	-1.6668398207	 0.115906
H	 3.3904141306	 3.7246743712	-0.0508537906	 0.121365
H	 3.6408497051	 2.3132550388	-2.8219937041	 0.11446
H	 3.6176534477	 1.4879416825	-1.1982792261	 0.126958
43.0123	73.5314	86.7238	163.1596	174.2698	277.1092	309.3644	403.5639	454.6869	638.7166	730.2202	776.1021	831.6204	845.0037	893.9488	912.926	927.2133	955.8354	1004.8357	1006.3888	1036.2401	1063.8689	1082.7237	1102.0672	1118.3912	1131.9799	1165.2339	1186.9019	1198.1832	1223.3202	1231.0971	1256.9021	1320.0434	1346.3589	1367.9478	1426.3183	1450.5087	1470.911	1505.9496	1526.8421	1823.1191	2865.746	3007.7536	3030.7769	3053.933	3069.4127	3134.4513	3137.7879	3143.9465	3213.7425	3228.2717
O=CC1COC1C1CC1	O=C[C@H]1CO[C@@H]1C1CC1	
InChI=1S/C7H10O2/c8-3-6-4-9-7(6)5-1-2-5/h3,5-7H,1-2,4H2	InChI=1S/C7H10O2/c8-3-6-4-9-7(6)5-1-2-5/h3,5-7H,1-2,4H2/t6-,7+/m0/s1
