19
gdb 1121	3.0362163	1.2231442	1.0522862	2.0621	75.92	-0.23263	-0.01677	0.21586	1213.3273	0.15385	-422.537411	-422.528031	-422.527086	-422.572595	33.997	
C	-1.6518787482	 2.6585472841	-2.4805223243	-0.474625
C	-0.6210472453	 2.3592429307	-3.543353609	 0.349621
O	-0.6108375527	 2.8821059773	-4.6338124187	-0.301552
C	 0.4768296511	 1.3561083692	-3.1896758896	 0.012647
O	 0.1337975262	 0.4798222317	-2.0837872118	-0.331078
C	 0.1383076766	-0.6612474121	-2.9683696698	 0.464555
C	-0.9077512062	-1.7038914632	-2.7528899561	-0.486987
C	 1.5147604058	-0.8550896115	-3.5255864566	-0.345434
C	 0.5932683023	 0.1781590507	-4.1470045325	-0.167339
H	-2.2267150108	 1.7547137958	-2.2563284542	 0.151806
H	-1.1600104693	 2.941634192	-1.5434453922	 0.146348
H	-2.313454993	 3.455477787	-2.8215503053	 0.137061
H	 1.3994286945	 1.9213438116	-2.9906703023	 0.106236
H	-0.7685333305	-2.1910115936	-1.7811309089	 0.135309
H	-1.9123672156	-1.2699299492	-2.7753963013	 0.126641
H	-0.8433490989	-2.4727953024	-3.5279333596	 0.128565
H	 2.3827998335	-0.545020518	-2.9495467576	 0.114707
H	 1.6552284054	-1.7496287364	-4.1249638503	 0.117345
H	 0.2961126751	 0.1899769063	-5.1860939297	 0.116173
22.8835	102.2486	127.6532	175.3257	206.121	287.9253	311.4502	363.0606	446.1353	471.9021	489.9983	583.9171	654.4461	771.1074	807.0522	833.1558	886.9776	929.2298	959.3722	974.2251	992.3023	1016.4151	1024.9872	1043.2955	1073.8453	1102.3252	1124.2879	1191.5557	1219.3506	1249.1775	1274.6802	1341.5184	1380.1748	1384.0358	1426.3409	1451.6774	1465.8214	1473.8787	1487.9635	1501.0992	1810.9593	3001.3334	3033.4865	3045.4664	3096.9445	3107.4234	3111.5721	3117.7938	3157.3862	3203.5368	3218.1074
CC(=O)C1OC2(C)CC12	CC(=O)[C@H]1O[C@]2(C)C[C@H]12	
InChI=1S/C7H10O2/c1-4(8)6-5-3-7(5,2)9-6/h5-6H,3H2,1-2H3	InChI=1S/C7H10O2/c1-4(8)6-5-3-7(5,2)9-6/h5-6H,3H2,1-2H3/t5-,6-,7-/m1/s1
