19
gdb 2787	2.0694288	1.4442363	1.0000733	3.6027	75.98	-0.23975	-0.02154	0.21821	1230.3201	0.154561	-422.531522	-422.522135	-422.521191	-422.565939	33.987	
C	 0.9380900187	-0.3465671634	-1.0193946052	-0.413498
C	 0.9838188936	 0.2439119529	 0.3837879028	-0.004057
C	 1.7854775764	 1.5508634604	 0.5111537045	-0.12331
C	 1.8892325305	 1.9888060484	 1.9388216367	 0.145958
O	 2.473551934	 3.22403017	 2.2329974573	-0.440936
C	 2.789645543	 0.8722604947	 1.4694319453	-0.150663
C	 2.0043832583	-0.4521869255	 1.342087747	-0.113679
C	 1.5170466612	-1.0127417461	 2.6514367766	 0.153196
O	 0.3696571093	-1.0057313059	 3.0235629262	-0.252542
H	 0.5152729286	-1.3567215743	-1.0038124156	 0.121704
H	 0.3185090672	 0.2665892722	-1.6825213491	 0.119628
H	 1.9405872612	-0.4048160448	-1.4587033513	 0.11344
H	-0.024523834	 0.2974259738	 0.8057174797	 0.097431
H	 1.9841075993	 2.2388854774	-0.3047027445	 0.084286
H	 1.0788971495	 1.7960089279	 2.6374495875	 0.121613
H	 3.108624277	 3.4408399717	 1.5421095729	 0.284184
H	 3.8679008662	 0.9666135298	 1.5312457456	 0.090496
H	 2.5993345155	-1.2164432187	 0.8280005794	 0.092484
H	 2.3255579947	-1.4201216006	 3.3034093844	 0.074266
57.5328	142.5425	167.213	173.3014	195.5736	237.4496	256.6801	307.3853	387.2794	427.0227	492.8651	643.9229	691.5937	812.5857	823.5065	865.9432	900.2755	915.9741	967.936	990.367	1031.7138	1057.0355	1080.7067	1099.0863	1110.9598	1115.6878	1145.8056	1152.3418	1202.0259	1231.132	1263.0674	1291.4354	1324.2436	1339.8673	1388.8632	1408.2135	1422.9109	1449.2861	1493.0123	1499.9544	1819.4309	2853.8873	3025.2421	3041.1706	3062.1349	3095.5496	3099.4005	3144.3895	3157.2011	3175.5663	3811.4671
CC1C2C(O)C2C1C=O	C[C@@H]1[C@H]2[C@H](O)[C@H]2[C@H]1C=O	
InChI=1S/C7H10O2/c1-3-4(2-8)6-5(3)7(6)9/h2-7,9H,1H3	InChI=1S/C7H10O2/c1-3-4(2-8)6-5(3)7(6)9/h2-7,9H,1H3/t3-,4-,5+,6-,7-/m0/s1
