19
gdb 1490	2.7275519	1.615016	1.3422773	1.9695	76.25	-0.24774	0.00786	0.2556	1026.3334	0.156722	-422.555491	-422.547066	-422.546122	-422.58811	32.283	
C	-0.0425713355	-0.2023527099	 0.0972135557	-0.431744
C	 1.465481972	-0.0579677783	-0.1030531512	 0.310161
O	 2.1777295174	-0.5906084054	 1.0255171508	-0.472496
C	 1.9750526818	-0.6618265625	-1.4004326726	-0.115027
C	 2.7562102441	 0.1659032284	-2.0944077837	-0.092885
C	 2.8818105608	 1.5139805721	-1.444525565	-0.129908
C	 1.8777242301	 2.5866174628	-1.9351529436	-0.077274
O	 0.9762476016	 2.2897739822	-0.8493186606	-0.291298
C	 1.9355514265	 1.4089974014	-0.2216727362	 0.103994
H	-0.3348882891	 0.2181882266	 1.0636238176	 0.124664
H	-0.5897412091	 0.3177646018	-0.6914640048	 0.137304
H	-0.32851335	-1.2607019604	 0.0844624291	 0.097766
H	 2.0360495278	-1.5431344991	 1.0422739129	 0.274657
H	 1.7220397366	-1.6768360683	-1.6933905289	 0.090079
H	 3.2394037463	-0.0741150398	-3.0361258649	 0.098905
H	 3.910166643	 1.8517314169	-1.3008691257	 0.086478
H	 2.2509355753	 3.6173824536	-1.8781837967	 0.098641
H	 1.4168640519	 2.4199535128	-2.9154265765	 0.103018
H	 2.2755796984	 1.791390985	 0.7453722442	 0.084967
101.7722	178.1559	194.1322	216.0075	248.97	332.7238	342.106	392.5767	451.0801	579.1768	595.6716	711.0644	789.2836	824.0126	841.2883	874.0695	895.9266	935.1318	965.8441	978.8671	994.6517	1032.309	1056.7269	1078.4558	1101.566	1131.9452	1155.0879	1167.1188	1183.402	1226.0263	1258.1142	1302.8872	1320.923	1349.2201	1363.698	1391.5678	1401.4052	1485.0889	1493.7149	1520.8971	1675.0354	3011.3258	3033.2962	3062.4783	3067.5381	3091.2973	3102.9513	3137.8924	3165.8625	3192.9162	3809.1161
CC1(O)C=CC2COC12	C[C@@]1(O)C=C[C@H]2CO[C@@H]12	
InChI=1S/C7H10O2/c1-7(8)3-2-5-4-9-6(5)7/h2-3,5-6,8H,4H2,1H3	InChI=1S/C7H10O2/c1-7(8)3-2-5-4-9-6(5)7/h2-3,5-6,8H,4H2,1H3/t5-,6+,7+/m0/s1
