19
gdb 2759	2.5897549	1.4232533	1.1110072	4.8338	75.96	-0.25597	0.01452	0.27048999999999995	1156.6329	0.156961	-422.598258	-422.589534	-422.588589	-422.631347	32.508	
C	-1.9893338777	-2.8543772302	-1.8048980487	-0.431757
C	-1.6203471447	-1.4588124375	-1.3527531089	-0.048934
C	-0.8250184456	-1.2796885918	-0.0610367588	-0.260928
C	 0.0470229544	-0.0697850518	-0.0339642571	 0.454573
O	 1.2270597447	 0.0093078011	 0.1474033246	-0.349468
O	-0.7275690284	 1.0374695308	-0.2750131639	-0.235368
C	-2.1254688872	 0.7279286722	-0.1859342491	-0.138289
C	-2.2568540519	-0.794333707	-0.1647516992	 0.289133
C	-3.4234040582	-1.3720574261	 0.5990744503	-0.491874
H	-2.1811931488	-3.5252053733	-0.963157998	 0.122461
H	-2.8865773351	-2.8400105529	-2.4331827958	 0.125762
H	-1.1766525883	-3.2915953121	-2.393550438	 0.133395
H	-1.3370826074	-0.794639383	-2.1675585321	 0.102149
H	-0.5113569959	-2.1517098726	 0.497575797	 0.111704
H	-2.5201013407	 1.1695411169	 0.737493906	 0.114122
H	-2.630945013	 1.1927676498	-1.0390422969	 0.118861
H	-3.419624415	-1.0238261982	 1.6375813789	 0.128116
H	-4.3751618832	-1.0664052656	 0.1487385603	 0.127124
H	-3.4040922482	-2.4637794086	 0.6154389995	 0.129217
130.8249	161.4992	174.6708	184.5079	236.151	249.7418	303.6218	375.4039	437.8085	499.8215	588.0471	670.0328	714.3656	765.0202	820.5553	874.8083	932.6674	958.5615	973.387	1000.663	1049.0585	1059.1292	1099.6149	1119.1093	1130.0519	1142.5339	1176.9641	1226.4367	1239.8084	1277.8603	1348.8042	1394.4915	1416.9864	1426.615	1450.2174	1486.3999	1492.584	1498.7049	1511.175	1520.866	1881.0928	3025.1426	3031.7846	3037.3838	3073.6872	3088.167	3098.9047	3106.3313	3122.0549	3127.8181	3206.9648
CC1C2C(=O)OCC12C	C[C@@H]1[C@H]2C(=O)OC[C@@]12C	
InChI=1S/C7H10O2/c1-4-5-6(8)9-3-7(4,5)2/h4-5H,3H2,1-2H3	InChI=1S/C7H10O2/c1-4-5-6(8)9-3-7(4,5)2/h4-5H,3H2,1-2H3/t4-,5+,7+/m1/s1
