19
gdb 2355	2.6367155	1.9775697	1.5630759	1.0905	73.16	-0.24072	0.0758	0.31652	926.0964	0.158473	-422.522427	-422.515261	-422.514316	-422.553487	29.243	
C	-0.0660014263	 0.0443670832	 0.0848516578	-0.477679
C	 1.4420055573	 0.0015489982	 0.0689068978	 0.470603
O	 1.9983068399	 0.0178531172	-1.2763173471	-0.342229
C	 2.7441179002	 1.2267639773	-1.0034844993	-0.118801
C	 2.3175175758	 1.2211551576	 0.4755192057	-0.11456
C	 3.1886891418	 0.4943899911	 1.5209554485	 0.056505
C	 3.5946047981	-0.849815023	 0.8723623816	-0.24958
C	 2.0781625654	-1.0412409447	 1.0334581051	 0.022261
O	 2.1454722479	-0.2359143102	 2.2597631042	-0.303529
H	-0.4276459025	 0.0578803256	 1.1173363702	 0.134983
H	-0.4420431464	 0.9322820089	-0.4315735379	 0.118881
H	-0.4753085846	-0.838614116	-0.4183567003	 0.124869
H	 3.8142920294	 1.1146113646	-1.2156121578	 0.100203
H	 2.3538851829	 2.0727570617	-1.5818171582	 0.104979
H	 1.8357266275	 2.1153263186	 0.8695566458	 0.085115
H	 3.8552899605	 1.0770933988	 2.1562623526	 0.082137
H	 4.0326977462	-0.8782662527	-0.1249565273	 0.117605
H	 4.1500126911	-1.4701086362	 1.575646495	 0.111526
H	 1.5929645558	-2.0092461501	 1.1598341735	 0.076711
185.3867	225.5973	251.4447	291.0484	346.0648	424.2681	510.8982	552.4712	599.6664	677.8189	786.9376	836.9692	857.4107	868.6986	885.8117	898.5068	928.8098	951.6817	999.3109	1013.2449	1023.3997	1047.6591	1061.6015	1092.7674	1129.4626	1163.2817	1168.2549	1188.7043	1210.1609	1221.3106	1243.4507	1283.728	1300.8643	1318.3657	1337.8513	1365.9413	1403.2277	1483.8131	1488.7931	1490.0895	1523.1579	3017.5548	3034.6027	3058.8814	3092.8641	3103.7416	3116.608	3118.7195	3122.2799	3128.8945	3160.0353
CC12OCC1C1CC2O1	C[C@@]12OC[C@@H]1[C@@H]1C[C@H]2O1	
InChI=1S/C7H10O2/c1-7-4(3-8-7)5-2-6(7)9-5/h4-6H,2-3H2,1H3	InChI=1S/C7H10O2/c1-7-4(3-8-7)5-2-6(7)9-5/h4-6H,2-3H2,1H3/t4-,5+,6-,7-/m1/s1
