19
gdb 4643	5.8703372	0.4625324	0.4446697	3.3631	82.16	-0.24471	-0.0174	0.22731	2407.6586	0.153014	-422.544303	-422.533005	-422.532061	-422.584036	37.197	
C	 6.8582516699	 0.3050255738	 2.3600185688	-0.474664
C	 6.0599227179	-0.0011522006	 1.105608789	 0.378057
O	 6.5939437113	-0.2923121147	 0.0597521766	-0.286509
C	 4.5438527285	 0.0793583807	 1.2353311369	-0.290075
C	 3.8137132623	-0.2564800835	-0.0748041643	-0.361367
C	 2.3641464859	-0.1643871876	 0.0493974412	-0.01521
C	 1.1668331671	-0.0967632096	 0.1697623311	 0.125711
C	-0.2833798725	 0.0387625343	 0.2995757701	-0.190137
O	-0.8456332124	 1.0057915223	-0.5781162465	-0.402668
H	 6.5928256248	-0.3943485167	 3.1608637133	 0.140674
H	 7.9251921264	 0.2306629416	 2.1472645884	 0.14568
H	 6.6235721442	 1.3103755826	 2.7271259126	 0.139507
H	 4.2232751047	-0.5942892339	 2.040411189	 0.131515
H	 4.2750452354	 1.0861922194	 1.5801678546	 0.129875
H	 4.1674329322	 0.4155592479	-0.8648116624	 0.146074
H	 4.1036567902	-1.2615983116	-0.4010816234	 0.145559
H	-0.7758773489	-0.9080640853	 0.0508237223	 0.138741
H	-0.5361548584	 0.2590560247	 1.3496504573	 0.113454
H	-0.3304219486	 1.8133886464	-0.4818048645	 0.285782
18.6228	31.6649	61.8513	74.1715	112.4525	137.6626	197.7656	246.3546	292.9676	362.0993	373.0609	477.8989	503.17	540.6953	591.0828	738.4725	769.0971	849.7156	917.2348	940.4893	989.5971	1044.9164	1057.2808	1076.1257	1157.6551	1177.549	1186.1935	1215.5588	1298.6281	1305.59	1355.8255	1379.4639	1386.4584	1420.0243	1448.8879	1464.353	1467.6713	1476.7171	1494.5751	1810.7957	2361.7684	2969.6223	3028.7285	3038.7498	3045.9571	3056.5157	3059.2917	3080.0438	3098.3171	3153.4145	3817.7358
CC(=O)CCC#CCO	CC(=O)CCC#CCO	
InChI=1S/C7H10O2/c1-7(9)5-3-2-4-6-8/h8H,3,5-6H2,1H3	InChI=1S/C7H10O2/c1-7(9)5-3-2-4-6-8/h8H,3,5-6H2,1H3
