19
gdb 1815	2.7090417	1.6667296	1.2470204	4.4021	75.21	-0.25716	0.01392	0.27108	1047.3451	0.157806	-422.600935	-422.593165	-422.59222	-422.632819	30.906	
C	-2.8437553033	-2.4740518619	 0.0159565214	-0.466381
C	-2.2917844462	-1.0702329886	 0.0052726495	 0.421154
C	-2.751568601	-0.0048159936	 1.034180835	-0.267746
C	-2.3653391911	 1.0422668245	-0.0494681212	-0.039171
C	-2.6594740701	-0.0571731276	-1.1099465818	-0.267779
C	-0.8540963706	 1.2590691182	 0.0102219573	-0.347038
C	-0.0908223547	-0.0663140106	 0.0746455056	 0.405501
O	 1.1049178829	-0.1456406961	 0.129463453	-0.33303
O	-0.8456444691	-1.1959632006	 0.0703861378	-0.267224
H	-2.5438164711	-2.9974088006	 0.9288493168	 0.133554
H	-3.9360157591	-2.4519263578	-0.0321840402	 0.116767
H	-2.4667006926	-3.041182179	-0.8404454873	 0.13356
H	-3.8313215281	-0.0532486879	 1.1944138914	 0.107009
H	-2.2337207998	 0.0190710908	 1.9967675857	 0.107797
H	-2.9204201184	 1.980694675	-0.0961970658	 0.074075
H	-3.721623703	-0.1156192547	-1.3595609332	 0.10701
H	-2.0609968961	-0.0791072557	-2.0246335187	 0.107774
H	-0.4833716283	 1.8026201622	-0.8657980594	 0.137039
H	-0.5587127903	 1.8446748339	 0.8877916842	 0.137129
108.8832	216.7993	227.01	273.277	366.3007	412.49	448.3338	457.2182	487.8385	578.8807	604.8011	649.9963	798.2239	827.6936	869.9943	872.7228	910.5685	915.7959	977.0667	1002.6629	1012.2557	1028.6514	1080.0462	1082.1296	1140.0474	1192.1044	1198.4833	1223.5807	1229.7331	1254.7646	1284.9269	1321.0044	1334.3806	1363.4034	1416.3584	1458.7668	1471.1156	1481.7535	1492.3925	1501.3459	1853.4535	3042.1007	3047.9307	3057.3751	3062.9402	3086.2433	3093.119	3115.4139	3118.837	3119.1852	3124.7368
CC12CC(C1)CC(=O)O2	C[C@]12C[C@H](C1)CC(=O)O2	
InChI=1S/C7H10O2/c1-7-3-5(4-7)2-6(8)9-7/h5H,2-4H2,1H3	InChI=1S/C7H10O2/c1-7-3-5(4-7)2-6(8)9-7/h5H,2-4H2,1H3/t5-,7+
