19
gdb 3356	2.7679777	1.7391351	1.5929257	1.4033	72.32	-0.25115	0.07155	0.3227	930.5311	0.15998	-422.55973	-422.552683	-422.551739	-422.590624	29.162	
O	 0.271702005	-0.071511475	 0.6100470101	-0.454112
C	-0.9046043954	 0.6693548556	 0.8801181013	 0.140611
C	-0.6254647709	 2.1774284984	 0.7350083534	-0.085632
C	 0.439239334	 2.3976008634	 1.8475979182	-0.20664
C	-0.0129891318	 1.4104784897	 2.9766541025	-0.199261
C	-1.2880014321	 0.750366696	 2.382098317	-0.121787
C	-2.3368161775	 1.8606044791	 2.3661958614	 0.049174
O	-3.1022854414	 1.9935906656	 1.1577071637	-0.266118
C	-1.9099716099	 2.7803581626	 1.3020014837	 0.045707
H	 0.0552437675	-1.0058753616	 0.6818956126	 0.283316
H	-1.7353209174	 0.3370784878	 0.2545243055	 0.087121
H	-0.3295663393	 2.5113703645	-0.2600734094	 0.069348
H	 1.4343318734	 2.1437058615	 1.479485046	 0.115779
H	 0.4609581137	 3.4383204935	 2.1842332986	 0.091707
H	 0.7541424219	 0.6573776115	 3.1649740198	 0.10526
H	-0.2226632693	 1.9189664271	 3.9222713767	 0.092368
H	-1.5872846817	-0.1871244972	 2.8560014232	 0.05609
H	-2.8352895745	 2.1808059132	 3.2769310651	 0.098439
H	-2.0557681142	 3.8560992541	 1.3397385404	 0.098628
233.3245	239.7678	268.7237	318.4164	329.4539	382.6214	495.042	606.2762	619.9088	759.2314	769.1743	823.5863	832.4494	862.2456	888.0958	892.7806	917.0895	941.563	985.722	1001.4754	1016.2687	1023.6182	1038.6006	1121.7189	1126.0653	1155.1419	1169.6338	1190.8377	1229.3718	1255.4488	1255.6686	1290.3726	1296.3863	1302.2298	1316.5524	1339.2761	1354.6852	1414.6055	1436.6075	1480.9072	1504.5819	3055.7667	3066.2312	3084.0245	3092.0742	3106.4807	3111.0473	3125.6341	3148.0558	3160.9157	3827.594
OC1C2CCC1C1OC21	O[C@@H]1[C@@H]2CC[C@H]1[C@@H]1O[C@H]21	
InChI=1S/C7H10O2/c8-5-3-1-2-4(5)7-6(3)9-7/h3-8H,1-2H2	InChI=1S/C7H10O2/c8-5-3-1-2-4(5)7-6(3)9-7/h3-8H,1-2H2/t3-,4+,5+,6+,7-
