19
gdb 4924	2.2599875	1.1250779	0.880241	2.4354	81.1	-0.24481	0.02681	0.27162	1409.6486	0.154848	-422.509	-422.498821	-422.497877	-422.545884	35.115	
C	 1.6027655642	-0.0293304812	-0.0584881562	-0.501149
C	 0.1478449287	-0.0203485102	-0.0578807952	 0.083379
C	-1.0562575384	 0.0020882874	-0.0513393875	 0.088338
C	-2.5093843289	 0.0011280831	-0.0647613647	 0.158058
C	-3.089472719	 0.9244484654	-1.1465131052	-0.082933
O	-2.8295264206	 2.2728427434	-0.8407910258	-0.41779
C	-3.2111923281	-1.3809294964	 0.0623774468	-0.337089
C	-3.8368988505	-0.800690215	 1.3432709763	-0.066327
O	-3.0775996982	 0.4243152841	 1.2225472189	-0.31969
H	 1.9965265084	 0.5401009154	 0.7905937475	 0.155043
H	 1.9976731405	-1.0486593234	 0.0136596713	 0.147743
H	 2.0026106583	 0.4212905011	-0.9733277752	 0.152638
H	-2.6330972027	 0.7085270904	-2.1177717012	 0.112772
H	-4.1718048337	 0.7257394602	-1.2223645322	 0.077056
H	-3.0948780001	 2.3847710355	 0.0816244291	 0.292954
H	-3.8995246282	-1.6241114873	-0.7492287556	 0.114301
H	-2.5239877094	-2.2104870482	 0.2228070194	 0.124091
H	-4.9171147579	-0.6176617074	 1.3005544958	 0.105883
H	-3.6023030244	-1.327234047	 2.2745341735	 0.11272
26.0225	67.288	80.65	116.3095	139.426	225.4167	290.8644	312.2198	360.5907	424.6848	479.9511	497.0544	544.0463	652.0811	780.9632	822.5498	865.8219	943.8553	984.3735	1008.5811	1030.7009	1050.2524	1051.7773	1054.5696	1093.8761	1152.0575	1171.4967	1205.7558	1219.6283	1254.3356	1306.0991	1345.4125	1386.4803	1413.139	1432.9523	1476.1341	1477.6804	1488.0345	1496.0467	1530.0696	2366.9568	2961.9284	3025.7727	3028.5676	3069.7072	3081.1612	3084.945	3089.8696	3091.6497	3150.63	3767.1447
CC#CC1(CO)CCO1	CC#C[C@@]1(CO)CCO1	
InChI=1S/C7H10O2/c1-2-3-7(6-8)4-5-9-7/h8H,4-6H2,1H3	InChI=1S/C7H10O2/c1-2-3-7(6-8)4-5-9-7/h8H,4-6H2,1H3/t7-/m0/s1
