19
gdb 4929	2.1457127	1.456391	1.0898377	2.156	77.08	-0.25279	0.02958	0.28237	1183.9346	0.154364	-422.507945	-422.498101	-422.497157	-422.542715	35.766	
C	 0.2514406472	 0.1374310133	-0.3719737557	-0.412631
C	 1.0467412628	-0.5603937744	 0.7120144272	 0.119187
O	 2.4749038725	-0.4646703881	 0.5072312031	-0.288605
C	 2.6073695495	-1.8839970893	 0.3113322107	-0.108676
C	 1.1236733904	-2.1250921466	 0.7019324562	 0.029677
C	 0.9637809891	-2.7336910529	 2.1075554827	-0.117566
O	 1.3592291916	-4.0866018266	 2.1575273241	-0.421109
C	 0.3042096754	-2.8506428871	-0.2502041628	 0.272164
C	-0.376128284	-3.4986386839	-1.0028790494	-0.461614
H	-0.822859871	 0.019372883	-0.196289897	 0.121469
H	 0.4874731151	 1.2058806608	-0.367632725	 0.12782
H	 0.4861667218	-0.2673239212	-1.3599277837	 0.128679
H	 0.7712595759	-0.1627712588	 1.6989922188	 0.078391
H	 2.8562352885	-2.1369021411	-0.7253798604	 0.107197
H	 3.3389424979	-2.3405730338	 0.9863907818	 0.119983
H	 1.6162419649	-2.1943861976	 2.8016205699	 0.119633
H	-0.0765828609	-2.595088191	 2.4417082138	 0.095973
H	 0.8161806795	-4.5659519866	 1.5200669237	 0.288332
H	-0.9736911962	-4.048665368	-1.687674608	 0.201695
59.4961	110.3927	141.3873	152.8802	201.8607	231.2379	295.6935	322.9954	391.8878	436.496	462.2755	521.417	555.5513	629.7941	654.8847	675.2429	789.7313	886.6364	921.4047	938.4944	993.9215	1020.6751	1053.7034	1085.5958	1110.0258	1129.2621	1153.167	1160.6852	1197.188	1274.8659	1303.8338	1348.4307	1376.9427	1383.396	1407.7746	1427.4081	1481.0691	1489.0871	1503.0281	1527.7345	2223.2166	2981.1027	3001.3734	3028.4736	3040.5782	3077.8773	3082.9199	3112.5111	3124.3441	3497.9027	3783.9682
CC1OCC1(CO)C#C	C[C@@H]1OC[C@]1(CO)C#C	
InChI=1S/C7H10O2/c1-3-7(4-8)5-9-6(7)2/h1,6,8H,4-5H2,2H3	InChI=1S/C7H10O2/c1-3-7(4-8)5-9-6(7)2/h1,6,8H,4-5H2,2H3/t6-,7+/m0/s1
