19
gdb 5725	2.9486534	1.1074895	0.9213414	3.229	78.76	-0.24273	-0.01876	0.22397	1314.2239	0.155357	-422.526637	-422.517679	-422.516735	-422.560623	32.659	
C	 1.5477411446	-0.0079342913	 0.0809183316	-0.241905
O	 0.1397604981	 0.0806622414	 0.0443618367	-0.247884
C	-0.4036562798	 0.7270184922	 1.1635880283	 0.158645
C	-0.3110465454	 2.2930360363	 1.1272528595	-0.340689
C	-1.8327726737	 2.3651266756	 0.9933435905	 0.277187
C	-2.5095897345	 1.6247073956	 2.1296380827	-0.341136
C	-1.9250048577	 0.8090123727	 1.0353009057	-0.124929
C	-2.573275076	 3.2552733628	 0.096160736	 0.055168
O	-2.0764085766	 4.1502689508	-0.5469163801	-0.270609
H	 1.8937420497	-0.5605658032	 0.9682975313	 0.106685
H	 1.8604839149	-0.5456305986	-0.816738351	 0.132008
H	 2.0246124562	 0.9831624106	 0.0835047849	 0.113422
H	-0.0419643348	 0.2543967198	 2.0917141116	 0.065509
H	 0.1254796263	 2.7995327391	 1.9930211056	 0.097678
H	 0.1846649842	 2.6305011777	 0.2154103739	 0.13661
H	-2.047733281	 1.6546197634	 3.1137168916	 0.121128
H	-3.5938563227	 1.6840858928	 2.1427674384	 0.128303
H	-2.5148407658	 0.1643016937	 0.3958120519	 0.113785
H	-3.665144606	 3.0333567788	 0.033084511	 0.061022
70.8171	115.1467	154.579	199.4694	209.269	257.5076	328.6099	394.0717	420.0512	479.5493	498.6254	691.3986	768.2602	785.6111	856.9912	879.8113	950.2479	970.1083	985.5651	1021.72	1046.5794	1055.8983	1091.471	1105.2468	1126.6722	1175.525	1184.4877	1227.5819	1229.6867	1243.1812	1280.6028	1312.9164	1370.6391	1392.7862	1437.9613	1470.4842	1482.5606	1489.6538	1492.5862	1509.0931	1801.9247	2848.4317	2959.6667	2979.6825	3029.3104	3058.6353	3110.3307	3121.9099	3130.979	3195.6622	3204.5047
COC1CC2(CC12)C=O	CO[C@H]1C[C@@]2(C[C@H]12)C=O	
InChI=1S/C7H10O2/c1-9-6-3-7(4-8)2-5(6)7/h4-6H,2-3H2,1H3	InChI=1S/C7H10O2/c1-9-6-3-7(4-8)2-5(6)7/h4-6H,2-3H2,1H3/t5-,6+,7+/m1/s1
