19
gdb 3816	3.0190259	1.5852166	1.2529342	1.6976	73.95	-0.23765	0.0672	0.30485	1041.2895	0.157466	-422.515229	-422.507635	-422.506691	-422.54687	30.764	
C	 1.9934454282	 1.7416330049	 1.2065721736	-0.401526
C	 1.9021510288	 0.4550945037	 0.3841823399	-0.002108
C	 2.0432273145	-0.855626944	 1.2253878257	-0.311685
C	 3.2335099784	-1.4897639391	 0.5337815333	 0.461086
O	 3.6654475369	-2.7071139867	 1.0117618619	-0.492507
C	 4.2685291561	-0.3825078577	 0.1254644631	-0.023667
O	 4.6326738391	-1.1621726816	-1.0744843574	-0.344361
C	 3.1587815528	-1.2209090466	-1.0116215424	-0.035793
C	 3.0623788728	 0.2678424723	-0.6009187022	-0.039505
H	 1.1717473627	 1.8074276724	 1.927085277	 0.118348
H	 2.9329418665	 1.7866013762	 1.7692124487	 0.116219
H	 1.9474920354	 2.6275684497	 0.5642019713	 0.115578
H	 0.9516248166	 0.4532329619	-0.1618034214	 0.076539
H	 2.2505275647	-0.655983698	 2.2816496779	 0.107943
H	 1.158127308	-1.4964611698	 1.1771081666	 0.109285
H	 4.4201042813	-2.9513242854	 0.4558935195	 0.286976
H	 5.0789439002	 0.0707824434	 0.6975178601	 0.089711
H	 2.6377117651	-1.7683130634	-1.7984327923	 0.089182
H	 3.266255362	 1.0243849078	-1.3574195626	 0.080282
117.9954	229.4517	242.9339	294.6373	350.5016	405.9116	449.0266	505.6073	543.8954	653.0167	688.6731	703.7763	753.0036	813.156	851.2578	889.0585	898.6735	913.3454	943.3486	956.336	1020.8215	1045.3722	1055.5241	1115.0472	1122.7109	1137.6913	1157.6633	1174.9996	1194.0748	1224.2891	1228.7432	1271.66	1293.73	1323.6663	1364.3878	1375.8373	1413.0974	1427.856	1495.8341	1499.0611	1503.5649	3027.1329	3032.756	3052.4308	3092.3404	3097.8458	3100.0981	3107.6417	3112.5515	3137.3941	3734.283
CC1CC2(O)C3OC2C13	C[C@@H]1C[C@]2(O)[C@H]3O[C@@H]2[C@@H]13	
InChI=1S/C7H10O2/c1-3-2-7(8)5-4(3)6(7)9-5/h3-6,8H,2H2,1H3	InChI=1S/C7H10O2/c1-3-2-7(8)5-4(3)6(7)9-5/h3-6,8H,2H2,1H3/t3-,4-,5-,6+,7-/m1/s1
