19
gdb 3670	3.1116072	1.4454591	1.2820136	1.0616	75.16	-0.23284	0.08372	0.31656	1063.7707	0.157216	-422.511911	-422.504096	-422.503152	-422.54401	30.498	
C	 0.0917652291	 0.4427348348	 0.0428910272	-0.413087
C	 0.9712106262	-0.777032429	-0.0294182381	-0.081562
O	 2.1538524701	-0.7780798638	 0.8181963982	-0.325851
C	 2.3179231789	-0.7559589049	-0.5818228828	 0.523764
C	 3.2133284604	-1.7576876071	-1.3453004954	-0.178912
C	 4.3521276541	-0.7079848229	-1.1080243752	-0.249069
C	 3.1746549601	 0.2768533217	-1.3333343995	 0.00471
O	 2.8007606204	 0.0502568758	-2.7019656162	-0.283059
C	 2.8050275562	-1.4001493756	-2.7800690928	-0.077729
H	-0.4929284839	 0.4425329578	 0.9685727768	 0.129325
H	 0.6898378584	 1.3566243044	 0.0127895552	 0.127402
H	-0.6080440653	 0.4564598703	-0.7993633167	 0.12821
H	 0.4467619172	-1.7344896481	-0.0213659377	 0.092058
H	 3.2964834275	-2.8074677464	-1.0704401075	 0.083944
H	 4.7151518465	-0.7140884403	-0.0798662693	 0.124233
H	 5.172179328	-0.6674511577	-1.8283683382	 0.10069
H	 3.2044720316	 1.3424703664	-1.1171720629	 0.089046
H	 1.8064116945	-1.7618834376	-3.0513912135	 0.102598
H	 3.52395134	-1.7312541879	-3.5385711316	 0.103291
125.9762	155.5514	188.3938	239.0504	328.2254	412.7386	423.7398	458.7424	551.883	627.661	691.4346	798.6919	824.5784	850.5503	911.7452	914.4634	947.7732	958.0912	978.3682	1018.2822	1022.8691	1053.3065	1073.2458	1096.7662	1108.2675	1128.821	1139.9454	1177.1986	1191.9152	1233.1888	1242.8635	1255.0409	1280.507	1351.6152	1370.4	1410.0816	1473.9503	1481.3485	1490.8903	1525.8696	1549.7356	3022.9826	3039.2002	3063.4199	3074.9584	3090.3998	3103.7566	3129.3798	3141.8275	3149.4478	3153.2339
CC1OC11C2CC1OC2	C[C@@H]1O[C@]21[C@@H]1C[C@H]2OC1	
InChI=1S/C7H10O2/c1-4-7(9-4)5-2-6(7)8-3-5/h4-6H,2-3H2,1H3	InChI=1S/C7H10O2/c1-4-7(9-4)5-2-6(7)8-3-5/h4-6H,2-3H2,1H3/t4-,5+,6+,7+/m0/s1
