19
gdb 6094	3.5819738	0.6186988	0.5516278	3.1284	80.34	-0.25921	-0.05824	0.20096999999999998	1977.0367	0.153124	-422.518185	-422.50737	-422.506426	-422.556024	36.262	
C	 1.3045154535	 0.0950147578	-0.2105221468	-0.22945
O	-0.088509688	 0.2179771531	-0.0533944686	-0.230541
C	-0.4611190101	 0.6389730617	 1.238320197	-0.046268
C	-1.9817009911	 0.7140024859	 1.2973062776	-0.209833
C	-2.4809139636	 1.1699021351	 2.6792391988	-0.306695
C	-3.9941966307	 1.2764306903	 2.7443351635	 0.254468
O	-4.678178857	 0.5789064492	 3.4606023676	-0.276336
C	-4.5944723083	 2.2836562909	 1.8794785952	 0.282035
C	-5.085084155	 3.123517564	 1.1700096391	-0.459161
H	 1.7309225172	-0.6454192465	 0.4850051868	 0.104568
H	 1.4905386084	-0.2356474392	-1.2351542107	 0.1287
H	 1.8216088278	 1.0541873911	-0.0472085906	 0.1034
H	-0.0804056666	-0.0647871239	 1.9994725034	 0.087727
H	-0.0201682488	 1.6260107346	 1.4664758246	 0.084425
H	-2.3315413472	 1.4047527493	 0.5233145408	 0.125131
H	-2.39352561	-0.2723927079	 1.0575850105	 0.12275
H	-2.1758926768	 0.4685021413	 3.4611695361	 0.1251
H	-2.0571189195	 2.1556143506	 2.9137464166	 0.12179
H	-5.5339026743	 3.8592208527	 0.5474588292	 0.218189
36.1606	50.7153	93.6355	102.2051	127.9619	162.69	221.1472	235.9198	274.5628	349.0266	430.5489	472.7119	612.1993	650.2101	706.9302	719.4638	747.1784	785.4699	887.6698	982.8589	1043.1392	1050.2198	1078.1725	1164.6964	1175.8191	1201.6706	1221.6308	1236.9345	1273.5661	1296.2853	1315.3445	1359.9212	1426.1973	1468.0372	1481.8691	1486.1128	1497.5935	1506.4074	1532.2104	1771.3693	2209.2514	2938.8578	2965.7044	2969.6816	3011.7605	3024.2328	3050.0899	3087.4825	3107.0513	3115.1909	3493.8303
COCCCC(=O)C#C	COCCCC(=O)C#C	
InChI=1S/C7H10O2/c1-3-7(8)5-4-6-9-2/h1H,4-6H2,2H3	InChI=1S/C7H10O2/c1-3-7(8)5-4-6-9-2/h1H,4-6H2,2H3
