19
gdb 904	3.4438076	1.0733669	1.0183602	4.2263	75.6	-0.26992	0.0051	0.27502	1242.1196	0.157621	-422.579968	-422.571756	-422.570812	-422.612984	31.023	
O	 0.9731776068	-0.8989599758	 0.5493778555	-0.273977
C	 0.4234336632	 0.1202505889	 0.2583979392	 0.150847
O	-0.5166309524	 0.6881395555	 1.0441343042	-0.2377
C	-1.1484802444	 1.8554393092	 0.5567282339	 0.43286
C	-1.2301439135	 3.0057626668	 1.5094549894	-0.336188
C	-0.4061075133	 3.1379595426	 0.2411044809	-0.102957
C	-1.0702614278	 3.7680504658	-0.9747822945	-0.212766
C	-2.4570428724	 3.0805928338	-1.0684057886	-0.228124
C	-2.265565604	 1.6736867593	-0.4578554532	-0.267681
H	 0.6267147644	 0.7055738618	-0.6574066392	 0.081087
H	-2.1634267142	 3.548241376	 1.6173116577	 0.116164
H	-0.6683938859	 2.8870834336	 2.4289257812	 0.130849
H	 0.6702394684	 3.202698137	 0.3538879033	 0.098044
H	-1.1559902658	 4.8571694828	-0.9027151118	 0.105814
H	-0.4708064166	 3.5498590025	-1.8667554908	 0.104405
H	-3.1943099332	 3.6424809738	-0.4871225105	 0.113022
H	-2.8324223058	 3.0395517138	-2.0934731708	 0.107604
H	-3.1832615362	 1.2731676587	-0.0162775985	 0.113071
H	-1.9337927274	 0.9594462837	-1.2216071176	 0.105626
84.0856	129.4663	156.2347	241.4124	268.6493	363.4836	396.1719	453.7487	499.4002	613.0425	637.6004	764.3374	810.6063	840.0875	885.7269	896.1119	933.0061	968.5487	982.2389	999.3493	1048.5813	1054.4455	1070.8365	1085.8853	1122.1277	1165.7754	1185.9545	1200.3717	1243.9193	1257.7864	1286.5187	1320.1487	1336.1528	1350.0858	1391.4125	1420.2133	1480.1436	1493.1726	1495.2924	1516.7189	1865.6554	2967.8406	3032.7125	3034.3961	3057.832	3076.839	3084.6458	3108.0725	3135.3689	3175.6077	3224.9482
O=COC12CC1CCC2	O=CO[C@@]12C[C@@H]1CCC2	
InChI=1S/C7H10O2/c8-5-9-7-3-1-2-6(7)4-7/h5-6H,1-4H2	InChI=1S/C7H10O2/c8-5-9-7-3-1-2-6(7)4-7/h5-6H,1-4H2/t6-,7-/m0/s1
