19
gdb 3187	2.6554547	1.6981802	1.2157764	0.908	74.98	-0.23776	0.06745	0.30521	1046.2967	0.155853	-422.51366	-422.50504	-422.504096	-422.546101	33.678	
C	-1.0667898499	-0.8310839958	 3.1589527792	-0.518958
C	-1.177247318	 0.3686488933	 2.2681625296	 0.2302
C	-0.6985042669	 1.8058722909	 2.5033632925	-0.213142
C	-0.9317053238	 2.0042089246	 0.9478488239	-0.110541
C	-2.4403976339	 2.2489109276	 1.2324770098	-0.306909
C	-2.172619797	 1.5158585581	 2.5450535209	 0.346691
O	-2.9498064712	 1.5302961775	 3.6858459627	-0.460018
C	-0.814625944	 0.4637817573	 0.7841191615	 0.105749
O	 0.4822701234	-0.0063974726	 0.4824067491	-0.446639
H	-1.2392027954	-0.5595441811	 4.2045873996	 0.129577
H	-1.8013913326	-1.5988489451	 2.8849703244	 0.115394
H	-0.0751609509	-1.2886148002	 3.0805022816	 0.124012
H	-0.0416448097	 2.2519553328	 3.2360061931	 0.096543
H	-0.3647518716	 2.6633394738	 0.2940706007	 0.077408
H	-2.6583299664	 3.305498587	 1.4129155808	 0.106232
H	-3.1645941487	 1.8338195868	 0.5205367775	 0.085263
H	-3.6303761195	 0.852654849	 3.6019362152	 0.286945
H	-1.4748405008	-0.0111295469	 0.0489558573	 0.07393
H	 1.0816108669	 0.356567193	 1.1464103609	 0.278262
161.2988	162.75	210.7777	249.2934	271.9042	296.9422	349.692	376.4599	419.8584	462.883	510.4127	644.1852	670.3333	736.6192	805.8679	822.8593	890.2169	897.9139	905.97	931.4238	980.1883	1033.7289	1055.4229	1071.1323	1096.6391	1125.092	1139.1843	1169.3523	1213.3232	1216.696	1242.8699	1265.5896	1285.4285	1306.1527	1368.2923	1414.1832	1426.6554	1438.9755	1486.0188	1499.3006	1508.41	3022.3019	3024.1878	3044.9945	3081.3714	3094.5974	3109.7435	3142.761	3222.5021	3775.4359	3787.0531
CC12C3C(CC13O)C2O	C[C@]12[C@H]3[C@H](C[C@@]13O)[C@H]2O	
InChI=1S/C7H10O2/c1-6-4-3(5(6)8)2-7(4,6)9/h3-5,8-9H,2H2,1H3	InChI=1S/C7H10O2/c1-6-4-3(5(6)8)2-7(4,6)9/h3-5,8-9H,2H2,1H3/t3-,4+,5+,6+,7-/m0/s1
