19
gdb 821	4.5618327	0.7813715	0.7535189	1.9327	77.27	-0.25142	-0.02415	0.22726999999999997	1525.1062	0.155792	-422.528454	-422.519546	-422.518602	-422.563403	31.741	
O	 1.1736210955	-0.3519005456	 0.003750625	-0.243732
C	 0.4646598635	 0.1514164634	 0.8395696918	 0.138238
C	-0.3379949279	 1.4050638607	 0.637978599	-0.07098
C	-1.8685232914	 1.1861556641	 0.3612266415	-0.263986
C	-1.7783748615	 2.2845531297	-0.7390346609	 0.019875
C	-0.2296870213	 2.1388440001	-0.7183109205	-0.267217
C	-2.491120097	 2.0425084463	-2.0368535402	 0.079073
C	-2.9635050049	 3.1391894948	-2.8922614111	-0.183718
O	-3.8782617859	 2.3929915709	-2.0889001059	-0.239142
H	 0.3321479235	-0.3285258149	 1.8372143493	 0.075467
H	-0.1989387715	 2.0643530481	 1.501691821	 0.090747
H	-2.0627695236	 0.1984604812	-0.0686132277	 0.116572
H	-2.5600531544	 1.3533870779	 1.1881935021	 0.116411
H	-2.090707176	 3.2525374469	-0.3355180986	 0.078359
H	 0.1374462545	 1.453455398	-1.4876323303	 0.126392
H	 0.3620490943	 3.055282748	-0.7519229372	 0.107191
H	-2.2597201713	 1.0903276617	-2.5203099377	 0.092156
H	-2.8016000052	 4.1705412443	-2.5802270228	 0.111678
H	-3.0517979192	 2.9892573843	-3.9673956668	 0.116615
49.6872	65.4161	91.1251	187.0566	230.4639	265.8566	341.9459	370.9399	476.3715	589.6159	685.0011	773.1633	808.6153	857.0717	874.0083	920.5683	935.1727	958.2368	968.5225	1007.0039	1037.9004	1084.0779	1107.5373	1119.8004	1151.5964	1160.619	1173.0028	1220.9107	1234.0974	1242.539	1263.8146	1273.5342	1293.6202	1329.1449	1359.4177	1422.8496	1456.5909	1476.3677	1499.1016	1530.266	1821.3466	2861.3319	3053.3098	3057.1103	3061.4121	3067.6931	3080.2898	3085.4777	3123.1373	3127.1097	3167.0705
O=CC1CC(C1)C1CO1	O=C[C@@H]1C[C@@H](C1)[C@@H]1CO1	
InChI=1S/C7H10O2/c8-3-5-1-6(2-5)7-4-9-7/h3,5-7H,1-2,4H2	InChI=1S/C7H10O2/c8-3-5-1-6(2-5)7-4-9-7/h3,5-7H,1-2,4H2/t5-,6+,7-/m0/s1
