19
gdb 4117	3.0350841	1.6098264	1.4301597	2.1734	74.37	-0.25087	0.00078	0.25165	993.0668	0.159074	-422.570725	-422.563428	-422.562484	-422.602008	29.626	
C	 0.1396562054	-0.041492171	-0.3272619146	-0.39964
C	 1.5738526218	-0.2082138757	 0.1488482238	 0.150751
C	 2.2097720777	-1.54245108	-0.3186341112	-0.224127
C	 3.4156881526	-1.8828512827	 0.5804423033	 0.016707
O	 2.8851157729	-1.9442485366	 1.9120338279	-0.237909
C	 2.709977674	-0.5790511865	 2.2270943501	 0.139301
O	 1.5483964294	-0.0825678804	 1.5831805252	-0.28214
C	 3.9773199412	 0.0636131356	 1.6655212181	-0.100685
C	 4.3842596561	-0.7083942985	 0.6627332855	-0.095598
H	-0.4922332962	-0.8425700539	 0.0675474347	 0.12546
H	-0.265487583	 0.9151246666	 0.0140083514	 0.123637
H	 0.0953953004	-0.0675080597	-1.4210084788	 0.110811
H	 2.1822649925	 0.6126377505	-0.2559848626	 0.074405
H	 1.4865769956	-2.3596661337	-0.2274194548	 0.11078
H	 2.4912914332	-1.4546084443	-1.3743445711	 0.096406
H	 3.8701426019	-2.845435471	 0.3347682875	 0.083012
H	 2.5315788547	-0.4718037941	 3.2978112511	 0.089784
H	 4.361483728	 1.0255951579	 1.9759668446	 0.110598
H	 5.187137232	-0.5271503324	-0.03977359	 0.108446
142.9566	229.6054	264.0301	311.4344	356.9949	427.4207	455.8778	500.6686	633.4396	658.0323	734.1958	784.5174	836.2336	840.2523	851.8959	895.4872	924.0516	947.7216	957.1055	976.4277	993.518	1007.1979	1061.1993	1103.9727	1118.8437	1141.5881	1169.6649	1226.4133	1271.8944	1284.667	1325.4511	1344.7655	1355.0644	1372.7499	1383.1503	1396.2101	1409.1665	1470.9416	1482.55	1501.0198	1661.2466	2999.5471	3035.8449	3040.7172	3085.7356	3087.8966	3112.8495	3114.1388	3120.2558	3213.1809	3240.0938
CC1CC2OC(O1)C=C2	C[C@@H]1C[C@@H]2O[C@H](O1)C=C2	
InChI=1S/C7H10O2/c1-5-4-6-2-3-7(8-5)9-6/h2-3,5-7H,4H2,1H3	InChI=1S/C7H10O2/c1-5-4-6-2-3-7(8-5)9-6/h2-3,5-7H,4H2,1H3/t5-,6-,7+/m1/s1
