19
gdb 4376	2.7853177	1.2167126	0.9097711	1.2818	77.25	-0.25153	0.04205	0.29357999999999995	1273.0597	0.1561	-422.545455	-422.535981	-422.535037	-422.579911	35.236	
O	-0.2056141148	 3.0792927781	-3.4382493764	-0.45069
C	 0.1347793072	 2.239754846	-2.3551110388	 0.140312
C	 1.3019626604	 2.8304461064	-1.5477559225	-0.237114
C	 1.0652869449	 2.3963344817	-0.07062216	-0.236246
C	-0.2211867442	 1.520016393	-0.0971421573	-0.18545
C	-1.0101253231	 1.5197411993	 1.1229189346	 0.27417
C	-1.7013736767	 1.5351840248	 2.107719714	-0.43789
C	-0.9797730349	 2.0761622753	-1.3231867888	 0.092905
O	-1.9930854337	 1.242149157	-1.8400607666	-0.453297
H	-0.9860276323	 2.695573304	-3.8540931082	 0.288426
H	 0.3899030536	 1.2294158043	-2.7163576651	 0.071572
H	 2.2683515144	 2.4980048359	-1.9323927292	 0.10848
H	 1.270544516	 3.9186699347	-1.6496979544	 0.119662
H	 1.9073824537	 1.8436366395	 0.350920079	 0.112572
H	 0.9027880334	 3.2664392386	 0.5700090385	 0.1175
H	 0.0513022605	 0.4844047473	-0.3412369658	 0.109346
H	-2.2928104502	 1.5435160586	 2.989603662	 0.194799
H	-1.3746304097	 3.0747473665	-1.0770139257	 0.079162
H	-2.6924675545	 1.1784508792	-1.1805561494	 0.291782
59.4451	93.8833	118.5776	208.4731	235.1684	338.4608	354.8096	381.7651	394.2503	460.0827	502.0913	549.9465	563.7651	596.9316	622.5638	639.9331	780.2077	874.0688	928.7329	983.3316	1020.0244	1033.279	1036.5578	1085.3803	1130.3101	1134.71	1171.2211	1214.1073	1242.5733	1270.748	1281.6723	1286.0042	1315.9289	1322.0095	1363.0089	1388.4047	1426.6809	1448.2938	1490.32	1510.5169	2230.3394	2960.9381	2985.3742	3021.4453	3064.8242	3074.6733	3102.6789	3123.1117	3503.6682	3802.5038	3807.4873
OC1CCC(C#C)C1O	O[C@H]1CC[C@@H](C#C)[C@@H]1O	
InChI=1S/C7H10O2/c1-2-5-3-4-6(8)7(5)9/h1,5-9H,3-4H2	InChI=1S/C7H10O2/c1-2-5-3-4-6(8)7(5)9/h1,5-9H,3-4H2/t5-,6+,7+/m1/s1
