19
gdb 2086	2.5993578	1.6141729	1.2482921	0.8453	76.29	-0.24769	-0.00861	0.23908	1050.3393	0.157973	-422.535812	-422.527745	-422.526801	-422.567857	31.885	
O	 0.3329029133	 0.3759929158	 0.7392153696	-0.46377
C	-0.9699621283	 0.758961087	 0.3679099288	 0.407437
C	-2.0278745225	 0.0667681337	 1.1680030936	-0.345524
C	-1.7982802146	 1.5567079132	 1.3604531988	-0.129494
C	-2.8553823353	 2.5028143811	 0.828282998	-0.074587
O	-2.3621825673	 3.6845750193	 0.2144543761	-0.260719
C	-1.2303537315	 3.5139763696	-0.6343393106	-0.10434
C	-1.2557333442	 2.299068566	-1.5439560167	-0.085544
C	-1.1317946138	 1.0508306823	-1.0863537219	-0.154534
H	 0.9318355618	 1.0776453417	 0.4591885589	 0.279477
H	-2.9409153779	-0.2496427308	 0.6745748797	 0.116714
H	-1.6672213248	-0.6001497371	 1.9424714163	 0.125791
H	-1.2831774173	 1.8534079519	 2.2690250688	 0.093738
H	-3.4924953477	 1.954587896	 0.1197201326	 0.089218
H	-3.4999291927	 2.8532266448	 1.6413242649	 0.110302
H	-1.1827783604	 4.4298357657	-1.2296642908	 0.109665
H	-0.3160227973	 3.4814126292	-0.0218887507	 0.088972
H	-1.3726577591	 2.4737680033	-2.6104271441	 0.099637
H	-1.1048090405	 0.2055085174	-1.7711710913	 0.097561
151.2353	163.873	234.5769	280.8322	328.0083	353.6369	384.4837	410.7472	446.7971	547.7301	600.042	655.1978	738.6641	794.4845	836.2032	903.9529	921.0644	932.1745	965.5541	980.4074	1000.4788	1017.5366	1056.8133	1080.6777	1089.4867	1126.7515	1157.43	1207.8992	1227.4112	1269.9902	1287.8623	1308.9622	1332.3373	1393.2968	1397.2799	1422.5899	1430.3307	1481.2532	1500.4789	1503.4356	1698.4507	2974.5845	2998.7689	3069.6724	3085.1195	3133.7045	3141.7054	3159.447	3168.4197	3226.5318	3791.0347
OC12CC1COCC=C2	O[C@@]12C[C@@H]1COCC=C2	
InChI=1S/C7H10O2/c8-7-2-1-3-9-5-6(7)4-7/h1-2,6,8H,3-5H2	InChI=1S/C7H10O2/c8-7-2-1-3-9-5-6(7)4-7/h1-2,6,8H,3-5H2/t6-,7+/m1/s1
