19
gdb 517	2.9972119	1.8388512	1.5319901	1.6302	73.22	-0.24651	0.06796	0.31447	920.2321	0.160425	-422.532556	-422.526003	-422.525059	-422.563036	27.618	
C	-0.2937458785	 1.434094176	-0.1641320278	-0.148822
O	-0.1294252471	 0.0000108807	-0.4075919889	-0.362083
C	 1.2452906352	 0.11253785	-0.0374669887	 0.436356
C	 2.4718805393	-0.4894810707	-0.7026746408	-0.142432
O	 3.5013713734	 0.1687322357	 0.0819499721	-0.298492
C	 2.8765702629	 0.7882765633	 1.2433492286	 0.120365
C	 2.2451015185	 2.1522631052	 0.8364252036	-0.27188
C	 1.2432068119	 1.6370621743	-0.2203671985	-0.037814
C	 1.6333359676	-0.0716970471	 1.4502101159	-0.29917
H	-0.8884132212	 1.904748666	-0.9514070568	 0.113582
H	-0.7603700407	 1.6213710179	 0.8112092317	 0.104097
H	 2.5595124807	-1.5804916041	-0.6129313959	 0.097687
H	 2.5837961727	-0.2021427142	-1.7529988151	 0.105385
H	 3.6275484064	 0.8321105426	 2.0325525478	 0.077737
H	 1.7828103143	 2.6377529281	 1.7029231253	 0.099344
H	 2.9813082483	 2.8388011136	 0.4132169724	 0.107934
H	 1.5348304486	 1.9234707316	-1.2326742325	 0.090031
H	 1.8468550611	-1.1084000386	 1.7191195699	 0.104765
H	 0.9121423667	 0.3546267298	 2.1493724079	 0.103408
198.8736	295.6152	331.2986	390.8787	425.5642	454.3808	518.0189	618.9188	706.186	751.5806	800.8264	834.1478	857.0555	888.9731	916.4864	946.6408	954.2581	962.7001	984.2869	1018.9556	1041.8062	1090.2052	1101.3151	1137.3162	1147.6799	1157.9635	1172.8179	1203.1108	1228.5232	1237.2409	1267.8241	1301.9954	1311.7894	1323.8769	1333.8497	1373.1429	1376.8401	1477.3374	1497.9807	1518.0186	1531.6114	3009.2917	3022.5714	3049.123	3073.1679	3076.8482	3080.2383	3098.182	3112.9371	3116.8018	3134.8531
C1OC23COC(CC12)C3	C1O[C@@]23CO[C@@H](C[C@H]12)C3	
InChI=1S/C7H10O2/c1-5-3-9-7(5)2-6(1)8-4-7/h5-6H,1-4H2	InChI=1S/C7H10O2/c1-5-3-9-7(5)2-6(1)8-4-7/h5-6H,1-4H2/t5-,6+,7+/m1/s1
