19
gdb 4416	3.3171983	1.3228669	1.1530275	0.5282	75.49	-0.23295	0.06956	0.30251	1121.7794	0.15711	-422.500885	-422.492683	-422.491739	-422.533843	31.177	
O	 0.6370869616	 0.2384648383	 0.6288653459	-0.422153
C	-0.6685253447	-0.1897132433	 0.9107311387	-0.016499
C	-1.8166356687	 0.2263789001	-0.0423077609	-0.1118
O	-2.5564655835	 0.8280458404	 1.0439488783	-0.318604
C	-1.4849875361	 0.5685452425	 1.9609132702	 0.436634
C	-1.6491948504	 0.2521533973	 3.3988518211	-0.151785
C	-2.7832867552	 1.0975021079	 3.9946446575	-0.232526
C	-2.0602980572	 2.399923628	 3.5197029517	-0.232362
C	-0.9261705281	 1.5516299502	 2.9305075707	-0.152253
H	 0.6188515775	 1.196779445	 0.5264940402	 0.283984
H	-0.5996303731	-1.2659809641	 1.084458989	 0.105751
H	-1.5119204777	 0.9632858244	-0.7977432345	 0.096155
H	-2.3795737095	-0.5791826742	-0.525302681	 0.1103
H	-1.235508808	-0.6515172251	 3.8346083469	 0.085907
H	-3.7763971125	 0.9083513246	 3.5784806852	 0.11289
H	-2.8347994692	 1.0276607481	 5.082846868	 0.104021
H	-2.5997041441	 3.0224904243	 2.8006016608	 0.110391
H	-1.7351547215	 3.0222253355	 4.3554904144	 0.104096
H	 0.1311354103	 1.7949840702	 2.9511491778	 0.087853
71.6514	143.7142	157.5814	200.6178	283.2059	348.9935	424.2363	485.4188	548.5499	585.4635	751.3229	760.7739	781.4337	840.9002	861.8632	920.2745	936.989	981.6459	984.3806	1004.9091	1014.9476	1023.6566	1054.5303	1066.5496	1110.5638	1135.7013	1153.6111	1196.9224	1212.654	1225.308	1243.8736	1251.7047	1268.7881	1283.7592	1305.7398	1337.6894	1434.8704	1446.3689	1476.2407	1497.8494	1518.6325	3009.1936	3059.457	3065.9598	3069.8562	3092.775	3106.9313	3124.931	3156.9427	3166.2851	3798.8914
OC1COC11C2CCC12	O[C@@H]1CO[C@]21[C@@H]1CC[C@H]21	
InChI=1S/C7H10O2/c8-6-3-9-7(6)4-1-2-5(4)7/h4-6,8H,1-3H2	InChI=1S/C7H10O2/c8-6-3-9-7(6)4-1-2-5(4)7/h4-6,8H,1-3H2/t4-,5+,6-,7-/m1/s1
