19
gdb 4356	2.3816185	1.6306044	1.2900244	4.735	75.05	-0.25547	0.01297	0.26843999999999996	1061.1121	0.158644	-422.591958	-422.583924	-422.58298	-422.624382	30.963	
C	-3.6856347837	-0.6205521918	 0.1658666476	-0.394551
C	-2.8213249048	-0.2093244703	-1.0353109371	-0.030021
C	-1.6918024468	-1.2113625814	-1.2930488159	-0.089641
O	-0.6669124032	-1.1988440965	-0.2881431539	-0.23745
C	-0.21423211	-0.0328282574	 0.2477033813	 0.420514
O	 0.6767335787	-0.0727766663	 1.0540161994	-0.340258
C	-0.8878358127	 1.2366085077	-0.1516092002	-0.149474
C	-1.0469396349	 1.6375735251	-1.6121362871	-0.326367
C	-2.2414213211	 1.179043346	-0.8350023316	-0.018719
H	-4.1557813616	-1.5942257105	-0.0041060386	 0.117098
H	-3.0858617045	-0.6906054808	 1.0782383537	 0.138255
H	-4.4806583196	 0.1106530759	 0.3421662051	 0.11726
H	-3.4475533568	-0.2127084144	-1.9378980683	 0.086608
H	-2.0789215491	-2.2336272223	-1.287023065	 0.12228
H	-1.2310270112	-1.0428430315	-2.2730252864	 0.113512
H	-0.6752732671	 2.033750856	 0.5493223631	 0.117961
H	-0.9505300184	 2.6969917933	-1.8195364639	 0.127314
H	-0.6238834792	 1.0019361976	-2.3803281464	 0.129183
H	-2.957902994	 1.9405629619	-0.5416775161	 0.096497
94.3801	186.0799	203.2721	211.7224	289.5368	379.366	432.0623	443.2338	506.0902	546.7305	721.8783	739.5765	750.4714	798.0565	835.1327	886.1934	943.517	960.7227	964.5961	1014.7681	1038.0395	1064.3102	1085.6009	1103.6278	1131.3862	1148.0425	1169.6367	1203.9384	1245.8922	1280.6646	1338.0745	1342.1409	1371.6102	1403.0069	1409.2123	1435.4509	1490.7662	1497.2692	1500.3257	1527.0983	1835.8619	3014.4592	3037.9263	3042.0698	3094.3856	3106.5572	3115.2226	3147.9328	3152.2651	3196.5466	3231.5445
CC1COC(=O)C2CC12	C[C@@H]1COC(=O)[C@H]2C[C@@H]12	
InChI=1S/C7H10O2/c1-4-3-9-7(8)6-2-5(4)6/h4-6H,2-3H2,1H3	InChI=1S/C7H10O2/c1-4-3-9-7(8)6-2-5(4)6/h4-6H,2-3H2,1H3/t4-,5+,6+/m1/s1
