19
gdb 507	3.1404621	1.731556	1.4681837	0.6037	73.61	-0.2433	0.07227	0.31557	946.377	0.159557	-422.501796	-422.494952	-422.494008	-422.532572	28.366	
C	-0.0673463232	 1.2155441162	-0.6670419148	-0.150415
O	-0.2032973083	 0.0182363243	 0.164622324	-0.357084
C	 1.1646407984	 0.1658790241	 0.5493548978	 0.483372
C	 2.2033563262	-0.2620108219	-0.5445703679	-0.296308
C	 2.6792103249	 1.2004828284	-0.4457616003	 0.095801
O	 3.5329121551	 1.2783481764	 0.7089940022	-0.290566
C	 2.9450410577	 0.9320398446	 1.9753131847	-0.057869
C	 1.7345102928	-0.0647681501	 1.9225627682	-0.338508
C	 1.2679089725	 1.6180504651	 0.016078922	-0.117297
H	-0.0264287029	 0.970653705	-1.7343153227	 0.1085
H	-0.8948441482	 1.9067934745	-0.4870719839	 0.115526
H	 2.9446160739	-1.0181686412	-0.2814005481	 0.099473
H	 1.7182889425	-0.5175067817	-1.4877487118	 0.108927
H	 3.2208679395	 1.6878986338	-1.2590403135	 0.073971
H	 3.7623747214	 0.5275455956	 2.5780563356	 0.111741
H	 2.6004204132	 1.8516821421	 2.4648100434	 0.105538
H	 2.0494401508	-1.1032508896	 2.0677554303	 0.108659
H	 1.0251000968	 0.1942430021	 2.7148565174	 0.111423
H	 1.1916890271	 2.4908555124	 0.6648029972	 0.085116
179.078	264.2998	299.6334	338.4611	426.9578	436.0137	465.4545	569.4222	651.1338	764.8206	805.3141	817.3351	833.3126	890.2823	903.9493	926.3146	942.7562	957.1458	975.4613	1015.5135	1036.6041	1059.3127	1094.7983	1126.8784	1138.7095	1157.8514	1175.051	1208.6978	1228.2591	1265.7594	1276.8243	1295.104	1309.4927	1335.678	1347.0803	1356.2493	1407.8546	1478.2599	1497.818	1518.3068	1519.3544	3013.8675	3034.6897	3042.2204	3076.0878	3082.0362	3088.0774	3092.1738	3096.9681	3110.4578	3141.8434	179.0791	264.2999	299.6337	338.4611	426.9577	436.0136	465.4545	569.4222	651.1338	764.8206	805.3144	817.3351	833.3127	890.2823	903.9493	926.3146	942.7564	957.1459	975.4614	1015.5138	1036.6042	1059.3127	1094.7983	1126.8785	1138.7095	1157.8513	1175.0512	1208.6979	1228.259	1265.7591	1276.8242	1295.1039	1309.4927	1335.678	1347.0804	1356.2492	1407.8543	1478.2599	1497.8178	1518.3071	1519.3539	3013.8675	3034.6897	3042.2205	3076.0878	3082.0362	3088.0774	3092.1738	3096.9681	3110.4578	3141.8434
C1OC23CC(OCC2)C13	C1O[C@]23C[C@H](OCC2)[C@@H]13	
InChI=1S/C7H10O2/c1-2-8-6-3-7(1)5(6)4-9-7/h5-6H,1-4H2	InChI=1S/C7H10O2/c1-2-8-6-3-7(1)5(6)4-9-7/h5-6H,1-4H2/t5-,6+,7+/m1/s1
