19
gdb 5495	2.1908557	1.6160129	1.29722	0.9379	76.31	-0.22281	0.02207	0.24488000000000001	1083.9978	0.15595	-422.535031	-422.526263	-422.525319	-422.568192	33.092	
C	 1.5492219505	-0.0022131898	-0.1571698434	-0.237921
O	 0.1342048318	-0.010683395	-0.1664029414	-0.229644
C	-0.4068733431	 0.5656144378	 0.9740946129	 0.096417
C	-1.8505851199	 0.2839723749	 1.3473110409	-0.244618
C	-2.4817322844	-0.9435988811	 0.7882618475	-0.050264
C	-1.8584231073	-2.0547681977	 1.1855908283	-0.073916
C	-0.6943050849	-1.7557107694	 2.0997960657	-0.333263
C	-0.6813759067	-0.2262044013	 2.2144635791	 0.32562
O	-0.3017990033	 0.3603410072	 3.4203046309	-0.46695
H	 1.9559629676	-0.5310273014	 0.7162679458	 0.114064
H	 1.8792957114	-0.5060600751	-1.068546995	 0.126718
H	 1.9458129335	 1.0245294859	-0.1529219009	 0.108461
H	-0.0819166482	 1.5905827705	 1.1665817652	 0.089712
H	-2.4555575587	 1.1379179866	 1.6344145272	 0.089445
H	-3.3357093705	-0.9062440606	 0.1219598242	 0.095813
H	-2.114368616	-3.0627555366	 0.8807573247	 0.092955
H	-0.8146980374	-2.2086843657	 3.0944045487	 0.097509
H	 0.2501443858	-2.1425023914	 1.698007721	 0.119114
H	-0.9627577002	 0.1342811122	 4.0848275484	 0.280747
99.0187	145.1947	162.5921	205.5664	232.6721	307.106	372.1047	386.7158	395.7104	544.0517	581.5466	589.518	737.0016	754.1615	765.0162	863.6674	902.1644	947.9048	953.204	982.1648	999.5873	1027.8669	1062.0878	1082.2489	1135.455	1150.8012	1157.0809	1182.1199	1205.9432	1235.5758	1259.4363	1296.5431	1316.8604	1355.9793	1375.9225	1444.0928	1469.5913	1484.6586	1492.6897	1509.6112	1672.0549	2983.268	3008.122	3034.7443	3049.9702	3081.9247	3118.8608	3162.91	3188.7967	3213.1248	3783.2936
COC1C2C=CCC12O	CO[C@H]1[C@H]2C=CC[C@@]12O	
InChI=1S/C7H10O2/c1-9-6-5-3-2-4-7(5,6)8/h2-3,5-6,8H,4H2,1H3	InChI=1S/C7H10O2/c1-9-6-5-3-2-4-7(5,6)8/h2-3,5-6,8H,4H2,1H3/t5-,6+,7+/m1/s1
