19
gdb 4251	2.8397351	1.7262488	1.2439959	1.4933	74.98	-0.23906	0.06152	0.30058	1038.1491	0.157054	-422.497774	-422.489947	-422.489003	-422.529909	30.272	
C	 0.4695262317	-0.4326663687	-0.4873734341	-0.398161
C	 0.7797640274	 0.6770659736	 0.5015840392	 0.036666
O	 1.9470976767	 1.4674004058	 0.1036989493	-0.314653
C	 2.8089976945	 0.8612743624	 1.1011843118	 0.039465
C	 3.063212263	 1.7641469294	 2.3356391084	-0.264277
C	 1.761724842	 1.2049264634	 2.9780536952	-0.143491
C	 1.8499356342	-0.1545765754	 3.7211063876	-0.109608
O	 1.4373319009	-0.8976299518	 2.533456684	-0.328922
C	 1.5271497713	 0.2802424277	 1.7632692089	 0.42971
H	-0.3866311549	-1.0208740649	-0.1410203443	 0.124994
H	 0.225165022	-0.0045249927	-1.464031237	 0.125817
H	 1.3237179434	-1.1053498748	-0.6071251007	 0.125114
H	-0.0940304425	 1.3248525355	 0.6484160689	 0.079086
H	 3.63124757	 0.2936675156	 0.6576188068	 0.077885
H	 3.9827377382	 1.541674897	 2.8860669447	 0.101216
H	 3.0363612789	 2.8305091085	 2.1008453185	 0.117072
H	 1.0101921021	 1.9006671895	 3.3512120978	 0.080788
H	 2.8530435071	-0.4485309035	 4.0532163631	 0.106703
H	 1.137121564	-0.3003969366	 4.5383877119	 0.114595
122.2507	153.0589	197.904	221.6446	339.3855	368.5707	402.098	464.7856	518.8337	706.2934	740.7945	800.6751	830.1348	866.015	879.6746	930.6767	959.1583	965.8398	986.5996	1019.5789	1036.5401	1078.0921	1086.5915	1104.7812	1129.9135	1148.3968	1153.122	1191.0762	1230.9057	1252.8696	1268.1188	1298.1085	1308.5159	1341.8234	1350.6901	1392.1486	1403.5867	1461.5856	1486.0485	1490.5461	1516.067	3023.5578	3025.659	3038.9679	3051.8654	3074.4602	3082.2292	3107.9038	3112.857	3119.4476	3119.8695
CC1OC2CC3COC123	C[C@@H]1O[C@H]2C[C@@H]3CO[C@]123	
InChI=1S/C7H10O2/c1-4-7-5(3-8-7)2-6(7)9-4/h4-6H,2-3H2,1H3	InChI=1S/C7H10O2/c1-4-7-5(3-8-7)2-6(7)9-4/h4-6H,2-3H2,1H3/t4-,5+,6-,7-/m0/s1
