19
gdb 3112	2.5060086	1.6201488	1.4704463	4.4301	74.49	-0.25823	0.01168	0.26991000000000004	1005.2763	0.158617	-422.594307	-422.586588	-422.585644	-422.626336	30.266	
C	-1.8515826749	 0.055097098	 2.4627395822	-0.437809
C	-2.5591095933	 0.0630063943	 1.1174572866	 0.019014
C	-2.2951547542	-1.0226113798	 0.0207129383	-0.054076
C	-2.6964245547	 0.058165552	-1.024620549	-0.252041
C	-2.1669140218	 1.0754084722	 0.0085022019	 0.108571
O	-0.7332396028	 1.1970474804	-0.0983923144	-0.235927
C	-0.0028836898	 0.0519875969	-0.1821429105	 0.413867
O	 1.1897578134	 0.1108329822	-0.2941436611	-0.334669
C	-0.7898780812	-1.2591752529	-0.1133230651	-0.350267
H	-2.1371049216	-0.8278327973	 3.0447324371	 0.120686
H	-0.7626174821	 0.0561914591	 2.3678544972	 0.137815
H	-2.1263190871	 0.939716125	 3.046824661	 0.124865
H	-3.6412274118	 0.1427355795	 1.267479365	 0.084256
H	-2.8586437271	-1.9572050558	 0.0634033636	 0.070871
H	-2.2087329724	 0.0431973374	-2.0026807965	 0.10945
H	-3.7782371273	 0.1392950693	-1.1496391273	 0.110688
H	-2.5409237226	 2.0989935333	 0.0320106934	 0.088327
H	-0.5536922523	-1.8254615569	-1.020787358	 0.138111
H	-0.3806083263	-1.8353767873	 0.7232267158	 0.138269
96.3778	177.1358	231.7611	239.5924	355.88	417.2619	456.5509	533.2722	546.6926	580.5355	611.4479	751.7196	767.2921	839.8951	866.7517	885.5658	923.8066	966.2241	990.2815	1034.6009	1057.7345	1069.598	1086.2718	1131.6276	1147.3494	1166.8815	1194.884	1218.2832	1239.0457	1256.6107	1289.9463	1325.4443	1363.9841	1386.9365	1391.3719	1421.2274	1459.1893	1491.2806	1496.9881	1502.3066	1854.428	3036.7657	3050.1945	3051.3053	3065.7277	3084.5085	3088.0307	3098.3431	3113.9573	3116.5586	3127.1042
CC1C2CC1OC(=O)C2	C[C@@H]1[C@H]2C[C@@H]1OC(=O)C2	
InChI=1S/C7H10O2/c1-4-5-2-6(4)9-7(8)3-5/h4-6H,2-3H2,1H3	InChI=1S/C7H10O2/c1-4-5-2-6(4)9-7(8)3-5/h4-6H,2-3H2,1H3/t4-,5+,6+/m1/s1
