19
gdb 986	10.2652006	0.4263183	0.4135241	2.3903	79.97	-0.25875	-0.02975	0.22899999999999998	2485.6074	0.152273	-422.515719	-422.504804	-422.50386	-422.553742	36.23	
O	 0.82288935	-1.0761574811	-0.2358099265	-0.236827
C	 0.2337390191	-0.0411594412	-0.0750070369	 0.139305
C	-0.3441044645	 0.7838480223	-1.2123319878	-0.146553
O	-0.9582738655	 1.9191505639	-0.662862005	-0.249039
C	-1.5377274956	 2.7746045553	-1.6269904167	-0.053268
C	-2.1649624233	 3.9587853436	-0.9048361703	-0.193008
C	-2.8231689053	 4.946917069	-1.8872857409	-0.356978
C	-3.4304929496	 6.08916188	-1.2158133038	 0.289779
C	-3.9235888422	 7.0217625418	-0.6402956138	-0.428364
H	 0.0602797196	 0.4040292838	 0.9294004806	 0.098247
H	 0.4712305366	 1.0473022935	-1.9079789746	 0.122049
H	-1.0561334401	 0.157742287	-1.7772400984	 0.122056
H	-0.7698051993	 3.1184944537	-2.3414466305	 0.091775
H	-2.2989853223	 2.2292975449	-2.211404685	 0.091779
H	-2.9114320001	 3.5923265888	-0.1933030048	 0.123851
H	-1.3950393778	 4.4742095706	-0.3223007585	 0.123842
H	-2.0749049534	 5.3042203178	-2.607403827	 0.132513
H	-3.5870102662	 4.4247614396	-2.4789268031	 0.132495
H	-4.36220429	 7.8504924268	-0.142446957	 0.196347
42.1977	65.1097	66.4078	71.1981	132.2002	137.5839	156.6296	255.9988	324.5546	345.8586	442.9332	520.1353	582.6278	619.4069	640.0347	740.6417	758.3945	870.6656	948.9951	1015.8283	1033.8898	1057.3214	1106.8458	1110.3097	1123.3171	1177.3676	1218.4175	1239.1498	1275.8449	1303.2057	1313.4083	1344.965	1374.0896	1402.1143	1438.7541	1476.1159	1482.2477	1500.2785	1529.7031	1845.9948	2241.8573	2900.6602	2947.6539	2960.2316	2975.866	2986.36	3013.9952	3042.3008	3058.4305	3104.9036	3507.5624
O=CCOCCCC#C	O=CCOCCCC#C	
InChI=1S/C7H10O2/c1-2-3-4-6-9-7-5-8/h1,5H,3-4,6-7H2	InChI=1S/C7H10O2/c1-2-3-4-6-9-7-5-8/h1,5H,3-4,6-7H2
