19
gdb 4265	2.0867428	1.6334936	1.269592	1.1064	75.9	-0.25198	-0.03605	0.21592999999999998	1089.4624	0.155937	-422.532252	-422.523567	-422.522623	-422.565989	31.887	
C	 0.7221532908	-0.2778817065	-0.9772339793	-0.419934
C	 0.9196995031	 0.3855960611	 0.3777839028	-0.04036
C	 1.874073762	 1.6213597159	 0.4685436319	-0.256772
C	 2.6899622742	 0.9202535946	 1.5734310821	 0.077584
O	 3.8172745187	 0.1837307871	 1.0756120243	-0.282145
C	 3.0561089243	-1.0415418126	 1.0290922771	-0.141342
C	 1.7521799354	-0.347984427	 1.4702917234	 0.175653
C	 1.0364784375	-0.8974239637	 2.6588782207	 0.064642
O	-0.1442663644	-0.7680294216	 2.8728911158	-0.254389
H	 0.1624168106	-1.2148083506	-0.8839031777	 0.12325
H	 0.1568329848	 0.3816904478	-1.6440915212	 0.122964
H	 1.6752545258	-0.4979320882	-1.4695284128	 0.119978
H	-0.0543172708	 0.6176636316	 0.816004591	 0.105923
H	 2.4766496579	 1.816819221	-0.4220330058	 0.11389
H	 1.3855439293	 2.5473827971	 0.7812408009	 0.109121
H	 2.9097002633	 1.4550041628	 2.5012969036	 0.088128
H	 3.0592474365	-1.5033012504	 0.0359730513	 0.112708
H	 3.4313911771	-1.7696820324	 1.7617334518	 0.105617
H	 1.6918660839	-1.4335984962	 3.3847199001	 0.075485
61.3916	90.7262	173.2171	220.313	244.3097	279.4692	360.4216	393.532	447.8249	517.8254	626.2871	698.0812	768.2294	847.9205	861.0691	881.7584	937.3889	956.072	998.5914	1024.9308	1034.4897	1073.3707	1112.3003	1120.1009	1157.5824	1169.3605	1193.2782	1208.3302	1246.1983	1265.1647	1295.8053	1326.7901	1357.3207	1387.6672	1412.953	1427.8181	1465.3751	1494.3523	1497.4655	1525.5453	1809.7689	2857.1989	3001.8881	3030.8278	3060.9126	3066.3032	3075.2298	3076.3972	3098.7193	3102.6765	3121.8503
CC1CC2OCC12C=O	C[C@@H]1C[C@@H]2OC[C@]12C=O	
InChI=1S/C7H10O2/c1-5-2-6-7(5,3-8)4-9-6/h3,5-6H,2,4H2,1H3	InChI=1S/C7H10O2/c1-5-2-6-7(5,3-8)4-9-6/h3,5-6H,2,4H2,1H3/t5-,6+,7-/m1/s1
