19
gdb 4536	3.0959683	1.1084673	0.8964754	2.5659	79.06	-0.23548	-0.0341	0.20138	1303.8418	0.155078	-422.571723	-422.562319	-422.561375	-422.607193	32.973	
C	-0.8949582889	 2.0492682554	-2.2966754366	-0.402168
C	-1.1708969357	 2.8144984285	-1.0019130896	 0.059158
O	-2.5361764868	 3.2420219659	-0.9781265225	-0.27752
C	-3.1710008551	 2.8305791885	 0.2272867954	-0.110909
C	-2.1354080072	 2.0305765343	 0.9610703234	-0.212228
C	-0.9937476221	 2.019803318	 0.2772988169	 0.28378
C	 0.3028596883	 1.3559978544	 0.6429356974	-0.388573
C	 0.4647072559	 0.0008415776	-0.0377255758	 0.166365
O	 1.3858504194	-0.3040510394	-0.7472629882	-0.232554
H	-1.5087422049	 1.1445616522	-2.3469990908	 0.117106
H	-1.1423671064	 2.6803882741	-3.154461599	 0.12762
H	 0.1587211053	 1.7634062937	-2.3712664474	 0.131486
H	-0.51785508	 3.7051622143	-0.9784757496	 0.080893
H	-3.4983390869	 3.7099481747	 0.806345638	 0.105445
H	-4.0751569109	 2.247966662	-0.0081812435	 0.108265
H	-2.3163531429	 1.5653702924	 1.9228027388	 0.102739
H	 1.1670880344	 1.9728948171	 0.3777030041	 0.128405
H	 0.3261806812	 1.1714127411	 1.7249006017	 0.129659
H	-0.3639784666	-0.7108467948	 0.1794067872	 0.08303
46.0511	62.6484	83.0063	150.5496	239.1824	242.5992	289.4335	350.0798	391.8836	465.0297	598.8012	634.946	764.2756	786.5387	826.7068	843.3334	879.8995	947.2426	1012.2177	1034.6067	1046.8375	1057.5417	1083.0832	1114.582	1120.3228	1176.3058	1199.1611	1212.8192	1288.6359	1301.6847	1357.3426	1371.7458	1382.9043	1404.5454	1416.2933	1462.1039	1486.0252	1495.9037	1521.8338	1718.7066	1834.5958	2876.8795	2938.8783	2966.5614	2989.5189	3027.3106	3039.9914	3094.2256	3116.7547	3121.7926	3206.2056
CC1OCC=C1CC=O	C[C@H]1OCC=C1CC=O	
InChI=1S/C7H10O2/c1-6-7(2-4-8)3-5-9-6/h3-4,6H,2,5H2,1H3	InChI=1S/C7H10O2/c1-6-7(2-4-8)3-5-9-6/h3-4,6H,2,5H2,1H3/t6-/m1/s1
