19
gdb 3644	3.9401535	0.8914096	0.7702474	3.8436	79.03	-0.23792	-0.01816	0.21975999999999998	1477.2314	0.155056	-422.572369	-422.563072	-422.562128	-422.607712	32.949	
C	-0.5285615376	 5.2543282716	 0.3947589289	-0.388423
C	-0.1411857486	 4.1697415685	-0.6108514313	 0.088054
O	-0.2175440983	 2.8760095677	 0.0085589685	-0.290642
C	-1.0864855455	 2.0083844916	-0.7220335052	 0.059517
C	-0.3153383113	 0.7549013266	-1.1905662517	-0.283007
C	 0.2734192726	-0.0185163619	-0.0297926275	 0.154181
O	 0.0806175568	-1.1906861816	 0.1735251064	-0.242766
C	-1.6048782537	 2.8546726161	-1.8539577649	-0.099161
C	-1.0578101876	 4.0624322204	-1.8007352356	-0.098069
H	 0.1186839973	 5.1983329406	 1.2743034532	 0.128823
H	-0.418094703	 6.2487424528	-0.0505432965	 0.113383
H	-1.5664487644	 5.1268229903	 0.7155456595	 0.122443
H	 0.8999711143	 4.3426527716	-0.9297271056	 0.085372
H	-1.903171939	 1.6825830393	-0.057699318	 0.09676
H	-0.9677881091	 0.0875906107	-1.761876071	 0.115285
H	 0.5075285454	 1.0867503444	-1.8374603364	 0.120789
H	 0.9137141335	 0.5881498365	 0.6451076489	 0.095433
H	-2.3119898081	 2.4858895342	-2.5860345791	 0.111789
H	-1.2283683138	 4.8846625407	-2.4843034327	 0.110239
46.1002	72.1603	82.728	146.8177	231.2436	240.8696	318.5559	380.5997	440.7573	495.4188	553.9648	725.7067	743.2423	792.5935	828.4151	844.7678	874.2282	926.156	961.4619	987.4127	1029.922	1063.4715	1087.7269	1095.8583	1120.1419	1131.4389	1139.687	1219.7791	1263.6565	1302.3722	1345.8577	1362.3702	1371.1078	1385.0653	1401.2762	1421.5542	1450.6347	1486.1982	1494.5531	1690.8049	1828.5853	2913.2204	2962.7811	2969.4668	3028.5397	3038.3889	3100.5293	3112.1152	3123.4787	3205.8865	3230.3909
CC1OC(CC=O)C=C1	C[C@H]1O[C@H](CC=O)C=C1	
InChI=1S/C7H10O2/c1-6-2-3-7(9-6)4-5-8/h2-3,5-7H,4H2,1H3	InChI=1S/C7H10O2/c1-6-2-3-7(9-6)4-5-8/h2-3,5-7H,4H2,1H3/t6-,7+/m1/s1
