19
gdb 3849	3.0309549	1.3337234	1.1403742	0.3635	78.27	-0.2356	0.01138	0.24698	1129.3457	0.156684	-422.541998	-422.533498	-422.532554	-422.574717	33.143	
O	-0.0306463635	 1.4637877339	-0.0031025133	-0.430809
C	 0.0701969461	 0.0433308898	 0.038530397	 0.093431
C	-1.3691168205	-0.5453895683	 0.0258910798	-0.301917
C	-1.2580016018	-1.7981371323	 0.9160745778	 0.35538
O	-1.0885943767	-3.000762299	 0.1726368071	-0.492962
C	-2.0313751751	-2.0531499505	 2.2630440818	-0.287545
C	-0.6345571897	-2.232680611	 2.9779787285	-0.326714
C	-0.0603177201	-1.5126366629	 1.7813247002	 0.302396
C	 0.6493580531	-0.4740658861	 1.3616852787	-0.279106
H	 0.8509567846	 1.8211088356	-0.1476425693	 0.281407
H	 0.6515750333	-0.3102834511	-0.8271753012	 0.077355
H	-2.0199734419	 0.2106892044	 0.4756473311	 0.112939
H	-1.7332846963	-0.7654805624	-0.9813482691	 0.090603
H	-1.9470499683	-3.2338077008	-0.1974653837	 0.276262
H	-2.5603398756	-1.1667144508	 2.6198920945	 0.109346
H	-2.6994537149	-2.9185616936	 2.275732015	 0.094079
H	-0.4940513131	-1.7800552513	 3.9618757505	 0.109944
H	-0.353211314	-3.2885333362	 3.0221141219	 0.124436
H	 1.4564965244	 0.0390126525	 1.8739737228	 0.091475
84.7584	174.7945	227.5748	264.6916	283.7536	324.4519	343.0936	388.6972	479.1914	512.0618	551.4543	627.6116	703.7608	768.4885	799.3077	834.7985	874.7377	897.4006	922.7964	945.9679	978.5301	1024.6348	1031.1078	1077.1323	1108.2606	1127.1847	1166.8452	1185.8099	1202.4106	1234.6841	1248.7424	1263.3814	1271.465	1289.9325	1320.0189	1386.8207	1416.5502	1460.4041	1469.1119	1477.4789	1742.3073	2973.0279	3054.2645	3057.1979	3062.7843	3108.1788	3112.1491	3129.0328	3186.5445	3798.5855	3821.3956
OC1CC2(O)CCC2=C1	O[C@@H]1C[C@]2(O)CC[C]2[CH]1	
InChI=1S/C7H10O2/c8-6-3-5-1-2-7(5,9)4-6/h3,6,8-9H,1-2,4H2	InChI=1S/C7H10O2/c8-6-3-5-1-2-7(5,9)4-6/h3,6,8-9H,1-2,4H2/t6-,7+/m0/s1
