19
gdb 1463	2.2609181	1.796906	1.4047622	4.0371	74.04	-0.26522	0.01162	0.27684000000000003	1018.8416	0.156602	-422.595026	-422.586556	-422.585611	-422.627607	32.593	
C	-0.4294208755	 2.1867247184	-1.3669992061	-0.41753
C	-0.7953763251	 1.3020536365	-0.1679073581	 0.107533
C	-0.5873771336	 2.0769018795	 1.149770678	-0.429399
C	-2.1854194484	 0.6838601306	-0.208311712	-0.081762
C	-2.5219649567	-0.3012714378	-1.3137277569	-0.342769
C	-1.9900592461	-0.7913430578	-0.0014480568	 0.087613
O	-0.6035593919	-1.0785073261	 0.0296959295	-0.222304
C	 0.1277436209	 0.0649843926	-0.1280850201	 0.4186
O	 1.3208781709	 0.05002684	-0.2119773251	-0.347208
H	-0.6242844234	 1.6818385204	-2.3171434282	 0.119072
H	-1.0128722021	 3.1124290239	-1.3489207008	 0.114721
H	 0.633310268	 2.441169886	-1.3311494472	 0.141308
H	-0.8519760288	 1.4666473972	 2.0189826028	 0.124002
H	 0.4580520993	 2.3799138115	 1.2497250511	 0.141105
H	-1.2127598826	 2.9754991468	 1.1602067241	 0.118179
H	-2.9985415388	 1.2112045846	 0.2765626607	 0.097939
H	-3.573791181	-0.4624587977	-1.5227676812	 0.124775
H	-1.8705373827	-0.3797690799	-2.1783906001	 0.130718
H	-2.5573530326	-1.4151448887	 0.6766831164	 0.115408
98.423	204.8007	213.723	231.1795	250.6842	296.3021	326.1631	395.2118	476.718	518.9604	593.8588	700.5276	718.5851	754.9659	790.1693	821.3247	898.7876	948.6975	959.0411	986.8141	1022.1133	1030.8902	1044.1226	1068.3661	1087.9564	1118.6263	1148.2135	1184.7459	1205.0021	1235.6666	1266.8054	1356.7064	1383.0218	1395.2445	1419.7055	1473.4962	1483.0626	1487.5378	1501.8995	1508.8214	1875.9489	3035.6255	3042.8355	3105.4202	3113.5935	3122.0995	3125.3735	3130.8618	3177.0204	3201.3096	3221.5853
CC1(C)C2CC2OC1=O	CC1(C)[C@H]2C[C@H]2OC1=O	
InChI=1S/C7H10O2/c1-7(2)4-3-5(4)9-6(7)8/h4-5H,3H2,1-2H3	InChI=1S/C7H10O2/c1-7(2)4-3-5(4)9-6(7)8/h4-5H,3H2,1-2H3/t4-,5+/m0/s1
