19
gdb 5024	2.5696531	1.5491219	1.1531539	3.0396	74.84	-0.23481	-0.00844	0.22637	1095.4816	0.157717	-422.571306	-422.563069	-422.562125	-422.60414	31.587	
O	-0.9002535991	-0.2759055124	-1.3331467516	-0.41817
C	-0.0823962663	 0.329899071	-0.3400152514	-0.193283
C	-0.7453798497	 1.5058361251	 0.3346661352	 0.197562
C	-1.3322691541	 2.7360615737	-0.4433822276	-0.265092
C	-2.0898145248	 2.9880041015	 0.8900673932	-0.028197
C	-2.15174598	 1.441256124	 1.0358136397	-0.28353
C	-0.9388899917	 3.3528579506	 1.8479627363	-0.333518
C	 0.0395219843	 2.2384583667	 1.4173416396	 0.410069
O	 1.1450677473	 2.0005048162	 1.8268954588	-0.345414
H	-1.6050301443	-0.752047141	-0.8838104143	 0.283821
H	 0.2432828863	-0.3977032111	 0.4180354419	 0.103499
H	 0.8209007997	 0.6698150699	-0.857299617	 0.124383
H	-0.6350751157	 3.500757146	-0.7986777224	 0.101607
H	-1.9807088925	 2.4044876861	-1.2563265894	 0.119153
H	-2.9905894235	 3.5986427521	 0.929913974	 0.073624
H	-2.2131243784	 1.0122802364	 2.0407922785	 0.101622
H	-2.9015426025	 0.9891158654	 0.3816381016	 0.103485
H	-0.5103828999	 4.3450541754	 1.6750576642	 0.125023
H	-1.1930684552	 3.2693439745	 2.9093497606	 0.123356
84.3715	138.6732	155.541	255.3222	317.377	327.8698	394.6316	455.022	568.0495	585.5105	624.3187	663.9692	784.1827	800.7335	869.4163	874.9959	909.1405	925.174	977.1982	980.6768	1020.175	1033.2991	1066.225	1076.1529	1100.0071	1126.3402	1178.7865	1188.2038	1217.974	1232.9346	1262.9377	1274.8624	1302.3512	1338.8364	1389.752	1415.2784	1461.3737	1484.9632	1490.9747	1521.9731	1858.1949	3000.2458	3046.7977	3053.6403	3057.2216	3077.2859	3100.2852	3109.9243	3123.4918	3128.2631	3824.655
OCC12CC(C1)CC2=O	OC[C@@]12C[C@@H](C1)CC2=O	
InChI=1S/C7H10O2/c8-4-7-2-5(3-7)1-6(7)9/h5,8H,1-4H2	InChI=1S/C7H10O2/c8-4-7-2-5(3-7)1-6(7)9/h5,8H,1-4H2/t5-,7+
