19
gdb 4982	2.7306084	1.6019634	1.4163451	0.9984	74.17	-0.22329	0.08933	0.31262	1014.1834	0.15778	-422.510191	-422.502322	-422.501378	-422.542616	30.129	
C	 1.4860875105	-0.1566194071	 0.1153991345	-0.260319
O	 0.0759363347	-0.0247356392	 0.0026745639	-0.286985
C	-0.4892794881	 0.6909220331	 1.0246761636	 0.434422
C	-1.8916382955	 0.641005896	 1.5743802527	-0.159397
C	-2.0201211818	 2.1644212259	 1.4991852106	-0.249511
C	-0.4697622301	 2.2283268677	 1.2820628036	 0.001631
O	 0.2360560059	 2.4390294117	 2.4953598863	-0.265512
C	-0.103439812	 1.346247538	 3.3648806551	-0.103166
C	-0.6800382634	 0.2716657999	 2.4524643222	-0.160036
H	 1.7644350638	-0.6828880267	 1.0386140885	 0.112458
H	 1.8195987641	-0.7377546862	-0.74683998	 0.128394
H	 1.9861280408	 0.8209767481	 0.1052170669	 0.122549
H	-2.6679702354	-0.0897851639	 1.3821134175	 0.09327
H	-2.5694454023	 2.4783249833	 0.6073760141	 0.10645
H	-2.4003714353	 2.7055856081	 2.3710961435	 0.099079
H	-0.0836029622	 2.9073406887	 0.5232266787	 0.087768
H	 0.8077463869	 1.0102908903	 3.8732874924	 0.104703
H	-0.8149372781	 1.6830733607	 4.1318097266	 0.098276
H	-0.5829186926	-0.7766493786	 2.7078961994	 0.095925
87.2631	145.7262	168.4488	239.0661	332.6541	367.6606	429.5531	488.8735	586.0527	670.5059	718.5302	753.0609	825.1046	862.1754	915.2295	933.4317	952.0193	996.6984	1002.171	1027.6562	1044.6058	1073.0245	1088.7532	1113.1518	1150.3434	1160.8492	1173.3773	1178.5661	1216.9883	1220.497	1238.5922	1274.191	1301.5815	1327.3293	1374.2262	1436.5567	1484.3782	1487.5945	1502.5306	1507.2981	1527.3644	2999.2968	2999.9016	3048.8167	3051.3187	3056.1852	3103.3796	3125.8041	3132.9941	3185.3434	3196.6391
COC12C3CC1OCC23	CO[C@]12[C@@H]3C[C@H]1OC[C@H]23	
InChI=1S/C7H10O2/c1-8-7-4-2-6(7)9-3-5(4)7/h4-6H,2-3H2,1H3	InChI=1S/C7H10O2/c1-8-7-4-2-6(7)9-3-5(4)7/h4-6H,2-3H2,1H3/t4-,5+,6-,7+/m1/s1
