19
gdb 5412	1.8493375	1.4930373	1.0454844	1.6114	79.89	-0.22338	0.03307	0.25645	1249.8522	0.152478	-422.491502	-422.480949	-422.480005	-422.526548	37.958	
C	 1.5087925679	-0.0894856416	 0.0730032295	-0.240322
O	 0.0958686268	-0.1984277312	 0.0979466433	-0.231719
C	-0.4787020842	 0.4311713513	 1.1874846981	 0.041166
C	-1.9032487986	 0.8629791145	 1.0552142628	-0.102987
C	-2.9068495348	 0.6707005532	 2.169414061	-0.415182
C	-0.8168382999	 1.9300920614	 1.1542828138	 0.12079
O	-0.7883824421	 2.6138958109	 2.3810609152	-0.44372
C	-0.4770191672	 2.7098723469	-0.0036009339	 0.321809
C	-0.153376519	 3.3905693247	-0.9421597959	-0.47181
H	 1.9603650884	-0.5388140666	 0.9703386559	 0.104856
H	 1.8548007562	-0.6342085169	-0.8080658545	 0.129927
H	 1.8289542954	 0.9576012712	-0.0012416653	 0.119446
H	-0.1466745875	 0.0799016346	 2.1678182644	 0.089062
H	-2.2896040361	 0.7483163594	 0.0466840773	 0.114527
H	-3.2920181348	-0.354361311	 2.1613011329	 0.120397
H	-2.4562154834	 0.8654446703	 3.1442297267	 0.135506
H	-3.754960364	 1.3525033854	 2.0523353038	 0.12578
H	 0.1032214185	 2.9587823264	 2.5032931832	 0.286565
H	 0.1101411685	 3.988664887	-1.7789839083	 0.195908
99.1495	125.3215	137.0517	169.9063	183.1963	191.1325	233.5829	283.1353	306.6821	309.8348	402.0331	454.7258	492.2978	552.1071	573.265	660.468	679.0272	684.699	806.6954	896.3201	991.609	1021.9323	1034.1851	1073.6816	1132.5045	1143.4186	1168.8962	1182.6023	1227.0637	1235.1969	1253.6454	1327.6912	1339.3579	1413.6175	1450.0431	1486.0938	1488.2097	1495.7729	1502.5197	1505.4883	2225.1335	2988.7234	3040.9607	3054.0057	3073.4772	3101.5439	3124.5864	3133.6018	3164.2428	3501.4455	3799.7802
COC1C(C)C1(O)C#C	CO[C@@H]1[C@@H](C)[C@]1(O)C#C	
InChI=1S/C7H10O2/c1-4-7(8)5(2)6(7)9-3/h1,5-6,8H,2-3H3	InChI=1S/C7H10O2/c1-4-7(8)5(2)6(7)9-3/h1,5-6,8H,2-3H3/t5-,6-,7-/m1/s1
