19
gdb 2848	2.5659531	1.6441303	1.3574973	2.1939	74.89	-0.23265	0.08645	0.3191	1042.3565	0.155475	-422.517506	-422.509009	-422.508064	-422.549903	33.195	
C	 1.5770103393	 2.7334767043	-3.65505172	-0.505358
C	 0.9309070835	 1.6763296951	-2.8276069398	 0.472814
O	 1.3279017371	 0.3038741692	-3.0181299898	-0.374393
C	 0.1264593751	-0.0681646157	-2.2559318152	 0.359169
C	-0.4180760461	-1.4193259432	-2.5908965877	-0.516076
C	-0.4842434156	 1.3582169854	-2.4844913148	-0.261398
C	 0.4727172283	 1.8077537206	-1.3707815333	-0.227025
C	 0.5445579473	 0.3809174187	-0.822121691	 0.149632
O	 1.7449360915	-0.1278874255	-0.321204144	-0.448765
H	 1.1344757351	 3.709103301	-3.4337940715	 0.129067
H	 2.6499459246	 2.7907936628	-3.4421664	 0.132878
H	 1.4485882604	 2.5284875998	-4.7222907865	 0.132636
H	-1.3354715372	-1.6109384864	-2.0260068052	 0.125461
H	-0.6382559279	-1.5020517259	-3.6588519988	 0.130918
H	 0.3140727798	-2.1896946604	-2.3266691062	 0.138873
H	-1.444224075	 1.7270538121	-2.8164276554	 0.100093
H	 0.4820008217	 2.7475221209	-0.8331303136	 0.089766
H	-0.2440229255	 0.1887803888	-0.0897015081	 0.089158
H	 2.3557505536	-0.1079330217	-1.0713205491	 0.282549
164.6635	189.4736	193.0371	207.5084	240.2424	278.5905	353.7303	401.6791	521.0151	571.7272	596.8656	648.2038	681.2335	772.7476	783.3447	820.812	832.2667	873.3593	895.5814	915.2061	963.3991	972.115	1053.302	1082.4595	1096.2662	1112.845	1129.3739	1140.8938	1184.8267	1235.0784	1248.4038	1313.4143	1340.5653	1401.4188	1414.7881	1443.7548	1463.6024	1474.3856	1480.976	1487.7267	1501.6324	3036.3265	3039.2159	3087.5274	3101.9787	3110.5719	3116.7325	3118.3716	3197.8686	3217.5906	3748.2989
CC12OC3(C)C1C2C3O	C[C@]12O[C@]3(C)[C@H]1[C@H]2[C@@H]3O	
InChI=1S/C7H10O2/c1-6-3-4(6)7(2,9-6)5(3)8/h3-5,8H,1-2H3	InChI=1S/C7H10O2/c1-6-3-4(6)7(2,9-6)5(3)8/h3-5,8H,1-2H3/t3-,4-,5-,6+,7+/m0/s1
