19
gdb 5646	2.5128342	1.3152839	0.9746708	4.3101	76.53	-0.26778	0.01126	0.27904	1262.1304	0.156219	-422.574726	-422.565746	-422.564802	-422.608665	32.767	
C	 1.6771510461	-0.0802761046	 1.166626024	-0.38643
C	 1.7545797646	 0.3372036121	-0.3051662671	-0.19396
C	 2.2016480155	-0.792295471	-1.2108543321	 0.068676
O	 1.2259179189	-1.9052489483	-1.2272327673	-0.279858
C	 1.0381089371	-1.7913104583	-2.5869853904	 0.437938
O	 0.3262724686	-2.4399366189	-3.2866517721	-0.345536
C	 2.007554056	-0.6571135225	-2.7191223595	 0.106503
C	 2.9809932154	-0.4349638265	-3.8435149082	-0.31814
C	 1.8724114525	 0.5495430925	-3.607948286	-0.315547
H	 0.9776697996	-0.9110026297	 1.2935593073	 0.14338
H	 2.655048538	-0.403684186	 1.5396680363	 0.117215
H	 1.3384623328	 0.7508008424	 1.7914975871	 0.117958
H	 0.7793344704	 0.699015469	-0.6508854539	 0.110643
H	 2.4620252229	 1.1682928991	-0.426659557	 0.102096
H	 3.1781615294	-1.1885469993	-0.9123592545	 0.096206
H	 3.9914645727	-0.1445654934	-3.5758527673	 0.126832
H	 2.9069531829	-1.1047448442	-4.6933028245	 0.142128
H	 2.1243364156	 1.5133076916	-3.17859497	 0.127546
H	 1.0336297609	 0.5600692261	-4.2952331346	 0.14235
89.1514	113.2286	140.124	196.8994	204.747	222.3576	288.5898	359.8517	470.9569	564.4994	620.7274	724.3862	744.2682	779.869	811.5278	854.8951	873.0524	943.8451	957.0988	962.3815	1014.4651	1059.0149	1070.7075	1084.3104	1088.3797	1117.9017	1162.9468	1195.6935	1246.3268	1267.9366	1288.9697	1343.7745	1392.4231	1412.1631	1415.1158	1458.2892	1475.4281	1497.4491	1499.4843	1508.3911	1931.2116	3024.0064	3039.5777	3050.6472	3071.7581	3108.1236	3123.4873	3133.7839	3136.1919	3216.8203	3230.9266
CCC1OC(=O)C11CC1	CC[C@H]1OC(=O)C21CC2	
InChI=1S/C7H10O2/c1-2-5-7(3-4-7)6(8)9-5/h5H,2-4H2,1H3	InChI=1S/C7H10O2/c1-2-5-7(3-4-7)6(8)9-5/h5H,2-4H2,1H3/t5-/m1/s1
