19
gdb 4308	2.9807211	1.0149737	0.8671692	2.1487	79.06	-0.23643	-0.028	0.20843	1365.6315	0.155728	-422.582941	-422.573681	-422.572736	-422.618516	33.111	
O	-3.9599882942	 1.7179691734	-0.5691421841	-0.438509
C	-3.2158945005	 2.6885675943	 0.1586361695	 0.124033
C	-2.5126574174	 3.576396418	-0.8933446047	-0.250107
C	-1.1172852236	 3.0109167483	-0.9575690747	-0.169563
C	-0.8615298271	 2.1716579271	 0.0484584248	 0.324921
C	 0.4106421311	 1.4093238488	 0.2993995467	-0.382552
C	 0.1903441546	-0.0616566532	-0.0273804127	 0.160108
O	 0.132315578	-0.94419177	 0.7883429968	-0.237128
C	-2.0609268295	 2.0399881027	 0.9643333961	-0.329577
H	-4.3513294709	 1.1075405915	 0.0639734828	 0.281196
H	-3.8848295671	 3.2716868829	 0.8061825949	 0.062516
H	-3.0527367663	 3.5211830483	-1.8440997144	 0.123201
H	-2.5026807827	 4.6318138063	-0.5898897827	 0.105717
H	-0.4049956823	 3.2905261866	-1.7268024867	 0.089103
H	 1.2107970975	 1.7909362215	-0.3459277376	 0.116998
H	 0.7253635955	 1.4804511802	 1.3458857128	 0.1216
H	 0.0441193134	-0.264084082	-1.1126671311	 0.083449
H	-2.2908092283	 0.9996818563	 1.2270842792	 0.108715
H	-1.8829584603	 2.5670437591	 1.9124913949	 0.105877
32.8736	59.2375	81.1496	175.1268	285.4287	290.2261	310.3875	394.8362	421.9844	473.5801	511.1184	624.883	766.5169	810.4138	837.1342	865.5491	898.3932	901.2779	954.5978	967.9055	1019.8728	1030.1413	1055.8497	1085.7169	1152.4555	1167.1695	1192.0373	1223.5097	1235.1653	1283.9775	1297.8015	1313.8057	1324.2237	1375.8327	1418.3526	1420.9486	1462.1784	1467.2689	1477.0408	1710.6337	1830.8254	2877.9121	2996.1417	3012.0923	3025.0037	3031.9764	3049.0545	3076.9576	3092.4156	3186.408	3814.2556
OC1CC=C(CC=O)C1	O[C@@H]1CC=C(CC=O)C1	
InChI=1S/C7H10O2/c8-4-3-6-1-2-7(9)5-6/h1,4,7,9H,2-3,5H2	InChI=1S/C7H10O2/c8-4-3-6-1-2-7(9)5-6/h1,4,7,9H,2-3,5H2/t7-/m1/s1
