19
gdb 1687	2.5952939	1.1952297	0.9794073	2.5582	78.	-0.25021	-0.0309	0.21930999999999998	1252.84	0.153769	-422.568853	-422.559181	-422.558237	-422.6035	34.561	
C	-2.2172060062	 1.8012191961	-0.375196023	-0.467888
C	-1.0634204724	 2.0158595487	 0.5872407716	 0.367163
C	-0.4842562274	 0.7482449426	 1.1831930444	-0.39763
C	 0.2682026071	-0.1170535273	 0.1963801204	 0.162002
O	 0.4739379223	 0.1514860382	-0.9602091493	-0.240893
C	-0.1505641237	 3.1643327657	 0.3473436022	-0.296634
C	-1.1690503119	 3.2829006487	 1.4770196309	-0.178399
C	-0.6974707163	 3.3007594961	 2.8758462712	 0.141037
O	 0.3285787805	 2.7948195329	 3.279127287	-0.27905
H	-3.04976192	 1.2827132682	 0.1138031831	 0.115979
H	-2.5942880627	 2.7518640811	-0.7635736396	 0.116121
H	-1.8848951286	 1.197026948	-1.2238473901	 0.151246
H	 0.2119127714	 0.9774047093	 2.000370541	 0.168633
H	-1.2662409544	 0.1211481408	 1.6373816941	 0.119255
H	 0.649706184	-1.0669642982	 0.6371837421	 0.082462
H	 0.8802405599	 3.0702312995	 0.6715116302	 0.138626
H	-0.3070674838	 3.7855317705	-0.5272350687	 0.123712
H	-2.0484847298	 3.8916116584	 1.2940538503	 0.092672
H	-1.371296498	 3.8340129309	 3.5818785621	 0.081584
67.2947	125.2643	154.0616	171.2189	196.5125	210.083	241.3408	308.7535	348.7392	388.3163	432.3009	608.0672	709.9757	726.332	772.2219	813.3027	856.258	897.188	940.7063	982.1078	1017.5806	1022.9662	1055.7991	1074.0966	1103.8411	1112.3704	1125.5455	1207.4187	1300.5327	1322.4603	1366.5872	1410.4691	1416.6182	1423.6792	1433.8501	1450.5807	1480.9068	1490.9215	1509.3459	1788.1797	1827.5086	2866.7639	2888.1352	3009.2276	3033.1245	3056.1531	3099.6986	3120.3344	3137.1677	3165.4609	3229.5298
CC1(CC=O)CC1C=O	C[C@@]1(CC=O)C[C@@H]1C=O	
InChI=1S/C7H10O2/c1-7(2-3-8)4-6(7)5-9/h3,5-6H,2,4H2,1H3	InChI=1S/C7H10O2/c1-7(2-3-8)4-6(7)5-9/h3,5-6H,2,4H2,1H3/t6-,7-/m1/s1
