19
gdb 3660	2.0877539	1.6058136	1.1056579	3.2758	77.02	-0.24098	-0.03665	0.20433	1172.72	0.154184	-422.548125	-422.538789	-422.537844	-422.582195	34.163	
C	 0.1902928231	 3.0141351484	 1.1068756582	-0.429121
C	-1.0561479923	 2.3835459298	 0.5456346316	-0.012896
O	-1.1041534433	 2.188806219	-0.8697533867	-0.28237
C	-1.0605267659	 1.0323442481	-0.0588513673	 0.312475
C	-2.1155924235	-0.0930798042	 0.0029537074	-0.080648
C	-3.2425889642	 0.027746213	 1.0189706145	-0.413976
C	-0.9622925025	-1.1087751199	 0.3007226216	-0.373055
C	 0.0597021504	 0.0063397206	-0.0051784625	 0.343455
O	 1.245433749	 0.0432428834	-0.1691611447	-0.308232
H	 0.2248726669	 2.8884432089	 2.1942517402	 0.122664
H	 1.0802830991	 2.5575010123	 0.6687114782	 0.159774
H	 0.1995912063	 4.087828101	 0.8922806383	 0.13176
H	-2.0034281098	 2.723533139	 0.9682547563	 0.09905
H	-2.5221169725	-0.2620325108	-0.9995788417	 0.097804
H	-3.8508111725	-0.8822172084	 1.0409116372	 0.12364
H	-2.849330062	 0.1924301488	 2.0282497738	 0.115971
H	-3.9072255833	 0.8633962086	 0.7752050893	 0.126863
H	-0.9172975269	-1.4331688111	 1.3457969469	 0.131089
H	-0.8945305861	-1.9889776066	-0.3423643204	 0.135754
70.9478	130.6069	152.5718	190.7454	215.2689	237.6726	284.6658	361.1935	394.1995	477.2894	494.7043	550.1057	629.2284	663.4414	787.4357	842.9483	852.3112	901.4735	936.1143	1016.6206	1027.2979	1041.8168	1071.1269	1106.2021	1131.1627	1143.3397	1165.8465	1191.8888	1226.2697	1256.8003	1340.6728	1361.956	1408.9818	1411.9166	1436.6986	1459.3277	1489.9994	1493.7772	1500.2529	1503.3612	1882.0432	3029.378	3039.3524	3055.3005	3058.1072	3095.1781	3098.7096	3101.4135	3102.9088	3120.2981	3140.6202
CC1OC11C(C)CC1=O	C[C@H]1O[C@@]21[C@H](C)CC2=O	
InChI=1S/C7H10O2/c1-4-3-6(8)7(4)5(2)9-7/h4-5H,3H2,1-2H3	InChI=1S/C7H10O2/c1-4-3-6(8)7(4)5(2)9-7/h4-5H,3H2,1-2H3/t4-,5-,7-/m1/s1
