19
gdb 1209	3.7067048	0.6150817	0.5976314	2.9274	82.25	-0.24793	-0.02843	0.2195	1910.8668	0.151697	-422.541589	-422.530412	-422.529467	-422.580428	38.397	
C	-0.0004510914	 0.048213118	 0.1261243997	-0.403663
C	 1.5348669655	-0.077930017	 0.0931871029	 0.150349
C	 2.0868771962	-0.4686769156	 1.4776817669	-0.404015
O	 2.1188156199	 1.1602081446	-0.333701323	-0.453154
C	 1.928554444	-1.0831600451	-0.9019546695	 0.19517
C	 2.2166392856	-1.9312210593	-1.705907738	-0.026639
C	 2.6233610658	-2.966200692	-2.6448318563	-0.415625
C	 3.8239433954	-3.770122697	-2.1396883135	 0.172419
O	 3.9472006682	-4.9536940078	-2.2983075691	-0.231188
H	-0.2956257346	 0.797568505	 0.869989804	 0.104716
H	-0.3703492325	 0.3606084897	-0.8527359486	 0.13462
H	-0.4697586295	-0.90207074	 0.3948973615	 0.126388
H	 1.6960514585	-1.4373838361	 1.8008520577	 0.126542
H	 3.1772073177	-0.5211539524	 1.4435959167	 0.133078
H	 1.794164588	 0.2829887476	 2.2201595189	 0.104798
H	 1.8635978639	 1.828588576	 0.3123718009	 0.2782
H	 1.8135747504	-3.6663953089	-2.8745359732	 0.153701
H	 2.92921335	-2.5075479336	-3.59794393	 0.159
H	 4.5923621588	-3.1601086762	-1.6171662881	 0.095303
8.8843	47.1959	86.6335	117.439	173.0124	240.2344	240.5406	276.4819	301.2919	338.7916	360.647	387.4922	451.0024	494.9888	562.5175	571.4733	659.491	750.3028	862.3349	918.4885	960.3616	1017.8363	1034.0782	1041.2022	1077.7752	1171.4904	1181.5322	1194.4952	1211.1677	1287.6542	1389.6369	1391.2379	1411.5274	1414.8962	1438.8036	1476.5034	1479.7362	1492.4832	1509.2126	1841.2062	2370.4732	2902.7177	3002.6686	3029.9293	3035.0605	3079.6791	3103.3559	3109.8019	3134.1664	3136.5134	3797.4011
CC(C)(O)C#CCC=O	CC(C)(O)C#CCC=O	
InChI=1S/C7H10O2/c1-7(2,9)5-3-4-6-8/h6,9H,4H2,1-2H3	InChI=1S/C7H10O2/c1-7(2,9)5-3-4-6-8/h6,9H,4H2,1-2H3
