19
gdb 3524	2.3904126	1.5183256	1.1322791	4.0686	77.32	-0.23128	-0.02134	0.20994000000000002	1134.4602	0.156851	-422.589241	-422.580228	-422.579284	-422.623075	33.45	
C	-1.5138957926	-1.730224446	-2.3693302852	-0.385908
C	-2.0312954413	-1.2499156319	-0.998484042	-0.042903
C	-0.9168241042	-1.2889652955	 0.0777221894	-0.324498
C	-0.0201151763	-0.0747441327	-0.0671958347	 0.393739
O	 1.1604841923	-0.1330915684	-0.3136004722	-0.317192
C	-0.7559407063	 1.2639440834	 0.0965174065	 0.008101
O	-0.95177713	 1.539577856	 1.4916435476	-0.434072
C	-2.062764252	 1.249819888	-0.6495106254	-0.129749
C	-2.6308228007	 0.1312990257	-1.106751216	-0.053633
H	-1.1837092961	-2.7721297828	-2.3127894373	 0.12172
H	-2.2974187149	-1.6631013421	-3.13043048	 0.117771
H	-0.6669187394	-1.1222406037	-2.7021408678	 0.137071
H	-2.8277568618	-1.9397397659	-0.6898443479	 0.087025
H	-1.3774573352	-1.2574363911	 1.0728241944	 0.111706
H	-0.316935246	-2.1986766846	 0.0042806165	 0.118132
H	-0.0897631903	 2.0502153446	-0.2713847867	 0.106785
H	-1.7992532073	 1.1569782474	 1.7430555627	 0.282418
H	-2.558187823	 2.2101001345	-0.771269636	 0.103863
H	-3.5845922547	 0.195593905	-1.627287726	 0.099623
63.4542	96.0349	180.4387	223.2105	244.1134	277.7711	352.9305	368.4994	469.8105	471.6121	480.0301	599.9479	654.1935	723.6671	783.6309	813.4592	880.8072	927.5618	955.5722	984.5037	1012.2416	1032.6134	1040.8245	1083.9133	1120.4806	1152.7666	1215.1151	1246.0766	1255.5092	1283.8045	1329.351	1335.0908	1373.6407	1395.1094	1410.6164	1421.79	1471.4713	1496.3105	1499.0676	1707.0337	1827.4878	3011.9472	3035.9381	3038.7705	3071.6433	3107.7389	3112.6432	3113.4259	3140.3915	3165.2275	3810.3349
CC1CC(=O)C(O)C=C1	C[C@H]1CC(=O)[C@H](O)C=C1	
InChI=1S/C7H10O2/c1-5-2-3-6(8)7(9)4-5/h2-3,5-6,8H,4H2,1H3	InChI=1S/C7H10O2/c1-5-2-3-6(8)7(9)4-5/h2-3,5-6,8H,4H2,1H3/t5-,6-/m1/s1
