19
gdb 4106	3.0365388	1.263814	1.0812992	3.4354	74.55	-0.24018	-0.02375	0.21643	1154.9953	0.157528	-422.582555	-422.574416	-422.573472	-422.615446	31.454	
O	-2.7503184159	-1.6698770627	-3.207291628	-0.432494
C	-2.0410049156	-0.9997042219	-2.1865858066	 0.136797
C	-2.9180317075	-0.1789852558	-1.2151087632	-0.245144
C	-2.0326765307	 0.0801347643	 0.0108570328	-0.02905
C	-0.9368044816	 1.181370831	-0.1476371747	-0.362114
C	 0.1200150469	 0.0682784314	-0.240082481	 0.408593
O	 1.3022761009	 0.0581343074	-0.4263091376	-0.298436
C	-0.9245897448	-1.0445436623	-0.0264941859	-0.150043
C	-1.2127038766	-1.914602159	-1.2590982147	-0.249738
H	-3.3728411197	-2.2738408381	-2.7870539667	 0.275261
H	-1.3623264625	-0.3267360908	-2.7248882231	 0.101228
H	-3.3099726974	 0.7334120997	-1.6735646857	 0.10755
H	-3.781437927	-0.7943325876	-0.9262989079	 0.087316
H	-2.6027298951	 0.1632223126	 0.9362404589	 0.076973
H	-1.0058853384	 1.8250738877	-1.0308132161	 0.12939
H	-0.8001283185	 1.8228119288	 0.7287842219	 0.131806
H	-0.752913464	-1.6237767349	 0.8841675845	 0.096344
H	-0.3056885133	-2.2933645212	-1.7366665781	 0.125236
H	-1.8239943593	-2.7800566487	-0.9700900087	 0.090525
63.1508	128.5175	206.7897	284.5546	328.3949	370.6391	427.7803	457.6442	506.0769	565.3661	574.4704	711.3542	754.5969	829.7626	853.1647	858.9757	877.477	951.2942	977.8548	999.1128	1046.4278	1070.5905	1099.4504	1106.2137	1120.0675	1142.3324	1152.8828	1198.1239	1222.165	1248.3317	1260.7892	1291.0836	1306.9873	1328.7824	1348.4108	1362.4202	1433.6455	1443.7151	1478.1478	1492.1475	1887.1581	3013.0325	3019.3137	3044.1163	3049.4502	3081.8791	3089.6993	3096.8934	3104.6303	3109.1808	3796.3573
OC1CC2CC(=O)C2C1	O[C@H]1C[C@@H]2CC(=O)[C@@H]2C1	
InChI=1S/C7H10O2/c8-5-1-4-2-7(9)6(4)3-5/h4-6,8H,1-3H2	InChI=1S/C7H10O2/c8-5-1-4-2-7(9)6(4)3-5/h4-6,8H,1-3H2/t4-,5+,6-/m1/s1
