19
gdb 4460	2.537661	1.9171744	1.5210358	1.0409	73.4	-0.23328	0.05275	0.28603	949.9047	0.157688	-422.505559	-422.497845	-422.4969	-422.537321	30.399	
C	 0.0797106065	-0.3752083937	-0.0403496127	-0.394112
C	 1.2695601732	 0.0616840141	 0.8092332389	 0.040107
O	 2.5112546936	-0.5448851476	 0.3829544247	-0.280657
C	 2.7334969437	-1.7763917912	 1.1005656606	-0.155184
C	 2.0649263969	-1.581723664	 2.4379696046	 0.113391
C	 2.3104023778	-0.2885350927	 3.1948288969	-0.374705
C	 1.1595256667	-0.3813252678	 2.2531877225	 0.367826
O	 0.0130532342	-1.0250069495	 2.8293225487	-0.325042
C	 0.78873076	-2.2526206246	 2.9608966775	-0.138544
H	-0.8333367019	 0.1289464794	 0.2894593107	 0.128778
H	 0.2656265109	-0.1225912726	-1.0871760358	 0.12179
H	-0.0903155414	-1.4529490978	 0.0337351661	 0.119167
H	 1.4318399916	 1.1393573692	 0.6972542593	 0.087995
H	 2.2883880901	-2.6356978823	 0.5759781752	 0.095482
H	 3.818202119	-1.9173027653	 1.1294830786	 0.11309
H	 2.1096156797	-0.2537508775	 4.2604550052	 0.123161
H	 3.1607643521	 0.2932678723	 2.8562452991	 0.135938
H	 0.7958086965	-2.6196161118	 3.9932346787	 0.111093
H	 0.4036697609	-3.0316471664	 2.2925334311	 0.110425
130.7672	182.3869	203.652	278.9217	333.5633	373.829	431.6695	464.1573	556.4437	650.4029	656.1678	772.56	798.5412	845.7061	864.6937	927.5326	932.9126	964.4383	975.3667	994.9129	1003.1654	1051.3465	1068.7434	1074.4992	1116.9079	1154.2948	1170.1685	1223.2249	1251.3495	1282.5642	1306.7288	1343.915	1356.2085	1375.0932	1389.2919	1405.7697	1465.0922	1482.2607	1490.1686	1509.4116	1519.1623	2988.17	3023.0871	3046.3005	3047.3216	3074.1389	3076.6903	3120.2749	3128.2937	3132.1049	3228.0713
CC1OCC23CC12OC3	C[C@@H]1OC[C@@]23C[C@@]12OC3	
InChI=1S/C7H10O2/c1-5-7-2-6(7,3-8-5)4-9-7/h5H,2-4H2,1H3	InChI=1S/C7H10O2/c1-5-7-2-6(7,3-8-5)4-9-7/h5H,2-4H2,1H3/t5-,6+,7+/m0/s1
