19
gdb 5423	1.9007467	1.3817383	0.8839483	1.7534	78.74	-0.24183	0.04531	0.28714	1331.7425	0.154165	-422.502271	-422.492348	-422.491404	-422.537262	35.934	
C	 1.5138473279	 0.3416893324	-0.0059965959	-0.246399
O	 0.1264098858	 0.0648298314	 0.0164067793	-0.239012
C	-0.5115591307	 0.4766248121	 1.1806026251	 0.10488
C	-2.0358331744	 0.2500376836	 1.2184872658	 0.112912
O	-2.9149224498	 1.252239221	 0.790911132	-0.429939
C	-1.9144621392	-0.1087907922	 2.7237990522	-0.294557
C	-0.3989970254	-0.4046123353	 2.483007695	-0.209469
C	 0.5596857192	-0.0403529441	 3.501313086	 0.300143
C	 1.351643961	 0.2959869436	 4.34275773	-0.445073
H	 2.0488994213	-0.18391599	 0.7967326871	 0.122727
H	 1.893986764	 0.0011916713	-0.9716677406	 0.129707
H	 1.7094759388	 1.4198009418	 0.0964480488	 0.109553
H	-0.2656558159	 1.5227908037	 1.4305480132	 0.065715
H	-2.2736823583	-0.637962236	 0.6250620082	 0.108294
H	-2.7307448176	 2.0507773151	 1.2968387546	 0.278904
H	-2.0409467747	 0.774291979	 3.3572474606	 0.107792
H	-2.5310101731	-0.919627591	 3.1125728012	 0.117951
H	-0.2660098919	-1.4473588335	 2.176087349	 0.11187
H	 2.051898013	 0.5812346571	 5.0880644484	 0.194002
77.5068	85.6869	124.0396	165.5484	217.3598	234.0196	267.7186	329.0727	375.7601	442.7051	493.6002	498.8593	540.34	580.3375	614.2883	625.9688	823.1981	847.2323	934.745	1018.5856	1039.9241	1053.8376	1063.8012	1089.2315	1154.3912	1160.4121	1182.5607	1193.7206	1209.5686	1222.1525	1249.3147	1271.0474	1330.9118	1347.1557	1395.8111	1445.4812	1482.6789	1487.6766	1493.465	1507.9984	2230.0415	2961.8551	2987.7496	3043.4454	3055.6763	3066.5352	3080.8221	3121.4896	3135.1929	3504.514	3808.1832
COC1C(O)CC1C#C	CO[C@H]1[C@H](O)C[C@@H]1C#C	
InChI=1S/C7H10O2/c1-3-5-4-6(8)7(5)9-2/h1,5-8H,4H2,2H3	InChI=1S/C7H10O2/c1-3-5-4-6(8)7(5)9-2/h1,5-8H,4H2,2H3/t5-,6+,7+/m0/s1
