19
gdb 599	2.7195965	1.6395402	1.0816857	1.903	77.03	-0.24259	0.01436	0.25695	1105.445	0.158907	-422.526033	-422.51844	-422.517496	-422.558048	29.501	
C	-0.1659064731	 1.3238492888	 0.1358474274	-0.141419
O	 0.1224803985	-0.0968791007	 0.24158437	-0.309351
C	 1.2940810005	 0.0842832323	-0.5928151572	 0.162975
C	 2.5610192199	-0.6683155716	-0.2833032344	-0.317292
C	 3.7129859263	-0.0283929108	-1.027578606	-0.072803
C	 3.8478461909	 1.2051488233	-1.5320475469	-0.052646
C	 3.0158049851	 2.4780187529	-1.5350586501	-0.133349
O	 1.6153519516	 2.4285731576	-1.3176305912	-0.245011
C	 1.2951198198	 1.5733365893	-0.2651173042	 0.090827
H	-0.8745862887	 1.5392772078	-0.6753190239	 0.108304
H	-0.530014133	 1.7437511497	 1.0771886701	 0.110137
H	 1.0264855591	-0.05236471	-1.6519228367	 0.077694
H	 2.7558073099	-0.6414114385	 0.7985604393	 0.119314
H	 2.4862229766	-1.7273589821	-0.5568717911	 0.112231
H	 4.5713904404	-0.6844509106	-1.1587657461	 0.092125
H	 4.8110187967	 1.4119450265	-2.0004418482	 0.09369
H	 3.4779550488	 3.1525177128	-0.7889346656	 0.107938
H	 3.1394918836	 2.9664326577	-2.5075414177	 0.121641
H	 1.9077872569	 1.7851979656	 0.6252796325	 0.074996
115.7569	150.5199	229.4453	326.4138	335.7566	362.4738	417.9416	486.4616	526.2639	663.2103	708.3094	788.4364	803.9672	875.7893	932.1649	953.3927	975.2281	1000.5272	1018.3875	1025.3675	1072.8748	1094.6424	1110.1633	1140.8103	1169.951	1198.7727	1204.0797	1254.4907	1280.2427	1297.4802	1306.4049	1325.615	1358.4047	1399.5761	1405.9136	1431.4195	1440.0817	1483.7541	1485.6453	1517.3243	1712.6411	2925.2885	2978.4481	2989.9055	3012.1546	3017.348	3057.1199	3064.3497	3095.8497	3113.1534	3146.0374
C1OC2CC=CCOC12	C1O[C@@H]2CC=CCO[C@@H]12	
InChI=1S/C7H10O2/c1-2-4-8-7-5-9-6(7)3-1/h1-2,6-7H,3-5H2	InChI=1S/C7H10O2/c1-2-4-8-7-5-9-6(7)3-1/h1-2,6-7H,3-5H2/t6-,7+/m1/s1
