19
gdb 1438	2.3727889	1.4679675	1.3313241	4.17	77.04	-0.24848	-0.03708	0.2114	1085.9072	0.15391	-422.4983	-422.489212	-422.488268	-422.531937	33.848	
C	-0.0693792367	-0.123996063	 0.2063121862	-0.481194
C	 1.4472231215	-0.0335379285	 0.063524151	 0.2924
C	 2.138732877	-0.6669362851	 1.2672011306	-0.460074
C	 2.130476011	-0.2841668004	-1.3233344096	 0.009509
C	 1.5433286435	 1.0242452529	-1.8975457742	-0.28876
C	 2.1363971614	 1.2959584902	-0.4843260932	 0.293123
O	 3.3082699329	 0.4975081685	-0.869277336	-0.325089
C	 2.3203769874	 2.5926822695	 0.2252044443	 0.035506
O	 3.3752227847	 3.0104442035	 0.6262403243	-0.238913
H	-0.3916906493	 0.359513742	 1.1348983325	 0.127116
H	-0.631074909	 0.3240121564	-0.6143992877	 0.120152
H	-0.369147064	-1.1758556047	 0.2753061499	 0.127821
H	 1.8685195257	-1.7265667867	 1.341081963	 0.114624
H	 3.2217128982	-0.5843560219	 1.1869720769	 0.152534
H	 1.81501703	-0.1854986411	 2.1963658858	 0.117378
H	 2.333942768	-1.22885789	-1.8297300587	 0.097553
H	 2.1342880104	 1.4601260441	-2.7027867998	 0.122368
H	 0.4713809346	 1.1159998604	-2.0642568299	 0.106029
H	 1.3683276826	 3.1536152238	 0.3727188847	 0.077918
71.983	138.0122	166.8022	196.6271	230.8594	250.2624	349.5779	374.8755	399.2027	485.5058	537.5743	601.7525	674.012	708.8627	726.7695	806.0302	904.7724	931.8897	951.2028	973.2298	977.781	1005.3903	1030.5664	1046.7361	1098.3825	1153.9454	1191.9603	1197.8551	1215.1073	1248.2124	1278.4017	1302.6474	1396.9115	1418.661	1426.0174	1476.8845	1486.4487	1493.2096	1511.7686	1513.2097	1824.8572	2862.6146	3033.5416	3039.8383	3087.5025	3092.6486	3093.3099	3111.1146	3134.3721	3159.1908	3170.9691
CC1(C)C2CC1(O2)C=O	CC1(C)[C@H]2C[C@@]1(O2)C=O	
InChI=1S/C7H10O2/c1-6(2)5-3-7(6,4-8)9-5/h4-5H,3H2,1-2H3	InChI=1S/C7H10O2/c1-6(2)5-3-7(6,4-8)9-5/h4-5H,3H2,1-2H3/t5-,7-/m1/s1
