19
gdb 3467	2.5598968	1.514429	1.3196725	2.3985	76.42	-0.24592	0.00341	0.24933	1068.6078	0.156944	-422.556495	-422.548175	-422.547231	-422.589026	32.145	
C	 1.9267581196	-0.4368710131	-1.23194446	-0.403797
C	 1.4213675228	 0.1236211102	 0.1057438759	-0.050115
C	 1.9109600563	 1.5335117773	 0.3784096876	-0.058828
C	 2.683250749	 1.6322990981	 1.4617266916	-0.190312
C	 2.8649518274	 0.3103543928	 2.1571639505	 0.320784
O	 4.1952069896	-0.0328675044	 2.451122536	-0.473941
C	 1.9003796884	 0.0203115899	 3.3223817798	-0.105522
O	 0.9729587779	-0.6353577472	 2.4330397498	-0.297381
C	 1.9239499055	-0.6370519365	 1.343046638	 0.051658
H	 1.5391121188	-1.4458496224	-1.4054044719	 0.121695
H	 1.6112996906	 0.1946061249	-2.0687823184	 0.117285
H	 3.0210917652	-0.4860592276	-1.2497036802	 0.111982
H	 0.3243117213	 0.0923071205	 0.1151331119	 0.099847
H	 1.6444723276	 2.3642412968	-0.2681351312	 0.099201
H	 3.1385635637	 2.5424796633	 1.8385588222	 0.099638
H	 4.7443901735	 0.2390144526	 1.7078774017	 0.277881
H	 2.3352005306	-0.6731309845	 4.0538008082	 0.105547
H	 1.4499892875	 0.8750438828	 3.8383151488	 0.103204
H	 2.3014781548	-1.6449484036	 1.1344267097	 0.071174
96.4859	185.0529	216.3397	239.3895	313.1529	320.343	326.3557	388.8685	445.4157	566.3334	619.4927	676.2024	734.6204	801.3003	862.2257	865.9335	919.7224	945.0501	981.7893	1007.4873	1023.3718	1033.2854	1039.8553	1096.6434	1105.7527	1118.7911	1149.5791	1180.3633	1202.1535	1256.7034	1297.1659	1304.1175	1309.7399	1351.3035	1380.4372	1390.3422	1411.4518	1495.3592	1499.5837	1512.9651	1671.5623	3015.5952	3029.1011	3031.5668	3041.4269	3074.8599	3099.3343	3104.6863	3170.7585	3196.1862	3805.63
CC1C=CC2(O)COC12	C[C@@H]1C=C[C@@]2(O)CO[C@@H]12	
InChI=1S/C7H10O2/c1-5-2-3-7(8)4-9-6(5)7/h2-3,5-6,8H,4H2,1H3	InChI=1S/C7H10O2/c1-5-2-3-7(8)4-9-6(5)7/h2-3,5-6,8H,4H2,1H3/t5-,6+,7-/m1/s1
