19
gdb 5033	2.6651945	1.6177072	1.2612693	1.8146	75.31	-0.23609	0.00755	0.24364	1038.6958	0.157659	-422.530372	-422.522286	-422.521342	-422.562479	32.284	
O	 1.4041938995	 0.7418492227	 0.077944839	-0.430349
C	 0.0386289755	 0.3827420568	 0.2240537004	-0.195057
C	-0.8423309217	 1.0369384416	-0.816085625	 0.253767
C	-0.5943662037	 0.9074947515	-2.3600121922	-0.281196
C	-1.5085017071	 2.1765602789	-2.4029854632	-0.127712
C	-2.7929971668	 1.617575464	-1.7972591715	-0.09569
C	-2.3602030235	 0.8788429243	-0.7669798252	-0.138754
C	-0.7982629746	 2.6136833176	-1.0611812052	 0.137025
O	 0.4670656668	 3.2320135467	-1.1310527817	-0.451291
H	 1.4356879222	 1.7067023168	 0.0794198922	 0.286875
H	-0.0037783326	-0.7091974067	 0.1320289219	 0.108835
H	-0.3362356421	 0.6356196498	 1.230598285	 0.087085
H	 0.4482890912	 1.0759640231	-2.6516175463	 0.090637
H	-0.9713046901	 0.0069000095	-2.8497422739	 0.101165
H	-1.5682308171	 2.8375788209	-3.267372374	 0.066539
H	-3.8017281464	 1.8350521393	-2.1184937517	 0.105763
H	-2.9206392733	 0.3331888401	-0.0201868779	 0.102842
H	-1.3934500101	 3.2184675668	-0.3734663945	 0.089469
H	 0.9679338339	 2.8448157261	-1.8576317061	 0.290048
117.7081	186.7635	220.1623	259.2976	314.7565	382.2581	403.3136	466.2924	543.6609	571.2338	581.3999	680.1615	696.0661	718.0934	825.3559	851.0396	866.5945	908.7128	928.3005	948.3155	987.0001	1042.1362	1053.3885	1078.6653	1089.775	1095.1011	1126.4625	1164.5681	1205.0875	1212.2019	1239.2567	1258.7745	1262.1085	1290.4693	1344.085	1390.9377	1418.8079	1451.7843	1503.0502	1511.9471	1614.4697	2958.931	3044.1229	3051.5919	3096.105	3113.5703	3120.4902	3214.694	3241.7731	3772.4184	3806.4737
OCC12CC(C=C1)C2O	OC[C@@]12C[C@@H](C=C1)[C@@H]2O	
InChI=1S/C7H10O2/c8-4-7-2-1-5(3-7)6(7)9/h1-2,5-6,8-9H,3-4H2	InChI=1S/C7H10O2/c8-4-7-2-1-5(3-7)6(7)9/h1-2,5-6,8-9H,3-4H2/t5-,6+,7+/m1/s1
