19
gdb 5529	3.5932595	1.3073579	1.2075545	2.4315	74.3	-0.24112	0.08493	0.32605	1103.8075	0.157684	-422.484378	-422.476722	-422.475778	-422.516526	29.971	
C	 1.4720101371	 0.037980542	-0.067116009	-0.24496
O	 0.067765764	 0.0542530146	 0.0607391992	-0.250474
C	-0.3714717083	 0.6571637714	 1.2422415518	 0.1571
C	-0.4046709069	-0.2704316949	 2.4964704897	 0.013189
O	-1.5619786385	-0.9335800547	 1.8787397411	-0.299082
C	-1.8853865629	 0.434289904	 1.4415017298	 0.024933
C	-2.2350729261	 1.1131949327	 2.7800060363	-0.046276
C	-1.2550070609	 2.0550911323	 3.4362925524	-0.311055
C	-1.0766425035	 0.5646127983	 3.6038618062	-0.045037
H	 1.9530618111	-0.5650637815	 0.7171423482	 0.107938
H	 1.701055054	-0.4045488268	-1.0390634598	 0.131587
H	 1.8965836795	 1.0539741522	-0.0296967503	 0.103039
H	 0.0565369261	 1.6619775302	 1.3296912321	 0.060615
H	 0.4019431312	-0.9515883471	 2.7658261257	 0.080064
H	-2.5925327489	 0.4796434241	 0.6143415689	 0.084926
H	-3.2615834062	 1.0724346914	 3.1228754269	 0.100239
H	-0.5635284098	 2.6584654817	 2.8623764268	 0.120356
H	-1.6336452683	 2.5715781135	 4.3139825654	 0.113577
H	-1.2214045028	 0.1092872165	 4.5760980186	 0.09932
87.957	175.9678	178.1802	303.5073	329.2685	380.0563	445.6518	547.7542	607.1316	660.8087	783.2269	804.2168	848.752	859.7778	865.3382	900.9738	916.2137	966.8096	991.0675	1007.5126	1029.1945	1060.1138	1083.9093	1090.8932	1102.0404	1160.278	1181.7274	1184.9531	1191.3878	1218.103	1234.3006	1245.6535	1273.2821	1292.1156	1315.6368	1364.2649	1431.1758	1482.4468	1488.2689	1502.5474	1512.4521	2973.4425	3023.047	3034.5516	3119.9877	3129.0301	3132.6907	3136.9622	3181.2321	3189.5457	3215.5904
COC1C2OC1C1CC21	CO[C@@H]1[C@@H]2O[C@H]1[C@@H]1C[C@H]21	
InChI=1S/C7H10O2/c1-8-7-5-3-2-4(3)6(7)9-5/h3-7H,2H2,1H3	InChI=1S/C7H10O2/c1-8-7-5-3-2-4(3)6(7)9-5/h3-7H,2H2,1H3/t3-,4+,5+,6-,7+
