19
gdb 5339	4.0465387	1.0845588	1.0130681	1.822	77.32	-0.22427	0.00105	0.22532	1243.9058	0.155835	-422.519139	-422.510377	-422.509432	-422.552591	33.014	
C	 4.5813796758	 0.3992854618	-2.3677863782	-0.507792
C	 3.2479460368	 0.3849028119	-1.6758063624	 0.382246
C	 1.931161099	 1.0064307023	-2.2521343262	-0.250714
C	 1.6804920653	 1.0406235134	-0.7209709172	-0.02971
O	 3.1069655336	 1.3286683159	-0.5491464957	-0.322152
C	 1.6244820937	-0.4666073162	-0.3826832471	 0.413701
C	 0.6128800146	-1.1286624511	 0.4799380019	-0.23018
O	-0.6816074916	-0.7577021775	 0.0093498846	-0.42087
C	 2.6954505525	-0.913467788	-1.0406543942	-0.289789
H	 5.3746801465	 0.0930027425	-1.6784350478	 0.131609
H	 4.5781236565	-0.2933363934	-3.2156870307	 0.122447
H	 4.8149324818	 1.4009348328	-2.7380650666	 0.128582
H	 2.0929028649	 2.001284918	-2.6753536764	 0.100131
H	 1.2842668025	 0.3885056227	-2.877811116	 0.100004
H	 1.0059948436	 1.7347292135	-0.2231758892	 0.080639
H	 0.7549189639	-2.2201939946	 0.4605500051	 0.096453
H	 0.7503742266	-0.7998796711	 1.5243143095	 0.100406
H	-1.3268596064	-1.0410609881	 0.6642060884	 0.289412
H	 3.1056454003	-1.9096373147	-1.1311731518	 0.105575
68.3512	117.5793	184.2212	217.3229	264.4243	271.7547	315.1139	425.5737	495.1026	538.3311	616.636	660.8633	673.3752	780.9487	794.6504	830.7347	857.0634	872.9648	926.9108	973.9096	1007.3714	1032.564	1050.0018	1076.519	1106.7979	1125.539	1174.6936	1206.1075	1217.5581	1232.7313	1244.7821	1257.9153	1319.666	1337.844	1415.2059	1449.0312	1478.6697	1486.2778	1493.7453	1509.4505	1699.5177	2952.6447	2994.6349	3039.6364	3060.3007	3108.714	3120.1498	3134.1323	3145.1809	3229.0284	3824.9743
CC12CC(O1)C(CO)=C2	C[C@]12C[C@H](O1)C(=C2)CO	
InChI=1S/C7H10O2/c1-7-2-5(4-8)6(3-7)9-7/h2,6,8H,3-4H2,1H3	InChI=1S/C7H10O2/c1-7-2-5(4-8)6(3-7)9-7/h2,6,8H,3-4H2,1H3/t6-,7-/m0/s1
