19
gdb 1822	2.5623832	1.8618591	1.4194899	2.9452	74.28	-0.24063	0.08444	0.32507	979.6066	0.156846	-422.52484	-422.517047	-422.516103	-422.556637	30.986	
C	 0.0083543081	-0.2141649334	-0.1816493304	-0.515397
C	 1.5021616336	-0.1382449962	-0.0741672582	 0.328261
C	 2.5005859439	-0.2086034585	-1.2604231613	-0.27749
C	 3.3055056526	 0.6276104342	-0.2426986187	 0.070803
C	 3.642490526	-0.3738664878	 0.8833432966	-0.322467
C	 2.2290124689	-0.9714325656	 0.9923894248	 0.466038
C	 1.8608365434	-2.3133050684	 1.4421064649	-0.283212
O	 1.6139796717	-1.1572232515	 2.2581158598	-0.282253
O	 2.0468070042	 1.1981906618	 0.2293770324	-0.327786
H	-0.4449971749	-0.069616488	 0.803079437	 0.148078
H	-0.366560989	 0.55292017	-0.8634502425	 0.129801
H	-0.2990032261	-1.1937718311	-0.5619860164	 0.121329
H	 2.8835634095	-1.18189863	-1.5805823983	 0.093952
H	 2.1586955699	 0.3883805555	-2.1068679887	 0.1114
H	 4.0509864839	 1.3683288169	-0.5291688687	 0.083083
H	 4.4125122275	-1.1018772864	 0.6134542115	 0.102769
H	 3.928784129	 0.1336479964	 1.8069336439	 0.126667
H	 0.9705040752	-2.8033934017	 1.0495160976	 0.111824
H	 2.6323596427	-2.9882481761	 1.8110711047	 0.114604
127.6181	188.8699	229.2222	264.6703	330.9677	395.8997	411.3098	462.2012	536.8996	603.2883	636.8938	755.3353	825.7118	834.0055	848.7123	866.7402	896.9484	928.0284	945.2347	983.745	1004.3237	1023.957	1074.0601	1114.0237	1121.9135	1143.4423	1152.9658	1172.0406	1201.1738	1218.6538	1268.7577	1288.7804	1299.8161	1347.7457	1414.2612	1428.8358	1471.9047	1482.7666	1489.0417	1495.0886	1537.3662	3044.4877	3059.1154	3065.1963	3078.5267	3114.3339	3122.2141	3129.0938	3129.8154	3139.1426	3162.5081
CC12CC(CC11CO1)O2	C[C@]12C[C@H](C[C@@]31CO3)O2	
InChI=1S/C7H10O2/c1-6-2-5(9-6)3-7(6)4-8-7/h5H,2-4H2,1H3	InChI=1S/C7H10O2/c1-6-2-5(9-6)3-7(6)4-8-7/h5H,2-4H2,1H3/t5-,6+,7+/m1/s1
