19
gdb 2318	2.6202811	1.9632216	1.6627812	0.9856	74.27	-0.23345	0.05352	0.28697	911.6316	0.157661	-422.477138	-422.469825	-422.46888	-422.508291	29.942	
C	 0.0166721985	-0.3501916271	 0.2641584852	-0.474244
C	 1.4426942445	 0.0729638737	 0.0133731268	 0.436475
O	 1.7176385536	 1.3110107545	 0.7932725083	-0.350221
C	 2.5204605969	 0.5506259576	 1.7603691895	-0.195983
C	 2.7215323946	-0.4723987386	 0.6553744268	 0.369893
C	 3.5112379963	 0.09704398	-0.5731143679	-0.27024
C	 2.2105767963	-0.3413694158	-1.2787543816	-0.187442
C	 2.3257745415	-1.8781812722	-0.9371685881	-0.096052
O	 2.7510792589	-1.8725407082	 0.4760782348	-0.354081
H	-0.165356878	-0.5482440084	 1.3251861327	 0.125125
H	-0.6490013229	 0.4667412638	-0.0358537561	 0.132801
H	-0.2657898609	-1.240201956	-0.3028924997	 0.11788
H	 3.3904680307	 1.1153860171	 2.106691841	 0.114422
H	 1.9112304155	 0.2207863504	 2.6100916445	 0.114295
H	 3.6628164508	 1.172292404	-0.540206435	 0.122838
H	 4.4263152137	-0.4387413733	-0.8327776709	 0.095533
H	 1.9441991154	-0.107395876	-2.3122002713	 0.070873
H	 1.3942174909	-2.4428595159	-1.0276162526	 0.112362
H	 3.0995931339	-2.3565154297	-1.5446357262	 0.115765
154.9011	202.3138	284.0984	330.1463	368.7499	417.7374	490.7913	516.7	554.7722	652.6493	714.1865	744.8117	823.0634	849.5793	856.1852	874.2432	905.2614	924.2711	958.2721	977.3659	1010.8393	1072.3457	1086.9915	1100.3125	1116.6486	1141.9757	1164.5857	1178.6533	1203.293	1233.8208	1243.9199	1283.2936	1304.1582	1330.9787	1361.3339	1413.7491	1479.7037	1483.9751	1490.4207	1511.5611	1521.2197	3030.3834	3038.3647	3054.208	3081.3426	3091.2321	3097.5878	3099.0272	3103.5231	3122.5622	3178.6031
CC12OCC11CC2CO1	C[C@@]12OC[C@@]31C[C@H]2CO3	
InChI=1S/C7H10O2/c1-6-5-2-7(6,4-9-6)8-3-5/h5H,2-4H2,1H3	InChI=1S/C7H10O2/c1-6-5-2-7(6,4-9-6)8-3-5/h5H,2-4H2,1H3/t5-,6-,7+/m0/s1
