19
gdb 3157	2.6253139	1.6267163	1.3174075	1.4056	73.89	-0.24521	0.07756	0.32277	1037.1866	0.157053	-422.541917	-422.533844	-422.5329	-422.573976	31.981	
C	 2.2839741967	 1.5487514441	 0.0414696743	-0.404079
C	 1.6965320697	 0.1627927877	-0.2444836422	-0.026051
C	 2.4606803187	-0.5803017727	-1.34517996	 0.049553
O	 3.8506090851	-0.7852813603	-1.0546288478	-0.267687
C	 2.9362603348	-1.8850134732	-0.8732096678	-0.079422
C	 2.5433272203	-2.0516788743	 0.5649272333	 0.417956
O	 3.4074596691	-2.7225752827	 1.4244061536	-0.470934
C	 1.078563469	-2.1366082727	 0.8464701683	-0.344127
C	 1.7829482013	-0.7927401409	 0.949356993	-0.116769
H	 1.7483022084	 2.0390642626	 0.8602253384	 0.114483
H	 3.3385574861	 1.4628821591	 0.3181027833	 0.132292
H	 2.2166784062	 2.1959561237	-0.8391560391	 0.11292
H	 0.6532250936	 0.2769255116	-0.5694213279	 0.075348
H	 2.2377820267	-0.3886618595	-2.3922878611	 0.093341
H	 3.1022681583	-2.7424581961	-1.521082496	 0.099887
H	 4.2454774544	-2.2444786027	 1.4157349599	 0.28893
H	 0.384606769	-2.31220596	 0.0293126622	 0.110225
H	 0.8105742709	-2.6122853496	 1.7832890494	 0.125383
H	 1.9146951217	-0.3798474941	 1.943333446	 0.08875
129.0819	189.7307	232.7058	244.741	316.9695	356.3084	411.5099	424.3557	477.7074	544.455	596.9374	682.8368	770.9758	806.9495	827.4884	871.2983	923.0166	930.0911	950.1173	956.979	1008.9222	1033.0488	1051.6509	1061.4053	1082.0048	1106.6595	1135.5773	1165.5478	1238.3664	1252.0988	1274.2987	1285.6565	1315.1751	1346.6161	1371.6126	1403.8051	1413.1628	1433.4679	1484.8998	1494.6615	1502.514	3009.4789	3036.833	3102.7891	3118.6364	3122.9305	3137.1452	3150.0859	3173.9967	3217.973	3784.3282
CC1C2OC2C2(O)CC12	C[C@H]1[C@H]2O[C@H]2[C@]2(O)C[C@H]12	
InChI=1S/C7H10O2/c1-3-4-2-7(4,8)6-5(3)9-6/h3-6,8H,2H2,1H3	InChI=1S/C7H10O2/c1-3-4-2-7(4,8)6-5(3)9-6/h3-6,8H,2H2,1H3/t3-,4-,5-,6-,7+/m1/s1
