19
gdb 5067	2.7274927	1.2471861	1.0390585	3.0205	76.31	-0.23859	-0.01255	0.22604	1204.017	0.155657	-422.549621	-422.540373	-422.539428	-422.583705	33.95	
C	-1.0014396802	-1.9916400982	 1.2884892057	-0.423538
C	-0.8545796751	-1.0384897583	 0.1096025382	-0.162296
C	 0.2265600743	 0.0793985856	 0.1013593939	 0.418374
O	 1.4245288566	 0.0542741398	 0.1262904961	-0.321479
C	-0.7882356043	 1.160221452	-0.1415187102	-0.246453
C	-1.8506026355	 1.0790512413	 0.9501016439	-0.341708
C	-1.8962064885	 0.0737606834	-0.1527576815	 0.322182
C	-3.0499136956	-0.0645058233	-1.1017178078	-0.178864
O	-4.0254302731	-0.9841203427	-0.6271397215	-0.408382
H	-0.0918486613	-2.5879999942	 1.4077740035	 0.13559
H	-1.1737214552	-1.4590375509	 2.2287799816	 0.115258
H	-1.8413672879	-2.6741531137	 1.1273536877	 0.131375
H	-0.7009217754	-1.6146870172	-0.8129227891	 0.105746
H	-0.6687047016	 2.0520027075	-0.7448062927	 0.112238
H	-1.5726005172	 0.8029664385	 1.9625368318	 0.127439
H	-2.5828970917	 1.8801718525	 0.8991859095	 0.123651
H	-3.490221023	 0.9249655314	-1.3046244155	 0.089974
H	-2.7085411482	-0.4733249463	-2.059005989	 0.116597
H	-4.3433787071	-0.6571412972	 0.2211587054	 0.284296
78.2699	95.5806	163.7779	188.5712	232.4416	243.126	302.8432	372.0941	387.7442	481.3396	485.6376	600.5211	692.8551	718.2104	772.7691	841.5334	882.2908	920.3226	962.4816	996.538	998.8496	1053.7431	1062.1861	1084.4372	1096.6156	1111.0428	1129.5736	1188.7938	1194.3232	1232.9109	1293.3363	1335.2223	1373.7451	1398.4439	1408.9238	1427.3658	1488.5243	1496.8749	1499.5501	1507.1844	1882.427	2976.0362	3026.0326	3039.8483	3068.1765	3108.9302	3113.321	3119.6752	3191.9453	3201.2954	3809.7445
CC1C(=O)C2CC12CO	C[C@@H]1C(=O)[C@@H]2C[C@]12CO	
InChI=1S/C7H10O2/c1-4-6(9)5-2-7(4,5)3-8/h4-5,8H,2-3H2,1H3	InChI=1S/C7H10O2/c1-4-6(9)5-2-7(4,5)3-8/h4-5,8H,2-3H2,1H3/t4-,5+,7+/m1/s1
