19
gdb 4186	2.4975291	1.6580579	1.1822972	1.9519	75.7	-0.23316	-0.0196	0.21356	1098.0384	0.155604	-422.570889	-422.561942	-422.560998	-422.604362	33.243	
C	-0.6227185591	 2.2049541971	-1.1064808669	-0.392523
C	-0.9288080456	 1.1762772506	-0.0283460193	 0.011582
O	-2.2802856597	 0.7254475902	-0.1323775227	-0.273892
C	-2.3250456967	-0.6739800614	 0.0015602302	 0.070097
C	-1.7881830569	-1.2615054636	 1.2618926209	-0.360383
C	-0.9364895721	-1.2759960605	-0.0223607921	 0.178171
C	-0.511556803	-2.5691218723	-0.6683174859	-0.479475
C	-0.0479611537	-0.0828991201	-0.1470826563	 0.329544
O	 1.1363741909	-0.0805562809	-0.3782655136	-0.333699
H	-0.8152237882	 1.7865122295	-2.0982654479	 0.12543
H	-1.2441268719	 3.0942697546	-0.9761735248	 0.126103
H	 0.4312378333	 2.4884924363	-1.0448487453	 0.139317
H	-0.7603485648	 1.6224910244	 0.9647825195	 0.104771
H	-3.1686463504	-1.1144364135	-0.5174930993	 0.112868
H	-1.5158991086	-0.601387757	 2.0783123043	 0.128426
H	-2.1601498782	-2.2334347944	 1.5684387869	 0.126049
H	 0.4226098223	-2.9270874112	-0.2245614097	 0.14064
H	-1.2719048205	-3.3445482829	-0.5379145436	 0.116181
H	-0.3381585369	-2.4369324348	-1.7408863346	 0.130794
75.6573	139.0898	176.0081	207.5539	231.0637	263.7588	292.7801	380.1212	458.6423	477.3558	549.4644	623.7029	675.804	756.174	817.3704	843.1791	878.3502	903.2751	962.8506	990.5705	1035.8495	1046.3175	1063.4375	1100.2721	1108.1863	1119.7541	1145.5378	1163.333	1280.0931	1293.8726	1330.1474	1353.2471	1396.5507	1404.2093	1418.8884	1480.8149	1482.4611	1484.7979	1496.6065	1496.8166	1830.9477	2978.3719	3038.4461	3049.0278	3106.2407	3112.2778	3126.9234	3131.2818	3133.8607	3181.7897	3221.2445
CC1OC2CC2(C)C1=O	C[C@H]1O[C@@H]2C[C@]2(C)C1=O	
InChI=1S/C7H10O2/c1-4-6(8)7(2)3-5(7)9-4/h4-5H,3H2,1-2H3	InChI=1S/C7H10O2/c1-4-6(8)7(2)3-5(7)9-4/h4-5H,3H2,1-2H3/t4-,5-,7+/m1/s1
