19
gdb 3328	2.2047766	1.9675596	1.5858511	1.5334	74.39	-0.23923	0.00313	0.24236	955.5925	0.157406	-422.561246	-422.55323	-422.552286	-422.593001	31.996	
C	 0.7198257846	 0.9230447025	-0.2414986589	-0.435399
C	 0.8793527479	-0.5702352917	 0.0084096515	 0.008742
C	 1.6061869923	-1.4339501271	-1.0421049147	 0.040362
O	 1.5527011635	-2.7575105363	-0.4186635573	-0.27668
C	 1.7474577276	-2.5344761782	 0.9784710571	-0.123263
C	 1.9171984842	-0.9815501755	 1.090144787	 0.335076
O	 1.6880280495	-0.4211729621	 2.3524878043	-0.501833
C	 3.2280089051	-0.6797582933	 0.3764396843	-0.160893
C	 3.0427198498	-0.951511215	-0.9194228245	-0.076411
H	 0.3452521839	 1.4128939953	 0.6623194244	 0.131194
H	 1.6658150856	 1.3954723578	-0.5157666855	 0.120856
H	-0.0004995478	 1.1054952531	-1.0457237657	 0.11101
H	-0.0975280602	-1.0130451217	 0.2312086999	 0.081948
H	 1.1767757648	-1.5209526065	-2.0384707635	 0.074844
H	 0.8656222741	-2.8585419714	 1.5453520333	 0.102544
H	 2.6280028871	-3.0850471657	 1.3341553508	 0.085818
H	 2.3996701779	-0.6866295803	 2.9440766237	 0.281826
H	 4.1499270859	-0.4156038688	 0.8818827544	 0.095534
H	 3.7808494141	-0.9649025052	-1.7107613606	 0.104726
189.7936	206.0831	219.6761	242.4223	291.5222	357.3503	385.6915	418.7254	498.6937	554.5928	632.1025	693.4219	739.3762	767.787	774.3852	874.1711	878.3785	928.4132	953.2174	974.7343	990.6582	1032.4708	1048.3041	1069.5738	1095.5339	1130.1846	1154.6465	1188.7943	1220.5323	1259.0455	1275.9181	1288.7786	1331.1523	1357.2675	1369.5439	1407.226	1409.7788	1495.885	1504.8403	1520.9543	1634.9898	3007.2193	3041.2817	3049.6874	3055.7811	3105.0792	3126.8988	3138.8005	3190.0743	3222.1367	3813.1829
CC1C2OCC1(O)C=C2	C[C@H]1[C@@H]2OC[C@@]1(O)C=C2	
InChI=1S/C7H10O2/c1-5-6-2-3-7(5,8)4-9-6/h2-3,5-6,8H,4H2,1H3	InChI=1S/C7H10O2/c1-5-6-2-3-7(5,8)4-9-6/h2-3,5-6,8H,4H2,1H3/t5-,6+,7-/m0/s1
