19
gdb 4136	2.5302205	1.6727685	1.2445115	2.4668	75.52	-0.24709	-0.03477	0.21232	1047.4668	0.156966	-422.552154	-422.544013	-422.543069	-422.584734	31.244	
C	 0.0105037752	 0.0326960617	 0.0581499801	-0.425414
C	 1.5245309262	 0.1400539154	 0.0860942353	 0.122285
O	 2.1234923834	-0.5008843029	-1.076849774	-0.298586
C	 3.0661547082	-1.3992320944	-0.4831525645	 0.109899
C	 2.2628796971	-2.0836345945	 0.6495693421	-0.285602
C	 2.2790546197	-0.611845729	 1.2018894788	 0.18188
C	 3.7421228185	-0.5501023845	 0.6198940212	-0.280346
C	 2.0179012446	-0.2917610594	 2.6342445686	 0.05208
O	 1.2479950814	 0.5512521048	 3.0264819322	-0.250966
H	-0.4118751747	 0.5826685074	 0.9029405417	 0.142461
H	-0.3706545186	 0.4650633411	-0.8715218184	 0.126615
H	-0.3284191617	-1.005798477	 0.1085539539	 0.113897
H	 1.8095339083	 1.1995642035	 0.086888027	 0.086126
H	 3.6075998032	-1.9363006406	-1.2600955071	 0.086196
H	 1.299559833	-2.5266802578	 0.394056086	 0.114242
H	 2.8587458299	-2.7636538444	 1.2606504939	 0.108155
H	 4.1275633382	 0.4321568689	 0.3381031493	 0.113928
H	 4.4632430361	-1.1019580414	 1.2252015936	 0.107977
H	 2.6154035019	-0.8981498969	 3.3540649702	 0.075173
83.4903	172.4437	201.6134	222.6471	280.0315	324.2252	440.8358	486.6971	499.6646	532.1637	628.5819	729.3846	822.1078	834.3474	854.122	855.842	941.0012	943.5669	974.6702	991.622	1035.5778	1046.9538	1081.3332	1098.2616	1129.0696	1154.4741	1178.893	1183.2881	1231.6514	1239.7203	1269.8834	1319.5236	1352.6061	1393.6457	1409.5706	1427.5345	1471.5195	1494.7122	1494.9441	1510.1762	1811.5324	2862.8925	3024.5579	3047.4942	3070.6249	3082.4528	3117.9411	3132.31	3138.8612	3140.6929	3149.2511
CC1OC2CC1(C2)C=O	C[C@@H]1O[C@@H]2C[C@]1(C2)C=O	
InChI=1S/C7H10O2/c1-5-7(4-8)2-6(3-7)9-5/h4-6H,2-3H2,1H3	InChI=1S/C7H10O2/c1-5-7(4-8)2-6(3-7)9-5/h4-6H,2-3H2,1H3/t5-,6-,7+/m0/s1
