19
gdb 5831	4.3662367	0.8285825	0.7646683	3.796	81.42	-0.2491	-0.05738	0.19172	1486.9895	0.156906	-422.582994	-422.573897	-422.572953	-422.617385	32.79	
O	 0.1896574611	 1.5790917835	-1.2160323678	-0.41024
C	 0.7617140543	 0.9012848387	-0.112170172	-0.063213
C	-0.2542649917	 0.6440569859	 1.0217398264	-0.06265
C	-0.8358350421	 1.9533724791	 1.6243489172	-0.236206
C	-0.0611053267	 2.1918661198	 2.9470057848	-0.313212
C	 0.534742189	 0.8341030186	 3.2452389367	 0.249621
C	 1.1953141206	 0.4917677144	 4.5073433025	 0.068633
O	 1.3339251837	 1.2600074295	 5.4339234168	-0.26834
C	 0.4091349766	-0.0072979983	 2.2080157965	-0.171474
H	-0.4772512317	 1.0048230561	-1.6065592446	 0.283651
H	 1.2274262214	-0.0484851744	-0.4188996789	 0.089412
H	 1.5624384268	 1.5527805445	 0.2540744552	 0.118701
H	-1.0456424894	 0.0031140938	 0.6070485435	 0.072029
H	-0.7566796041	 2.7826073138	 0.9182508882	 0.121131
H	-1.89876411	 1.8140600668	 1.8419452099	 0.104603
H	 0.7342598678	 2.9399246365	 2.8418969871	 0.121572
H	-0.7011122582	 2.546112743	 3.7599874701	 0.123765
H	 1.5729117386	-0.5541705689	 4.5650835627	 0.065373
H	 0.7873450541	-1.0254122124	 2.1934571356	 0.106845
64.135	105.2389	127.2867	173.0686	204.9111	275.1796	319.942	371.0737	419.1567	469.8947	537.6929	695.3999	737.7594	776.9317	850.8687	876.8983	905.6461	944.3026	979.9517	990.4668	1033.6354	1059.4833	1078.1463	1098.6877	1149.9911	1175.1677	1215.1314	1251.8644	1272.9667	1286.0407	1325.8255	1349.0473	1372.2507	1388.4294	1413.5855	1421.845	1485.2947	1499.4313	1507.6675	1679.0925	1784.0723	2874.6371	2980.3984	2997.0318	3038.2669	3061.1002	3075.3698	3086.9066	3116.1494	3178.5963	3812.251
OCC1CCC(C=O)=C1	OC[C@@H]1CCC(=C1)C=O	
InChI=1S/C7H10O2/c8-4-6-1-2-7(3-6)5-9/h3-4,7,9H,1-2,5H2	InChI=1S/C7H10O2/c8-4-6-1-2-7(3-6)5-9/h3-4,7,9H,1-2,5H2/t7-/m1/s1
