19
gdb 3025	2.6945486	1.4946057	1.2000364	3.1393	75.32	-0.23461	-0.01131	0.2233	1082.3205	0.156573	-422.573798	-422.565374	-422.56443	-422.606241	32.825	
C	-3.660892152	 1.2067972332	 0.033450609	-0.495468
C	-2.3226227588	 0.5088825551	 0.0324181182	 0.293408
C	-1.9391041331	-0.573790322	 1.0949707539	-0.315134
C	-0.8939024861	-1.0187346351	 0.0173237998	-0.175685
C	-1.9689893782	-0.5729584054	-1.0487178686	 0.14015
O	-2.9641133981	-1.5030707158	-1.3801748651	-0.44676
C	-0.000925147	 0.2087955936	-0.0072746046	 0.435199
O	 1.197559199	 0.2813074518	-0.044026512	-0.334021
C	-1.034398326	 1.3577903573	 0.0053508332	-0.379912
H	-3.8159263133	 1.7731424033	 0.9582822889	 0.119374
H	-3.739537059	 1.9083483377	-0.804390277	 0.122856
H	-4.4763231008	 0.4828654042	-0.0641324601	 0.117545
H	-1.561679955	-0.2350820249	 2.0639857803	 0.110226
H	-2.7225166707	-1.3168482736	 1.2667088351	 0.095463
H	-0.4135138882	-1.9945870876	-0.0008503761	 0.084942
H	-1.5891801443	-0.2027030434	-2.0057345461	 0.091928
H	-3.2781933104	-1.9408396394	-0.582347052	 0.28562
H	-0.91361962	 1.9976653892	 0.8858358902	 0.125375
H	-0.9339654579	 1.9849766119	-0.8870714469	 0.124891
131.0325	195.2168	212.984	231.7142	240.1783	318.0471	371.3728	412.5245	494.0572	526.9558	563.3351	606.1203	659.7747	761.2917	815.1287	830.2404	855.1811	932.4728	933.6712	962.6534	993.3949	1034.5727	1076.5139	1098.5376	1117.9598	1158.2659	1189.0517	1198.94	1227.6156	1230.9372	1235.8348	1252.2208	1295.836	1339.6268	1413.9813	1443.7844	1462.2737	1489.4722	1494.4956	1515.4399	1868.8034	3028.6703	3046.9902	3052.9066	3069.4657	3092.7102	3094.9226	3099.955	3102.5853	3149.5505	3816.6411
CC12CC(C1O)C(=O)C2	C[C@@]12C[C@@H]([C@H]1O)C(=O)C2	
InChI=1S/C7H10O2/c1-7-2-4(6(7)9)5(8)3-7/h4,6,9H,2-3H2,1H3	InChI=1S/C7H10O2/c1-7-2-4(6(7)9)5(8)3-7/h4,6,9H,2-3H2,1H3/t4-,6-,7+/m1/s1
