19
gdb 1427	3.801943	1.4344436	1.2103715	2.6507	74.58	-0.2336	0.07303	0.30663	1052.5191	0.157384	-422.522413	-422.51476	-422.513816	-422.553886	30.942	
C	-0.015107669	 0.0043953746	 0.4179629363	-0.474193
C	 1.2717122892	-0.6027242274	-0.1206921623	 0.438585
O	 2.0918731699	-1.0336558268	 0.9560088737	-0.486298
C	 1.2231071037	-1.5440746358	-1.3576496644	-0.168968
C	 1.0614301837	-0.2916425525	-2.2883001055	-0.075668
C	 1.8671183005	-0.5818422795	-3.5481437179	-0.109102
O	 3.0174474486	-1.2341718171	-2.9925099509	-0.284709
C	 2.7311077161	-1.2236038409	-1.6086371688	 0.147044
C	 2.0954114231	 0.1420730813	-1.1905552688	-0.135434
H	 0.2180743017	 0.8208919306	 1.1083211686	 0.128405
H	-0.6660796002	 0.3910218702	-0.3687346206	 0.1218
H	-0.5878874058	-0.748729672	 0.9745307856	 0.107184
H	 1.5566919684	-1.58262104	 1.5383828837	 0.275557
H	 0.7211192214	-2.5079221411	-1.4623908498	 0.065068
H	 0.1043412709	 0.2154374576	-2.395223106	 0.071818
H	 1.3509836119	-1.2521984499	-4.2471781994	 0.100825
H	 2.1685558814	 0.3248484415	-4.0881811312	 0.101587
H	 3.5265285116	-1.6900356108	-1.0375526381	 0.105007
H	 2.594355213	 1.107829578	-1.0990087742	 0.071491
208.6599	218.5659	233.0832	271.0752	287.5842	362.725	388.9459	504.5329	535.8874	591.7058	733.9849	767.2685	775.3986	791.6888	899.3402	906.3446	947.3282	972.5272	976.6167	981.4317	983.1776	1043.9718	1052.5978	1093.8299	1113.4138	1139.2714	1148.4668	1153.5331	1180.0359	1186.547	1216.3712	1223.6613	1264.3255	1279.2209	1320.9852	1379.5428	1399.2025	1414.5663	1491.2044	1497.3462	1522.7403	3013.6596	3024.8245	3050.1283	3090.0399	3094.1069	3106.1728	3125.9935	3140.9725	3191.8222	3810.8501
CC1(O)C2C3COC2C13	C[C@@]1(O)[C@H]2[C@@H]3CO[C@H]2[C@H]13	
InChI=1S/C7H10O2/c1-7(8)4-3-2-9-6(4)5(3)7/h3-6,8H,2H2,1H3	InChI=1S/C7H10O2/c1-7(8)4-3-2-9-6(4)5(3)7/h3-6,8H,2H2,1H3/t3-,4-,5+,6+,7+
