19
gdb 581	2.8491405	1.5960243	1.1229468	1.7098	76.3	-0.24104	0.01119	0.25223	1085.2059	0.158922	-422.520867	-422.513327	-422.512383	-422.552698	29.532	
C	 1.2708766684	 0.1136371193	-0.0190475033	-0.13477
O	-0.170060842	 0.0045858927	-0.1474227616	-0.310678
C	-0.3131272824	 1.2715852501	 0.5508471783	 0.141274
C	-1.3309836789	 2.2535753157	 0.0738047194	-0.133881
C	-1.102512706	 3.5620189988	 0.1931703801	-0.041742
C	 0.135698122	 4.2128107045	 0.7923396657	-0.141484
O	 0.8532528665	 3.44860813	 1.7550262435	-0.243465
C	 1.806721032	 2.5151121858	 1.2509141591	-0.122871
C	 1.1365692271	 1.6314484738	 0.2139473462	-0.030615
H	 1.6390269642	-0.4408416072	 0.8573138749	 0.097063
H	 1.7919451501	-0.2296486192	-0.9171085142	 0.110358
H	-0.4413032971	 1.0716463608	 1.6266524379	 0.090795
H	-2.2592780483	 1.8774001327	-0.3469150462	 0.104313
H	-1.8541846139	 4.2714364755	-0.1474630416	 0.093388
H	 0.8096559247	 4.5528555311	-0.0137391098	 0.102638
H	-0.1807508221	 5.117082879	 1.3251343846	 0.119704
H	 2.6823222231	 3.0406756685	 0.8395691829	 0.092692
H	 2.1327391741	 1.9430707471	 2.1258753268	 0.111278
H	 1.1415515585	 2.1253002709	-0.7620743328	 0.096003
118.6079	190.0207	258.8497	283.453	332.9856	372.5703	393.4656	485.4052	550.1188	657.1969	725.8496	766.7075	846.3527	868.0714	942.34	947.3855	977.4061	984.5516	1000.4406	1025.7264	1051.6138	1092.4791	1116.9699	1135.9986	1156.7595	1181.3862	1200.1181	1236.1981	1272.8664	1292.7899	1318.1456	1329.3993	1354.1297	1386.5739	1402.7923	1404.5271	1425.3129	1478.6577	1501.7858	1520.4249	1708.2075	2950.3553	2970.1115	2985.1676	2993.0004	3052.0828	3058.9928	3077.1679	3089.1011	3144.9497	3176.6648
C1OC2C=CCOCC12	C1O[C@@H]2C=CCOC[C@@H]12	
InChI=1S/C7H10O2/c1-2-7-6(5-9-7)4-8-3-1/h1-2,6-7H,3-5H2	InChI=1S/C7H10O2/c1-2-7-6(5-9-7)4-8-3-1/h1-2,6-7H,3-5H2/t6-,7+/m0/s1
