19
gdb 5560	2.2938985	1.4814791	1.019726	2.7237	74.85	-0.24586	-0.02151	0.22435	1206.2895	0.156371	-422.574029	-422.565379	-422.564435	-422.60797	31.909	
C	 1.8994564742	 1.8168135715	-1.1339757792	-0.392583
C	 1.6036617236	 0.4718807983	-0.4635977099	-0.191622
C	 2.0633641736	-0.7435233625	-1.2914755017	-0.125089
C	 3.5613345091	-0.9651371181	-1.3268944353	 0.035158
O	 3.9434735857	-2.0863083474	-2.1339301237	-0.263059
C	 3.9128836609	-2.2604041065	-0.7125868005	 0.035813
C	 2.6672693646	-2.9655164235	-0.2366614125	-0.353993
C	 1.5106353953	-2.0582908041	-0.6944006863	 0.383156
O	 0.341937607	-2.3103424606	-0.5677290561	-0.310472
H	 1.5366665361	 2.6455654953	-0.5184604206	 0.119987
H	 2.9719361627	 1.9702211833	-1.2929363937	 0.118633
H	 1.4074517965	 1.8843947136	-2.1101606121	 0.123602
H	 2.0740499809	 0.4378332272	 0.5279956567	 0.096782
H	 0.5264270561	 0.366992441	-0.2985760235	 0.127208
H	 1.6667786689	-0.6493933804	-2.3099351189	 0.11467
H	 4.2505551816	-0.1250429983	-1.3421613802	 0.101411
H	 4.8752890403	-2.4428526096	-0.2421233052	 0.10166
H	 2.5515272624	-3.9689715418	-0.6566184739	 0.145934
H	 2.6368624605	-3.0613558473	 0.8555985367	 0.132804
51.9663	97.9501	162.0186	181.544	259.0017	304.5914	361.2576	450.1331	487.9051	566.4694	633.0319	701.4065	762.099	791.682	826.5004	856.1941	898.8063	940.7646	978.653	996.0375	1041.0339	1063.8736	1078.2118	1117.9304	1136.8282	1156.5883	1184.6548	1245.343	1253.6789	1271.1898	1284.9595	1331.5741	1362.133	1366.4744	1415.0803	1426.4709	1440.1202	1489.7803	1499.6341	1505.1059	1845.995	3021.7011	3034.02	3042.4203	3046.798	3075.3808	3098.1258	3104.0348	3106.5885	3145.2802	3157.039
CCC1C2OC2CC1=O	CC[C@H]1[C@@H]2O[C@@H]2CC1=O	
InChI=1S/C7H10O2/c1-2-4-5(8)3-6-7(4)9-6/h4,6-7H,2-3H2,1H3	InChI=1S/C7H10O2/c1-2-4-5(8)3-6-7(4)9-6/h4,6-7H,2-3H2,1H3/t4-,6-,7+/m1/s1
