19
gdb 5667	3.2304	0.9110108	0.8343291	1.6223	77.97	-0.25837	0.02797	0.28634	1426.213	0.154267	-422.513322	-422.503431	-422.502487	-422.548156	36.536	
O	 1.2653676071	 0.9421600728	-0.7053954197	-0.42018
C	 0.4759943499	 0.2422205825	 0.2440296446	-0.082734
C	-0.0575270228	 1.14149217	 1.3462266149	 0.029044
C	-0.8468191919	 0.4798011201	 2.5077281762	-0.310809
C	-0.0978907671	 1.4229969564	 3.5117842224	 0.255775
O	 0.4804205615	 0.8204490375	 4.6539632898	-0.462291
C	 0.9514509589	 1.6902554269	 2.3956884951	-0.296906
C	-0.8860791828	 2.5981779428	 3.8710274492	 0.2972
C	-1.5552632801	 3.5429476498	 4.1969557737	-0.502188
H	 2.0298931912	 1.3003817829	-0.2427449529	 0.285258
H	-0.3551100694	-0.1918336016	-0.32346329	 0.110876
H	 1.0366042143	-0.5960177282	 0.6916420654	 0.082186
H	-0.6282710924	 1.9599307845	 0.8981826956	 0.088691
H	-1.9368787054	 0.5234806475	 2.4869598024	 0.107094
H	-0.5191853444	-0.5491903623	 2.6853000167	 0.108637
H	-0.1731060016	 0.8304372934	 5.3618485696	 0.282932
H	 1.3196679033	 2.7119997417	 2.2940997916	 0.113367
H	 1.7935368494	 1.0065586265	 2.5474674638	 0.111271
H	-2.1371110178	 4.3855397066	 4.4794122117	 0.202777
58.719	101.2209	142.2846	174.1419	228.368	264.6972	304.4297	347.4242	359.5339	410.4152	431.0961	522.7999	567.7824	619.7847	643.5783	670.6112	723.214	834.7716	852.6955	916.2389	947.3811	996.8666	1023.8221	1043.5971	1072.3741	1087.2555	1134.0238	1156.7155	1222.2883	1233.275	1262.1837	1270.2813	1290.4147	1349.0291	1371.4057	1391.6923	1423.0316	1464.7771	1487.1242	1505.1508	2228.2202	2961.1029	3051.6936	3057.7788	3061.2978	3074.7615	3126.2983	3128.7397	3500.1195	3809.0708	3813.2102
OCC1CC(O)(C1)C#C	OC[C@H]1C[C@@](O)(C1)C#C	
InChI=1S/C7H10O2/c1-2-7(9)3-6(4-7)5-8/h1,6,8-9H,3-5H2	InChI=1S/C7H10O2/c1-2-7(9)3-6(4-7)5-8/h1,6,8-9H,3-5H2/t6-,7+
