19
gdb 3950	2.6330164	1.6753238	1.5395904	2.8823	74.05	-0.22577	0.0508	0.27657	973.7953	0.156549	-422.475114	-422.467093	-422.466149	-422.507479	31.303	
O	 0.6419961036	 0.3444949702	 0.6672307816	-0.417568
C	-0.5926821937	 0.8224031002	 1.1306895747	 0.041053
C	-1.3888012176	-0.0954460594	 2.1490652766	-0.344428
C	-2.5222562755	-0.2506896538	 1.0966419211	 0.194132
C	-3.7246499335	 0.7354345863	 1.0164258487	-0.297052
C	-2.9293394574	 1.5993952564	-0.0400949577	-0.305111
C	-1.7505909364	 0.6039272548	 0.1118914981	 0.41507
O	-1.6219976681	-0.4452724444	-0.8562248557	-0.329296
C	-2.372079033	-1.3474340614	 0.022328628	-0.144734
H	 1.2821462899	 0.4314240866	 1.3811690708	 0.285433
H	-0.5239351118	 1.8687098874	 1.4658281711	 0.063548
H	-0.8627906308	-1.0258864371	 2.3824714543	 0.104074
H	-1.6773086837	 0.3933197729	 3.0837145033	 0.098786
H	-4.6611369368	 0.3013503739	 0.6562213269	 0.10613
H	-3.9313748935	 1.256420186	 1.9548521847	 0.104502
H	-3.3554547874	 1.6009448226	-1.0452382001	 0.117906
H	-2.7227068408	 2.6312060077	 0.2574176064	 0.101206
H	-3.2999925252	-1.6911411695	-0.4524835916	 0.100264
H	-1.7698231584	-2.2183727194	 0.3084789787	 0.106084
67.1528	201.3602	236.3339	259.2593	299.9583	315.4934	391.7144	442.9059	565.3563	663.4538	694.0616	715.7848	725.4979	809.9641	866.6946	884.4901	900.2461	909.768	924.1567	959.202	1013.7176	1062.4175	1087.8575	1142.713	1152.6484	1170.6366	1184.4852	1213.8162	1224.5196	1240.2186	1251.964	1260.5254	1278.6853	1280.0857	1314.4117	1343.6279	1423.5694	1457.0616	1457.2318	1477.7346	1511.0363	2974.2625	3006.9336	3047.888	3054.5997	3056.8909	3061.0967	3104.151	3108.851	3126.647	3812.0405
OC1CC23CCC12OC3	O[C@@H]1C[C@@]23CC[C@@]12OC3	
InChI=1S/C7H10O2/c8-5-3-6-1-2-7(5,6)9-4-6/h5,8H,1-4H2	InChI=1S/C7H10O2/c8-5-3-6-1-2-7(5,6)9-4-6/h5,8H,1-4H2/t5-,6-,7-/m1/s1
