19
gdb 6039	3.4840773	0.8120608	0.7507238	1.3771	78.5	-0.2551	0.02	0.2751	1573.339	0.154415	-422.484158	-422.474327	-422.473383	-422.520372	34.425	
C	 1.4998128859	 0.6720392532	 0.0447660242	-0.224282
O	 0.1163357938	 0.8648415895	 0.2209486444	-0.237276
C	-0.5271045429	-0.2503162667	 0.7933856916	-0.069943
C	-1.999478681	 0.0902160407	 0.9332503953	 0.125685
C	-2.398710052	 1.0493292055	 2.0704339948	-0.306022
C	-3.200027085	-0.1616847098	 2.6224953903	-0.038286
O	-2.7301048662	-1.0043608338	 1.5353219717	-0.30082
C	-2.8417805592	-0.6609818497	 3.9392549993	 0.338162
C	-2.5442728224	-1.058550405	 5.0340833446	-0.456621
H	 1.7110732592	-0.1745712976	-0.6272699138	 0.106697
H	 1.9039023995	 1.5851120901	-0.3990782687	 0.1277
H	 2.0109527896	 0.4847000765	 1.0022149059	 0.106151
H	-0.4166897183	-1.1471941214	 0.1605426434	 0.096103
H	-0.1057923536	-0.4920680338	 1.7835481275	 0.09388
H	-2.4095370235	 0.354031408	-0.0493242795	 0.086155
H	-1.5727413144	 1.3731217629	 2.7037187525	 0.125845
H	-3.0031224076	 1.9097700265	 1.7844757208	 0.117862
H	-4.2883098424	-0.0337953874	 2.5602455502	 0.106271
H	-2.2849680495	-1.4158275377	 6.0000930653	 0.20274
26.3179	78.9659	91.746	160.7045	189.0937	224.7668	239.9568	335.8568	400.6707	462.8742	501.2177	541.0581	617.1098	670.8707	735.3762	839.998	899.0999	936.2772	968.5887	995.9025	1030.3815	1052.3907	1096.9079	1128.7963	1159.3301	1174.0686	1197.5027	1225.9048	1250.6979	1251.1602	1256.6309	1299.6788	1357.6401	1379.1267	1427.6421	1481.6477	1485.4668	1490.0018	1504.4521	1526.8424	2234.1637	2956.6421	2974.2932	2990.1531	3017.0875	3018.244	3035.052	3094.761	3114.4286	3154.5427	3502.6451
COCC1CC(O1)C#C	COC[C@@H]1C[C@@H](O1)C#C	
InChI=1S/C7H10O2/c1-3-6-4-7(9-6)5-8-2/h1,6-7H,4-5H2,2H3	InChI=1S/C7H10O2/c1-3-6-4-7(9-6)5-8-2/h1,6-7H,4-5H2,2H3/t6-,7-/m0/s1
