19
gdb 4385	2.9111069	1.3186325	0.9424125	3.649	80.94	-0.22885	-0.04955	0.17930000000000001	1259.2814	0.155863	-422.590033	-422.58093	-422.579986	-422.623831	33.372	
C	-3.9589310476	-1.5141177383	-0.1620012537	-0.399689
C	-2.6805126683	-0.8994945451	 0.3808460183	 0.00731
O	-1.5780628591	-1.6370861579	-0.1348627338	-0.251572
C	-0.3275282974	-1.1773544302	 0.3137169985	-0.159083
C	-0.1132634725	 0.3007371267	 0.1004567045	 0.279087
C	 1.3039061464	 0.7878683076	 0.1205849377	-0.478729
C	-1.1761584662	 1.1001324568	-0.0791657388	-0.245285
C	-2.5517592371	 0.5923277883	 0.033897508	 0.364906
O	-3.5273706801	 1.3100672069	-0.0712542148	-0.336919
H	-4.8156419031	-0.9215930287	 0.1624321839	 0.142023
H	-3.936187963	-1.5202656265	-1.2553120171	 0.129117
H	-4.0669213808	-2.5421417207	 0.1915039229	 0.1179
H	-2.6780144515	-0.9616201827	 1.4868220289	 0.085148
H	-0.1788953744	-1.4079433257	 1.387489121	 0.103936
H	 0.4277478864	-1.7499186454	-0.2370613133	 0.121624
H	 1.8032118444	 0.496878662	 1.0535552264	 0.138624
H	 1.8824447245	 0.3364062621	-0.6951028602	 0.140999
H	 1.3581845153	 1.8744765716	 0.0264298489	 0.138043
H	-1.0717252657	 2.166745889	-0.2570940776	 0.102559
70.7488	136.8322	181.2434	196.0922	215.6877	271.0886	300.4648	395.3584	412.1281	445.8578	494.4136	527.881	637.5883	688.3745	797.7342	872.8399	881.9038	907.4409	994.1914	1024.0325	1040.8686	1082.7313	1102.0144	1134.1404	1161.0403	1179.6344	1237.0917	1278.3032	1333.7101	1344.7308	1361.582	1402.1983	1408.5235	1410.06	1474.4185	1478.1847	1482.1101	1482.5788	1496.9094	1697.8702	1774.5568	2912.9419	2914.4831	3022.	3056.2393	3057.384	3070.6541	3127.0984	3128.5763	3151.61	3173.481
CC1OCC(C)=CC1=O	C[C@H]1OCC(=CC1=O)C	
InChI=1S/C7H10O2/c1-5-3-7(8)6(2)9-4-5/h3,6H,4H2,1-2H3	InChI=1S/C7H10O2/c1-5-3-7(8)6(2)9-4-5/h3,6H,4H2,1-2H3/t6-/m1/s1
