19
gdb 5623	2.4296615	1.6518443	1.216469	1.5009	76.43	-0.22173	0.00763	0.22936	1079.219	0.156087	-422.536822	-422.528102	-422.527158	-422.569947	33.113	
C	 1.4811064614	-0.1204296792	 0.0961771311	-0.235662
O	 0.0728694219	-0.0109943018	 0.0504274179	-0.24753
C	-0.470531015	 0.7426673999	 1.1190881196	 0.017548
C	-1.9822587452	 0.6915561308	 1.0539011481	-0.115494
C	-2.5270114065	 1.9094461175	 1.042191336	-0.073841
C	-1.4881642385	 2.9809562765	 1.0531265987	-0.17405
C	-0.5470793346	 2.9936031792	-0.1519764518	-0.300421
C	-0.1592657429	 2.250550456	 1.0843328255	 0.385109
O	 0.9595377085	 2.7233676288	 1.7729300665	-0.478798
H	 1.8169053314	-0.5980568576	 1.0306957026	 0.098046
H	 1.7794709976	-0.7468365592	-0.7480093531	 0.121783
H	 1.9764817158	 0.8556289945	 0.0153638831	 0.126826
H	-0.0916511717	 0.3255778215	 2.073553183	 0.053926
H	-2.5115622025	-0.2513140363	 0.9942794219	 0.103818
H	-3.5900962567	 2.1193086994	 0.9952911363	 0.100801
H	-1.6364737342	 3.9083576951	 1.5945427828	 0.091585
H	-0.827106095	 2.4306096499	-1.0353517878	 0.126747
H	-0.003032647	 3.9155383644	-0.3260767787	 0.11905
H	 0.8162130832	 2.5750950305	 2.7144312583	 0.280557
86.8442	124.2925	180.873	237.1684	288.5667	306.6245	340.9042	366.0638	453.1642	488.5972	560.8802	621.5351	720.6753	753.4392	793.5598	861.5577	919.0025	958.271	960.333	973.0124	1009.4687	1012.841	1043.5597	1069.3817	1071.769	1127.36	1154.869	1182.6568	1218.0816	1231.874	1237.754	1290.4067	1326.1045	1351.6391	1376.4444	1421.9032	1476.1748	1479.9855	1488.8911	1508.984	1672.8708	2898.8419	2977.4216	3048.0566	3115.5551	3134.117	3176.2806	3188.4658	3218.8426	3231.3848	3791.894
COC1C=CC2CC12O	CO[C@@H]1C=C[C@@H]2C[C@]12O	
InChI=1S/C7H10O2/c1-9-6-3-2-5-4-7(5,6)8/h2-3,5-6,8H,4H2,1H3	InChI=1S/C7H10O2/c1-9-6-3-2-5-4-7(5,6)8/h2-3,5-6,8H,4H2,1H3/t5-,6-,7-/m1/s1
