19
gdb 5171	3.6469691	1.3835853	1.1490924	0.7917	75.75	-0.23058	0.07962	0.31020000000000003	1111.7679	0.15495	-422.461677	-422.453067	-422.452123	-422.494682	32.447	
C	 1.4224117851	-0.0140438988	 0.0114055774	-0.25526
O	 0.0034473924	-0.0673768645	 0.0899979959	-0.286381
C	-0.5303951428	 0.5944642957	 1.1547989927	 0.413688
C	-2.0304191324	 0.6788017646	 1.4521616899	-0.382676
C	-1.3994271851	 1.4890298152	 2.6106257651	 0.315238
C	-2.0481597299	 2.1989322073	 3.7613528929	-0.520885
C	-0.145790733	 0.554518763	 2.6861828047	-0.047672
O	 0.8129116837	 1.6510690632	 2.606726764	-0.328493
C	-0.2571460016	 2.0514721647	 1.6998323169	-0.047697
H	 1.8894713705	-0.4640153481	 0.8958605297	 0.125048
H	 1.7064589892	-0.5788998946	-0.8785091125	 0.125814
H	 1.7796942405	 1.0188142666	-0.0803512259	 0.12508
H	-2.6363012339	 1.241261861	 0.7360241277	 0.101411
H	-2.5247560084	-0.2582450782	 1.7239716168	 0.101412
H	-2.6220568075	 1.5046767888	 4.3844369389	 0.122173
H	-1.2838878428	 2.6702334575	 4.3878634349	 0.136112
H	-2.733943108	 2.9782965881	 3.4122606147	 0.122171
H	 0.0614945406	-0.2798311825	 3.3567495255	 0.090458
H	-0.1833447066	 3.0114033009	 1.1881181509	 0.090461
82.5539	160.5235	173.2185	232.5384	241.4609	245.1399	388.9209	394.3242	444.6904	545.5213	597.083	697.5884	713.2761	785.6654	854.3852	865.7673	901.7802	902.4573	993.0809	1017.0419	1030.9714	1069.8253	1088.3602	1105.1433	1117.0317	1161.9432	1164.4744	1173.9802	1179.3691	1203.9775	1247.8039	1291.0492	1323.5139	1392.1801	1413.5109	1486.0299	1488.6718	1490.0537	1492.1707	1495.8693	1527.032	3014.6897	3030.112	3050.7849	3074.54	3094.6321	3104.2342	3108.3931	3114.0418	3121.5604	3130.0052
COC12CC3(C)C1OC23	CO[C@@]12C[C@@]3(C)[C@@H]1O[C@@H]23	
InChI=1S/C7H10O2/c1-6-3-7(8-2)4(6)9-5(6)7/h4-5H,3H2,1-2H3	InChI=1S/C7H10O2/c1-6-3-7(8-2)4(6)9-5(6)7/h4-5H,3H2,1-2H3/t4-,5+,6-,7-
