19
gdb 1779	2.4016271	1.6820202	1.3698167	2.3282	75.62	-0.2379	-0.00633	0.23157	1048.2925	0.155477	-422.571315	-422.562416	-422.561472	-422.604356	33.37	
C	-0.8470692525	 2.3945438165	-0.6124859895	-0.498856
C	-0.9565829939	 1.0398661358	 0.0189955838	 0.29859
C	-1.7750599144	 0.8216135641	 1.3086289923	-0.265756
C	-1.7221151123	-0.7393560999	 1.3691444111	-0.265756
C	-0.8873722291	-1.0008060968	 0.0981053903	 0.298591
C	-0.6848055559	-2.3897366064	-0.4270162087	-0.498856
O	-1.4768776634	-0.0345474374	-0.8509426416	-0.366014
C	 0.227857737	 0.0642300298	 0.2056556446	 0.363052
O	 1.4192456665	 0.1029018826	 0.1609149464	-0.324926
H	-0.3720223019	 3.0909597182	 0.0852718351	 0.134772
H	-0.24234822	 2.3522818673	-1.5217484834	 0.140456
H	-1.8368963176	 2.7875762857	-0.865715283	 0.131296
H	-1.322320257	 1.3074881247	 2.1776705199	 0.111282
H	-2.7927455234	 1.2016646816	 1.1889212735	 0.112161
H	-1.2398206627	-1.1248257757	 2.2719655121	 0.111282
H	-2.7114387163	-1.1955049989	 1.281854786	 0.112161
H	-0.1655487048	-2.9963672726	 0.3212499922	 0.134772
H	-1.6451073554	-2.8672425594	-0.6464829834	 0.131295
H	-0.0819598227	-2.3770961193	-1.3384157476	 0.140456
134.6374	164.2719	164.5188	205.3838	223.7684	238.826	259.8963	365.645	475.8289	517.5307	603.0221	610.5748	668.2359	752.5513	758.3176	838.893	879.5055	891.7628	899.3953	911.0104	956.9344	1000.159	1079.2375	1100.9924	1149.7803	1171.6958	1227.4333	1229.0904	1251.92	1253.3064	1337.0715	1376.4169	1410.9338	1427.04	1473.3683	1479.7191	1481.4385	1489.8403	1491.1208	1497.8985	1908.0318	3042.6844	3043.0455	3056.018	3065.2458	3099.8303	3111.7257	3112.3468	3117.6036	3125.9236	3126.138
CC12CCC(C)(O1)C2=O	C[C@@]12CC[C@@](C)(O1)C2=O	
InChI=1S/C7H10O2/c1-6-3-4-7(2,9-6)5(6)8/h3-4H2,1-2H3	InChI=1S/C7H10O2/c1-6-3-4-7(2,9-6)5(6)8/h3-4H2,1-2H3/t6-,7+
