19
gdb 4435	2.5316093	1.3574246	1.2019956	3.0942	75.94	-0.24267	-0.03175	0.21092	1137.5493	0.155463	-422.544552	-422.535593	-422.534649	-422.579356	32.393	
C	-2.1909892195	 2.4474874785	-1.8881220086	-0.405604
C	-1.0173763752	 2.2350086197	-0.9558789716	 0.106836
O	-0.9982554057	 3.1850495704	 0.1349900172	-0.292776
C	-0.9393195082	 2.1318480332	 1.1099465159	-0.122259
C	-1.0449741701	 1.031934356	 0.030095733	 0.153127
C	-2.1319572655	-0.0793332429	 0.057814311	-0.326238
C	-1.0317245492	-1.1871582216	 0.0320978054	-0.346672
C	 0.0180490937	-0.0678404925	-0.0547501423	 0.34278
O	 1.210004892	-0.0391415063	-0.1674890052	-0.297199
H	-3.1423116603	 2.3782499475	-1.3525689812	 0.122398
H	-2.1239362613	 3.4432065659	-2.3375685775	 0.134544
H	-2.1852085181	 1.7090623729	-2.697257165	 0.117918
H	-0.0693322757	 2.2736760949	-1.5101158883	 0.093305
H	 0.0071252984	 2.1341924202	 1.6652826893	 0.11641
H	-1.7791479235	 2.1698587563	 1.8153059077	 0.105057
H	-2.7543395797	-0.0739816132	 0.9553200917	 0.112098
H	-2.7861910134	-0.0845864305	-0.8162453579	 0.11614
H	-0.9476933665	-1.7905322318	 0.9410217727	 0.135661
H	-1.0400490723	-1.8645297666	-0.8266242662	 0.134473
30.5764	69.8548	135.6806	204.1147	238.7749	260.2108	345.522	424.6313	479.893	508.0376	587.3111	700.1758	731.8468	775.5803	856.4156	876.7312	886.7135	933.5019	1001.4155	1023.2989	1040.5252	1078.8956	1089.3838	1105.3949	1157.59	1161.6078	1179.8969	1209.74	1223.0387	1227.409	1286.2769	1294.3389	1353.4302	1376.307	1405.2767	1436.8353	1478.9496	1487.1269	1493.2355	1515.156	1882.6496	3004.4509	3011.7827	3035.5204	3054.9082	3059.5171	3073.8993	3106.3334	3107.4902	3116.6519	3127.3887
CC1OCC11CCC1=O	C[C@H]1OC[C@]21CCC2=O	
InChI=1S/C7H10O2/c1-5-7(4-9-5)3-2-6(7)8/h5H,2-4H2,1H3	InChI=1S/C7H10O2/c1-5-7(4-9-5)3-2-6(7)8/h5H,2-4H2,1H3/t5-,7+/m1/s1
