19
gdb 1045	3.8514569	0.7475059	0.6808186	1.2921	80.42	-0.24309	0.05419	0.29728	1681.9762	0.153942	-422.510137	-422.49953	-422.498586	-422.547007	37.029	
C	 1.4561753552	 0.3395375433	 0.0447927416	-0.497815
C	 0.0071213333	 0.190335333	 0.0174038645	 0.055992
C	-1.1890458477	 0.0485350018	-0.0282409454	 0.061946
C	-2.6455934522	-0.1020330789	-0.0330592644	-0.38578
C	-3.2165202513	-0.2197813357	 1.3746711428	-0.062022
C	-4.4855386633	 0.4956687233	 1.7486293261	 0.049213
O	-5.3652567938	-0.195534784	 2.5837810177	-0.424917
C	-3.1694454455	 0.9917282031	 2.28536087	 0.048969
O	-2.6859370964	 2.2009705347	 1.7814073093	-0.426873
H	 1.8397949892	 0.3282566051	 1.0709804783	 0.148006
H	 1.9476258252	-0.4741674	-0.4998405423	 0.150681
H	 1.7704585181	 1.282504305	-0.4160345753	 0.148418
H	-3.0908391234	 0.7629887771	-0.5370848101	 0.137738
H	-2.9308262986	-0.9818048233	-0.6228620464	 0.131771
H	-3.0602840683	-1.1752496162	 1.8652964	 0.104859
H	-4.9441082852	 1.1149318161	 0.9762307478	 0.09264
H	-5.7810909236	 0.4458371406	 3.1703394069	 0.28797
H	-2.9759986145	 0.8063463479	 3.3422272903	 0.085823
H	-1.7776323572	 2.0492588772	 1.4907526385	 0.293382
41.1099	42.7005	71.7216	179.5589	212.4376	251.0175	268.6005	299.7812	311.1527	335.7308	380.0401	404.5183	457.5561	490.4497	635.8188	761.975	806.6613	870.6428	946.2766	958.9092	1033.024	1052.8969	1054.4938	1091.5975	1110.6631	1137.2243	1153.703	1173.9287	1216.3141	1238.8693	1292.9396	1311.4336	1323.6668	1364.9225	1383.6055	1416.0199	1465.0089	1479.2704	1479.5186	1482.9289	2364.7531	3027.3557	3029.6005	3065.1915	3087.6706	3088.6036	3093.4091	3099.901	3166.5548	3763.5701	3798.4097
CC#CCC1C(O)C1O	CC#CC[C@@H]1[C@@H](O)[C@@H]1O	
InChI=1S/C7H10O2/c1-2-3-4-5-6(8)7(5)9/h5-9H,4H2,1H3	InChI=1S/C7H10O2/c1-2-3-4-5-6(8)7(5)9/h5-9H,4H2,1H3/t6-,7-/m1/s1
