19
gdb 557	3.8622219	1.3167861	1.1842622	2.3672	75.19	-0.21651	0.07379	0.2903	1096.5197	0.158338	-422.508294	-422.500619	-422.499675	-422.541173	29.241	
C	 0.2013459524	 3.8887806332	 0.9870987557	-0.090933
O	-0.7144305844	 3.5918464847	-0.1010423497	-0.282986
C	-0.826745945	 2.2444595546	 0.3356172567	 0.009538
C	 0.1831253656	 2.4410300414	 1.4757259263	-0.258116
C	 0.5004954305	 1.5336445865	 0.3331603023	 0.46449
C	 0.5068911967	 0.0137643352	 0.5077365341	-0.317042
C	 1.3269759418	-0.4670547526	-0.7203896848	-0.215055
C	 1.5292002377	 0.8247767507	-1.5361250954	-0.091957
O	 1.513106808	 1.8732389753	-0.5738298892	-0.281446
H	 1.157697502	 4.2825431195	 0.6300241259	 0.121101
H	-0.2615463353	 4.5891307506	 1.6905957269	 0.106496
H	-1.8012719809	 1.7675798812	 0.2831664824	 0.09705
H	 0.1794842419	 2.1217685862	 2.5108198547	 0.095709
H	 0.9886941473	-0.2798177944	 1.4449163557	 0.11069
H	-0.5073594826	-0.3958646957	 0.5185134737	 0.109066
H	 2.291628736	-0.8686430195	-0.4003951895	 0.112207
H	 0.8166011073	-1.2437777057	-1.2945001254	 0.105165
H	 2.4827834117	 0.8709473599	-2.0668581181	 0.10769
H	 0.7152147892	 0.9617738792	-2.2640032623	 0.098334
38.7225	158.0973	181.8084	229.8785	317.3513	402.6345	526.6316	604.036	647.0327	737.8018	797.9749	815.7078	826.8147	876.9306	920.5916	923.6008	955.6988	965.9737	990.3839	1014.2731	1029.3024	1057.6028	1075.8023	1102.056	1134.4694	1157.8952	1172.5147	1203.3173	1236.411	1242.1208	1247.6704	1256.8418	1302.0056	1329.216	1336.1398	1384.8388	1432.6169	1486.8966	1504.521	1507.8287	1519.9969	2991.1976	3036.8036	3050.2889	3068.2071	3086.3759	3093.4436	3101.6276	3118.6194	3150.7719	3182.7948
C1OC2C1C21CCCO1	C1O[C@@H]2[C@H]1[C@]12CCCO1	
InChI=1S/C7H10O2/c1-2-7(9-3-1)5-4-8-6(5)7/h5-6H,1-4H2	InChI=1S/C7H10O2/c1-2-7(9-3-1)5-4-8-6(5)7/h5-6H,1-4H2/t5-,6+,7-/m0/s1
