19
gdb 4797	1.7347946	1.4502907	1.2413275	3.4308	78.44	-0.25052	-0.02986	0.22066000000000002	1194.8719	0.151659	-422.514602	-422.503723	-422.502778	-422.550541	37.928	
C	-0.507298148	-1.6026069175	 2.4416665551	-0.401801
C	-0.1241332382	-0.1222353269	 2.5054425094	-0.224128
C	-0.4279271877	 0.6440922201	 1.1849464292	 0.08852
O	 0.0880982009	 0.0035990432	 0.0408918736	-0.250937
C	 1.4987451113	-0.0182136115	-0.0835293744	-0.251048
C	-1.9643954194	 0.6888487639	 1.0126397483	 0.148304
O	-2.5666386268	 0.197119891	 0.1041421045	-0.238754
C	 0.0091092462	 2.0438389414	 1.3057549878	 0.302858
C	 0.3322208309	 3.1969242723	 1.4159655425	-0.456965
H	-0.2540214461	-2.0997971597	 3.3822269781	 0.116094
H	-1.5797498509	-1.7362149536	 2.269008872	 0.132866
H	 0.0181783771	-2.1110925079	 1.6300104444	 0.138895
H	-0.6578966059	 0.3846535228	 3.3175486123	 0.114767
H	 0.9407486149	-0.0059076055	 2.7300808417	 0.116843
H	 1.9785621756	-0.6219189538	 0.6990601437	 0.108895
H	 1.7089106362	-0.4736497032	-1.0534338296	 0.136371
H	 1.9241121619	 0.9929562188	-0.0605876833	 0.123131
H	-2.4662461067	 1.2290977149	 1.8457327316	 0.090582
H	 0.6239958947	 4.2147939213	 1.505170813	 0.205509
77.8081	93.8369	110.5766	134.8805	158.1326	196.229	214.1173	228.931	277.2537	329.2679	387.511	461.1254	486.0289	553.809	620.2259	627.9644	681.8779	738.6561	775.7666	910.3121	978.147	982.0514	1041.2813	1087.7287	1121.0034	1146.9345	1182.9495	1200.1603	1228.8861	1305.8333	1348.1213	1411.2118	1418.1348	1472.1638	1482.4479	1495.8857	1499.7207	1504.012	1511.2261	1857.5744	2221.7533	2887.9313	3002.2583	3046.3026	3047.9849	3061.4956	3081.4177	3114.6735	3126.0207	3130.1681	3497.1816
CCC(OC)(C=O)C#C	CC[C@@](OC)(C=O)C#C	
InChI=1S/C7H10O2/c1-4-7(5-2,6-8)9-3/h1,6H,5H2,2-3H3	InChI=1S/C7H10O2/c1-4-7(5-2,6-8)9-3/h1,6H,5H2,2-3H3/t7-/m1/s1
