19
gdb 5688	2.4099651	1.2122969	0.9632132	3.2092	79.5	-0.24592	0.04859	0.29451	1294.268	0.153943	-422.491932	-422.481783	-422.480839	-422.527087	36.588	
C	 1.2901945608	-0.0419357873	-0.2671955401	-0.237209
O	-0.1001828764	 0.0481282289	-0.0077998998	-0.251759
C	-0.3962018974	 0.5635493766	 1.2535880643	 0.093898
C	-0.4275932192	-0.3464740344	 2.4477538804	-0.36287
C	-1.7364823187	 0.154228548	 1.8233726317	 0.041441
C	-2.5463057532	-0.8373479614	 0.9818669697	-0.117485
O	-3.0289133973	-0.2567578562	-0.2099444545	-0.421093
C	-2.4907690163	 1.1540799484	 2.5286908026	 0.279274
C	-3.1251220976	 1.9810039704	 3.1291264067	-0.43863
H	 1.7902055602	-0.7006600306	 0.455657584	 0.11741
H	 1.4031840871	-0.454879934	-1.2716324217	 0.13471
H	 1.7682837264	 0.9472595812	-0.22970135	 0.116381
H	-0.080030064	 1.5953015436	 1.404557904	 0.105567
H	-0.1947462709	-1.3937393008	 2.2870863698	 0.123706
H	-0.1390833797	 0.0523054974	 3.4129271858	 0.12825
H	-1.9247609845	-1.7193326446	 0.7766174054	 0.087734
H	-3.4218200889	-1.1648366697	 1.5496313258	 0.116129
H	-2.2477656234	-0.0163584361	-0.7227963468	 0.293444
H	-3.6919620567	 2.7136363807	 3.6477323626	 0.191101
80.346	88.6437	122.9698	141.2822	192.0579	218.6844	231.0715	345.4014	368.92	423.8235	490.471	496.4825	551.6309	570.2971	592.8665	643.5775	769.5012	830.8855	899.6596	925.4781	953.7631	1021.7824	1032.2528	1056.5977	1080.802	1114.9728	1166.3966	1182.7656	1205.3858	1237.4818	1275.2107	1300.886	1393.5721	1404.4858	1432.6918	1466.8994	1485.0782	1486.934	1497.0816	1508.3425	2236.4542	2995.0896	3009.4434	3050.8213	3091.464	3111.1413	3127.5557	3138.2287	3233.5676	3504.1071	3788.9632
COC1CC1(CO)C#C	CO[C@@H]1C[C@@]1(CO)C#C	
InChI=1S/C7H10O2/c1-3-7(5-8)4-6(7)9-2/h1,6,8H,4-5H2,2H3	InChI=1S/C7H10O2/c1-3-7(5-8)4-6(7)9-2/h1,6,8H,4-5H2,2H3/t6-,7-/m1/s1
