19
gdb 2401	2.6311503	1.6265527	1.3685544	0.571	75.22	-0.22961	0.06873	0.29834	1026.8997	0.156125	-422.508932	-422.500754	-422.49981	-422.5414	32.166	
O	 1.5121683114	 2.4468890617	-1.9669874849	-0.467075
C	 0.5914563589	 2.2639379441	-0.9440331968	 0.274799
C	-0.8776370982	 2.4997320773	-1.3538317795	-0.274649
C	-1.1056961522	 3.3486016142	-0.0608637708	-0.230439
C	 0.3707798451	 3.1371281558	 0.3447296149	 0.031856
O	 0.5553003072	 1.9748177363	 1.1885995445	-0.3239
C	 0.8124890821	 1.1357489507	 0.0607980162	 0.396018
C	 1.9114483177	 0.1184006996	 0.0639109457	-0.358556
C	 0.4470097075	-0.3063983762	 0.0274717754	-0.335721
H	 2.3919893323	 2.2746105242	-1.6116296408	 0.283532
H	-0.9357523117	 3.0930208034	-2.2686764269	 0.115226
H	-1.4871645096	 1.6011185674	-1.4735226444	 0.103666
H	-1.362137343	 4.3908741213	-0.2648890322	 0.105145
H	-1.8125166327	 2.9415330002	 0.6642732638	 0.113383
H	 0.9751828273	 3.9877078019	 0.6669960384	 0.078575
H	 2.5018383115	-0.013116639	-0.838328197	 0.113915
H	 2.4530231349	-0.0224142942	 0.9930408263	 0.126932
H	 0.0528698542	-0.7221704866	-0.8945322906	 0.120488
H	 0.0305400774	-0.7304237621	 0.9347854187	 0.126805
75.9484	179.1572	220.5997	230.1081	348.4468	365.6771	384.4677	449.4509	480.8069	568.644	645.2646	725.5615	761.8091	772.2672	855.3157	867.6147	888.6683	909.6603	943.1561	967.0997	980.3758	1013.8657	1042.6574	1059.8859	1067.8647	1089.0612	1116.668	1164.057	1190.3735	1214.985	1218.9196	1243.0436	1266.7272	1296.1906	1333.7062	1366.6965	1403.1158	1444.2893	1463.2911	1482.5954	1494.7215	3066.4501	3070.9878	3089.8636	3118.2295	3121.0979	3127.5987	3135.5535	3208.8769	3222.9765	3791.9505
OC12CCC1OC21CC1	O[C@]12CC[C@H]1OC12CC1	
InChI=1S/C7H10O2/c8-7-2-1-5(7)9-6(7)3-4-6/h5,8H,1-4H2	InChI=1S/C7H10O2/c8-7-2-1-5(7)9-6(7)3-4-6/h5,8H,1-4H2/t5-,7-/m1/s1
