19
gdb 4242	3.1247669	1.6405813	1.3303122	2.1394	73.35	-0.23946	0.06858	0.30804	989.6553	0.159086	-422.540943	-422.533671	-422.532727	-422.57338	28.97	
O	 0.4525407718	 0.7390160149	 0.4561418277	-0.44356
C	-0.6911155414	 0.0363119614	 0.9419217324	 0.118912
C	-1.7856770899	 0.1822983061	-0.1448972718	-0.236166
C	-2.8932743464	 1.0566515027	 0.4489591161	 0.118422
O	-3.8892975764	 0.2716336213	 1.1682387989	-0.315283
C	-3.4346552233	 0.7631352451	 2.4439521461	 0.11908
C	-2.309318514	-0.1163074676	 3.0343274532	-0.263203
C	-1.2530887273	 0.6985010173	 2.2154519925	-0.05394
C	-2.3810527312	 1.6772528698	 1.7685030961	-0.10509
H	 1.1454695083	 0.6719875154	 1.1211138616	 0.278037
H	-0.4353755196	-1.017357849	 1.1276689192	 0.065667
H	-1.3290691612	 0.6528026771	-1.0200358622	 0.11791
H	-2.2035940713	-0.7782745928	-0.4562746444	 0.11336
H	-3.3793713329	 1.7114009229	-0.2808675944	 0.075641
H	-4.2597903023	 1.0806277266	 3.0855903457	 0.073923
H	-2.1871227961	 0.0236234044	 4.1123825632	 0.099626
H	-2.3970268212	-1.1853241976	 2.8206974915	 0.103691
H	-0.4494350073	 1.1158415019	 2.826668381	 0.059762
H	-2.2876782982	 2.75382976	 1.8870389575	 0.073212
27.7479	221.7633	305.9913	329.4642	385.8037	402.0333	457.9893	653.6495	674.0612	725.3716	787.3165	820.2554	830.552	872.3675	883.6034	914.9877	942.5865	960.1288	984.2822	998.2901	1034.2437	1046.6763	1072.5655	1087.589	1140.4007	1164.4424	1183.321	1192.4401	1215.8762	1241.0745	1257.4515	1271.9753	1283.9858	1296.2541	1305.4544	1342.4457	1349.9397	1355.4506	1421.9552	1461.6814	1465.9347	2987.1639	3049.1989	3052.8292	3068.9422	3075.0549	3080.8931	3108.2325	3116.2522	3144.2778	3813.2656
OC1CC2OC3CC1C23	O[C@@H]1C[C@H]2O[C@H]3C[C@@H]1[C@@H]23	
InChI=1S/C7H10O2/c8-4-2-6-7-3(4)1-5(7)9-6/h3-8H,1-2H2	InChI=1S/C7H10O2/c8-4-2-6-7-3(4)1-5(7)9-6/h3-8H,1-2H2/t3-,4+,5-,6+,7+/m0/s1
