19
gdb 5708	2.3916571	1.2767627	1.1081482	3.0493	76.95	-0.24356	-0.03847	0.20509	1221.3766	0.154707	-422.543963	-422.534707	-422.533763	-422.578553	33.422	
C	 2.7891010463	-1.1125553642	 1.4564954689	-0.384519
C	 1.9928088843	-0.3234916228	 0.4106563494	-0.224367
C	 2.2221878696	-0.8406690303	-0.988193166	-0.019247
O	 1.8114576414	-0.0077383135	-2.0727587382	-0.279893
C	 3.198591743	-0.227204521	-1.9161763524	 0.327744
C	 4.1486542275	-0.8684734611	-2.9428728248	-0.340933
C	 5.2867944015	 0.0828226557	-2.4553243021	-0.343662
C	 4.2479070793	 0.8256357002	-1.5835132151	 0.341076
O	 4.2566571138	 1.8314662533	-0.9347673381	-0.304771
H	 2.5402546446	-2.1792727849	 1.4300066173	 0.116396
H	 3.8669875349	-1.016290406	 1.2898505874	 0.121154
H	 2.574427015	-0.7465626338	 2.4641247317	 0.125144
H	 0.9195693911	-0.3910517288	 0.6292552996	 0.110166
H	 2.2621541122	 0.7362346919	 0.4385348612	 0.138645
H	 2.0149811367	-1.9018816261	-1.1485432196	 0.097095
H	 4.3303353571	-1.9374852799	-2.8214718532	 0.116355
H	 3.836963155	-0.6721696552	-3.9711124873	 0.128548
H	 6.0675973073	-0.399408286	-1.8604207717	 0.136137
H	 5.7632383394	 0.7050547824	-3.2163728369	 0.138931
62.5152	80.1471	136.9134	150.2397	217.1423	240.8568	315.6546	395.1125	448.3454	484.7025	534.7927	633.2598	711.9344	757.1191	767.7818	847.3277	886.0765	923.2508	944.6117	991.2589	1026.4619	1045.3714	1057.359	1094.3746	1119.9051	1163.1812	1169.3239	1211.5715	1223.285	1243.555	1287.3609	1333.0642	1360.2494	1412.6416	1438.878	1471.7395	1485.6523	1488.7267	1499.9988	1508.3264	1883.0644	3032.2631	3035.5239	3068.765	3076.8704	3078.7847	3089.5383	3110.2269	3114.5683	3119.1476	3135.7945
CCC1OC11CCC1=O	CC[C@H]1O[C@@]21CCC2=O	
InChI=1S/C7H10O2/c1-2-6-7(9-6)4-3-5(7)8/h6H,2-4H2,1H3	InChI=1S/C7H10O2/c1-2-6-7(9-6)4-3-5(7)8/h6H,2-4H2,1H3/t6-,7+/m1/s1
