19
gdb 1176	2.621357	1.1683469	1.025293	3.3835	77.35	-0.24558	-0.02449	0.22108999999999998	1236.6367	0.151785	-422.537392	-422.526479	-422.525534	-422.573233	38.877	
C	 2.796186692	-0.3732643519	 2.6426852982	-0.445565
C	 3.1255075387	-0.8636768415	 1.2179840185	 0.140122
C	 2.5848327346	-2.2740960054	 0.9699270574	-0.424327
C	 4.6490918605	-0.8467242387	 1.0785268059	 0.129885
O	 5.3298137579	-1.8285557459	 0.9242594419	-0.252117
C	 2.557666807	 0.1393296848	 0.1541208298	-0.065229
O	 3.1122341183	 1.4457228242	 0.2971788646	-0.428754
C	 1.0944043352	 0.1848496493	 0.1640508927	 0.291951
C	-0.1044901422	 0.2688596773	 0.2055538365	-0.43547
H	 3.1663052372	-1.0835075203	 3.3875073375	 0.132675
H	 3.2551121074	 0.5986751956	 2.8500087235	 0.118871
H	 1.7133629486	-0.278359796	 2.769143108	 0.134463
H	 3.075156593	-2.986953202	 1.6365539917	 0.13207
H	 1.5062045292	-2.3116990742	 1.1397145599	 0.123165
H	 2.7860781777	-2.6000101681	-0.0551698909	 0.123566
H	 5.1018577973	 0.1638329316	 1.1481185197	 0.099151
H	 2.8898951671	-0.2058932231	-0.8332680713	 0.127157
H	 2.5705645077	 1.9280755657	 0.9303484973	 0.292154
H	-1.1647642471	 0.3359490087	 0.220998589	 0.206233
54.0086	71.0724	143.1685	193.4858	211.902	222.5472	248.3561	277.3667	285.7283	310.0765	345.0619	365.3033	447.9034	468.9804	591.724	636.1491	676.1834	692.0061	770.8706	844.9137	919.6507	958.9754	974.7622	1019.2739	1032.9489	1077.6883	1169.6379	1219.5255	1248.7565	1276.6611	1334.5983	1393.7697	1406.901	1415.3315	1429.0101	1484.6908	1486.4916	1500.7696	1511.0376	1824.4917	2229.1612	2925.964	3030.1037	3037.2273	3050.0226	3108.8503	3115.3029	3118.5458	3135.0218	3499.1803	3821.8153
CC(C)(C=O)C(O)C#C	CC(C)(C=O)[C@H](O)C#C	
InChI=1S/C7H10O2/c1-4-6(9)7(2,3)5-8/h1,5-6,9H,2-3H3	InChI=1S/C7H10O2/c1-4-6(9)7(2,3)5-8/h1,5-6,9H,2-3H3/t6-/m1/s1
