19
gdb 3656	2.4205068	1.1696521	0.8952246	3.6863	77.64	-0.24471	-0.02958	0.21513000000000002	1332.4572	0.153725	-422.567164	-422.557178	-422.556234	-422.603273	34.822	
C	-2.3660779771	 4.2577368427	 1.2357251962	-0.421821
C	-1.2033824449	 3.2881584975	 1.284909613	-0.038484
C	-0.1931971004	 3.2044602751	 0.1938328956	-0.32949
C	-1.1186795101	 2.0067356656	 0.4368522106	 0.213997
C	-0.5344594471	 0.7519673156	 1.0815426766	-0.361067
C	 0.4189799433	 0.0436643372	 0.1370789597	 0.154729
O	 1.6116927992	-0.0071187705	 0.3056081632	-0.245259
C	-2.1615942819	 1.7602390979	-0.5862763731	 0.110124
O	-2.5643526637	 0.6614411777	-0.8916294014	-0.27605
H	-3.2381332834	 3.8683266958	 1.7709793497	 0.131296
H	-2.0771501849	 5.2012601933	 1.7108499711	 0.131
H	-2.6741348271	 4.4917083747	 0.2137258334	 0.12553
H	-0.8170741817	 3.1273112592	 2.2880408978	 0.106281
H	-0.3673133015	 3.7891932018	-0.7046881554	 0.125271
H	 0.8530637229	 3.0524932642	 0.4353539019	 0.146057
H	 0.0195327925	 1.0062895141	 1.9886810239	 0.116006
H	-1.3558877225	 0.0711525843	 1.3327917591	 0.133479
H	-0.0601835952	-0.4141244209	-0.753425564	 0.101975
H	-2.5614709365	 2.6686392747	-1.0857427981	 0.076425
31.9106	63.4565	113.2309	155.0608	199.7162	236.002	242.9747	292.1138	345.3433	427.1146	482.4636	496.2878	542.7689	735.2271	763.9508	874.4001	889.6658	895.6018	935.5519	981.6053	1030.5576	1051.8394	1067.0165	1086.7105	1111.5552	1124.4741	1193.0775	1215.2497	1268.467	1311.6653	1343.1425	1405.9631	1416.8679	1419.9839	1442.7907	1453.4951	1486.7787	1494.3079	1504.7015	1798.2973	1824.9821	2899.4411	2920.744	3038.5833	3044.6629	3099.0291	3112.3338	3114.5696	3128.7169	3144.344	3218.5642
CC1CC1(CC=O)C=O	C[C@@H]1C[C@]1(CC=O)C=O	
InChI=1S/C7H10O2/c1-6-4-7(6,5-9)2-3-8/h3,5-6H,2,4H2,1H3	InChI=1S/C7H10O2/c1-6-4-7(6,5-9)2-3-8/h3,5-6H,2,4H2,1H3/t6-,7-/m1/s1
