19
gdb 4910	2.0430964	1.3873986	1.2539723	2.2609	76.87	-0.25395	0.0377	0.29165	1155.991	0.153479	-422.489596	-422.479484	-422.47854	-422.524598	36.853	
C	 1.3061755616	-0.318543038	-0.1161838507	-0.258598
O	-0.0337305527	 0.1655888417	-0.0714170631	-0.303829
C	-0.4471927325	 0.7464603494	 1.1373759844	 0.401413
C	-1.7958633038	 0.3007345702	 1.6159423363	-0.315428
C	-0.5450862899	-0.1021428044	 2.3721552724	-0.325549
C	-0.0965400994	 2.2331340962	 1.2343922531	-0.117423
O	-0.4723138482	 2.8884412022	 0.0355021452	-0.411409
C	 1.3173187319	 2.4757576345	 1.5734795085	 0.334009
C	 2.4594222909	 2.7045305136	 1.8727933845	-0.471807
H	 1.5012970898	-1.0260367454	 0.6990637563	 0.114089
H	 1.4101394799	-0.8375582977	-1.0719348841	 0.126782
H	 2.0386882693	 0.4924716209	-0.059038277	 0.134628
H	-2.4598113104	 1.0388743354	 2.0516780231	 0.120514
H	-2.2842390608	-0.4646790058	 1.0246646132	 0.126453
H	-0.3356585918	 0.3599957089	 3.3309960855	 0.124196
H	-0.2299769931	-1.1365065539	 2.2948832158	 0.12255
H	-0.706806485	 2.6723374146	 2.0333840466	 0.111245
H	-0.269316378	 2.262917125	-0.6735301785	 0.290113
H	 3.4694558721	 2.9067655726	 2.1318998685	 0.198052
59.174	89.1771	136.3307	169.5885	211.1652	241.8333	265.7612	318.1373	344.5536	409.4315	434.2546	516.1221	557.1813	606.8568	628.4333	660.9459	766.2332	777.8308	868.9153	915.2704	952.9134	995.4852	1014.8954	1055.7932	1072.9482	1078.643	1092.5036	1183.5416	1187.3959	1218.7088	1232.2132	1287.9347	1309.5917	1360.4376	1429.7734	1456.2759	1476.2495	1489.2031	1498.0068	1512.5508	2225.6842	3021.1508	3032.8877	3091.9442	3125.1321	3136.2618	3141.4048	3219.0542	3235.3011	3500.5375	3756.0872
COC1(CC1)C(O)C#C	COC1(CC1)[C@H](O)C#C	
InChI=1S/C7H10O2/c1-3-6(8)7(9-2)4-5-7/h1,6,8H,4-5H2,2H3	InChI=1S/C7H10O2/c1-3-6(8)7(9-2)4-5-7/h1,6,8H,4-5H2,2H3/t6-/m1/s1
