19
gdb 3163	2.4048649	1.79746	1.3320961	1.5753	73.03	-0.23999	0.06527	0.30526	1009.9259	0.157466	-422.536205	-422.528035	-422.527091	-422.568319	32.605	
O	 0.484559598	 0.7174795334	 0.6951257754	-0.437547
C	-0.8827192584	 1.0667610413	 0.5262427118	 0.02693
C	-1.8178541227	-0.0717288322	 0.1117547511	-0.069055
C	-2.0749796987	-1.2329840688	 1.0448955616	-0.315882
C	-3.0223839005	-0.0602387096	 1.0301849282	-0.035074
C	-2.831399637	 1.0630646033	 2.0394717445	-0.094873
C	-1.6825735081	 0.9873160289	 3.034522368	-0.367369
C	-1.530441085	 1.7505214958	 1.7451776527	 0.3893
O	-1.4452254082	 3.1430000176	 1.800019174	-0.471146
H	 0.518114866	-0.0619447236	 1.2595953612	 0.277771
H	-0.8790904182	 1.8195107681	-0.2692578884	 0.099693
H	-1.9179788118	-0.2613451985	-0.9506783278	 0.090895
H	-2.4158140926	-2.1504058977	 0.5769342651	 0.11478
H	-1.4453941546	-1.4094093862	 1.9100275889	 0.104771
H	-4.0243544483	-0.2145517486	 0.6474332698	 0.087917
H	-3.7034555163	 1.6365992861	 2.3303831067	 0.096453
H	-1.7897991927	 1.6078984199	 3.9179747201	 0.115379
H	-1.1575685845	 0.0556528574	 3.2125959078	 0.101091
H	-0.5411305662	 3.3679835736	 2.0483909693	 0.285966
127.1991	177.9456	227.877	264.1847	296.6738	338.6891	419.3142	432.7038	494.2932	569.3697	618.0989	659.7415	692.9213	793.3214	806.5717	842.7305	897.7393	936.0518	958.9128	972.0383	992.2032	1020.1687	1039.001	1050.0911	1069.9856	1074.2305	1093.8502	1108.6795	1119.1462	1198.3801	1216.0469	1262.1628	1277.3671	1317.1252	1321.9027	1351.8537	1381.13	1409.817	1432.1997	1484.6621	1507.8866	3061.0249	3130.104	3139.0951	3169.4519	3175.4638	3186.7716	3210.2675	3218.364	3788.3603	3810.7105
OC1C2CC2C2CC12O	O[C@H]1[C@H]2C[C@H]2[C@H]2C[C@@]12O	
InChI=1S/C7H10O2/c8-6-4-1-3(4)5-2-7(5,6)9/h3-6,8-9H,1-2H2	InChI=1S/C7H10O2/c8-6-4-1-3(4)5-2-7(5,6)9/h3-6,8-9H,1-2H2/t3-,4+,5-,6+,7+/m1/s1
