19
gdb 3336	2.59502	1.8845026	1.5414791	0.9942	74.71	-0.23359	0.06006	0.29364999999999997	938.6845	0.158678	-422.488286	-422.481006	-422.480061	-422.519345	29.977	
O	 0.0716717214	 0.096171892	-0.2477208742	-0.43695
C	-0.8966994719	 0.4992078848	 0.6882625343	 0.099226
C	-2.2668851794	-0.2091251245	 0.7284420892	 0.012362
O	-2.89133832	 0.5570257596	 1.8059867777	-0.296775
C	-2.5677895754	 1.9581281378	 1.4826341139	-0.17229
C	-1.8227443865	 1.6863639354	 0.1945673208	 0.251699
C	-1.4880259248	 2.3133853474	-1.1660181819	-0.328113
C	-2.0165841966	 0.9883604018	-1.8327722929	-0.260446
C	-2.7337320986	 0.6106204067	-0.4876443664	-0.014133
H	 0.4508012123	-0.7326682922	 0.0605198528	 0.289501
H	-0.4505042536	 0.6507539524	 1.680019696	 0.070858
H	-2.4375536696	-1.2687461932	 0.9292657522	 0.065757
H	-3.4917499747	 2.530753391	 1.3509881713	 0.10454
H	-1.9850412472	 2.3874508521	 2.3054154285	 0.099608
H	-2.1222422995	 3.1732931048	-1.3998953364	 0.104418
H	-0.4435385781	 2.5797374147	-1.34033207	 0.111442
H	-2.7176893054	 1.1341668847	-2.6569163691	 0.094372
H	-1.2216687174	 0.3179919668	-2.1463323921	 0.127858
H	-3.8121756949	 0.7808735877	-0.5152633737	 0.077066
211.0974	234.2505	265.9854	310.7273	365.4227	383.794	423.9507	504.0601	601.2034	654.0718	706.4484	760.7657	823.8129	839.8256	857.5016	899.9233	908.1745	920.9236	978.1266	1005.7305	1050.7555	1074.542	1087.2332	1123.5668	1134.9326	1170.0615	1185.4282	1208.4767	1228.1096	1233.854	1248.7658	1256.3765	1264.738	1292.8423	1300.1405	1344.2543	1360.8722	1427.9155	1467.1606	1485.1188	1528.312	3011.9947	3028.0916	3059.3101	3073.184	3078.4269	3088.5784	3098.8006	3116.5535	3177.7122	3821.4503
OC1C2OCC11CCC21	O[C@@H]1[C@H]2OC[C@]31CC[C@@H]23	
InChI=1S/C7H10O2/c8-6-5-4-1-2-7(4,6)3-9-5/h4-6,8H,1-3H2	InChI=1S/C7H10O2/c8-6-5-4-1-2-7(4,6)3-9-5/h4-6,8H,1-3H2/t4-,5-,6+,7+/m0/s1
