19
gdb 5829	4.9906594	0.8325707	0.7576757	3.2045	82.35	-0.24682	-0.06499	0.18183	1515.3909	0.155692	-422.574127	-422.564833	-422.563889	-422.609006	32.768	
C	 1.2334721016	 1.5081470366	-0.5605999272	-0.381001
C	 0.8699686286	 0.0758282962	-0.9579813793	-0.179511
C	 2.0817863838	-0.7120682101	-1.4778904388	 0.106655
O	 3.1021059039	-0.7846086368	-0.4762234719	-0.28518
C	 3.4663401739	-2.1399241755	-0.2155202571	-0.16331
C	 2.559244908	-2.9600447442	-1.0951073357	 0.207459
C	 2.5581117893	-4.422450495	-1.1340370808	 0.074388
O	 3.2890982938	-5.1138715312	-0.4593203475	-0.264643
C	 1.785766463	-2.1438101801	-1.8171687349	-0.210672
H	 2.0119545766	 1.5046868072	 0.2062845229	 0.140344
H	 1.6100113974	 2.0733432364	-1.4204949366	 0.113895
H	 0.3620372352	 2.0388472424	-0.1663532112	 0.113099
H	 0.4512621597	-0.4624615027	-0.099507651	 0.103471
H	 0.1004731019	 0.0812960507	-1.7407720421	 0.094593
H	 2.4850444656	-0.1825169012	-2.3600157729	 0.089503
H	 4.5268487722	-2.3037677917	-0.4546981872	 0.120942
H	 3.3341070408	-2.370667468	 0.8500447579	 0.123331
H	 1.8250817131	-4.8710313667	-1.8400145974	 0.07375
H	 1.0397272015	-2.4427001261	-2.5443578091	 0.122887
50.4976	99.4325	112.9361	156.8095	200.3591	227.5869	281.4074	359.9108	406.2953	480.2573	537.4031	709.9359	731.3788	799.376	844.3303	892.0873	912.7228	938.272	998.7852	1016.5486	1039.8524	1057.8388	1075.3832	1116.6487	1138.6744	1191.8581	1218.6367	1283.7964	1288.1257	1321.9861	1361.015	1381.1033	1389.5939	1408.0407	1419.4034	1476.024	1495.929	1509.2926	1520.3085	1691.5836	1782.9934	2889.0621	2937.464	3002.6951	3024.4747	3030.048	3038.0595	3066.4385	3104.7721	3127.4959	3208.4326
CCC1OCC(C=O)=C1	CC[C@H]1OCC(=C1)C=O	
InChI=1S/C7H10O2/c1-2-7-3-6(4-8)5-9-7/h3-4,7H,2,5H2,1H3	InChI=1S/C7H10O2/c1-2-7-3-6(4-8)5-9-7/h3-4,7H,2,5H2,1H3/t7-/m1/s1
