19
gdb 5156	2.2449272	1.4543062	1.09647	2.4764	75.75	-0.23994	-0.01971	0.22022999999999998	1160.3443	0.155976	-422.536381	-422.527359	-422.526414	-422.570637	32.88	
O	-0.6669827177	-1.7325351306	-0.5506948336	-0.411705
C	-0.1211304783	-0.5042974617	-0.0795247125	-0.186271
C	-0.5030835186	 0.6524958885	-0.9501155495	 0.322153
C	 0.2870798918	 1.0765419533	-2.1683982832	-0.342366
C	 0.0552487016	 2.0729704945	-1.0686320367	-0.110479
C	-1.3611522475	 2.6577229405	-1.1730726964	-0.254084
C	-1.9475142789	 1.2204992011	-1.0486826574	-0.134281
C	-2.7470874272	 0.6457049227	-2.184217988	 0.137459
O	-2.9711343318	 1.2105812198	-3.2273337078	-0.25405
H	-0.3369964984	-1.8670790549	-1.4457878641	 0.283715
H	-0.5275923741	-0.3795044929	 0.9306474103	 0.110641
H	 0.9757495997	-0.555859002	 0.0124199412	 0.090141
H	 1.2926607485	 0.6690771443	-2.2196794123	 0.112365
H	-0.1964348804	 1.2030539737	-3.1336261153	 0.133033
H	 0.8771298514	 2.5129974	-0.5167630646	 0.093332
H	-1.6355343612	 3.288019319	-0.325365012	 0.107901
H	-1.5969745138	 3.1799018214	-2.1032804366	 0.124016
H	-2.4859806385	 1.0538037983	-0.1095453044	 0.092975
H	-3.0866888366	-0.401258745	-2.012952837	 0.085504
70.236	89.784	100.1567	200.1425	241.6768	294.3828	318.2256	388.0895	429.4907	444.9005	641.1048	673.976	720.7504	807.0833	852.6694	901.5468	925.6951	951.8827	960.0746	1007.0104	1023.1349	1034.9656	1057.678	1086.591	1095.5797	1106.6808	1151.1209	1174.9334	1202.7965	1256.7535	1262.5855	1292.4131	1347.0754	1360.5333	1398.5785	1415.7372	1429.8405	1480.325	1496.5641	1504.1476	1815.7133	2875.9114	2976.4707	3054.5097	3061.306	3072.3542	3111.957	3126.4261	3182.8189	3199.2991	3806.0953
OCC12CC1CC2C=O	OC[C@]12C[C@H]1C[C@H]2C=O	
InChI=1S/C7H10O2/c8-3-6-1-5-2-7(5,6)4-9/h3,5-6,9H,1-2,4H2	InChI=1S/C7H10O2/c8-3-6-1-5-2-7(5,6)4-9/h3,5-6,9H,1-2,4H2/t5-,6+,7-/m1/s1
