19
gdb 5390	2.8447495	1.3738466	1.022653	2.9552	77.09	-0.24313	-0.00338	0.23975000000000002	1184.9178	0.157795	-422.548174	-422.53965	-422.538706	-422.58174	31.746	
O	 1.2877606188	 1.5661096087	 0.0080464856	-0.411854
C	 0.7335200751	 0.2608792482	-0.0955970009	-0.153094
C	-0.2411293196	 0.1456865415	-1.2365771898	 0.27154
C	-1.4636515212	-0.3772389093	-1.1083878893	-0.163941
C	-2.4412134078	-0.5052975004	-2.2497601394	-0.263541
C	-2.252280717	 0.5741319075	-3.3344694595	-0.235966
C	-0.78792645	 0.8888320469	-3.6133458026	 0.037381
O	-0.2330307673	 2.003864882	-2.9015494967	-0.262507
C	 0.209154766	 0.6746865447	-2.5562388828	-0.035224
H	 0.5648213433	 2.196765116	-0.0798457354	 0.290347
H	 1.5947044347	-0.4013155887	-0.2564205361	 0.111459
H	 0.2512335829	-0.0571189817	 0.8418809694	 0.089047
H	-1.7792087267	-0.7597539802	-0.1393952885	 0.090185
H	-2.3377113526	-1.5070823877	-2.6928275207	 0.117896
H	-3.4664346283	-0.4634370992	-1.8664189644	 0.10969
H	-2.7504935423	 0.2639363734	-4.2583488589	 0.100435
H	-2.72971665	 1.5048544897	-3.010489344	 0.121854
H	-0.4623721425	 0.8325220244	-4.6515271695	 0.092128
H	 1.2472331647	 0.4798987341	-2.8243445165	 0.094166
73.4238	81.672	143.83	263.6076	282.3877	333.772	380.4256	391.9642	471.7109	542.9408	616.7793	707.9166	774.3245	798.6672	848.4091	885.6178	908.315	953.3942	957.6403	1004.3058	1044.9192	1058.1682	1088.4408	1099.8714	1136.185	1189.4427	1204.9181	1215.7864	1261.8225	1285.4063	1323.2344	1344.2464	1356.724	1386.2481	1401.4411	1425.7598	1463.3798	1475.9134	1483.7965	1503.5576	1728.2411	2981.7763	2999.4935	3033.843	3044.4021	3062.4849	3087.9565	3108.8034	3120.2128	3143.4596	3809.3943
OCC1=CCCC2OC12	OCC1=CCC[C@H]2O[C@@H]12	
InChI=1S/C7H10O2/c8-4-5-2-1-3-6-7(5)9-6/h2,6-8H,1,3-4H2	InChI=1S/C7H10O2/c8-4-5-2-1-3-6-7(5)9-6/h2,6-8H,1,3-4H2/t6-,7+/m1/s1
