19
gdb 5773	3.6197884	1.0714256	1.0591764	3.811	75.2	-0.23292	-0.00115	0.23176999999999998	1206.4066	0.158146	-422.562588	-422.554381	-422.553437	-422.595452	31.227	
O	-1.2939748193	-1.2827606552	-0.3706170667	-0.419522
C	-0.5406954032	-0.0923173447	-0.1880231695	-0.108305
C	-0.8598848244	 0.8269711765	-1.3584403788	 0.035978
C	-0.4578317123	 0.2510655109	-2.7670866609	-0.231481
C	 0.4276495373	 1.4038196566	-3.2956478086	-0.139482
C	 1.3027123069	 1.7247288546	-2.0388818133	-0.251123
C	-0.0574308524	 2.1513806651	-1.3853994989	-0.169621
C	-0.3836149301	 2.623897891	-2.819562504	 0.437117
O	-0.8920707775	 3.5819954322	-3.3190931282	-0.325524
H	-1.0742902516	-1.8924747805	 0.3396665774	 0.289032
H	-0.8075375338	 0.4082389145	 0.7566387632	 0.088939
H	 0.5382358778	-0.3095827556	-0.1505695171	 0.084417
H	-1.9342710519	 1.0348345291	-1.3221751349	 0.093564
H	 0.1030079352	-0.6829446663	-2.6747002645	 0.112361
H	-1.3246533836	 0.0588543921	-3.4028112775	 0.115337
H	 0.8389885011	 1.3277724348	-4.3000460707	 0.082571
H	 1.8287944311	 0.8799500247	-1.5903150951	 0.107002
H	 1.9833984385	 2.5648047785	-2.1867319813	 0.117826
H	-0.1198650976	 2.8166631718	-0.5261026309	 0.080914
94.1364	133.7017	182.2153	205.8225	260.0299	347.6279	428.3515	461.7973	493.4004	620.8428	662.8423	780.6724	786.0829	822.2921	845.0362	924.4711	940.8366	978.2041	990.9831	1014.0879	1019.8617	1047.1158	1069.4326	1087.9638	1094.5178	1131.5919	1170.1317	1198.2337	1217.3482	1238.9928	1247.1034	1249.2885	1274.0709	1310.2925	1319.3888	1380.1626	1460.1952	1493.9695	1505.3045	1525.5752	1902.8651	2968.5375	2997.5067	3054.9423	3065.1729	3076.0021	3113.569	3137.729	3139.6011	3145.3957	3831.2366
OCC1CC2CC1C2=O	OC[C@@H]1C[C@@H]2C[C@H]1C2=O	
InChI=1S/C7H10O2/c8-3-5-1-4-2-6(5)7(4)9/h4-6,8H,1-3H2	InChI=1S/C7H10O2/c8-3-5-1-4-2-6(5)7(4)9/h4-6,8H,1-3H2/t4-,5+,6-/m1/s1
