19
gdb 5712	2.81215	1.3480052	1.1132035	2.6591	78.63	-0.21853	0.00946	0.22799	1153.3063	0.157019	-422.539203	-422.530711	-422.529767	-422.57255	32.09	
O	 1.4012597835	 0.3175575492	-0.3346472091	-0.426531
C	 0.0361689066	 0.4212351827	 0.0313585376	-0.07312
C	-0.8745048926	 0.5349795831	-1.1778947635	-0.110486
C	-2.1638346818	-0.2670712202	-1.2199867635	-0.365946
C	-0.9860634185	-0.6688357482	-2.0757458522	 0.431009
O	-0.2278309064	-1.8157051743	-1.7054795868	-0.320624
C	 0.0858785246	-2.5724494589	-2.8813971614	-0.135895
C	-0.3897641037	-1.7222219024	-4.0278177351	-0.113121
C	-0.9980130601	-0.6393917432	-3.552823347	-0.147764
H	 1.4648786896	-0.5068678696	-0.8317854578	 0.287113
H	-0.2747632563	-0.4366565694	 0.6449385966	 0.091544
H	-0.0514237113	 1.3173187429	 0.6545937579	 0.106894
H	-0.8670534444	 1.5023036057	-1.6730117408	 0.091734
H	-2.3764789941	-0.8995761423	-0.36411259	 0.124773
H	-3.0385772135	 0.1537030074	-1.7046132144	 0.113156
H	 1.1677578004	-2.766361981	-2.9050517166	 0.112242
H	-0.4204288015	-3.5504078043	-2.846194931	 0.111619
H	-0.2531948201	-1.9947516689	-5.0657971576	 0.110375
H	-1.4615267706	 0.1567567117	-4.1201275053	 0.113029
79.7189	113.0817	135.1952	183.3432	318.0214	327.0939	428.5537	453.1474	503.5122	538.1225	613.2758	722.4846	779.7548	804.9238	840.4981	883.7561	905.6887	945.9917	950.5118	962.7337	994.4296	1042.0073	1043.6459	1064.6755	1070.6273	1090.3984	1118.5313	1145.9312	1196.0639	1208.4722	1260.9968	1273.4594	1353.048	1378.2592	1392.0246	1424.5882	1439.2774	1477.3826	1500.3502	1520.1735	1679.6674	2974.5686	2998.1031	3008.8399	3071.7721	3125.9729	3143.7439	3214.7809	3217.1202	3238.396	3787.9266
OCC1CC11OCC=C1	OC[C@@H]1C[C@@]21OCC=C2	
InChI=1S/C7H10O2/c8-5-6-4-7(6)2-1-3-9-7/h1-2,6,8H,3-5H2	InChI=1S/C7H10O2/c8-5-6-4-7(6)2-1-3-9-7/h1-2,6,8H,3-5H2/t6-,7-/m0/s1
