19
gdb 1509	3.5077838	1.0582553	1.0057621	3.2247	78.45	-0.23561	-0.03278	0.20283	1265.4562	0.153872	-422.578762	-422.569325	-422.568381	-422.613328	34.341	
C	-0.0552365754	 0.0772594083	 0.0121385624	-0.405504
C	 1.4720928637	-0.0570023973	-0.0313539859	 0.322155
C	 2.0252740442	-0.4960927782	 1.3315445651	-0.407172
O	 2.0360877251	 1.2372637847	-0.3618116627	-0.307822
C	 2.8216519763	 1.172812442	-1.5388971894	-0.023796
C	 2.2537144293	 2.1185328999	-2.6003324422	 0.136813
O	 2.8940434675	 2.5686471317	-3.5118837972	-0.24149
C	 2.7226988761	-0.2616204435	-1.999475108	-0.116865
C	 1.9528210843	-0.9404840085	-1.1586968972	-0.10989
H	-0.3440210626	 0.8145680361	 0.7669171825	 0.127151
H	-0.4402052374	 0.4033939037	-0.9575373092	 0.118051
H	-0.5239930116	-0.8783728363	 0.268219706	 0.114381
H	 1.623985836	-1.4729863086	 1.6203208959	 0.113368
H	 3.1156168583	-0.5649063204	 1.2984126265	 0.121929
H	 1.7458203786	 0.2308037002	 2.0998956594	 0.126343
H	 3.8601696255	 1.4777231621	-1.3402339314	 0.108563
H	 1.1702370369	 2.3326384301	-2.4566057287	 0.085985
H	 3.2153078435	-0.6220339437	-2.892672391	 0.125998
H	 1.6972076219	-1.9910101624	-1.2213324149	 0.111805
57.5957	68.9693	165.9936	200.2357	240.828	265.8396	301.7672	327.5887	371.9367	443.2017	470.7487	552.4389	643.7128	765.4185	786.3424	838.1057	875.3771	896.3605	924.865	960.978	965.1726	1010.7449	1037.3121	1064.8803	1078.3148	1123.9199	1191.0003	1200.118	1239.6046	1279.6706	1307.4057	1351.0781	1385.9632	1392.7219	1412.3087	1475.5375	1479.5549	1494.3366	1503.7708	1684.0458	1836.614	2881.5845	2995.209	3036.7778	3041.611	3109.1904	3115.5144	3121.3046	3123.7845	3208.7601	3236.3972
CC1(C)OC(C=O)C=C1	CC1(C)O[C@H](C=O)C=C1	
InChI=1S/C7H10O2/c1-7(2)4-3-6(5-8)9-7/h3-6H,1-2H3	InChI=1S/C7H10O2/c1-7(2)4-3-6(5-8)9-7/h3-6H,1-2H3/t6-/m0/s1
