19
gdb 5285	2.3233475	1.7309624	1.3530641	2.3658	75.21	-0.24207	0.00714	0.24921000000000001	1034.8866	0.15715	-422.533346	-422.525127	-422.524182	-422.566265	30.95	
C	 1.4048856997	-0.0720726243	-0.1084100088	-0.259979
O	 0.0171461079	-0.117623019	 0.1503152667	-0.295971
C	-0.4296792255	 0.6340321184	 1.2492033702	 0.371678
C	-1.9323413838	 0.9452179996	 1.105510183	-0.119434
O	-1.6982692966	 2.3673174839	 1.0301222409	-0.293708
C	-0.2694773884	 2.1888388368	 1.2290333445	 0.018252
C	 0.2008499063	 2.5328017129	 2.6114580278	-0.079006
C	 0.3627373236	 1.44269412	 3.3650725098	-0.062654
C	 0.0532547762	 0.1557076358	 2.6386202259	-0.350285
H	 2.003304095	-0.5079513693	 0.7038584914	 0.110232
H	 1.5728879273	-0.6595507774	-1.0138208527	 0.132764
H	 1.7560987191	 0.9544447637	-0.284198063	 0.112712
H	-2.3674233782	 0.5480129058	 0.1823675712	 0.111118
H	-2.5602480044	 0.6734607145	 1.9629223241	 0.096136
H	 0.2947388196	 2.6574354168	 0.4153484662	 0.078917
H	 0.362161781	 3.5528635247	 2.9411138965	 0.101303
H	 0.6827842521	 1.4510050673	 4.4021852463	 0.100825
H	 0.9343790351	-0.4929330364	 2.5628473263	 0.113252
H	-0.7140450959	-0.4364999539	 3.1525116335	 0.113849
80.6697	107.7095	189.0429	230.7685	274.5936	338.8758	390.4105	482.961	489.0427	583.5847	674.5922	738.2572	782.2059	857.0999	914.3427	926.1476	962.0346	972.9067	982.5927	1010.3231	1022.9301	1071.7151	1083.7869	1124.6781	1147.6334	1153.8732	1181.3449	1189.5905	1231.359	1249.9045	1273.3022	1302.3178	1329.7929	1362.9489	1376.0451	1475.0625	1482.283	1497.5693	1506.621	1510.6039	1672.9798	2993.0958	3018.0724	3028.0061	3041.8802	3051.1497	3054.8206	3078.2491	3119.5149	3177.5944	3205.8486
COC12COC1C=CC2	CO[C@]12CO[C@H]1C=CC2	
InChI=1S/C7H10O2/c1-8-7-4-2-3-6(7)9-5-7/h2-3,6H,4-5H2,1H3	InChI=1S/C7H10O2/c1-8-7-4-2-3-6(7)9-5-7/h2-3,6H,4-5H2,1H3/t6-,7+/m0/s1
