19
gdb 2558	2.4284819	1.8622969	1.4487189	2.2606	75.01	-0.23399	0.00969	0.24368	992.435	0.156929	-422.566317	-422.558185	-422.557241	-422.59843	31.678	
C	 1.2597245282	 0.9215477577	 0.149910892	-0.510383
C	-0.0465361986	 0.2192157619	-0.0065737885	 0.306395
C	-0.3793747049	-1.0574567563	 0.2048424845	-0.208379
C	-1.8936065744	-1.0909659798	 0.0618671145	 0.123483
O	-2.4432270289	-0.4661266097	 1.2520591555	-0.276312
C	-2.1470167193	 0.9181209091	 1.06250745	-0.103326
C	-1.3823012629	 0.9186631086	-0.3072909111	 0.241817
C	-1.3935763476	 2.1939521982	-1.1099062335	-0.499342
O	-2.1331098181	-0.1379013334	-0.9465514002	-0.256217
H	 1.2079752424	 1.6934084587	 0.9289173622	 0.130771
H	 2.0544672518	 0.2231373735	 0.4244539171	 0.131687
H	 1.557347306	 1.4313794471	-0.7744571294	 0.132124
H	 0.2419631544	-1.869806094	 0.5566044386	 0.105942
H	-2.4081012493	-2.0320048467	-0.1199344431	 0.089673
H	-3.0798999654	 1.487941591	 0.9819673949	 0.102674
H	-1.5473120101	 1.30714523	 1.8927121243	 0.097813
H	-0.8642049994	 2.9902159107	-0.5774616208	 0.123572
H	-0.907779117	 2.045747871	-2.078404291	 0.134413
H	-2.421394527	 2.5231724824	-1.2861749962	 0.133595
153.2307	171.3374	202.7047	230.7241	270.7837	301.1118	400.9123	464.2418	528.8513	586.447	641.3645	670.5217	742.1583	801.221	832.874	843.6437	877.1642	892.5983	935.7797	996.005	1009.5898	1012.6067	1061.3104	1065.2392	1142.8131	1161.0997	1196.5696	1214.9976	1264.5609	1279.9303	1322.406	1324.5518	1368.273	1413.6552	1418.2605	1477.422	1477.9091	1490.1975	1496.2	1512.3605	1693.9899	3017.9607	3025.7032	3044.3102	3064.2478	3073.8345	3113.1619	3115.9067	3120.9979	3154.845	3226.0662
CC1=CC2OCC1(C)O2	CC1=C[C@H]2OC[C@]1(C)O2	
InChI=1S/C7H10O2/c1-5-3-6-8-4-7(5,2)9-6/h3,6H,4H2,1-2H3	InChI=1S/C7H10O2/c1-5-3-6-8-4-7(5,2)9-6/h3,6H,4H2,1-2H3/t6-,7-/m0/s1
