19
gdb 1428	2.4034428	1.7051645	1.3445704	2.1548	76.36	-0.22103	0.02528	0.24631	1034.2016	0.155197	-422.556103	-422.54709	-422.546146	-422.588797	34.881	
C	 0.0011894588	-0.06426737	 0.0721634833	-0.46273
C	 1.5091735752	-0.0082459844	 0.1815813283	 0.323808
O	 2.0021757701	-0.3090138955	 1.4593169007	-0.448971
C	 2.2315835413	 1.0941655249	-0.5855787109	-0.189224
C	 3.602586187	 1.4762242084	-0.146077036	-0.060027
C	 4.4608870588	 0.4616797541	-0.2618696264	-0.062958
C	 3.7983708524	-0.7793333963	-0.8153597819	-0.335147
C	 2.339803972	-0.3564040441	-1.0384009733	 0.29356
O	 1.7146375972	-0.7509269804	-2.226720733	-0.462093
H	-0.4536864348	 0.6250744988	 0.790002483	 0.127127
H	-0.3336953162	 0.1931610163	-0.934498219	 0.135341
H	-0.3695786644	-1.0732342417	 0.2983180294	 0.098038
H	 1.7987278777	-1.2328224915	 1.6436406522	 0.277602
H	 1.6038674803	 1.8016572082	-1.117847652	 0.092723
H	 3.8383872006	 2.4612154513	 0.2389579674	 0.094049
H	 5.5052602774	 0.4838616609	 0.0272812745	 0.092108
H	 4.2366235187	-1.1006911376	-1.7688742257	 0.11038
H	 3.8856844702	-1.6237776953	-0.1185510363	 0.095686
H	 1.4312195777	-1.6667852461	-2.1301905244	 0.280729
187.6906	189.69	199.9797	210.5837	238.5601	261.9727	299.8694	362.7965	381.5298	419.9031	489.1549	574.9703	626.8944	674.4777	724.2831	763.3647	810.7721	909.9198	943.2354	945.9994	960.569	988.7954	993.0907	1051.0225	1077.2173	1112.3994	1132.0192	1153.4698	1195.5637	1243.6193	1267.3821	1294.5315	1312.2217	1342.6118	1371.9128	1407.2904	1430.6431	1467.0702	1490.0713	1501.4908	1673.6748	3014.1035	3017.0565	3047.7097	3086.3249	3135.8153	3163.0831	3189.0886	3213.7942	3791.0845	3792.7118
CC1(O)C2C=CCC12O	C[C@]1(O)[C@H]2C=CC[C@@]12O	
InChI=1S/C7H10O2/c1-6(8)5-3-2-4-7(5,6)9/h2-3,5,8-9H,4H2,1H3	InChI=1S/C7H10O2/c1-6(8)5-3-2-4-7(5,6)9/h2-3,5,8-9H,4H2,1H3/t5-,6+,7+/m1/s1
