19
gdb 5186	2.4621281	1.7458466	1.251073	2.1634	73.72	-0.23188	0.06275	0.29463	1046.3207	0.156335	-422.494839	-422.486549	-422.485605	-422.527561	32.04	
C	 1.1903794368	-0.659536602	-0.9818697945	-0.417279
C	 0.9660646871	 0.1910610146	 0.2612988799	-0.020219
C	 1.719028807	-0.2900645064	 1.5063017381	-0.118109
C	 2.0176804564	 0.9929770009	 2.2941296654	 0.080061
O	 1.4135188828	 2.0863160436	 1.6024305751	-0.349273
C	 1.8882989968	 1.445014648	 0.36697444	 0.414868
C	 2.1010594843	 2.4412202329	-0.7331977542	-0.197526
O	 0.884443313	 3.0970935136	-1.0482124923	-0.418161
C	 2.9291317408	 0.5886010421	 1.1901709872	-0.222194
H	 0.6781890783	-1.6232295401	-0.894145921	 0.11674
H	 0.8009255669	-0.1559664121	-1.8725862764	 0.12802
H	 2.2553881157	-0.8640904626	-1.13983195	 0.112864
H	-0.0968881751	 0.4213318281	 0.3919288198	 0.075879
H	 1.7106994976	-1.2706087265	 1.9663122277	 0.089549
H	 2.1481763346	 1.0549749334	 3.3662764393	 0.110209
H	 2.8842729776	 3.1548154959	-0.4340433754	 0.098666
H	 2.4369679679	 1.9349523986	-1.6440344824	 0.115836
H	 0.5387914194	 3.4457183293	-0.2178940688	 0.299708
H	 3.992012332	 0.4053782087	 1.1211552623	 0.100362
76.4886	155.6683	222.3958	226.5189	253.4031	347.8833	403.328	420.1288	505.3038	571.2062	692.2679	747.9913	774.9163	789.9207	807.1635	847.3855	897.4356	939.5365	947.7194	991.1109	1021.7969	1028.6817	1048.1612	1062.3929	1084.7307	1090.5913	1099.0191	1133.1288	1182.0691	1218.7443	1247.6174	1277.4026	1328.2869	1350.2808	1366.3502	1384.4185	1408.6412	1441.1946	1491.6399	1497.7467	1503.2456	2989.0132	3028.8026	3048.7915	3079.2646	3096.8365	3101.1442	3191.4788	3204.4966	3219.6698	3796.3614
CC1C2C3OC1(CO)C23	C[C@H]1[C@@H]2[C@@H]3O[C@@]1(CO)[C@H]23	
InChI=1S/C7H10O2/c1-3-4-5-6(4)9-7(3,5)2-8/h3-6,8H,2H2,1H3	InChI=1S/C7H10O2/c1-3-4-5-6(4)9-7(3,5)2-8/h3-6,8H,2H2,1H3/t3-,4-,5+,6-,7+/m0/s1
