19
gdb 5677	3.0422955	0.9156539	0.7802089	2.5981	77.72	-0.24992	0.04439	0.29431	1481.5981	0.155165	-422.505861	-422.496295	-422.495351	-422.541326	34.576	
O	 4.1071899919	-3.9008753891	 2.3068639582	-0.419819
C	 4.7985119655	-2.8653810585	 1.6407021384	-0.06487
C	 4.4312772266	-1.5150531301	 2.2305848998	 0.140289
C	 4.6982192255	-0.2460334166	 1.3968217267	-0.348763
C	 3.1657377951	-0.0616941135	 1.4413574851	 0.168165
C	 2.4235789179	-0.0242188337	 0.1035579827	-0.368413
C	 0.9745016415	-0.0251346587	 0.2563557816	 0.300427
C	-0.2179044929	-0.0173089133	 0.4035259533	-0.435311
O	 2.9941338729	-1.3136975097	 2.1457394044	-0.318751
H	 3.1752038077	-3.6491926285	 2.2908190431	 0.29619
H	 5.8709091504	-3.0564153182	 1.7641257365	 0.107856
H	 4.5789798491	-2.8615310195	 0.5595987535	 0.078968
H	 4.7614379955	-1.460876393	 3.2755373116	 0.086012
H	 5.2881880889	 0.5341625041	 1.8778112399	 0.115882
H	 5.1008787197	-0.4401255808	 0.3986961172	 0.109682
H	 2.8333635945	 0.7763702259	 2.0663029283	 0.091384
H	 2.7418868874	 0.8777993522	-0.4372663741	 0.132156
H	 2.7400956699	-0.8837678008	-0.5002052246	 0.13098
H	-1.2723007769	-0.0168892683	 0.5280402885	 0.197935
38.0513	76.7358	106.2945	139.4635	226.9451	314.6864	345.9976	377.1618	390.8065	466.0597	496.2788	516.9643	621.6681	642.41	717.9292	847.6014	858.0713	896.2942	926.8877	963.965	1027.6644	1034.6388	1043.7472	1083.2343	1108.1581	1134.924	1163.2706	1222.4876	1233.1831	1254.7626	1285.9845	1300.2891	1334.6732	1355.0826	1384.2572	1409.247	1437.5112	1456.0106	1490.1972	1497.7159	2242.0363	2962.1731	3015.4377	3025.7774	3030.3758	3058.872	3066.2843	3067.0139	3134.3576	3507.0937	3782.1636
OCC1CC(CC#C)O1	OC[C@H]1C[C@@H](CC#C)O1	
InChI=1S/C7H10O2/c1-2-3-6-4-7(5-8)9-6/h1,6-8H,3-5H2	InChI=1S/C7H10O2/c1-2-3-6-4-7(5-8)9-6/h1,6-8H,3-5H2/t6-,7-/m1/s1
