19
gdb 2769	2.6700799	1.3185331	1.1389057	0.4102	77.04	-0.23927	0.00612	0.24539	1152.16	0.156133	-422.558655	-422.549713	-422.548769	-422.591635	34.269	
C	-1.7403787415	-1.5441138101	 1.985746903	-0.487658
C	-1.6172168624	-0.0457856246	 1.8534647464	 0.28426
C	-2.8157092941	 0.8349414753	 1.9835506987	-0.137651
C	-2.5348158664	 2.0076343264	 2.5617751421	-0.146115
C	-1.0909641221	 2.0847717147	 3.0157074179	 0.088043
O	-0.9602807525	 2.1990961344	 4.4306005432	-0.431366
C	-0.4895346848	 0.7953286025	 2.4536726383	-0.205243
C	-0.5480060203	 0.5692729635	 0.9636569002	 0.065234
O	 0.3698931916	-0.3122710376	 0.3884203357	-0.430246
H	-2.0787459888	-1.8289090558	 2.9878544874	 0.111699
H	-2.4637611961	-1.9415376939	 1.2642126487	 0.118065
H	-0.7801338208	-2.0252822028	 1.790395124	 0.136923
H	-3.7873783646	 0.5399509914	 1.6003860612	 0.099647
H	-3.2303260929	 2.8224372078	 2.725920069	 0.10051
H	-0.5810445893	 2.9730285419	 2.6236253408	 0.091681
H	-1.514947009	 1.5124338423	 4.8181829703	 0.274895
H	 0.325525974	 0.3279257698	 2.9960027768	 0.091483
H	-0.853484821	 1.3980186211	 0.3229023655	 0.086512
H	 1.249303581	 0.0697554237	 0.4782177608	 0.289328
127.6551	178.335	197.3657	224.2886	248.0145	287.9579	312.8654	347.1764	399.6791	416.5839	496.2317	586.666	639.6476	742.056	779.8328	811.3527	857.6627	914.7131	937.5044	959.9241	979.0215	1036.6946	1043.862	1060.6564	1089.3555	1111.2825	1122.5083	1153.5713	1230.0112	1247.2255	1262.3212	1279.6094	1304.8392	1321.173	1380.0035	1412.7602	1422.6762	1438.9554	1493.633	1497.7753	1655.5162	3029.9644	3040.6819	3085.0023	3086.5224	3132.0258	3175.8371	3179.3358	3210.1845	3796.7975	3804.3577
CC12C=CC(O)C1C2O	C[C@@]12C=C[C@@H](O)[C@@H]1[C@H]2O	
InChI=1S/C7H10O2/c1-7-3-2-4(8)5(7)6(7)9/h2-6,8-9H,1H3	InChI=1S/C7H10O2/c1-7-3-2-4(8)5(7)6(7)9/h2-6,8-9H,1H3/t4-,5-,6-,7-/m1/s1
