19
gdb 1864	2.8475327	1.2627651	1.050176	3.1485	76.81	-0.2417	-0.03371	0.20799	1204.712	0.153606	-422.530588	-422.521059	-422.520114	-422.565004	34.417	
C	-0.783991461	 4.0010712358	-1.0205725737	-0.490588
C	 0.1991540642	 2.9584269183	-0.6038962258	 0.435851
C	 1.6946071181	 3.04095433	-0.6369263016	-0.39242
C	 0.9877039232	 1.8769878186	-1.3240269091	 0.188576
C	 1.1615995064	 1.5064951647	-2.7661309123	-0.494973
C	 0.419895664	 0.9450405067	-0.2395025063	 0.000811
O	-0.2035051274	 2.0529944025	 0.4455818057	-0.339604
C	 1.4160356879	 0.1721818724	 0.5959692756	 0.132163
O	 1.7841710351	-0.9401860921	 0.315331013	-0.247269
H	-0.960772827	 4.7076849203	-0.2016926016	 0.137732
H	-0.4044262643	 4.5670959423	-1.8759674698	 0.126043
H	-1.7431589695	 3.5508425769	-1.2939909763	 0.130931
H	 2.1037487403	 3.7651309837	-1.3356124337	 0.116897
H	 2.2722949546	 2.9183704302	 0.2740033352	 0.116402
H	 2.0263961052	 0.847268892	-2.9030669349	 0.138334
H	 0.2799317939	 0.9850128787	-3.1545434887	 0.125022
H	 1.3256721707	 2.3966806841	-3.3818467961	 0.122689
H	-0.3291054809	 0.253238839	-0.6442089862	 0.104718
H	 1.8080701765	 0.7212824559	 1.4801033966	 0.088685
62.7015	119.7344	163.7424	179.9089	188.2263	204.7992	295.9675	327.6234	401.4898	440.4923	486.5756	514.0446	615.7112	694.841	761.1383	829.7883	892.4042	942.8532	966.0093	972.7396	1022.8662	1042.9716	1060.3128	1089.34	1107.6015	1118.4994	1192.8414	1200.6151	1236.068	1311.2734	1314.6223	1393.7709	1406.7507	1417.0249	1437.4542	1473.0437	1485.1117	1492.4779	1497.4904	1515.2595	1824.2448	2893.6826	3026.8239	3034.1142	3038.3502	3088.661	3098.1141	3100.5885	3117.4113	3120.274	3205.7747
CC12CC1(C)C(O2)C=O	C[C@]12C[C@@]1(C)[C@H](O2)C=O	
InChI=1S/C7H10O2/c1-6-4-7(6,2)9-5(6)3-8/h3,5H,4H2,1-2H3	InChI=1S/C7H10O2/c1-6-4-7(6,2)9-5(6)3-8/h3,5H,4H2,1-2H3/t5-,6+,7+/m1/s1
