19
gdb 2657	2.5020256	1.3637972	1.0497302	2.0224	78.45	-0.21057	0.02186	0.23243	1188.7286	0.156566	-422.548054	-422.539157	-422.538213	-422.581874	33.507	
O	-2.1609685674	 1.6470359354	-0.383866751	-0.421923
C	-1.2875912803	 0.9603520333	 0.4643064324	 0.008602
C	-1.5212437551	-0.4994598075	 0.6126264584	 0.009531
O	-0.3922221769	-1.3198624072	 0.5974761323	-0.415532
C	-1.7742041615	 0.4328122596	 1.8060481517	 0.242364
C	-0.8706736487	 0.4187517135	 3.0471077567	-0.303188
C	-1.8449354488	 0.4725202772	 4.2620572966	-0.264016
C	-3.1992743826	 0.7043463017	 3.6341942555	-0.086305
C	-3.1512514327	 0.6771536594	 2.3013079033	-0.142878
H	-2.3208144838	 2.5163679053	-0.0007747845	 0.28866
H	-0.2414682398	 1.2700946257	 0.426104016	 0.092809
H	-2.4048347449	-0.8924442474	 0.1095511088	 0.095028
H	-0.5809335204	-2.0948895795	 1.1375367854	 0.289796
H	-0.2274140589	-0.4651167132	 3.0659377728	 0.099486
H	-0.2036324548	 1.2869281151	 3.0476660424	 0.10444
H	-1.8330890345	-0.4619803988	 4.8390685672	 0.104838
H	-1.5751467205	 1.2644021113	 4.9710658405	 0.105344
H	-4.0981748774	 0.8512684157	 4.2225357984	 0.091451
H	-3.9937098908	 0.8032456903	 1.6317486472	 0.101494
43.9674	145.3911	189.2317	231.9526	251.0869	295.8409	342.9816	352.7035	429.1944	492.4214	549.9358	597.2953	746.7512	758.0612	797.2782	822.703	854.9124	921.9807	967.4705	980.1114	987.4409	1015.2193	1055.0486	1058.728	1114.7494	1138.3082	1168.7856	1176.4015	1224.7622	1240.9993	1260.8609	1276.9297	1292.0007	1309.5631	1320.5843	1378.3416	1395.49	1484.4926	1494.2367	1506.4402	1675.1346	3014.5414	3039.6656	3052.3878	3087.6004	3090.0007	3106.4446	3187.6698	3214.3674	3801.4688	3802.653
OC1C(O)C11CCC=C1	O[C@@H]1[C@@H](O)[C@]21CCC=C2	
InChI=1S/C7H10O2/c8-5-6(9)7(5)3-1-2-4-7/h1,3,5-6,8-9H,2,4H2	InChI=1S/C7H10O2/c8-5-6(9)7(5)3-1-2-4-7/h1,3,5-6,8-9H,2,4H2/t5-,6-/m1/s1
