19
gdb 2741	2.0743082	1.5424604	1.1980953	4.2916	79.28	-0.2289	-0.01576	0.21314	1133.5566	0.155029	-422.542915	-422.533618	-422.532674	-422.576578	34.342	
C	 1.278016889	 1.1130989031	-0.1696171925	-0.457878
C	 1.1388452373	-0.3712834293	 0.1066284473	-0.130317
C	 1.9086239081	-1.3211324765	-0.7326281185	 0.366065
O	 2.598181847	-0.9788238434	-1.8678039738	-0.442673
C	 1.5631927819	-2.7753430029	-0.4574055468	-0.277776
C	 1.8319079254	-2.5665967737	 1.0670004247	-0.293512
C	 2.2684956281	-1.1243071556	 0.8199545407	 0.174319
C	 3.4364861831	-0.5067510849	 1.4351779738	 0.049153
O	 4.1424053984	-1.0595492999	 2.2535313871	-0.284663
H	 1.0473982263	 1.7026542462	 0.722225636	 0.141191
H	 2.2883934607	 1.3902218655	-0.4865783176	 0.127207
H	 0.580919522	 1.4216563519	-0.957212205	 0.12783
H	 0.1305180496	-0.6588184174	 0.4118019034	 0.089994
H	 2.3586108284	-0.0860918519	-2.1385695001	 0.296861
H	 0.5579688325	-3.0877821696	-0.760902634	 0.100681
H	 2.2943277992	-3.4462727942	-0.9128821476	 0.124355
H	 0.9606264875	-2.680981275	 1.7195821505	 0.100044
H	 2.6473384556	-3.1787601234	 1.4523530244	 0.133706
H	 3.6746206303	 0.523958881	 1.0915106479	 0.055412
98.8496	154.6345	178.0897	210.9673	217.0061	232.806	270.2073	287.8	394.0376	462.6822	510.22	552.0782	635.7274	674.7087	740.1467	783.5464	804.3585	946.745	977.2909	990.2903	1031.5642	1042.1059	1067.307	1095.0129	1133.5108	1163.1806	1192.5438	1213.2279	1240.9629	1257.8356	1319.8563	1370.0458	1382.0324	1422.8977	1431.126	1451.0066	1480.796	1500.5377	1505.4466	1511.1158	1772.5219	2879.3829	3032.9506	3043.256	3056.3538	3072.2035	3096.1455	3110.8804	3113.3637	3137.464	3809.3577
CC1C2(O)CCC12C=O	C[C@H]1[C@]2(O)CC[C@]12C=O	
InChI=1S/C7H10O2/c1-5-6(4-8)2-3-7(5,6)9/h4-5,9H,2-3H2,1H3	InChI=1S/C7H10O2/c1-5-6(4-8)2-3-7(5,6)9/h4-5,9H,2-3H2,1H3/t5-,6+,7-/m1/s1
