19
gdb 1571	2.4931393	1.7298215	1.3363126	2.478	75.24	-0.24798	-0.0056	0.24238	1024.7441	0.157005	-422.558017	-422.549836	-422.548892	-422.590256	32.459	
C	-0.0431815448	 0.0012436484	 0.0704496603	-0.424877
C	 1.4836997921	-0.0134231738	 0.1307905606	 0.340239
O	 1.9159409768	 1.33547612	 0.2432431586	-0.470078
C	 1.9749326923	-0.8053900842	 1.3681452311	-0.280921
C	 3.4387872178	-1.1614761874	 1.3128652389	-0.065357
C	 4.0915428934	-1.3688330484	 0.1687865711	-0.083457
C	 3.386852126	-1.2638987872	-1.1317264567	 0.008154
O	 3.2078930461	 0.0643224489	-1.6927334136	-0.267715
C	 2.065594173	-0.6228466057	-1.1668293766	-0.019639
H	-0.452046151	 0.435835327	 0.9870889062	 0.124307
H	-0.3766337503	 0.6113398454	-0.7736904114	 0.123917
H	-0.4462519152	-1.0106472311	-0.042970306	 0.108966
H	 2.7327996541	 1.3980745298	-0.2717577387	 0.290904
H	 1.7706332594	-0.1870729037	 2.2479163237	 0.119057
H	 1.3848111344	-1.7254923801	 1.4928541915	 0.107255
H	 3.9636029535	-1.2633874284	 2.2594450199	 0.099313
H	 5.1447462364	-1.6323449503	 0.1576877495	 0.096469
H	 3.6360883894	-2.0051814193	-1.8898323567	 0.099552
H	 1.3434548167	-0.9239845398	-1.9246114616	 0.093911
82.5903	232.3127	247.4559	279.4796	329.1454	341.4481	397.0713	448.0776	485.2049	509.5727	542.6977	576.4757	711.8976	723.495	839.4327	855.6173	875.7265	915.0557	923.4599	966.4887	981.1909	998.6171	1029.4357	1066.0575	1107.6476	1140.9042	1163.1446	1189.2042	1217.3533	1274.3642	1289.7968	1337.1015	1350.9423	1402.5906	1415.6068	1433.6028	1453.48	1460.4995	1485.5095	1496.468	1711.1246	3002.3028	3037.5934	3076.6893	3110.297	3112.4846	3119.9222	3124.0142	3155.1346	3181.7839	3730.8255
CC1(O)CC=CC2OC12	C[C@@]1(O)CC=C[C@@H]2O[C@H]12	
InChI=1S/C7H10O2/c1-7(8)4-2-3-5-6(7)9-5/h2-3,5-6,8H,4H2,1H3	InChI=1S/C7H10O2/c1-7(8)4-2-3-5-6(7)9-5/h2-3,5-6,8H,4H2,1H3/t5-,6-,7+/m0/s1
