19
gdb 3321	2.976955	1.1098577	0.915124	1.9997	75.9	-0.242	-0.02009	0.22191	1285.5676	0.156911	-422.565285	-422.55666	-422.555716	-422.598984	32.119	
O	-2.2291075364	 2.3445238079	-1.4329685051	-0.430731
C	-0.9038330075	 1.9900341233	-1.6982135128	 0.078714
C	-0.6871544084	 0.5340612202	-1.9730318683	-0.043495
C	 0.5158694241	 0.1391610607	-2.8132361574	-0.227639
C	 1.7126984045	 0.9003484959	-2.1909110365	-0.262051
C	 1.3486144294	 1.1521869377	-0.6951152016	-0.09151
C	 1.8765815021	 0.0371703886	 0.1835045403	 0.162032
O	 2.5701589039	 0.1941376698	 1.1551436205	-0.253663
C	-0.1799819932	 1.1424709056	-0.6734175415	-0.103281
H	-2.2241663251	 3.0566597073	-0.7844054834	 0.287664
H	-0.3369115401	 2.7286635435	-2.2671153185	 0.083637
H	-1.5737786223	-0.0892317	-1.9774360872	 0.099012
H	 0.6654999558	-0.9438459258	-2.7379730548	 0.108116
H	 0.3970449361	 0.3727244204	-3.8766841111	 0.106587
H	 2.6553683222	 0.3559108941	-2.3010756837	 0.1123
H	 1.8539924097	 1.8650635635	-2.6855109453	 0.117761
H	 1.7776853943	 2.0875800877	-0.3220332983	 0.088632
H	 1.5666108063	-0.9857162176	-0.1385422656	 0.071631
H	-0.6978763851	 0.9653932971	 0.2632689803	 0.096284
56.8068	109.4179	185.8933	250.1515	275.7683	320.5036	338.24	357.4804	431.4892	451.3273	648.4782	735.2556	809.7362	842.7939	868.7243	904.4903	922.0786	953.955	976.5968	998.7114	1036.8527	1045.5742	1086.6696	1105.6681	1121.7322	1153.7275	1190.0622	1196.8817	1205.6492	1259.2586	1278.2248	1299.608	1310.6563	1320.1805	1347.3608	1356.0792	1430.852	1466.3141	1490.9744	1504.9802	1832.0815	2848.5311	3037.2379	3055.0878	3065.5878	3072.7039	3082.9995	3100.8857	3168.7169	3185.6971	3801.6288
OC1C2CCC(C=O)C12	O[C@@H]1[C@H]2CC[C@H](C=O)[C@@H]12	
InChI=1S/C7H10O2/c8-3-4-1-2-5-6(4)7(5)9/h3-7,9H,1-2H2	InChI=1S/C7H10O2/c8-3-4-1-2-5-6(4)7(5)9/h3-7,9H,1-2H2/t4-,5+,6-,7-/m1/s1
