19
gdb 5042	2.802391	1.2261376	1.0286254	2.877	78.37	-0.23512	-0.00505	0.23007	1230.8459	0.155341	-422.553806	-422.544555	-422.543611	-422.588006	34.164	
C	 1.2705392533	 0.5636875121	 1.3057904235	-0.375305
C	 0.7881864953	 0.6154242363	-0.1520183136	-0.287621
C	 1.6954665135	-0.1129280018	-1.1007547717	 0.258237
C	 1.6450431501	-1.5862998222	-1.3589330327	-0.374616
C	 1.3247592694	-0.7267384372	-2.5460500692	 0.28218
O	 0.1441509016	-0.8908081349	-3.2149514815	-0.446638
C	 2.4770719416	 0.0433967264	-3.0622463107	 0.324182
O	 2.6499604519	 0.5243604801	-4.1551431947	-0.347004
C	 3.0191002792	 0.4275135188	-1.6609161112	-0.406511
H	 1.3314406377	-0.4690030312	 1.6637875224	 0.121446
H	 2.2638674967	 1.012133333	 1.4101172175	 0.122282
H	 0.585492916	 1.1095734302	 1.9615991755	 0.118075
H	-0.2175528825	 0.1836082292	-0.2239416217	 0.11174
H	 0.6999166701	 1.662621002	-0.4690566905	 0.104913
H	 2.5456958432	-2.1966123011	-1.3316989776	 0.117653
H	 0.7579509486	-2.0902498592	-0.9829446442	 0.13297
H	 0.1076071105	-0.2023630932	-3.8926908223	 0.302437
H	 3.9317170435	-0.0706878854	-1.3206622946	 0.115037
H	 3.1437101103	 1.5112196281	-1.5845161129	 0.126541
73.7469	84.6787	129.5237	208.125	236.8225	261.9349	357.7763	390.0325	423.4017	473.2707	515.991	577.1882	653.4602	687.9696	709.033	774.2425	790.283	896.6095	958.0337	979.8485	993.373	1022.0897	1046.2237	1086.8184	1102.2941	1116.7814	1142.9049	1202.6108	1227.0789	1320.2636	1329.3819	1369.1068	1392.4993	1411.3299	1424.2842	1467.225	1480.0432	1497.8923	1507.3443	1507.9503	1832.372	3019.7363	3036.0946	3051.1604	3057.1192	3095.7422	3107.3626	3109.1197	3109.7767	3184.7636	3764.296
CCC12CC1(O)C(=O)C2	CC[C@@]12C[C@]1(O)C(=O)C2	
InChI=1S/C7H10O2/c1-2-6-3-5(8)7(6,9)4-6/h9H,2-4H2,1H3	InChI=1S/C7H10O2/c1-2-6-3-5(8)7(6,9)4-6/h9H,2-4H2,1H3/t6-,7+/m1/s1
