19
gdb 943	2.1333426	1.316313	0.9234237	3.9375	76.83	-0.24656	-0.02792	0.21864	1289.2392	0.154685	-422.56507	-422.555515	-422.55457	-422.601301	32.876	
O	 0.3089284278	-0.9297751487	-0.4206431256	-0.245255
C	 0.4492047927	 0.2376418253	-0.1595095125	 0.166557
C	-0.1491318257	 0.9199157024	 1.053598524	-0.309118
C	-1.1357226427	 2.0153123987	 0.6478663416	 0.023155
C	-1.9598625001	 2.7395658756	 1.7482365163	-0.246123
C	-3.1980600301	 2.7079596795	 0.8111116154	-0.248837
C	-2.4677460331	 1.6037704	-0.0282047426	-0.075486
C	-2.5646087613	 1.7029822604	-1.5233356727	 0.139384
O	-1.6436398149	 2.0009029464	-2.2441698282	-0.248422
H	 1.0322981564	 0.9101976342	-0.8277581632	 0.085676
H	-0.6324893109	 0.1597403282	 1.6758959912	 0.112345
H	 0.6699400552	 1.3713152297	 1.6317086092	 0.116701
H	-0.6345680022	 2.744613149	 0.0029210131	 0.098525
H	-2.1053558151	 2.1029427002	 2.6263053864	 0.108157
H	-1.6047660327	 3.7173791011	 2.0807613357	 0.107976
H	-4.1612202649	 2.4438637497	 1.2504751632	 0.112686
H	-3.3108675203	 3.6370941159	 0.2456626735	 0.117674
H	-2.8067019598	 0.6079334	 0.2835984989	 0.103023
H	-3.5763083584	 1.5023478823	-1.9447317638	 0.08138
40.6372	48.2503	81.4895	122.6786	161.6088	232.7941	278.3238	356.8278	410.6714	507.1118	593.7582	677.0017	744.8386	811.9673	852.0515	891.14	934.6097	940.0661	959.3981	1004.0176	1030.1469	1081.8701	1116.2319	1128.1006	1143.7963	1195.465	1219.5975	1238.2214	1259.3957	1262.7105	1279.5308	1291.4412	1346.5411	1400.4628	1419.3623	1430.4044	1466.3356	1484.0187	1500.3502	1814.7889	1830.8813	2870.9732	2885.5004	3013.4569	3038.545	3055.0242	3060.8836	3065.589	3088.4076	3109.822	3127.9473
O=CCC1CCC1C=O	O=CC[C@@H]1CC[C@H]1C=O	
InChI=1S/C7H10O2/c8-4-3-6-1-2-7(6)5-9/h4-7H,1-3H2	InChI=1S/C7H10O2/c8-4-3-6-1-2-7(6)5-9/h4-7H,1-3H2/t6-,7-/m0/s1
