19
gdb 5618	3.5295151	1.2087637	1.0200486	1.6549	76.83	-0.22697	0.00281	0.22978	1200.1794	0.156247	-422.536629	-422.527975	-422.52703	-422.569743	32.99	
C	 1.4606391464	-0.1740147953	 0.0069004465	-0.229453
O	 0.0590463983	-0.0329590477	 0.0477131585	-0.244071
C	-0.3955222114	 0.752446078	 1.1401439653	 0.066927
C	-1.9152260432	 0.7244558659	 1.1391923854	-0.096042
C	-2.4426770378	 1.9465332621	 1.1014744716	-0.180463
C	-1.3809814597	 3.0032659512	 1.044908384	 0.38336
O	-1.5792397917	 4.2274028582	 1.6776867931	-0.466395
C	-0.5224280011	 2.9970819316	-0.1837744115	-0.302076
C	-0.062680661	 2.2459171438	 1.0557599793	-0.154983
H	 1.849357202	-0.6303583001	 0.931848207	 0.099168
H	 1.6956729083	-0.8302518204	-0.8347061914	 0.125122
H	 1.9687270028	 0.7897446297	-0.1418651971	 0.110832
H	 0.0130463331	 0.3240093464	 2.0731358729	 0.064511
H	-2.4566600935	-0.2129668147	 1.0999554854	 0.106207
H	-3.4986624065	 2.1916885006	 1.0711471231	 0.104095
H	-1.7009451739	 4.0577454856	 2.6188747438	 0.280798
H	-0.8438176747	 2.4284390747	-1.0490588012	 0.126506
H	 0.0059271131	 3.9206040262	-0.3955228273	 0.118352
H	 0.7834036405	 2.6457046441	 1.6009650724	 0.087606
88.4279	124.8354	179.4208	228.8278	292.8382	320.3077	364.2199	397.1208	435.3099	501.0605	558.2526	634.3822	732.4106	742.4399	791.8146	876.0202	918.8791	938.3349	954.5839	960.8164	992.832	1014.6026	1051.3248	1068.6396	1078.2586	1127.2182	1144.3637	1181.3249	1216.0765	1232.234	1262.6269	1293.5907	1337.2475	1359.2275	1379.0998	1407.655	1473.4218	1478.397	1485.4134	1509.8069	1679.1981	2933.4724	2971.4928	3026.0469	3112.8559	3133.6601	3186.3109	3189.8984	3217.7034	3228.7416	3787.7275
COC1C=CC2(O)CC12	CO[C@@H]1C=C[C@]2(O)C[C@H]12	
InChI=1S/C7H10O2/c1-9-6-2-3-7(8)4-5(6)7/h2-3,5-6,8H,4H2,1H3	InChI=1S/C7H10O2/c1-9-6-2-3-7(8)4-5(6)7/h2-3,5-6,8H,4H2,1H3/t5-,6-,7+/m1/s1
