19
gdb 2692	3.2416659	1.0458529	0.8758844	2.0448	77.42	-0.25245	-0.02704	0.22541	1329.4393	0.15473	-422.53622	-422.527094	-422.52615	-422.570582	33.153	
C	 3.339038952	-0.2132505773	 0.5548828435	-0.42291
C	 1.8847393189	-0.3827175455	 0.149270246	-0.07555
C	 1.4908263448	-0.2202501179	-1.3655630562	-0.082389
C	 0.1920042016	 0.5235784545	-0.9100728329	-0.354927
C	 0.8520624389	 0.7083939863	 0.4545531728	 0.455898
C	 1.0203322209	 1.9402891886	 1.2266361491	-0.267363
O	 0.172795878	 0.8702202637	 1.6794527429	-0.273066
C	 1.302088043	-1.4931830026	-2.1376703053	 0.159337
O	 1.8677597268	-1.7803020779	-3.1610189856	-0.252492
H	 3.4422962383	-0.2273939317	 1.6451810122	 0.129557
H	 3.95663281	-1.0224810047	 0.1522083458	 0.130024
H	 3.7453890183	 0.7345135546	 0.1870818806	 0.120158
H	 1.4934512005	-1.3397030273	 0.5196579251	 0.092377
H	 2.1848858945	 0.4326773933	-1.8987853855	 0.093033
H	-0.0975219619	 1.4112165361	-1.4751288187	 0.120847
H	-0.6635961701	-0.1578018697	-0.8484584694	 0.12103
H	 1.9218622961	 2.098930683	 1.8163521503	 0.119739
H	 0.5010969462	 2.8466695709	 0.9174370032	 0.118377
H	 0.5689472831	-2.1949633064	-1.6693861978	 0.068318
66.0768	67.399	198.8457	211.198	221.0446	255.8989	314.8309	342.2268	410.417	434.4666	517.5188	600.3688	723.2455	815.1346	863.3489	873.7952	900.2748	913.7803	961.4915	1044.3823	1054.1828	1077.0755	1100.3615	1125.219	1145.7815	1158.0315	1170.4967	1205.269	1237.1223	1238.1286	1258.672	1313.7721	1372.7064	1406.7688	1426.7631	1438.0063	1482.414	1493.6437	1496.8847	1538.1202	1829.4774	2834.8836	3022.5669	3032.2418	3052.0746	3083.1254	3096.0648	3101.7518	3105.1385	3122.1314	3170.4614
CC1C(CC11CO1)C=O	C[C@@H]1[C@H](C[C@@]21CO2)C=O	
InChI=1S/C7H10O2/c1-5-6(3-8)2-7(5)4-9-7/h3,5-6H,2,4H2,1H3	InChI=1S/C7H10O2/c1-5-6(3-8)2-7(5)4-9-7/h3,5-6H,2,4H2,1H3/t5-,6-,7+/m1/s1
