19
gdb 656	5.0587488	0.8672583	0.788198	4.2894	76.32	-0.27188	0.01393	0.28581	1447.4097	0.1576	-422.573671	-422.565367	-422.564423	-422.60748	30.634	
O	 1.3193811299	 0.2793559671	-0.233663603	-0.315486
C	 0.1538642219	 0.0657663679	-0.1443546333	 0.444961
C	-0.7783961897	-1.1448227166	-0.081309557	-0.438183
C	-1.887599019	-0.0792810716	 0.0256736799	 0.111443
O	-0.8617037202	 0.9820256284	-0.0497765937	-0.251774
C	-2.8941760543	 0.0274612429	-1.0889353861	 0.042912
C	-3.9202658902	 1.1961528128	-1.0653604023	-0.230947
C	-5.0089412015	 0.1991513697	-1.5464371991	-0.20938
C	-4.0927519737	-0.9672799234	-1.08573345	-0.240542
H	-0.7863427043	-1.7523700756	-0.9884579376	 0.141572
H	-0.6252699113	-1.7854869234	 0.7883572464	 0.143293
H	-2.3722588177	-0.0300699951	 1.0060682913	 0.091969
H	-2.3697849611	-0.0021767132	-2.0506887317	 0.078132
H	-4.1071367157	 1.5389752262	-0.04256197	 0.104842
H	-3.7045966376	 2.0664751561	-1.6876018514	 0.110799
H	-5.9995516199	 0.2717534267	-1.0929140449	 0.102387
H	-5.1237730063	 0.2167698818	-2.6337157231	 0.108341
H	-4.3367574731	-1.2939115586	-0.0691670225	 0.102425
H	-4.0202731964	-1.8505614121	-1.7242413318	 0.103235
63.598	78.3107	136.8485	162.8066	332.2852	341.4239	402.3001	520.102	533.8745	636.4586	751.0536	774.9996	784.1257	874.6165	900.8962	919.0925	936.1571	952.0264	962.5026	989.999	1020.7867	1050.1598	1090.3686	1119.5208	1133.6749	1204.2573	1208.953	1222.0884	1246.7269	1257.3832	1261.2339	1276.8081	1286.6492	1305.9056	1329.3355	1418.629	1456.152	1478.047	1487.3139	1510.1843	1938.7884	3041.8825	3047.6728	3055.1413	3063.248	3065.6462	3087.6478	3102.879	3112.387	3125.1536	3145.3582
O=C1CC(O1)C1CCC1	O=C1C[C@@H](O1)C1CCC1	
InChI=1S/C7H10O2/c8-7-4-6(9-7)5-2-1-3-5/h5-6H,1-4H2	InChI=1S/C7H10O2/c8-7-4-6(9-7)5-2-1-3-5/h5-6H,1-4H2/t6-/m1/s1
