19
gdb 3506	2.2664587	1.8366116	1.0967924	1.8244	75.3	-0.2381	0.01376	0.25186000000000003	1097.7414	0.158401	-422.549239	-422.541266	-422.540322	-422.58211	30.668	
O	 0.5092359416	 0.4899753833	 0.9818384704	-0.445262
C	-0.847486796	 0.9062587229	 0.9303513673	 0.058933
C	-1.0174782407	 1.8617035803	-0.2189078799	-0.051732
C	-2.235478256	 2.1961370406	-0.6448153185	-0.076524
C	-3.4607635383	 1.6067818827	 0.0157821908	-0.292177
C	-3.2452649329	 0.1069739866	 0.2922058856	-0.058589
C	-3.6846149171	-0.4901800075	 1.6476404137	-0.094301
O	-2.3211141013	-0.8017520578	 2.0092407326	-0.3041
C	-1.8217832794	-0.2689646425	 0.7584023466	 0.102514
H	 0.6127096925	-0.0647181987	 1.7619701615	 0.289312
H	-1.1246711079	 1.4123188292	 1.8719809339	 0.084843
H	-0.1095575163	 2.2650529613	-0.655526662	 0.103563
H	-2.3670881121	 2.9041409443	-1.4571793377	 0.093965
H	-3.6483823566	 2.1281929592	 0.9661235665	 0.113962
H	-4.3533427577	 1.7637386723	-0.5968361888	 0.105626
H	-3.5728765845	-0.4776476896	-0.5692076445	 0.085965
H	-4.1432554626	 0.2183558901	 2.3502720466	 0.098447
H	-4.3076705074	-1.3912100234	 1.5946315837	 0.101917
H	-1.3187834873	-1.0421188232	 0.1644368021	 0.083639
55.6457	110.0986	264.2504	306.6465	333.6213	376.4661	410.747	429.7532	504.2441	548.0564	698.1132	705.1527	796.7846	889.8321	894.397	940.7272	951.9665	982.1402	990.1814	1021.9923	1023.7482	1065.896	1091.0051	1117.0942	1135.3447	1161.1236	1181.9084	1218.7791	1220.9786	1248.19	1275.7582	1296.0126	1324.6728	1352.0301	1356.518	1372.0465	1382.1729	1436.0406	1488.1645	1524.4537	1702.6331	2940.3367	2997.8355	3006.644	3030.8705	3049.6765	3072.4397	3095.2333	3169.4418	3194.0943	3818.1147
OC1C=CCC2COC12	O[C@H]1C=CC[C@@H]2CO[C@H]12	
InChI=1S/C7H10O2/c8-6-3-1-2-5-4-9-7(5)6/h1,3,5-8H,2,4H2	InChI=1S/C7H10O2/c8-6-3-1-2-5-4-9-7(5)6/h1,3,5-8H,2,4H2/t5-,6+,7+/m1/s1
