19
gdb 4583	2.5030872	1.4339438	0.9714449	1.3306	77.51	-0.25315	0.04453	0.29768	1209.4538	0.156693	-422.532825	-422.524041	-422.523097	-422.566015	33.247	
C	 0.2845211249	 0.311351365	-0.6079881494	-0.409864
C	 0.9449200751	-0.6005729405	 0.4103056606	 0.12235
O	 1.7019314478	 0.2189035719	 1.2963625993	-0.246725
C	 2.3477014276	-0.5272453426	 2.2912849785	 0.008023
O	 3.2809422453	-1.4328455649	 1.7641359085	-0.230196
C	 2.6499190696	-2.3757754054	 0.9188596121	-0.105468
C	 1.8895715142	-1.6587621834	-0.222032707	-0.193369
C	 1.1758917102	-2.6185701052	-1.0505376483	 0.312569
C	 0.5797386529	-3.4348506017	-1.7020509964	-0.451829
H	-0.358210289	 1.0363567976	-0.1019781336	 0.125648
H	 1.0431475995	 0.8612617633	-1.1734015004	 0.126446
H	-0.319612462	-0.273340818	-1.3057996455	 0.133341
H	 0.1749687085	-1.1406332571	 0.9880099959	 0.074994
H	 2.9005940835	 0.1776641564	 2.9147132922	 0.119502
H	 1.5988765743	-1.0733605772	 2.8974032176	 0.076417
H	 3.4314650619	-3.025048047	 0.5190573417	 0.124595
H	 1.941148548	-2.9965692493	 1.490924736	 0.100025
H	 2.6272782182	-1.116103298	-0.8271279529	 0.115361
H	 0.0594061394	-4.1482618739	-2.2920607589	 0.198182
101.4315	137.5325	178.8152	217.9868	272.1272	301.4274	377.5971	416.5347	456.2477	481.8535	509.0552	532.4016	640.2123	648.6305	681.4772	832.5017	879.3196	966.9409	981.1358	1025.8266	1040.7105	1060.1649	1093.1767	1103.2542	1147.9053	1185.263	1216.0232	1253.1554	1285.9256	1307.0053	1332.1408	1365.8358	1375.4267	1401.3359	1411.3677	1444.3011	1484.3768	1493.261	1499.2757	1508.7741	2233.3168	2916.0832	2956.9899	2979.4686	3032.2637	3047.8007	3108.7976	3118.1358	3120.6708	3134.6498	3503.4926
CC1OCOCC1C#C	C[C@@H]1OCOC[C@H]1C#C	
InChI=1S/C7H10O2/c1-3-7-4-8-5-9-6(7)2/h1,6-7H,4-5H2,2H3	InChI=1S/C7H10O2/c1-3-7-4-8-5-9-6(7)2/h1,6-7H,4-5H2,2H3/t6-,7+/m0/s1
