19
gdb 753	2.2655867	1.8660126	1.1478216	2.8644	74.22	-0.23965	-0.02242	0.21723	1075.2091	0.158485	-422.570866	-422.56297	-422.562025	-422.604073	29.781	
O	 0.0553205792	 0.1615334823	 1.6265504831	-0.315353
C	-0.416607097	 0.1256914869	 0.5140105742	 0.373924
C	-0.724414185	 1.40004872	-0.274133478	-0.298093
C	-1.7294307523	 1.206114915	-1.4278866978	-0.219601
C	-2.7815795473	 0.14879546	-1.0544051149	-0.23565
C	-2.0829530735	-1.2031930006	-0.9590826247	 0.143812
O	-2.6608598035	-2.129468239	-0.0145921992	-0.294147
C	-1.411338215	-2.2679477319	 0.7016123237	-0.083115
C	-0.747966963	-1.1883028594	-0.1728060266	-0.179192
H	-1.094214132	 2.1278253187	 0.4558821953	 0.136086
H	 0.228863645	 1.8017746448	-0.6406261491	 0.130177
H	-2.2031390259	 2.162053115	-1.6694176129	 0.108744
H	-1.206602501	 0.8870302737	-2.338957171	 0.103669
H	-3.2249619633	 0.3860828463	-0.0794606378	 0.112599
H	-3.5971019058	 0.1185451572	-1.7830943746	 0.105124
H	-1.9994753804	-1.6614105755	-1.9544215022	 0.07594
H	-1.5027315363	-2.0176244112	 1.7632236229	 0.124414
H	-0.9918777638	-3.2756128805	 0.5991727118	 0.10294
H	 0.1310726209	-1.5105450418	-0.7396185922	 0.107724
48.0719	81.1428	216.856	254.8092	347.6808	421.0596	459.0623	477.6779	556.9392	606.656	691.345	769.1839	846.405	881.3357	892.6743	923.9427	960.1073	990.3898	1023.8797	1034.3177	1056.495	1093.1003	1114.9484	1133.9135	1157.8343	1160.6968	1212.9328	1221.0544	1263.2757	1280.9871	1321.9969	1331.6267	1340.1206	1360.723	1367.5762	1388.807	1447.0646	1496.7243	1500.5144	1528.1889	1807.0656	2999.4629	3023.1796	3028.1396	3036.157	3038.1661	3064.6893	3074.3877	3085.3146	3088.8429	3089.9443
O=C1CCCC2OCC12	O=C1CCC[C@@H]2OC[C@H]12	
InChI=1S/C7H10O2/c8-6-2-1-3-7-5(6)4-9-7/h5,7H,1-4H2	InChI=1S/C7H10O2/c8-6-2-1-3-7-5(6)4-9-7/h5,7H,1-4H2/t5-,7+/m1/s1
