19
gdb 2527	2.552565	1.3531301	1.0956759	2.6376	78.29	-0.24235	-0.02499	0.21736	1191.9639	0.154267	-422.601202	-422.591604	-422.59066	-422.635534	35.44	
C	 1.3829226207	 0.8718742246	 0.2879976584	-0.48619
C	-0.0126303216	 0.3357387954	 0.2750948948	 0.297739
C	-1.1212312124	 0.9869247726	-0.0936669941	-0.19453
C	-2.3764925999	 0.1697261699	 0.057365463	 0.26189
C	-3.2748847488	 0.6368180432	 1.2160062044	-0.42704
O	-3.1209246748	 0.1273134133	-1.1524441843	-0.474746
C	-1.7907546034	-1.2303730421	 0.3549887596	 0.355773
O	-2.4220788828	-2.2489797918	 0.2337293811	-0.32828
C	-0.3125760807	-1.0845197059	 0.7073962536	-0.421562
H	 1.8092803888	 0.8443099465	 1.2988985597	 0.129016
H	 2.0430920586	 0.2645020974	-0.343984283	 0.131756
H	 1.4190174253	 1.9038990483	-0.0705007281	 0.129495
H	-1.1496307462	 2.0129948438	-0.4441742014	 0.101107
H	-2.7244012845	 0.6947508308	 2.1605800453	 0.114269
H	-3.6784898596	 1.626834098	 0.9856720593	 0.128186
H	-4.1099939284	-0.0603266835	 1.3414730887	 0.124609
H	-3.6036571345	-0.7104365311	-1.138104443	 0.287099
H	-0.1610308249	-1.2434000126	 1.7848341245	 0.136015
H	 0.2898323192	-1.8464538367	 0.1980495714	 0.135396
47.4584	127.4812	186.7572	206.1479	230.6435	269.356	289.703	350.1952	359.7189	395.8955	469.5526	527.3138	551.9242	607.85	642.4192	724.2141	850.6828	878.7813	901.0937	954.4527	968.866	1011.5441	1046.105	1076.2213	1108.8002	1143.9738	1144.4837	1168.7338	1221.5663	1298.1787	1340.6436	1389.443	1396.3731	1415.2956	1445.4617	1477.6961	1484.3966	1487.2028	1488.6306	1711.6582	1847.7963	3013.1937	3019.5241	3031.5866	3057.7574	3066.3553	3106.1613	3114.719	3117.2371	3191.6346	3755.8415
CC1=CC(C)(O)C(=O)C1	CC1=C[C@@](C)(O)C(=O)C1	
InChI=1S/C7H10O2/c1-5-3-6(8)7(2,9)4-5/h4,9H,3H2,1-2H3	InChI=1S/C7H10O2/c1-5-3-6(8)7(2,9)4-5/h4,9H,3H2,1-2H3/t7-/m1/s1
