19
gdb 5553	1.7968876	1.7592891	0.9660858	1.4128	76.06	-0.24942	-0.02505	0.22437	1217.0945	0.155579	-422.528689	-422.519649	-422.518705	-422.563018	32.834	
O	-0.2399081199	 0.0514455136	-1.0295960917	-0.428589
C	 0.2020606447	-0.4897438766	 0.2122626122	-0.104512
C	-0.3972594439	 0.4026608626	 1.2886682526	-0.006018
C	 0.1875381147	 1.8258649164	 1.2910830451	-0.011436
C	-0.3672959426	 2.6408161427	 2.423656318	-0.301912
C	 0.7177825943	 1.6420174237	 2.7122708229	-0.06302
C	 0.1187909831	 0.2209452027	 2.7585903732	-0.126692
C	 1.10041959	-0.8682049614	 3.105259039	 0.136841
O	 1.2752096847	-1.9027442018	 2.5127974778	-0.246012
H	 0.1255680864	-0.4901215062	-1.7348753078	 0.286822
H	-0.1294641238	-1.5267688628	 0.3446514387	 0.10601
H	 1.2993114351	-0.4861451093	 0.2769473854	 0.088607
H	-1.4879826314	 0.3680024181	 1.1900567685	 0.080248
H	 0.6663158956	 2.2797364119	 0.4331349513	 0.098348
H	-0.0586092484	 3.6812397524	 2.4437651416	 0.115281
H	-1.3798485513	 2.4697305705	 2.7842161138	 0.106182
H	 1.6735461274	 1.9255659091	 3.1381170148	 0.08835
H	-0.6789325681	 0.1245205877	 3.5130509237	 0.101373
H	 1.6740122833	-0.6461269833	 4.0373217308	 0.080129
49.8652	124.4624	156.5453	170.072	217.711	250.5834	283.3887	363.4672	418.1199	483.8185	674.6235	699.4053	776.1124	809.5856	845.8815	920.1708	935.5928	940.5236	983.0065	1000.7789	1039.8876	1062.9579	1070.4043	1084.2463	1094.2517	1112.8533	1135.8927	1186.4879	1206.3149	1223.6599	1252.165	1263.5087	1292.6231	1323.4674	1352.406	1364.4536	1426.2135	1457.7719	1490.1187	1511.351	1824.8555	2844.4729	2977.4741	3001.3785	3038.8974	3055.6229	3102.0499	3172.2376	3193.2649	3204.6429	3833.4698
OCC1C2CC2C1C=O	OC[C@@H]1[C@H]2C[C@H]2[C@@H]1C=O	
InChI=1S/C7H10O2/c8-2-6-4-1-5(4)7(6)3-9/h2,4-7,9H,1,3H2	InChI=1S/C7H10O2/c8-2-6-4-1-5(4)7(6)3-9/h2,4-7,9H,1,3H2/t4-,5+,6+,7-/m1/s1
