19
gdb 1071	2.7973994	1.3074575	1.2339074	1.5818	74.75	-0.24633	-0.02033	0.22599999999999998	1117.1482	0.15407	-422.537867	-422.528554	-422.52761	-422.57266	33.897	
C	 1.729976846	-0.8921575493	-2.2038755175	-0.483412
C	 0.7252418306	-0.9975013187	-1.0674040072	 0.324636
O	 0.2927557472	-2.0707611619	-0.7150768212	-0.299236
C	 0.2836534352	 0.3122375676	-0.4063569624	 0.194346
C	 1.4086535662	 0.8867571803	 0.4619059532	-0.468312
C	-1.1280215976	 0.1935069139	 0.2759760835	-0.313639
C	-1.6694869184	 1.1855287427	-0.7579767098	 0.041834
O	-0.8970224644	 2.3925287891	-0.6455741947	-0.24705
C	-0.3595504972	 1.3137126203	-1.4105490431	-0.026464
H	 2.1868882653	-1.8671282469	-2.3778880714	 0.146418
H	 1.1994827602	-0.5923526677	-3.1163701618	 0.147098
H	 2.500240367	-0.1393898738	-2.0190391438	 0.13708
H	 1.6361232631	 0.2125133477	 1.2937730551	 0.130543
H	 2.3309291119	 1.049987687	-0.1043912235	 0.117189
H	 1.0854629375	 1.8471644404	 0.8702675369	 0.145454
H	-1.5267507392	-0.8169930597	 0.1798967832	 0.136336
H	-1.1940108761	 0.5262823993	 1.3142769893	 0.107617
H	-2.6696617821	 1.2799686941	-1.1638719688	 0.107848
H	-0.0840059552	 1.5238925956	-2.4382843361	 0.101712
32.558	82.1045	150.2686	196.4212	226.3481	249.4344	304.0729	377.9747	428.7605	460.1432	565.9577	606.5255	632.5089	777.6187	836.6689	846.1253	856.9669	893.2039	927.5384	969.7099	984.5577	1006.3757	1022.2628	1047.1476	1113.2146	1133.1401	1149.6769	1192.6219	1227.9656	1246.5202	1270.3412	1281.742	1377.5868	1381.3924	1403.3216	1462.7715	1474.3545	1478.1791	1490.4946	1503.9768	1802.4094	3036.8792	3039.4225	3076.8015	3103.0295	3109.5654	3126.8151	3145.0846	3154.8408	3172.8612	3194.6047
CC(=O)C1(C)CC2OC12	CC(=O)[C@]1(C)C[C@H]2O[C@@H]12	
InChI=1S/C7H10O2/c1-4(8)7(2)3-5-6(7)9-5/h5-6H,3H2,1-2H3	InChI=1S/C7H10O2/c1-4(8)7(2)3-5-6(7)9-5/h5-6H,3H2,1-2H3/t5-,6-,7+/m1/s1
