19
gdb 554	3.8811749	1.4027959	1.1935546	1.3751	73.89	-0.24101	0.0653	0.30630999999999997	1054.7179	0.159636	-422.52496	-422.517921	-422.516977	-422.556531	27.66	
C	-2.3973745028	 2.0777386143	-1.4753691575	-0.09527
O	-1.5563145707	 2.2108140069	-2.6465003933	-0.29619
C	-0.6689490148	 1.1746970449	-2.182713965	 0.129336
C	-1.4624038685	 1.0273453516	-0.8550237493	-0.074632
C	-0.2594683561	 1.6172316112	-0.0741589451	-0.0471
C	 0.5511690593	 0.5929145684	 0.7248959524	-0.105394
O	 1.265821979	-0.1746592758	-0.2355252464	-0.249553
C	 1.7063975598	 0.7489970048	-1.2253364418	-0.104606
C	 0.5532284431	 1.7366672986	-1.4229415459	-0.064311
H	-2.5083357014	 3.0238496159	-0.929489139	 0.098165
H	-3.3931342971	 1.7028433657	-1.7443383187	 0.102014
H	-0.506994562	 0.3908171113	-2.9289663685	 0.075635
H	-1.8996634113	 0.0983973714	-0.4892317723	 0.078779
H	-0.4643339943	 2.5278137664	 0.493249475	 0.073508
H	 1.2483492291	 1.1106050625	 1.4048380377	 0.088157
H	-0.0603830787	-0.0963977127	 1.3145654849	 0.107725
H	 2.6095736433	 1.281612094	-0.8847557528	 0.090273
H	 1.9597879219	 0.1781077881	-2.1236992424	 0.109521
H	 0.8727953421	 2.7238263925	-1.7594887618	 0.083944
95.13	186.6777	267.9117	304.5176	325.3094	395.6524	586.854	707.057	775.6432	824.637	843.3298	862.9098	882.7701	891.1662	943.8943	965.5429	988.4538	1001.2637	1017.3435	1024.4481	1063.531	1071.6456	1113.4621	1127.9659	1152.7951	1166.5134	1193.3713	1203.4386	1231.3245	1255.0038	1259.1501	1266.906	1296.3512	1314.5037	1335.9066	1351.1763	1365.0886	1402.3622	1497.9338	1511.659	1523.1795	2962.9906	2970.7136	3005.2545	3047.5225	3060.5981	3080.7793	3083.5536	3084.611	3108.4621	3111.9107
C1OC2C1C1COCC21	C1O[C@@H]2[C@H]1[C@H]1COC[C@@H]21	
InChI=1S/C7H10O2/c1-4-5(2-8-1)7-6(4)3-9-7/h4-7H,1-3H2	InChI=1S/C7H10O2/c1-4-5(2-8-1)7-6(4)3-9-7/h4-7H,1-3H2/t4-,5+,6+,7-/m0/s1
