19
gdb 5582	3.8896579	1.1486021	1.0210099	2.2788	74.66	-0.2302	0.07628	0.30648	1214.5554	0.156791	-422.49778	-422.489706	-422.488762	-422.530416	30.965	
C	 1.4537906327	-0.0188916711	 0.0472898742	-0.233203
O	 0.0402094477	 0.0370063925	 0.0629858392	-0.243551
C	-0.4674090555	 0.6999989729	 1.1749741992	 0.047468
C	-1.8272788632	 0.2436943989	 1.6072877868	 0.05416
O	-2.652782674	 1.1349913403	 2.3166783966	-0.259426
C	-2.1736928893	 1.3029307515	 3.631479311	 0.100998
C	-0.9171618648	 2.1043271907	 3.846720665	-0.328878
C	-0.8539358307	 0.5867610866	 3.7806413882	-0.07523
C	-0.6241719116	-0.1090308521	 2.4580835597	-0.135857
H	 1.8502626528	-0.5394950827	 0.9306092176	 0.108621
H	 1.7432946619	-0.5658826497	-0.8528440063	 0.128545
H	 1.8970390775	 0.9874941109	 0.0112171499	 0.10829
H	-0.213573443	 1.7578119453	 1.2347996278	 0.089897
H	-2.3657952616	-0.464049115	 0.9856616373	 0.110572
H	-2.965911672	 1.2986421576	 4.3722476091	 0.100234
H	-0.5280688344	 2.7042752058	 3.0334856811	 0.122561
H	-0.785993366	 2.5498027862	 4.8276689623	 0.112068
H	-0.6001559963	 0.0375762454	 4.6790191434	 0.093871
H	-0.2259693002	-1.1163132642	 2.466065458	 0.09886
95.6516	145.1835	182.1364	232.2348	285.938	335.7403	395.0339	471.2233	508.0531	704.0829	714.8556	779.4636	783.2612	852.2226	910.6666	921.7891	941.4514	967.3357	1004.9209	1011.3327	1034.7167	1045.3551	1079.5502	1090.0185	1092.0557	1104.8589	1153.0377	1174.6748	1183.404	1194.3663	1205.3071	1238.956	1279.0719	1293.7447	1342.2599	1376.2897	1427.9302	1478.9015	1484.8084	1486.4021	1508.4867	2986.1016	3037.5867	3105.633	3120.3254	3138.7356	3165.4962	3169.5696	3181.0375	3194.034	3227.8888
COC1C2OC3CC3C12	CO[C@H]1[C@@H]2O[C@@H]3C[C@@H]3[C@H]12	
InChI=1S/C7H10O2/c1-8-6-5-3-2-4(3)9-7(5)6/h3-7H,2H2,1H3	InChI=1S/C7H10O2/c1-8-6-5-3-2-4(3)9-7(5)6/h3-7H,2H2,1H3/t3-,4+,5+,6+,7+/m0/s1
