19
gdb 2263	3.1851324	1.5066697	1.3976122	2.2299	75.2	-0.23718	0.00439	0.24157	1008.7605	0.15699	-422.569704	-422.561756	-422.560812	-422.601239	32.394	
C	-0.0763933022	-0.0212337676	-0.084839333	-0.484757
C	 1.4235932825	 0.0262269925	 0.0648924119	 0.380921
C	 2.1159359672	-0.7442497074	 1.2026669811	-0.312397
C	 3.5249650436	-0.3472977111	 0.679998936	 0.336001
O	 4.6733855892	-0.8509615206	 1.2996036811	-0.496953
C	 3.3867367718	-0.8901577205	-0.7729368992	-0.086727
O	 2.0294574237	-0.6177524521	-1.1122846467	-0.306989
C	 3.361792822	 1.161489218	 0.5606810158	-0.177271
C	 2.0983173038	 1.3902829439	 0.1907567594	-0.106461
H	-0.5622947535	 0.4451969564	 0.7773268607	 0.118195
H	-0.3861423836	 0.5148760442	-0.9873082839	 0.128013
H	-0.4224888562	-1.0549804355	-0.1674854144	 0.125704
H	 1.904492535	-0.3412239276	 2.1952796184	 0.093017
H	 1.9223936764	-1.8200084432	 1.1684144696	 0.101106
H	 4.7353541088	-0.4643623277	 2.1790358742	 0.280091
H	 4.0698635815	-0.3921730701	-1.470129987	 0.098598
H	 3.5781745172	-1.9703300457	-0.7902802552	 0.104816
H	 4.1848037497	 1.8630094509	 0.6294122741	 0.102892
H	 1.647691043	 2.3285889633	-0.109014053	 0.102201
202.7187	236.7747	260.8961	277.4525	292.3305	355.5432	414.2477	419.7065	507.384	525.1465	578.9556	652.9202	673.2612	744.1554	787.7395	814.001	842.4552	916.6316	939.3202	951.0016	963.4702	1022.2702	1038.0177	1072.5613	1092.6113	1120.3647	1157.639	1182.7282	1208.9206	1224.1368	1255.5449	1295.5148	1348.0605	1364.6839	1376.4936	1415.6062	1481.8181	1488.3995	1493.563	1523.8386	1636.3149	3019.8316	3042.2228	3062.4768	3066.6342	3112.7732	3121.0664	3127.4233	3191.5905	3217.3711	3814.9318
CC12CC(O)(CO1)C=C2	C[C@@]12C[C@@](O)(CO1)C=C2	
InChI=1S/C7H10O2/c1-6-2-3-7(8,4-6)5-9-6/h2-3,8H,4-5H2,1H3	InChI=1S/C7H10O2/c1-6-2-3-7(8,4-6)5-9-6/h2-3,8H,4-5H2,1H3/t6-,7-/m1/s1
