19
gdb 1366	3.5149496	0.9295977	0.8632634	2.1478	77.75	-0.25289	0.02169	0.27458	1393.1808	0.154195	-422.506536	-422.496719	-422.495774	-422.541237	36.756	
O	-0.0583453287	 0.9794588344	-1.502969744	-0.427642
C	 1.2492912907	 0.659837955	-1.0119674479	-0.082109
C	 1.2073628215	-0.3365029536	 0.1702495034	-0.300212
C	 0.1480288693	-1.4095911743	-0.0394942549	 0.450707
O	 0.0836436847	-1.9123322367	-1.3474207559	-0.477314
C	-1.1457460395	-1.3530963365	 0.7385892294	-0.322711
C	-0.1069409909	-2.4186408955	 1.0354818976	-0.313771
C	 2.0101263321	 1.8625930733	-0.6730141766	 0.296225
C	 2.6133256919	 2.8535902357	-0.3580498542	-0.417495
H	-0.5259708352	 1.4609301605	-0.81104641	 0.289678
H	 1.7279900266	 0.1581394437	-1.8591001548	 0.133677
H	 2.203969134	-0.7851936011	 0.259259508	 0.119257
H	 1.0148999822	 0.2012710786	 1.1050706398	 0.104132
H	-0.3055995341	-1.2036229641	-1.8779376539	 0.291377
H	-1.2923236899	-0.5594571721	 1.4643902576	 0.102114
H	-2.0429107966	-1.6678834668	 0.2175667673	 0.116478
H	 0.4596406879	-2.3482199721	 1.9578794901	 0.111165
H	-0.3210177496	-3.4284806776	 0.705905651	 0.125558
H	 3.1539187735	 3.7307919493	-0.1001903621	 0.200886
64.6912	85.7389	123.0852	199.9311	241.1398	292.3645	314.2219	340.5588	373.8149	444.4292	487.7288	554.5608	567.8751	589.2659	628.2012	677.8464	756.3252	778.0922	829.308	901.2893	922.7998	933.5323	975.0015	1001.6486	1045.1626	1054.897	1075.7599	1082.701	1168.1342	1190.5032	1264.542	1292.0111	1300.2197	1324.2445	1355.0553	1404.046	1429.9801	1452.4751	1481.7366	1499.9321	2233.9359	3034.5508	3060.5325	3082.9249	3126.7739	3137.3782	3214.7292	3231.4718	3502.1884	3752.4581	3804.9717
OC(CC1(O)CC1)C#C	O[C@H](CC1(O)CC1)C#C	
InChI=1S/C7H10O2/c1-2-6(8)5-7(9)3-4-7/h1,6,8-9H,3-5H2	InChI=1S/C7H10O2/c1-2-6(8)5-7(9)3-4-7/h1,6,8-9H,3-5H2/t6-/m0/s1
