19
gdb 2242	2.4971599	1.9857175	1.3652289	2.6272	74.77	-0.2229	0.07245	0.29535	983.2254	0.157141	-422.535715	-422.527786	-422.526841	-422.56743	31.667	
C	 0.0358334915	 0.3034781912	 0.2602088394	-0.475491
C	 1.5177234289	 0.1529695791	 0.072404963	 0.419938
O	 2.1656272393	 1.3729067752	-0.2651719379	-0.307912
C	 3.4955378931	 1.3108750044	 0.2582838654	-0.082746
C	 3.7513737089	-0.1829466275	 0.4560034116	-0.077727
C	 3.537626785	-0.9323809182	-0.902717304	-0.298847
C	 2.0785533229	-1.1261490737	-0.5084646324	 0.320012
O	 1.2237062132	-2.0808974719	-1.0211801687	-0.460036
C	 2.3777267785	-0.7074213072	 0.9520672676	-0.252149
H	-0.1780926462	 0.9875227285	 1.0868497966	 0.118822
H	-0.4206807469	 0.7108145318	-0.6471885356	 0.132033
H	-0.4255568425	-0.664610083	 0.4642900682	 0.130496
H	 4.1745398539	 1.7757619936	-0.4646177474	 0.104184
H	 3.5614850136	 1.8621083234	 1.2089896867	 0.089245
H	 4.6471243184	-0.4318963312	 1.0232727649	 0.075462
H	 3.752326956	-0.3811477995	-1.8248536568	 0.102339
H	 4.0736395553	-1.8871859497	-0.9156676553	 0.090497
H	 1.6184611306	-2.9494784837	-0.8812054138	 0.283543
H	 2.1074824066	-1.1158183116	 1.9175189586	 0.088337
183.3168	203.2153	211.6447	278.4643	301.5974	354.5448	369.2738	433.6284	488.7042	602.3622	630.8439	710.1076	726.9276	787.6446	850.7343	865.8662	906.9245	918.6908	959.2073	972.6665	993.033	1052.8888	1066.633	1089.5835	1118.317	1128.8481	1165.9575	1184.1462	1209.3644	1233.174	1263.4937	1278.7881	1302.3814	1349.0737	1377.7335	1417.9124	1448.5786	1480.2139	1492.1847	1509.936	1518.5889	2984.8656	3033.2902	3045.4348	3067.121	3085.3177	3108.0599	3123.8536	3138.6747	3194.0637	3781.0105
CC12OCC3CC1(O)C23	C[C@]12OC[C@@H]3C[C@@]1(O)[C@H]23	
InChI=1S/C7H10O2/c1-6-5-4(3-9-6)2-7(5,6)8/h4-5,8H,2-3H2,1H3	InChI=1S/C7H10O2/c1-6-5-4(3-9-6)2-7(5,6)8/h4-5,8H,2-3H2,1H3/t4-,5-,6+,7+/m0/s1
