19
gdb 5264	3.171495	1.4508508	1.2977802	2.0539	74.87	-0.24129	0.0015	0.24279	1040.0827	0.158367	-422.560132	-422.552354	-422.55141	-422.592146	30.84	
O	 1.3179873348	 0.0179340217	 1.1305149601	-0.417147
C	 0.6219266918	 0.2943388595	-0.074520008	-0.179364
C	-0.464799287	 1.3303303486	 0.1270140645	 0.382613
C	-0.0935371667	 2.7352518776	 0.6285717129	-0.244288
C	-1.5602271145	 3.221830443	 0.5011121121	-0.110447
C	-1.7839776235	 2.8589940467	-1.0010662473	-0.071441
O	-1.0638137918	 1.6338968283	-1.1725830499	-0.314657
C	-2.2800107711	 2.1349410259	 1.2816492415	-0.088073
C	-1.6247878102	 0.9897621003	 1.060870534	-0.132986
H	 0.6828399349	-0.329192589	 1.7653783039	 0.285629
H	 1.3635471728	 0.6778898088	-0.7807137176	 0.118549
H	 0.1849360113	-0.6144038723	-0.5160144717	 0.09716
H	 0.2774260989	 2.7463370712	 1.652962076	 0.11045
H	 0.6073878928	 3.2435417878	-0.0402355838	 0.097956
H	-1.7866807543	 4.2561013015	 0.7576480117	 0.070059
H	-2.841925624	 2.7130583774	-1.24750909	 0.097742
H	-1.3660435537	 3.6267126911	-1.6644650264	 0.099911
H	-3.2222065077	 2.2687833915	 1.798742974	 0.101129
H	-1.9270788926	-0.0122874695	 1.3431726038	 0.097205
99.9876	162.3886	245.2913	288.768	330.7128	383.0821	434.2559	503.9978	514.5754	645.8156	696.6015	743.8092	803.2939	818.7554	866.4336	883.9846	913.5481	925.1981	951.2914	960.0516	981.6145	1033.3202	1061.2502	1074.0843	1094.9957	1113.6221	1141.2031	1178.408	1209.9154	1248.7269	1260.8328	1297.005	1299.149	1356.2668	1370.7707	1372.7533	1418.5466	1488.4432	1505.0653	1522.2604	1633.9838	2991.4233	3016.2217	3060.0082	3065.3436	3092.7573	3124.5676	3145.7594	3186.191	3215.3426	3813.5176
OCC12CC(CO1)C=C2	OC[C@@]12C[C@@H](CO1)C=C2	
InChI=1S/C7H10O2/c8-5-7-2-1-6(3-7)4-9-7/h1-2,6,8H,3-5H2	InChI=1S/C7H10O2/c8-5-7-2-1-6(3-7)4-9-7/h1-2,6,8H,3-5H2/t6-,7+/m0/s1
