19
gdb 3836	2.9921262	1.5679237	1.404174	1.9248	74.21	-0.24112	0.00022	0.24134	1003.0306	0.157803	-422.570851	-422.563041	-422.562097	-422.602519	31.613	
C	-2.7259773899	 2.1374514876	 3.6308123161	-0.488936
C	-1.7308346499	 1.8999827124	 2.5204834584	 0.357461
C	-1.1704562862	 0.4483583035	 2.3589532089	-0.29153
C	-0.7289674158	 0.4527646909	 0.8639858707	 0.140439
O	 0.6223417403	 0.1284859914	 0.6177598922	-0.439548
C	-1.1474545277	 1.9113883405	 0.4484748218	-0.018669
O	-2.3356224836	 2.0824525619	 1.2209659665	-0.275433
C	-0.1688446781	 2.8551388551	 1.1374948236	-0.114692
C	-0.5237215399	 2.8373583106	 2.4232586674	-0.116893
H	-3.5729544842	 1.4518080295	 3.5369120642	 0.128254
H	-2.2581848078	 1.9733055679	 4.6065384635	 0.119058
H	-3.1050495976	 3.162745613	 3.5958019898	 0.130067
H	-0.3363262297	 0.2224542727	 3.0281901784	 0.09676
H	-1.9646368057	-0.280113962	 2.5417566343	 0.105686
H	-1.3113245814	-0.2654934867	 0.2834574388	 0.097228
H	 1.1614727197	 0.7389817957	 1.1337556022	 0.275412
H	-1.3388247266	 2.0606408799	-0.6129899703	 0.079199
H	 0.6750845682	 3.347406988	 0.6733994088	 0.110774
H	-0.0398709539	 3.3084900081	 3.2691800145	 0.105365
136.6672	204.4337	247.3367	294.3343	346.8361	376.9843	416.6458	487.2527	508.6873	577.6532	637.0567	704.6946	745.6332	780.8182	823.6378	862.6941	879.604	888.8522	915.7109	940.591	970.5669	1015.7464	1035.0517	1062.9099	1096.8318	1128.8989	1142.4472	1178.9707	1212.595	1241.0495	1281.9442	1288.5741	1309.2006	1339.4068	1353.1138	1414.8676	1432.8362	1479.9369	1488.1579	1496.1856	1638.5977	3042.261	3060.3235	3091.7105	3111.7154	3115.4394	3119.5495	3135.6517	3208.6304	3235.1052	3789.3476
CC12CC(O)C(O1)C=C2	C[C@@]12C[C@H](O)[C@@H](O1)C=C2	
InChI=1S/C7H10O2/c1-7-3-2-6(9-7)5(8)4-7/h2-3,5-6,8H,4H2,1H3	InChI=1S/C7H10O2/c1-7-3-2-6(9-7)5(8)4-7/h2-3,5-6,8H,4H2,1H3/t5-,6-,7+/m0/s1
