19
gdb 3217	3.9012171	1.1111667	1.0262939	3.0199	75.7	-0.23574	0.07008	0.30582	1214.7131	0.156297	-422.501483	-422.493017	-422.492072	-422.534897	31.78	
O	 0.287439373	-0.0165698799	 0.1268592966	-0.442984
C	-0.6892131507	 0.7336678858	 0.7890170108	 0.153587
C	-1.5378943447	 0.0772267503	 1.8314586212	-0.119099
C	-2.62737241	 1.0473148083	 2.296143046	-0.322565
C	-1.5166772672	 2.0535822605	 2.7385393423	 0.463239
C	-1.4756009135	 2.5896629375	 4.1855992325	-0.358352
C	-1.5280212012	 3.9797159604	 3.5243191843	-0.071235
O	-1.5540879102	 3.3946634074	 2.2069149026	-0.316197
C	-0.4446578178	 1.1049773323	 2.2298570457	-0.191105
H	 0.6650719859	-0.6490161173	 0.747482079	 0.282272
H	-1.1172710235	 1.4569621461	 0.0999011054	 0.117874
H	-1.5421394463	-0.998028486	 1.9669082776	 0.085489
H	-3.3033881163	 1.4173348609	 1.5184714674	 0.108705
H	-3.217542423	 0.6848318284	 3.1418722576	 0.104689
H	-2.3365795675	 2.3238591714	 4.8019734939	 0.109828
H	-0.5580672478	 2.3649996475	 4.7330816037	 0.111139
H	-2.4278331791	 4.5726150109	 3.7278922645	 0.102384
H	-0.6456462038	 4.6132465248	 3.6731987966	 0.103843
H	 0.5343028439	 0.9560642806	 2.6752693423	 0.078488
66.9011	99.195	176.7787	201.6799	280.1283	310.6304	390.6747	429.2329	458.5196	560.2003	770.6971	789.5156	804.8654	840.5945	869.5199	895.6046	926.0803	944.7825	973.6154	984.4695	1004.6653	1027.0317	1082.657	1091.7173	1107.4478	1128.27	1158.0144	1167.8998	1183.8064	1199.337	1222.9071	1240.0587	1258.5043	1291.4394	1306.5413	1350.1096	1359.9763	1450.6552	1479.1921	1486.4072	1532.2785	3018.9636	3046.2329	3058.1167	3072.7065	3102.8936	3127.5648	3148.1981	3154.3705	3181.0778	3810.1434
OC1C2CC3(CCO3)C12	O[C@H]1[C@@H]2C[C@@]3(CCO3)[C@H]12	
InChI=1S/C7H10O2/c8-6-4-3-7(5(4)6)1-2-9-7/h4-6,8H,1-3H2	InChI=1S/C7H10O2/c8-6-4-3-7(5(4)6)1-2-9-7/h4-6,8H,1-3H2/t4-,5+,6+,7+/m1/s1
