19
gdb 3621	2.2010574	1.4156455	1.0637824	3.2405	78.75	-0.2364	-0.02591	0.21049	1196.2253	0.155496	-422.586901	-422.577516	-422.576572	-422.621458	33.96	
C	 1.3907898252	 0.7968359633	-0.3098717721	-0.496154
C	 0.0324630907	 0.2463891952	-0.0158606537	 0.316202
C	-1.1403545824	 0.8852111761	-0.0345067203	-0.165208
C	-2.3017418473	-0.026004413	 0.2634481396	 0.070064
O	-2.9735960562	-0.2981961655	-0.9729769675	-0.43385
C	-1.6039123754	-1.2756880543	 0.8571473899	-0.274414
C	-0.1597317053	-1.2323232521	 0.3113463515	-0.157996
C	-0.0007466998	-2.016437504	-0.9866117732	 0.151791
O	 0.9957826599	-2.6117763121	-1.307017498	-0.25933
H	 2.0396840532	 0.7271198636	 0.5721635194	 0.132049
H	 1.8834823976	 0.2193073259	-1.1008049973	 0.148446
H	 1.3438386531	 1.8437574169	-0.6196983715	 0.127322
H	-1.276355611	 1.9304338705	-0.2879653521	 0.097276
H	-3.0142587237	 0.4163268721	 0.9741047425	 0.068421
H	-3.7938569538	-0.7591045369	-0.7670559497	 0.281352
H	-1.5738823992	-1.2024394195	 1.9485034633	 0.110061
H	-2.1403601543	-2.1951756488	 0.6007322316	 0.098068
H	 0.5908263338	-1.6023123616	 1.0169138246	 0.088381
H	-0.8912059551	-1.9573751559	-1.651074927	 0.097516
61.4383	81.0135	138.8565	184.0475	233.0961	269.0276	309.6337	344.9188	396.7853	441.3085	466.2171	565.0802	615.3807	779.0127	800.6164	858.3791	885.4886	916.0839	964.3091	998.3483	1025.7634	1034.2664	1052.1588	1083.953	1102.46	1155.7729	1213.4374	1228.3835	1258.9328	1268.3266	1294.2435	1332.7428	1351.261	1411.6587	1417.5044	1425.5425	1472.5908	1477.2525	1486.3351	1713.8705	1822.9325	2896.3305	2996.327	3025.2791	3048.5002	3065.218	3076.1862	3094.8715	3119.2197	3199.5018	3806.1825
CC1=CC(O)CC1C=O	CC1=C[C@@H](O)C[C@H]1C=O	
InChI=1S/C7H10O2/c1-5-2-7(9)3-6(5)4-8/h2,4,6-7,9H,3H2,1H3	InChI=1S/C7H10O2/c1-5-2-7(9)3-6(5)4-8/h2,4,6-7,9H,3H2,1H3/t6-,7+/m0/s1
