19
gdb 1325	2.0505438	1.415645	1.2179041	2.9425	75.49	-0.24812	-0.03624	0.21188	1152.1798	0.153252	-422.559156	-422.549083	-422.548139	-422.595334	35.143	
C	 3.5042276684	 0.6371369472	 0.078816531	-0.423134
C	 4.6018115077	-0.0225651862	-0.7815270323	 0.037886
C	 4.6858524136	 0.7156782824	-2.1137596108	 0.151601
O	 4.454963826	 0.2390008492	-3.1945928963	-0.254446
C	 4.2844798173	-1.4996322628	-1.0179421267	 0.126294
O	 3.7815094625	-2.2084612603	-0.1820323843	-0.265535
C	 5.9654364429	 0.134625066	-0.088961603	-0.008319
C	 6.3573072225	-0.707939179	 1.0967218731	-0.276215
C	 7.0831673598	-0.8725319332	-0.2155020147	-0.289102
H	 3.4195334434	 0.1003744888	 1.0252493849	 0.152419
H	 3.754023716	 1.6821535661	 0.2872173077	 0.118411
H	 2.5321512248	 0.6061504797	-0.4222471973	 0.131559
H	 4.9840647469	 1.7855367221	-2.0100084463	 0.08141
H	 4.5642619246	-1.8899831143	-2.0149497732	 0.117262
H	 6.2763372016	 1.1767047265	-0.0480749903	 0.092054
H	 6.8714706179	-0.2195522053	 1.9167376238	 0.11716
H	 5.6786120931	-1.4990367992	 1.3951023658	 0.144824
H	 8.0962765918	-0.4967609696	-0.3030828826	 0.119168
H	 6.9048018192	-1.783437718	-0.7767108886	 0.126701
30.5496	57.9478	90.0205	198.3088	203.7497	217.0333	242.7153	292.4607	315.5915	404.6786	430.9043	492.0864	665.8227	724.7801	793.6475	831.7538	845.6844	920.4924	931.1711	948.5949	1000.6293	1015.4999	1065.7215	1088.1146	1093.7112	1139.4769	1155.3427	1184.0168	1199.9945	1237.4169	1259.3439	1378.3679	1395.0693	1414.4838	1435.3474	1473.4239	1485.9039	1496.2818	1507.9899	1817.1284	1828.3635	2855.0003	2955.2745	3043.096	3112.0923	3121.1938	3138.0748	3141.4811	3142.2995	3216.7298	3231.5079
CC(C=O)(C=O)C1CC1	CC(C=O)(C=O)C1CC1	
InChI=1S/C7H10O2/c1-7(4-8,5-9)6-2-3-6/h4-6H,2-3H2,1H3	InChI=1S/C7H10O2/c1-7(4-8,5-9)6-2-3-6/h4-6H,2-3H2,1H3
