19
gdb 4862	2.3583627	1.433172	1.2342012	4.7153	77.33	-0.26513	-0.04179	0.22333999999999998	1130.7085	0.15593	-422.618837	-422.609821	-422.608877	-422.652417	33.564	
C	 1.9076531053	 1.4709924735	-0.1296753046	-0.400781
C	 1.1544474262	 0.1569601625	-0.3442367596	-0.198242
C	 1.6073403934	-0.6641167974	-1.5688710757	 0.296407
C	 0.8559834516	-2.0000124162	-1.6399162201	-0.417615
O	 3.0173845547	-0.9506353675	-1.4448361528	-0.253347
C	 3.7109435336	-0.4621032827	-2.5240624846	 0.405051
O	 4.8961202075	-0.5922584258	-2.6455189079	-0.347721
C	 2.7281131552	 0.2019703737	-3.4168768488	-0.234671
C	 1.5201872351	 0.0957353327	-2.86995376	-0.091377
H	 1.5506280962	 1.9679221904	 0.7768672553	 0.117993
H	 2.9797071062	 1.2914736401	-0.0148437837	 0.143309
H	 1.7685026965	 2.1621913523	-0.9663364678	 0.118609
H	 1.2697442241	-0.4838905508	 0.5372890575	 0.115098
H	 0.0795043819	 0.3473255393	-0.4522640283	 0.100787
H	 1.0207011322	-2.5692259718	-0.7211382567	 0.136021
H	-0.2188961558	-1.8306080658	-1.7556506599	 0.120027
H	 1.2090918868	-2.593720054	-2.4866446417	 0.131857
H	 3.0201923226	 0.6704014691	-4.3452259421	 0.133953
H	 0.5801824365	 0.4671366182	-3.2594625786	 0.124641
86.1799	107.46	191.395	222.3379	229.6846	252.8948	337.5318	353.9173	387.6413	516.9972	558.2465	589.8993	699.9026	732.4611	785.8282	830.9657	844.0002	899.1233	920.1619	968.5962	976.047	1005.2728	1042.5966	1063.0539	1088.1514	1136.2509	1157.5846	1215.6587	1250.82	1326.307	1347.1534	1374.7676	1406.5769	1413.5352	1474.0816	1489.6215	1492.8986	1496.5295	1508.7619	1663.6732	1867.9795	3031.3451	3045.0729	3046.4928	3070.6419	3112.9839	3120.0524	3126.0932	3129.6663	3210.741	3253.9034
CCC1(C)OC(=O)C=C1	CC[C@]1(C)OC(=O)C=C1	
InChI=1S/C7H10O2/c1-3-7(2)5-4-6(8)9-7/h4-5H,3H2,1-2H3	InChI=1S/C7H10O2/c1-3-7(2)5-4-6(8)9-7/h4-5H,3H2,1-2H3/t7-/m0/s1
