19
gdb 1170	3.6177612	0.966223	0.9263043	3.6894	78.06	-0.2332	-0.00567	0.22752999999999998	1340.8407	0.155352	-422.576743	-422.567534	-422.56659	-422.611828	32.812	
C	-2.1496386798	 3.4484789121	-0.7395110112	-0.485182
C	-0.8716524102	 3.5976719372	 0.0650033144	 0.402245
O	-0.7851637201	 4.3719650102	 0.9885715661	-0.297566
C	 0.3150774412	 2.7118357813	-0.3195052741	-0.311685
C	 0.5360538256	 2.5591691192	-1.8321018204	 0.078065
O	 0.5652116951	 3.8505705282	-2.4514297267	-0.277391
C	 1.7832229953	 4.0371684551	-3.1704778007	-0.11546
C	 2.5636057216	 2.7730880318	-2.9461776922	-0.09472
C	 1.8565669143	 1.9349143278	-2.1982973961	-0.090423
H	-2.9539381444	 3.9998600509	-0.2514113396	 0.136433
H	-1.9866949032	 3.8518840965	-1.7447794589	 0.164942
H	-2.4308326243	 2.3955263474	-0.8522856802	 0.125852
H	 1.2040628874	 3.1284433314	 0.1609433478	 0.123219
H	 0.1381819495	 1.7152090322	 0.1105261754	 0.114581
H	-0.3019352702	 1.983988924	-2.2599062215	 0.084269
H	 1.5661895161	 4.2115491471	-4.2362026414	 0.108442
H	 2.3046410347	 4.9307749301	-2.7953155688	 0.114168
H	 3.5517946625	 2.6070017409	-3.3557488914	 0.111295
H	 2.147763609	 0.9447298564	-1.8719588804	 0.108915
50.2414	70.0642	97.421	146.4364	181.5581	270.8614	347.443	412.0138	452.8344	537.6209	559.3484	708.6669	752.7874	788.665	802.7034	831.4541	909.3633	934.7596	959.4263	975.975	1027.9453	1041.7008	1046.5306	1086.5397	1113.1824	1133.593	1185.1999	1204.2349	1245.6083	1271.8205	1321.5903	1359.5027	1379.2429	1382.6299	1389.3184	1451.4398	1468.9367	1479.7628	1520.4418	1691.3921	1816.6226	2957.9245	2978.8617	3000.5473	3018.2215	3038.1851	3103.1649	3105.0279	3152.2822	3208.3349	3232.6294
CC(=O)CC1OCC=C1	CC(=O)C[C@H]1OCC=C1	
InChI=1S/C7H10O2/c1-6(8)5-7-3-2-4-9-7/h2-3,7H,4-5H2,1H3	InChI=1S/C7H10O2/c1-6(8)5-7-3-2-4-9-7/h2-3,7H,4-5H2,1H3/t7-/m0/s1
