19
gdb 3431	2.3577443	1.5067344	0.9913854	2.8631	77.82	-0.247	-0.02585	0.22114999999999999	1212.6957	0.155052	-422.596097	-422.586596	-422.585652	-422.630328	34.752	
C	 0.5066316063	-2.1533686811	-0.6439358639	-0.399548
C	-0.3327123941	-1.2405542504	 0.2573207496	-0.202526
C	-0.0812474403	 0.2581418702	 0.1475028743	 0.315508
C	 1.3042124691	 0.8212969322	 0.1760757553	-0.49213
C	-1.221393488	 0.9534505405	 0.0533567706	-0.205233
C	-2.4465399056	 0.0852473797	 0.138069044	 0.020454
O	-3.4401115773	 0.3590250013	-0.8234982333	-0.442174
C	-1.8285076429	-1.3067093228	-0.0616237993	 0.355166
O	-2.4349387703	-2.238637159	-0.5269219252	-0.324742
H	 0.1231085353	-3.1755021907	-0.595910791	 0.140114
H	 0.4563231211	-1.8256115201	-1.6869134741	 0.126936
H	 1.5554462227	-2.1608604939	-0.3352895954	 0.117973
H	-0.1991774926	-1.5653441737	 1.3024157399	 0.109757
H	 1.8207873045	 0.5558232806	 1.1075942779	 0.128444
H	 1.9141844419	 0.4224278444	-0.6429646441	 0.13551
H	 1.291475808	 1.9111179243	 0.0922544247	 0.12959
H	-1.2866021415	 2.0328767555	-0.0235388636	 0.103911
H	-2.8817512815	 0.131510606	 1.1555036146	 0.090869
H	-3.7950616449	-0.502022793	-1.0863202907	 0.292121
56.6425	143.0871	185.9004	199.5202	210.3868	236.8459	294.5427	313.8226	351.2002	420.7141	495.448	555.8721	579.1068	627.3162	704.0766	787.689	826.4899	883.0863	988.2713	1002.1758	1027.2074	1038.3459	1055.387	1093.058	1117.3839	1157.738	1178.7795	1232.68	1268.6572	1304.3804	1333.6165	1351.1595	1402.5133	1408.9718	1417.1051	1477.2025	1483.7901	1495.7637	1500.1652	1703.9605	1842.1097	2907.6656	2973.9948	3020.7375	3044.9415	3070.827	3114.479	3116.0254	3127.7831	3198.5965	3741.2356
CC1C(C)=CC(O)C1=O	C[C@H]1C(=C[C@@H](O)C1=O)C	
InChI=1S/C7H10O2/c1-4-3-6(8)7(9)5(4)2/h3,5-6,8H,1-2H3	InChI=1S/C7H10O2/c1-4-3-6(8)7(9)5(4)2/h3,5-6,8H,1-2H3/t5-,6+/m0/s1
