19
gdb 3707	2.6422477	1.5650892	1.2097819	1.5109	76.04	-0.22223	0.0638	0.28603	1081.4705	0.15483	-422.49085	-422.482075	-422.48113	-422.523716	33.771	
C	 1.6909536113	-2.6550759749	-1.124626139	-0.48451
C	 1.1124510355	-1.7505073493	-2.1730577078	 0.179594
C	 1.032188529	-2.0960153769	-3.6551261677	-0.347108
C	-0.2135648531	-1.7439577387	-2.9028438055	 0.058645
O	-0.3548067912	-0.3182508073	-2.8062908345	-0.324811
C	 0.8662729588	-0.2606866393	-2.0534603841	 0.418152
C	 1.7918590768	 0.9182608338	-2.1258018049	-0.405363
C	 0.9820849547	 0.6294063597	-0.8666536963	-0.003777
O	 1.6178636707	 0.1182799179	 0.2687232004	-0.421371
H	 1.5025292123	-3.7028520265	-1.3802682332	 0.109979
H	 2.7760691691	-2.5251933616	-1.0435052119	 0.119264
H	 1.2612211733	-2.4506812638	-0.1412445263	 0.141486
H	 1.406686535	-1.4150181943	-4.4142829324	 0.113414
H	 1.1668521033	-3.1521160121	-3.871521648	 0.10959
H	-1.1101889959	-2.3458357488	-2.8138340989	 0.104615
H	 2.8575998684	 0.713326512	-2.0912547264	 0.118485
H	 1.4961467485	 1.7650525004	-2.7359558402	 0.123847
H	 0.1275431218	 1.2797906208	-0.6770277471	 0.100132
H	 2.1555825816	 0.8211453688	 0.6492472536	 0.289737
122.3779	151.0993	176.9594	216.1763	277.4964	300.7159	320.9442	399.3042	431.0668	473.0463	565.4594	584.149	641.2454	801.5292	826.3599	859.4265	873.498	892.8799	958.2002	973.3172	997.0914	1006.4246	1019.0532	1035.6253	1073.6933	1084.2387	1100.2973	1122.9293	1151.4621	1170.4833	1253.4496	1270.0781	1296.994	1346.5922	1399.543	1414.7578	1426.9241	1478.568	1482.9506	1496.3152	1506.141	3032.9538	3090.8243	3099.678	3112.2753	3123.0491	3125.5798	3183.4918	3204.6217	3220.5385	3797.6387
CC12CC1OC21CC1O	C[C@@]12C[C@@H]1O[C@@]12C[C@@H]1O	
InChI=1S/C7H10O2/c1-6-3-5(6)9-7(6)2-4(7)8/h4-5,8H,2-3H2,1H3	InChI=1S/C7H10O2/c1-6-3-5(6)9-7(6)2-4(7)8/h4-5,8H,2-3H2,1H3/t4-,5-,6+,7-/m0/s1
