19
gdb 1792	3.820497	1.0870562	1.0155039	2.2258	75.81	-0.24601	-0.0233	0.22271000000000002	1204.4342	0.157272	-422.566106	-422.557924	-422.556979	-422.599002	31.569	
O	 3.5063377845	 1.1785186822	-3.9814762581	-0.482862
C	 2.9274695693	 1.4080582691	-2.7379352733	 0.430816
C	 2.1581527649	 2.7318767432	-2.5174490566	-0.260121
C	 2.3697496457	 2.3637721276	-1.0203647607	-0.048709
C	 3.7447837788	 1.7818460929	-1.4591511891	-0.299108
C	 1.4629874147	 1.1020051032	-0.894860816	-0.0535
C	 1.9385124974	 0.3545394005	-2.1874324235	-0.318057
C	 1.6677184847	 0.3218683003	 0.3785283061	 0.145498
O	 0.814477933	 0.1289483507	 1.2072344923	-0.25351
H	 3.873685185	 0.2880196383	-3.9917402592	 0.280827
H	 2.7465889898	 3.6002464304	-2.8201357418	 0.109262
H	 1.1353928683	 2.8061314617	-2.8973042504	 0.096483
H	 2.2854578921	 3.1088744971	-0.2315912488	 0.080648
H	 4.4761542818	 2.5658592839	-1.6642835313	 0.108931
H	 4.2025794835	 0.9819056219	-0.8709993971	 0.090282
H	 0.4056068639	 1.3743095571	-0.9401563883	 0.09328
H	 2.4386980338	-0.5964135774	-1.9660335459	 0.094906
H	 1.1157022343	 0.1529778369	-2.8774681836	 0.116056
H	 2.6969800443	-0.0831166898	 0.5215610053	 0.068879
61.4736	136.0881	235.2546	251.3528	342.6952	370.6304	399.0416	425.605	462.6977	529.5899	628.142	685.9108	820.8302	838.1472	868.7638	897.4557	914.9486	956.2156	965.8388	995.6486	1005.4327	1022.6445	1061.1537	1104.5466	1126.0993	1141.0822	1155.8661	1209.6808	1214.4442	1236.3442	1243.9768	1260.1905	1301.715	1316.5209	1326.405	1388.1289	1435.9852	1486.1752	1491.9381	1529.0196	1827.3024	2855.171	3031.7199	3058.0672	3063.2647	3080.1749	3103.0574	3124.8319	3129.0696	3136.0626	3804.8561
OC12CC(C1)C(C2)C=O	O[C@]12C[C@H](C1)[C@@H](C2)C=O	
InChI=1S/C7H10O2/c8-4-6-3-7(9)1-5(6)2-7/h4-6,9H,1-3H2	InChI=1S/C7H10O2/c8-4-6-3-7(9)1-5(6)2-7/h4-6,9H,1-3H2/t5-,6-,7-/m0/s1
