19
gdb 3219	3.8854821	1.1236184	1.0414427	0.3634	75.3	-0.22421	0.06653	0.29074	1206.9164	0.156378	-422.498223	-422.490111	-422.489167	-422.5307	31.684	
O	 0.448867096	 0.9471648749	 0.2850851051	-0.425395
C	-0.7825185912	 0.7536507328	 0.9155446756	 0.046379
C	-1.8403444469	 0.011282943	 0.14694985	 0.027246
O	-3.0062100132	-0.1584379035	 0.9532449851	-0.32982
C	-3.1989385908	 1.2825778347	 1.0080712933	 0.457888
C	-4.5095140414	 1.8628619004	 0.4347948531	-0.289911
C	-4.5085152156	 2.8848892118	 1.6066315704	-0.217682
C	-3.5052380517	 1.9630662195	 2.3569986774	-0.286245
C	-1.9008875543	 1.5171869951	 0.2435843524	-0.221398
H	 0.949263828	 0.126981094	 0.3540106649	 0.291879
H	-0.7614510054	 0.6590941282	 2.0035007791	 0.09225
H	-1.6604539906	-0.6690341221	-0.6776987762	 0.105008
H	-4.4924901055	 2.2380671668	-0.5913852279	 0.100171
H	-5.313294768	 1.1281287701	 0.5344623531	 0.114184
H	-4.0576107567	 3.8389736657	 1.3223944739	 0.107279
H	-5.4642922281	 3.0833829268	 2.0942350301	 0.103805
H	-2.6707043722	 2.4207950056	 2.8935287247	 0.100834
H	-4.0190592525	 1.2635798951	 3.0225033977	 0.115011
H	-1.703429	 2.283107801	-0.4939885117	 0.108516
107.9201	131.7977	220.1898	267.5719	316.4859	341.8859	378.2033	455.9655	479.118	549.9534	693.006	780.8847	810.7967	829.1298	893.2131	916.3284	923.4666	930.7963	934.4829	957.2098	1016.6473	1023.2876	1036.1963	1074.0216	1103.4372	1109.8976	1161.7611	1168.9125	1195.9521	1211.8283	1218.7789	1243.681	1267.2299	1273.4945	1289.3095	1308.3756	1339.8528	1435.7921	1465.8237	1482.4297	1504.0391	3057.8823	3061.8288	3070.2168	3077.0095	3108.5078	3115.4163	3129.8596	3177.5991	3209.8248	3801.6084
OC1C2OC3(CCC3)C12	O[C@@H]1[C@H]2OC3(CCC3)[C@@H]12	
InChI=1S/C7H10O2/c8-5-4-6(5)9-7(4)2-1-3-7/h4-6,8H,1-3H2	InChI=1S/C7H10O2/c8-5-4-6(5)9-7(4)2-1-3-7/h4-6,8H,1-3H2/t4-,5-,6-/m0/s1
