19
gdb 2295	2.4274241	1.8516948	1.4455239	2.7741	73.76	-0.24741	-0.02097	0.22644	974.4595	0.15897	-422.611001	-422.603457	-422.602513	-422.642554	30.576	
O	-0.3370353977	 2.4946747762	-0.3483909493	-0.507791
C	-0.9921657196	 1.3188468058	-0.0038132791	 0.349055
C	-1.789231348	 1.3738644492	 1.3376611497	-0.264994
C	-2.7301945143	 0.1372212581	 1.2597334315	-0.21592
C	-2.3351596382	-0.5158951166	-0.0887613228	-0.026494
C	-0.9201500904	-1.1265630955	 0.0579135811	-0.333903
C	-0.0488914659	 0.1276255498	 0.1158719305	 0.373432
O	 1.1524520601	 0.2243833141	 0.1824984652	-0.353921
C	-2.0522683457	 0.7261545099	-0.9671062743	-0.285052
H	 0.6103558686	 2.2980047507	-0.2803825025	 0.287575
H	-1.1253981341	 1.3648897923	 2.2063678979	 0.109893
H	-2.3398049394	 2.318092181	 1.3564604921	 0.117601
H	-2.6008557634	-0.5486631085	 2.1017274906	 0.100262
H	-3.7810342188	 0.4394585562	 1.246964048	 0.104635
H	-3.0741347151	-1.2166035184	-0.4780669688	 0.072257
H	-0.7814333563	-1.7630831692	 0.9369678678	 0.128151
H	-0.6320910027	-1.7149001656	-0.8210751729	 0.133704
H	-1.6426237533	 0.488081073	-1.9534897786	 0.104051
H	-2.9183918556	 1.3823247276	-1.0877419963	 0.107462
114.8131	206.4364	290.9449	349.649	361.1893	416.3112	419.3817	500.1481	517.3836	606.8409	636.7545	705.8508	748.9625	818.5112	852.2695	890.2514	921.5835	928.9888	947.0263	981.7522	995.061	1040.8953	1077.8896	1106.5098	1130.1159	1142.791	1192.8015	1196.7749	1239.1774	1250.8543	1272.9531	1287.2264	1327.6987	1341.6486	1358.5141	1417.6587	1444.0181	1490.2326	1494.788	1517.5486	1840.5862	3046.334	3052.8943	3056.0805	3063.849	3089.2463	3094.7327	3108.5355	3109.4209	3112.4856	3699.4161
OC12CCC(CC1=O)C2	O[C@]12CC[C@H](CC1=O)C2	
InChI=1S/C7H10O2/c8-6-3-5-1-2-7(6,9)4-5/h5,9H,1-4H2	InChI=1S/C7H10O2/c8-6-3-5-1-2-7(6,9)4-5/h5,9H,1-4H2/t5-,7+/m1/s1
