19
gdb 2702	2.5561702	1.2139931	1.0362906	2.3385	78.12	-0.24597	-0.02198	0.22399	1236.8736	0.155668	-422.586278	-422.576942	-422.575998	-422.621206	33.689	
C	 1.2436355196	 0.879665684	-0.0771853016	-0.493975
C	-0.0930771782	 0.2118810001	 0.0041923134	 0.294521
C	-0.374362152	-1.0377943498	 0.3788569211	-0.163772
C	-1.8435811073	-1.3673729012	 0.3445151824	-0.285484
C	-2.5056269686	-0.0291780869	-0.0488715119	-0.122808
C	-3.3593137773	 0.5714205197	 1.0511699573	 0.144088
O	-3.5623461007	 0.081105898	 2.1319216095	-0.239884
C	-1.3427645929	 0.9538988414	-0.4258208653	 0.014601
O	-1.3133708693	 1.3173950632	-1.803930712	-0.425949
H	 1.3073583105	 1.7199429093	 0.6260792507	 0.130022
H	 2.0581092594	 0.1864974931	 0.1485284159	 0.12333
H	 1.4061853726	 1.2981365167	-1.0766900204	 0.134343
H	 0.369345794	-1.7640665201	 0.6925218517	 0.094269
H	-2.0667675333	-2.1723961959	-0.3665440046	 0.104129
H	-2.21540331	-1.69654785	 1.3207309835	 0.139276
H	-3.1586789345	-0.1074419896	-0.9264401432	 0.101249
H	-3.8011738075	 1.5585563634	 0.7827550895	 0.085441
H	-1.449122857	 1.9167991756	 0.0903055917	 0.088874
H	-1.0913768175	 0.5230667292	-2.3038831878	 0.277729
33.5949	81.3623	163.6534	203.4366	237.1539	249.1756	293.2863	350.9717	385.8781	405.1282	579.9687	599.1706	682.2453	711.9583	820.48	832.8278	895.9574	918.3849	971.4128	997.0136	1023.9588	1041.6025	1064.0468	1070.1766	1088.6903	1173.8844	1192.3533	1205.5257	1271.5687	1286.557	1317.8268	1329.8238	1359.3648	1410.678	1422.6658	1433.4853	1476.7411	1486.6066	1492.7417	1727.4492	1827.6829	2869.5822	3022.5221	3026.0584	3027.3506	3044.8289	3073.8463	3076.1914	3116.5272	3179.8979	3789.4166
CC1=CCC(C=O)C1O	CC1=CC[C@@H](C=O)[C@@H]1O	
InChI=1S/C7H10O2/c1-5-2-3-6(4-8)7(5)9/h2,4,6-7,9H,3H2,1H3	InChI=1S/C7H10O2/c1-5-2-3-6(4-8)7(5)9/h2,4,6-7,9H,3H2,1H3/t6-,7+/m0/s1
