19
gdb 704	3.7326768	1.0988235	1.0169356	1.7902	74.5	-0.24251	-0.02233	0.22018000000000001	1208.1482	0.15721	-422.567812	-422.559594	-422.55865	-422.601523	30.591	
O	 0.989726713	 0.0567685398	 0.8790204954	-0.308092
C	-0.0673874249	 0.0351525469	 0.3063826651	 0.406241
C	-0.7946648938	 1.2456655386	-0.2945568533	-0.32253
C	-2.197057971	 0.7243627133	-0.6398905432	-0.291825
C	-1.9824244756	-0.7667798622	-0.9691758963	 0.293033
C	-1.7077017594	-1.0916395804	-2.4629844928	-0.114807
O	-2.9497756325	-1.8087024302	-2.5827998162	-0.26904
C	-3.2443709008	-1.6288945902	-1.183951999	-0.136507
C	-0.9274370824	-1.2098091601	 0.0472568412	-0.406118
H	-0.7665618703	 2.0999539384	 0.385471669	 0.131988
H	-0.2442745651	 1.539789975	-1.1982752384	 0.135267
H	-2.8548736825	 0.8080479449	 0.2345064654	 0.107535
H	-2.6779240542	 1.2652033031	-1.4593182191	 0.112238
H	-1.661454306	-0.2319917009	-3.1445502294	 0.099578
H	-0.8404595345	-1.7396182646	-2.6496265055	 0.099923
H	-4.2025232513	-1.1161668171	-1.0270030413	 0.099974
H	-3.258037744	-2.5829758936	-0.6398593716	 0.098776
H	-1.4016486534	-1.4804419736	 1.0015184728	 0.132488
H	-0.3158482012	-2.062554537	-0.2578662929	 0.131878
51.5812	70.7104	134.7249	257.9911	359.3002	370.3387	429.3024	466.7629	494.9282	578.3611	712.633	737.3103	811.1888	854.5238	885.4586	917.261	948.1224	981.9536	992.3552	997.6079	1029.8935	1045.5516	1110.5992	1154.6972	1163.622	1165.0218	1173.5946	1207.3265	1244.2583	1273.9825	1285.6738	1308.5591	1314.0277	1342.3988	1390.4532	1445.6282	1449.6869	1495.8566	1513.562	1536.6286	1851.271	2993.5015	3004.9984	3020.1923	3029.3876	3035.1956	3040.9448	3043.1936	3092.9784	3103.3862	3110.9806
O=C1CCC2(COC2)C1	O=C1CCC2(COC2)C1	
InChI=1S/C7H10O2/c8-6-1-2-7(3-6)4-9-5-7/h1-5H2	InChI=1S/C7H10O2/c8-6-1-2-7(3-6)4-9-5-7/h1-5H2
