19
gdb 4854	2.7265778	1.4619236	1.2382448	3.0921	75.36	-0.24509	-0.00337	0.24172	1079.4177	0.15637	-422.545733	-422.537108	-422.536164	-422.578599	33.045	
C	 2.7384065054	-2.9287123823	 0.2312651845	-0.455273
C	 2.5961022407	-1.4104353536	 0.4285750003	 0.199207
C	 1.1112371716	-0.9867183556	 0.4616843664	-0.098838
O	 0.3910683819	-1.3778224846	-0.6968688954	-0.423612
C	 3.3177580142	-0.9520587118	 1.6892548807	-0.119453
C	 4.3643088254	-0.1627669235	 1.4348477701	-0.103151
C	 4.4681965717	 0.0902540891	-0.0327859455	-0.009718
O	 3.3036454612	 0.7664365366	-0.5696567939	-0.262076
C	 3.366544433	-0.6547070036	-0.6661469825	 0.019302
H	 2.2780979755	-3.479016133	 1.0596810138	 0.113961
H	 2.2607403139	-3.2452644872	-0.7025105141	 0.115545
H	 3.7916431803	-3.2203854573	 0.1837734218	 0.126417
H	 0.6370926835	-1.3761868717	 1.3760388798	 0.081764
H	 1.0667501482	 0.1045344988	 0.4958640615	 0.13444
H	 0.2025376519	-2.3182955225	-0.631198566	 0.284784
H	 2.9720723395	-1.2387225451	 2.6775071076	 0.099412
H	 5.0312013866	 0.2716822408	 2.1693365415	 0.105209
H	 5.4052046338	 0.3347058275	-0.5233802481	 0.09724
H	 3.4085055216	-1.0557492511	-1.6753930025	 0.09484
98.7978	151.5678	189.7949	226.876	282.766	313.7867	341.0806	399.4613	414.7134	478.8323	601.7518	653.9903	754.5304	771.1843	823.3424	853.3614	866.1474	905.4047	934.5937	954.1079	971.7313	989.5523	1033.0957	1066.1864	1105.9639	1107.8464	1134.5911	1183.1569	1216.4907	1253.3276	1272.9525	1305.8461	1376.2612	1383.6085	1399.1527	1409.4527	1417.387	1492.9805	1496.606	1507.3768	1659.068	2981.7496	3026.898	3093.9321	3106.4026	3107.3667	3146.521	3166.5809	3178.9632	3215.4343	3833.1118
CC1(CO)C=CC2OC12	C[C@@]1(CO)C=C[C@@H]2O[C@H]12	
InChI=1S/C7H10O2/c1-7(4-8)3-2-5-6(7)9-5/h2-3,5-6,8H,4H2,1H3	InChI=1S/C7H10O2/c1-7(4-8)3-2-5-6(7)9-5/h2-3,5-6,8H,4H2,1H3/t5-,6-,7-/m0/s1
