19
gdb 4722	2.487512	1.0949824	0.8066037	0.4411	76.88	-0.25	0.04143	0.29143	1400.2817	0.154948	-422.493782	-422.48388	-422.482936	-422.529623	34.755	
O	 2.796177784	 2.5106903229	 0.7096263738	-0.409647
C	 3.1475973078	 1.5412892145	-0.2532588191	-0.059734
C	 2.6839121243	 0.1120771605	 0.1075396407	-0.244695
C	 1.2349135288	 0.0438501613	 0.2816512348	 0.347884
C	 0.0401340245	-0.0372072953	 0.3856114912	-0.457371
C	 3.150262778	-0.8975399664	-0.9524532738	-0.024594
C	 2.9564252065	-2.3954549183	-0.6320810852	-0.086969
O	 4.3751425019	-2.6466762863	-0.7284941095	-0.271947
C	 4.6540174005	-1.2580692614	-0.9834316091	-0.0922
H	 3.2374964986	 2.2902560203	 1.5363194309	 0.284265
H	 2.6634316968	 1.852846087	-1.1841510438	 0.122115
H	 4.2343843099	 1.5215858824	-0.4325573136	 0.092479
H	 3.162490114	-0.1611640257	 1.0618185146	 0.096793
H	-1.0147434487	-0.0953277058	 0.4928923603	 0.198364
H	 2.7495767876	-0.6105087551	-1.9277904717	 0.092497
H	 2.5654394617	-2.6066636104	 0.3714153081	 0.10684
H	 2.3854284612	-2.9766850072	-1.3647718807	 0.107356
H	 5.2605361131	-0.8074579374	-0.184518068	 0.094153
H	 5.1682140095	-1.1091958595	-1.9404347599	 0.104409
49.2286	75.201	105.1129	125.7739	167.7672	205.5325	302.2658	325.1017	356.3333	422.8721	494.524	571.9705	637.2813	642.8564	802.5781	834.7594	891.1399	899.4558	968.8744	992.6504	1026.8741	1043.4894	1090.0057	1097.0046	1107.4735	1143.6364	1157.927	1166.4234	1206.6963	1262.6732	1274.9031	1311.5329	1344.5665	1365.1461	1388.1669	1399.2461	1419.5073	1500.6663	1513.2518	1537.8604	2235.5794	2974.0647	2978.6031	2995.4937	3018.1082	3045.6537	3060.6043	3080.8269	3086.9685	3503.9846	3813.9639
OCC(C#C)C1COC1	OC[C@@H](C#C)C1COC1	
InChI=1S/C7H10O2/c1-2-6(3-8)7-4-9-5-7/h1,6-8H,3-5H2	InChI=1S/C7H10O2/c1-2-6(3-8)7-4-9-5-7/h1,6-8H,3-5H2/t6-/m1/s1
