19
gdb 2963	3.1359413	1.1313185	1.0205953	3.1149	76.37	-0.24629	-0.02313	0.22316	1224.4944	0.154768	-422.534662	-422.525575	-422.52463	-422.568234	33.999	
C	-0.1748259946	 0.1002060698	 0.028029612	-0.470316
C	 1.3542561439	 0.0479915474	-0.0000284772	 0.201179
C	 2.0823376481	-0.6123641103	-1.218239586	-0.309653
C	 2.8558820618	 0.6874836873	-1.4597450989	-0.047419
C	 1.9059833557	 1.8058362745	-1.7334706468	 0.08555
O	 2.5340187328	 2.998798776	-2.1004631378	-0.431832
C	 2.1129684285	 1.3653210042	-0.3016283818	-0.143418
C	 1.8598912839	-0.4933447272	 1.3256600463	 0.124645
O	 2.6736463663	-1.3677448544	 1.4727973093	-0.248184
H	-0.5338782408	 0.6535782273	 0.9037108483	 0.119592
H	-0.5705671929	 0.5954894861	-0.8622570223	 0.12482
H	-0.6024335854	-0.907574877	 0.0695853484	 0.128314
H	 2.7089018082	-1.4419965154	-0.8885461565	 0.13744
H	 1.4351500079	-0.9403139565	-2.0378584674	 0.094851
H	 3.899660472	 0.7751803781	-1.7322059254	 0.102525
H	 0.9635015822	 1.6064288396	-2.2490695538	 0.080836
H	 2.0171162401	 3.7305564001	-1.7474557527	 0.288502
H	 2.4898447586	 2.0665510347	 0.4352986384	 0.089078
H	 1.4102473135	 0.0190610159	 2.2094509639	 0.073489
76.4981	157.5568	185.5445	203.1382	253.4831	307.0206	317.1009	326.5724	375.5699	388.3356	475.1882	600.3556	682.0684	797.5969	827.3305	849.5581	883.9453	910.4095	928.586	982.2882	1007.4811	1015.9382	1024.2728	1081.1018	1123.8635	1137.7876	1163.635	1170.1424	1214.691	1230.9754	1258.2312	1275.5518	1302.5737	1322.9045	1404.9536	1425.4723	1447.3553	1482.4944	1492.4395	1496.5413	1828.5709	2849.6911	3028.7444	3052.2604	3061.6862	3092.0562	3114.3566	3131.6421	3167.7478	3202.2597	3806.1889
CC1(CC2C(O)C12)C=O	C[C@]1(C[C@H]2[C@H](O)[C@@H]12)C=O	
InChI=1S/C7H10O2/c1-7(3-8)2-4-5(7)6(4)9/h3-6,9H,2H2,1H3	InChI=1S/C7H10O2/c1-7(3-8)2-4-5(7)6(4)9/h3-6,9H,2H2,1H3/t4-,5+,6+,7+/m1/s1
