19
gdb 1035	2.9813065	0.9812045	0.9429694	1.501	79.96	-0.23813	0.0574	0.29553	1381.1713	0.157456	-422.528083	-422.518978	-422.518034	-422.563449	32.291	
C	 1.5508739808	 0.0488111843	-0.0347957808	-0.496403
C	 0.0959528661	 0.00628167	-0.0035374029	 0.022157
C	-1.106847995	-0.0344806991	 0.0258095902	 0.1312
C	-2.5652172844	-0.075534249	 0.0561628393	-0.197877
C	-3.1289991465	-1.3547010153	-0.606025616	-0.087266
O	-2.8758842522	-2.4944810162	 0.1960308846	-0.22999
C	-3.4148018134	-2.3406097919	 1.4818370944	 0.025647
O	-2.8696627486	-1.250534029	 2.1760777215	-0.230003
C	-3.1223971532	-0.032551281	 1.4984926101	-0.087268
H	 1.969295867	 0.0622553786	 0.977681515	 0.14912
H	 1.962522026	-0.8258426856	-0.5504725588	 0.148894
H	 1.9142590893	 0.9418517983	-0.5554668971	 0.144673
H	-2.9662153833	 0.7914319137	-0.4872672784	 0.100052
H	-4.2154221226	-1.2290526234	-0.7547068128	 0.086255
H	-2.6615546344	-1.5383241499	-1.575167937	 0.121175
H	-4.5150893653	-2.2250313767	 1.412682682	 0.071943
H	-3.1615668824	-3.2398686973	 2.0459885417	 0.120256
H	-4.2084921724	 0.1589942285	 1.4547252387	 0.086254
H	-2.6500635953	 0.7595234312	 2.0824235561	 0.121182
25.7553	76.1578	97.9631	205.6901	238.3793	292.2912	320.9307	401.7184	439.6479	444.4372	577.791	589.4697	666.7141	825.4682	891.2683	893.7346	952.3577	978.	1046.2408	1051.0005	1052.1917	1056.6616	1089.257	1134.8332	1199.4901	1206.5578	1243.4544	1275.9835	1290.0944	1340.2975	1369.0163	1381.4011	1411.8535	1416.4218	1447.1946	1478.3956	1478.9773	1492.0169	1494.4213	1510.0275	2373.354	2906.1076	2956.3544	2964.7949	3013.2385	3026.3777	3086.2928	3087.8448	3110.975	3111.5115	3118.9015
CC#CC1COCOC1	CC#CC1COCOC1	
InChI=1S/C7H10O2/c1-2-3-7-4-8-6-9-5-7/h7H,4-6H2,1H3	InChI=1S/C7H10O2/c1-2-3-7-4-8-6-9-5-7/h7H,4-6H2,1H3
