19
gdb 1227	2.9791527	0.6825122	0.5994302	2.5069	82.83	-0.25055	-0.0318	0.21875	1862.3855	0.152794	-422.539107	-422.527943	-422.526999	-422.578209	37.721	
C	-0.05531893	 0.2054271409	 0.5238804438	-0.371378
C	 1.1580807915	-0.2428356188	-0.2921952322	-0.020417
O	 1.5316927537	-1.5276998007	 0.2011528253	-0.417031
C	 2.2692449398	 0.7129210179	-0.2114875509	 0.082947
C	 3.2051306128	 1.4722462238	-0.1724033544	 0.017109
C	 4.3356960025	 2.3872920965	-0.0582803091	-0.215688
C	 3.8818459016	 3.8669457441	-0.0243591883	-0.397287
C	 5.1090177746	 2.0829886021	 1.2296793784	 0.173733
O	 6.3004580177	 1.9457834614	 1.283537235	-0.240877
H	 0.2193069028	 0.3090483108	 1.5763751092	 0.132822
H	-0.4314124158	 1.1637565487	 0.1577343698	 0.122561
H	-0.8449567773	-0.5454759379	 0.4384581533	 0.128058
H	 0.8562245699	-0.3208868357	-1.3500926247	 0.096041
H	 2.370028853	-1.767641327	-0.2071025123	 0.287882
H	 5.0365874781	 2.2423050721	-0.8878461652	 0.123917
H	 3.2471201167	 4.0583025046	 0.8458985093	 0.133609
H	 4.7521632825	 4.5272150789	 0.0216013098	 0.135051
H	 3.305892056	 4.1025904282	-0.9221598338	 0.138835
H	 4.4645822698	 2.01952487	 2.1347214569	 0.090114
9.1283	46.53	86.6214	94.4721	182.6034	217.5119	226.2558	253.6596	289.5891	302.3908	362.668	432.2341	462.6241	493.8398	564.3734	601.5997	747.5777	875.2499	904.0239	931.4943	992.4421	1049.0271	1078.4577	1086.5821	1112.4234	1136.1709	1178.0278	1269.2268	1282.7117	1325.9217	1356.3737	1393.2102	1398.2998	1411.3616	1416.4304	1483.1441	1491.9897	1495.4364	1497.4835	1839.4766	2350.8587	2887.9275	2957.6001	3044.852	3051.6721	3052.102	3122.2548	3130.6862	3132.1955	3135.8011	3818.0836	9.1306	46.531	86.6221	94.4728	182.6033	217.5128	226.2569	253.6599	289.5883	302.3893	362.6681	432.2341	462.624	493.8397	564.3733	601.5997	747.5778	875.2499	904.0239	931.4945	992.4421	1049.0272	1078.4579	1086.582	1112.4233	1136.1707	1178.0275	1269.2263	1282.7117	1325.9212	1356.3737	1393.2102	1398.2995	1411.3619	1416.4307	1483.1439	1491.989	1495.4362	1497.4828	1839.4776	2350.8585	2887.9279	2957.6	3044.852	3051.6721	3052.102	3122.2548	3130.6862	3132.1955	3135.8011	3818.0828
CC(O)C#CC(C)C=O	C[C@H](O)C#C[C@@H](C)C=O	
InChI=1S/C7H10O2/c1-6(5-8)3-4-7(2)9/h5-7,9H,1-2H3	InChI=1S/C7H10O2/c1-6(5-8)3-4-7(2)9/h5-7,9H,1-2H3/t6-,7+/m1/s1
