19
gdb 474	3.8743132	1.086724	0.9029974	1.3847	77.11	-0.24685	0.02088	0.26773	1290.3002	0.157458	-422.534487	-422.526267	-422.525323	-422.567819	30.662	
C	-2.1991793954	 4.9546273499	-0.4719384041	-0.179318
O	-1.1750612119	 5.2696490346	 0.4772236491	-0.241171
C	-0.8535508767	 4.3905490454	-0.6011131534	 0.067702
C	-0.5366952573	 2.9680669848	-0.2061276647	 0.10472
C	 0.8209490517	 2.8463784555	 0.4974348999	-0.259226
C	 1.2366101701	 1.4014618462	 0.5725371099	-0.074062
C	 0.658028318	 0.4722813123	-0.1836644819	-0.06354
C	-0.4095075849	 0.8137014633	-1.1852029175	-0.113672
O	-0.5506195063	 2.2050657329	-1.4056960654	-0.271116
H	-3.0083979093	 4.3306482413	-0.0953423299	 0.114761
H	-2.5049714724	 5.7763570803	-1.1173352576	 0.117276
H	-0.1817668241	 4.8111025691	-1.3511308488	 0.098469
H	-1.3228661287	 2.6096775093	 0.4792536022	 0.068791
H	 1.5758598531	 3.4359487632	-0.042376095	 0.111171
H	 0.7469012002	 3.2854533732	 1.499039019	 0.121564
H	 2.0229795965	 1.1340444122	 1.273085889	 0.091261
H	 0.9333008321	-0.5761280428	-0.1059346118	 0.091742
H	-0.1717643405	 0.3774445366	-2.1630129665	 0.117832
H	-1.3745199241	 0.3740843226	-0.8703726925	 0.096815
64.4268	108.175	167.8987	190.9921	308.8543	374.1025	410.8501	469.9172	504.0095	549.7165	669.6857	779.4959	858.4875	883.903	894.175	927.868	942.0467	972.0941	994.8841	1036.2142	1044.9762	1070.5826	1105.701	1121.8657	1149.8169	1162.6611	1178.8513	1209.3453	1221.4493	1260.6961	1283.4572	1299.2471	1349.7014	1375.9426	1400.0131	1409.981	1460.545	1472.6165	1488.7631	1530.581	1727.9459	2930.6411	2965.4182	3008.9976	3046.7917	3063.2576	3085.5039	3103.3245	3153.6127	3173.8064	3176.4234
C1OC1C1CC=CCO1	C1O[C@H]1[C@@H]1CC=CCO1	
InChI=1S/C7H10O2/c1-2-4-8-6(3-1)7-5-9-7/h1-2,6-7H,3-5H2	InChI=1S/C7H10O2/c1-2-4-8-6(3-1)7-5-9-7/h1-2,6-7H,3-5H2/t6-,7+/m0/s1
