19
gdb 1388	4.5297583	0.7291959	0.6906194	2.4275	78.73	-0.25725	0.03524	0.29248999999999997	1656.1515	0.154061	-422.488535	-422.47865	-422.477706	-422.524252	35.712	
O	-0.4685143008	 0.9307437459	-3.7313721344	-0.43155
C	 0.5604565046	 1.9063860496	-3.6776087005	-0.061716
C	 1.4281510052	 1.6899309202	-2.4304376179	-0.086771
O	 0.5373493081	 1.7348542491	-1.3258707936	-0.26865
C	 1.1308407657	 1.3960110809	-0.1081511826	 0.14805
C	 0.2325391396	 0.8119658144	 0.9310766154	-0.288048
C	 1.2778120853	-0.057845693	 0.2588006896	-0.287533
C	 1.3724220301	 1.8323791147	-4.8886287386	 0.34002
C	 2.0705641124	 1.7898570086	-5.8647862158	-0.451723
H	-0.8275088358	 0.9021607981	-2.8350144967	 0.290779
H	 0.1233285626	 2.9166747795	-3.6057162148	 0.102349
H	 1.9246645787	 0.7123429493	-2.490292418	 0.112609
H	 2.1950321362	 2.4737546761	-2.3529667735	 0.103969
H	 1.9124815124	 2.0868480696	 0.2079838348	 0.090451
H	 0.3767542275	 1.1075635352	 1.9638623395	 0.119332
H	-0.8005863619	 0.6533043665	 0.6437423674	 0.124639
H	 2.1482726336	-0.3685515883	 0.8257007047	 0.118079
H	 0.9208317418	-0.7836647651	-0.4634153838	 0.125083
H	 2.6746496749	 1.7517466786	-6.7375076512	 0.200631
48.8611	56.836	101.5526	154.3393	194.463	249.9197	305.6637	373.0402	422.2619	437.8055	481.2556	553.0219	577.4886	630.4705	679.0958	756.5311	820.4329	824.6819	890.74	957.9961	978.8311	998.501	1052.0607	1074.5053	1085.966	1096.0782	1119.6658	1131.2263	1193.4169	1202.1905	1245.0096	1246.5466	1274.697	1336.9931	1370.0332	1417.7415	1446.1626	1454.3849	1496.0364	1509.4073	2246.6592	2960.9246	3000.6142	3052.3449	3102.4432	3137.3166	3143.6141	3221.2784	3235.6585	3504.2141	3776.1013
OC(COC1CC1)C#C	O[C@@H](COC1CC1)C#C	
InChI=1S/C7H10O2/c1-2-6(8)5-9-7-3-4-7/h1,6-8H,3-5H2	InChI=1S/C7H10O2/c1-2-6(8)5-9-7-3-4-7/h1,6-8H,3-5H2/t6-/m1/s1
