19
gdb 4024	3.1732069	1.7341074	1.4916264	1.611	73.38	-0.24177	0.08709	0.32886000000000004	949.6076	0.158546	-422.527884	-422.520585	-422.51964	-422.559229	29.485	
C	-1.4220298679	-2.0782412877	-1.2780637029	-0.403359
C	-1.5545606909	-0.8622049587	-2.1925636083	 0.217246
O	-0.328812823	-0.4947570496	-2.802248378	-0.264668
C	 0.1256026815	-1.4105569837	-3.7671054616	 0.099912
C	-0.1706770602	-1.1729195339	-5.221303942	-0.10432
C	-1.4828698124	-0.4007081876	-5.3348378295	-0.253984
C	-2.167535071	-1.4796768461	-4.4201099913	 0.114288
O	-2.5988984262	-1.0536460154	-3.1410780134	-0.286593
C	-0.8700072072	-2.3003075031	-4.4394230776	-0.149005
H	-1.1295139391	-2.969716793	-1.8378495531	 0.121615
H	-0.6719840504	-1.883017043	-0.5058384247	 0.119049
H	-2.3832975405	-2.2754034863	-0.7959932424	 0.124695
H	-1.8417042683	 0.0145111627	-1.6029546352	 0.092008
H	 1.0975140093	-1.8354901994	-3.5325959883	 0.095706
H	 0.5991736458	-1.2566038273	-5.9780905463	 0.089358
H	-1.4865588521	 0.6213084778	-4.9493101111	 0.110392
H	-1.8986889054	-0.416259662	-6.3448983887	 0.101485
H	-3.0295561384	-1.955484378	-4.8885445217	 0.089477
H	-0.7784423636	-3.3782152658	-4.495300414	 0.086699
128.6853	198.8842	225.8097	319.0085	387.33	454.2667	490.2719	538.4382	586.6366	705.1273	757.4799	797.3262	800.7416	835.8337	867.2454	923.2384	946.2286	960.724	987.4293	1007.0349	1024.7289	1043.6832	1076.8974	1088.2985	1112.3789	1116.5481	1145.9653	1172.8521	1219.0963	1221.982	1253.5058	1297.2707	1330.3958	1359.4303	1379.7087	1401.0219	1401.97	1428.9167	1478.1974	1486.2997	1492.1415	3046.9825	3056.6862	3065.6746	3103.3338	3122.9823	3123.8142	3133.6071	3147.9212	3179.0696	3195.6946
CC1OC2C3CC(O1)C23	C[C@H]1O[C@@H]2[C@@H]3C[C@H](O1)[C@H]23	
InChI=1S/C7H10O2/c1-3-8-5-2-4-6(5)7(4)9-3/h3-7H,2H2,1H3	InChI=1S/C7H10O2/c1-3-8-5-2-4-6(5)7(4)9-3/h3-7H,2H2,1H3/t3-,4-,5+,6-,7-/m1/s1
