19
gdb 2397	2.5755905	1.6136854	1.3611417	2.6934	74.74	-0.24498	0.06106	0.30604	1030.3719	0.155906	-422.501553	-422.493279	-422.492335	-422.534245	31.564	
C	-0.097340127	-0.4782145439	 1.070018938	-0.51038
C	 1.2385897361	-0.2384354455	 0.4067326872	 0.208102
C	 1.2897430579	 0.580358712	-0.9024887775	-0.119523
O	 2.3294099527	 1.4472452922	-0.3889793451	-0.292657
C	 2.3512836915	 0.7604024946	 0.8741266621	 0.065587
C	 3.4034477137	-0.3768056477	 0.9108477736	-0.334502
C	 2.3093285423	-1.3426854258	 0.4250992255	 0.394785
C	 2.1536630082	-2.7746052247	 0.6851299581	-0.268953
O	 2.4739709258	-2.2815116707	-0.6238308042	-0.270626
H	 0.0226206933	-0.88665329	 2.0788657446	 0.119512
H	-0.6719195274	 0.4508192023	 1.146688108	 0.124476
H	-0.6976816985	-1.1914922907	 0.4923765073	 0.127592
H	 1.5988223131	 0.0341381549	-1.8005850695	 0.118931
H	 0.3721902351	 1.1440014674	-1.114621509	 0.097786
H	 2.2739930201	 1.4366341022	 1.7290747656	 0.076299
H	 4.2376084292	-0.2262998511	 0.2223371071	 0.126428
H	 3.7869712035	-0.6103161639	 1.9085153476	 0.106812
H	 2.9527697584	-3.3196475299	 1.1871199299	 0.115894
H	 1.1600113919	-3.2088948018	 0.7888687608	 0.114437
75.2065	190.5041	205.5886	227.7452	250.5398	316.875	383.441	408.582	485.6582	545.5449	645.5367	733.8397	810.766	847.231	878.0553	881.773	921.7297	940.9585	975.3585	1001.7062	1017.4815	1068.4879	1117.6382	1129.2389	1136.1786	1150.1292	1167.7075	1168.1576	1187.1046	1227.5811	1250.6966	1285.4375	1321.0459	1370.1872	1409.8732	1423.8538	1457.0059	1491.0491	1493.9773	1521.8675	1532.1873	3012.4128	3024.3202	3056.6017	3069.6937	3077.2219	3080.9054	3087.4961	3099.7651	3123.6367	3163.3112
CC12COC1CC21CO1	C[C@@]12CO[C@@H]1C[C@]12CO1	
InChI=1S/C7H10O2/c1-6-3-8-5(6)2-7(6)4-9-7/h5H,2-4H2,1H3	InChI=1S/C7H10O2/c1-6-3-8-5(6)2-7(6)4-9-7/h5H,2-4H2,1H3/t5-,6-,7-/m1/s1
