19
gdb 1278	3.0564149	1.347777	1.3271135	1.9943	74.79	-0.23943	0.06815	0.30758	1074.0025	0.155755	-422.474527	-422.466226	-422.465282	-422.507356	32.03	
C	-1.2785090093	-1.4943935442	 1.4943818493	-0.403879
C	-1.0056127307	-1.1669645713	 0.0238030515	-0.027864
O	-0.3659840591	-2.2457416323	-0.6478223288	-0.432577
C	-0.1564284476	 0.0646323112	-0.1260720983	 0.502137
O	 1.2170872405	-0.0345808009	 0.3994010154	-0.380378
C	 1.1302116189	 1.2993594314	-0.1851760032	 0.085041
C	 0.2652320513	 0.8642720415	-1.4040147947	-0.1401
C	-0.781883064	 1.9673399905	-1.1374962413	-0.282036
C	-0.334299435	 1.5642631611	 0.2845398028	-0.154492
H	-1.8144165905	-2.4439392329	 1.5657457444	 0.123388
H	-0.3366655745	-1.5778354632	 2.0452793891	 0.131354
H	-1.8822046917	-0.7129225929	 1.9673198387	 0.113576
H	-1.9538511262	-1.0050263602	-0.5035799411	 0.094462
H	 0.5594631253	-2.2269859817	-0.3727710433	 0.291223
H	 2.0063898218	 1.9452000397	-0.1397501768	 0.09735
H	 0.6232364566	 0.4410822286	-2.34150324	 0.090933
H	-0.5174297548	 2.9774272942	-1.461267546	 0.101545
H	-1.8156170064	 1.7398412013	-1.4105803668	 0.104838
H	-0.6481782049	 1.94233203	 1.2573624689	 0.085477
71.0612	154.2789	169.1108	238.1036	286.3305	362.738	405.0503	434.5486	512.5072	557.4005	655.6739	757.4204	770.861	810.9017	859.22	872.7003	896.1521	913.1169	931.1942	981.3154	1018.0372	1031.2431	1053.3121	1076.5427	1095.8873	1105.4983	1124.8043	1144.7564	1168.9062	1182.8278	1229.7126	1244.279	1277.5895	1287.872	1332.128	1384.1164	1398.9209	1435.9327	1488.9438	1498.4742	1513.727	3039.6423	3039.9609	3055.7747	3111.1333	3112.3091	3118.3551	3126.5708	3128.2979	3137.9312	3778.2732
CC(O)C12OC3C1CC23	C[C@H](O)[C@@]12O[C@H]3[C@@H]1C[C@@H]23	
InChI=1S/C7H10O2/c1-3(8)7-4-2-5(7)6(4)9-7/h3-6,8H,2H2,1H3	InChI=1S/C7H10O2/c1-3(8)7-4-2-5(7)6(4)9-7/h3-6,8H,2H2,1H3/t3-,4-,5+,6-,7+/m0/s1
