19
gdb 2566	2.7638866	1.2995495	1.0242757	2.6672	78.74	-0.22941	-0.01399	0.21542	1211.8617	0.156678	-422.576562	-422.567835	-422.566891	-422.610105	32.524	
C	 1.1562673715	 0.7562388485	-0.5097911781	-0.470562
C	-0.0649771176	-0.0962162486	-0.2789588435	 0.295523
C	 0.0192476653	-1.3103767185	 0.2725694577	-0.17465
C	-1.1208724615	-2.2572152039	 0.5943330252	-0.345753
C	-2.1732376987	-1.5572804046	 1.4466616508	 0.357837
O	-2.422092474	-1.8519366562	 2.5889318686	-0.29769
C	-2.9224100891	-0.4152251354	 0.7480566868	-0.183951
O	-2.5279835217	-0.2088183207	-0.5873502583	-0.231531
C	-1.3500755305	 0.5555867292	-0.7367758848	-0.16428
H	 1.0818834759	 1.7123279639	 0.0246226814	 0.127169
H	 2.0653866778	 0.251722123	-0.1750140663	 0.128823
H	 1.2755260564	 1.002445855	-1.5728622804	 0.126381
H	 1.0047962471	-1.6619535165	 0.5671014356	 0.093306
H	-1.599564063	-2.6149736822	-0.3247732601	 0.136541
H	-0.7560463431	-3.1188575389	 1.1556488713	 0.120038
H	-3.9852408396	-0.6813429419	 0.7345417773	 0.140521
H	-2.8217948522	 0.4973331454	 1.3559189582	 0.121938
H	-1.2790114482	 0.7812839339	-1.8087411721	 0.121878
H	-1.4622017246	 1.5292031485	-0.2234096693	 0.09846
72.4569	95.4758	169.7758	264.4097	296.9605	318.2491	353.9913	412.9117	438.5051	469.4007	494.1744	569.6801	654.3488	752.9504	818.9383	863.2187	924.2481	945.1633	995.6579	1006.2459	1038.2951	1082.9477	1093.5023	1125.5352	1147.8051	1213.0791	1240.7621	1274.1434	1303.1502	1320.8961	1354.2086	1371.8353	1409.9297	1419.4068	1451.9157	1463.8932	1478.4999	1478.895	1492.8914	1733.4889	1826.8855	2930.5739	2994.5634	3016.033	3038.963	3041.3458	3061.1284	3074.8895	3119.5899	3120.7413	3156.2493
CC1=CCC(=O)COC1	CC1=CCC(=O)COC1	
InChI=1S/C7H10O2/c1-6-2-3-7(8)5-9-4-6/h2H,3-5H2,1H3	InChI=1S/C7H10O2/c1-6-2-3-7(8)5-9-4-6/h2H,3-5H2,1H3
