19
gdb 1672	3.2789767	1.3717806	1.2601003	2.5052	75.69	-0.2612	-0.0355	0.22569999999999998	1057.9303	0.15804	-422.568249	-422.560571	-422.559627	-422.600151	30.703	
O	 1.1549408716	 1.1057651815	-1.74884565	-0.494596
C	 2.1137756201	 0.2178146306	-1.2355110623	 0.354448
C	 3.5714084096	 0.5449681755	-1.7467784331	-0.282741
C	 3.8296594255	-0.7111710393	-2.5999640293	-0.014238
C	 3.3789558744	-1.8405699412	-1.6312299695	-0.241823
C	 1.9769647556	-1.2020739283	-1.8605545925	-0.066684
C	 2.463030499	-0.9170561149	-3.3121550802	-0.227111
C	 2.0113762827	 0.2049159559	 0.2713714654	 0.095092
O	 1.2081664721	 0.8873519876	 0.8645326559	-0.279959
H	 0.6896464514	 1.4630408866	-0.9754232397	 0.289355
H	 3.5350760769	 1.4736747888	-2.3195613876	 0.122477
H	 4.3033551063	 0.6588172381	-0.9401376418	 0.098345
H	 4.7758680606	-0.7564039107	-3.1389477012	 0.065972
H	 3.4466162166	-2.8349877936	-2.078242213	 0.105536
H	 3.8055773324	-1.8625075613	-0.6241901895	 0.089856
H	 1.045373696	-1.7270536811	-1.6492343861	 0.07188
H	 2.4449750996	-1.8169097174	-3.9310236654	 0.098316
H	 2.0142816198	-0.0744963804	-3.8405949211	 0.118792
H	 2.7080937297	-0.4628733664	 0.8141417109	 0.097083
99.4211	171.5519	254.7033	329.9869	374.2637	419.9885	432.0889	477.7169	495.4058	532.3235	706.9849	820.2612	832.0155	846.7041	853.4813	868.7828	905.8045	935.5691	954.1709	1001.3467	1023.3977	1034.1427	1050.1541	1059.375	1087.4517	1110.9153	1141.6284	1164.6616	1227.7119	1238.0118	1245.3437	1262.2484	1282.815	1295.6924	1325.2276	1391.1731	1441.5863	1485.7985	1489.7437	1525.046	1800.5591	2943.7479	3049.0721	3055.8392	3072.0071	3112.9763	3115.0762	3117.3982	3120.9862	3136.8939	3680.3088
OC1(CC2CC1C2)C=O	O[C@@]1(C[C@H]2C[C@@H]1C2)C=O	
InChI=1S/C7H10O2/c8-4-7(9)3-5-1-6(7)2-5/h4-6,9H,1-3H2	InChI=1S/C7H10O2/c8-4-7(9)3-5-1-6(7)2-5/h4-6,9H,1-3H2/t5-,6+,7-/m0/s1
