19
gdb 1660	3.4126181	1.0115916	0.9003607	2.8433	77.95	-0.25616	-0.03859	0.21756999999999999	1338.7953	0.15424	-422.534585	-422.525234	-422.52429	-422.568973	33.98	
C	-0.5939756871	-1.9428344893	 1.5747727264	-0.464316
C	-0.2386372121	-0.4718707275	 1.5082428043	 0.365018
O	-1.3008954323	 0.445444788	 1.7520986213	-0.277056
C	-0.2427965534	 0.3970123804	 2.7219638111	-0.103807
C	-0.6122356111	-0.1112137598	 4.0748975737	 0.140188
O	 0.0421629762	 0.1122480237	 5.0622905373	-0.250417
C	 0.6817827155	-0.1007005151	 0.377792254	-0.055171
C	 0.0950383942	 0.2109500136	-0.9801303917	-0.265056
C	 0.7304651783	 1.3033498834	-0.1583300759	-0.273989
H	-1.3272645867	-2.1523057292	 2.354827511	 0.129031
H	-1.0118073079	-2.2619134584	 0.6148410836	 0.136087
H	 0.301055553	-2.5435386208	 1.7659870306	 0.132151
H	 0.4313013572	 1.2519552328	 2.7294311598	 0.114229
H	-1.5499723325	-0.706399432	 4.1078344573	 0.090652
H	 1.6141302303	-0.6585538276	 0.3828280997	 0.093623
H	 0.6132755476	-0.1545353847	-1.8592875564	 0.115421
H	-0.9862440162	 0.2251909257	-1.0638791309	 0.126449
H	 1.6919112202	 1.6967823398	-0.4676736185	 0.114497
H	 0.0603502568	 2.0277313272	 0.2900720533	 0.132465
78.0187	103.3401	119.4087	176.8892	209.3157	251.1165	286.88	362.5802	415.1029	446.4454	532.2907	566.8118	669.6251	794.7159	825.1631	845.3661	850.4633	932.4117	948.502	987.2083	1017.9927	1063.4433	1074.4905	1093.2125	1101.5453	1123.1004	1133.1848	1136.6688	1203.2022	1213.3505	1235.7666	1287.4373	1379.5277	1405.8649	1414.1902	1437.7511	1460.4588	1483.3108	1500.1586	1503.3876	1818.9096	2903.9875	3045.7124	3108.5743	3136.7756	3137.2625	3140.7233	3141.8658	3148.3528	3219.7678	3234.9741
CC1(OC1C=O)C1CC1	C[C@]1(O[C@H]1C=O)C1CC1	
InChI=1S/C7H10O2/c1-7(5-2-3-5)6(4-8)9-7/h4-6H,2-3H2,1H3	InChI=1S/C7H10O2/c1-7(5-2-3-5)6(4-8)9-7/h4-6H,2-3H2,1H3/t6-,7-/m0/s1
