19
gdb 3832	2.653482	1.4987459	1.233909	2.9299	75.35	-0.23417	-0.00299	0.23118	1078.599	0.15686	-422.574063	-422.565535	-422.564591	-422.606754	32.68	
C	-0.6945835897	-2.4347622941	-0.3366005612	-0.498953
C	-0.9925001059	-0.9995978742	 0.0151807013	 0.203409
C	-1.6603240045	 0.0268564705	-0.9711761488	-0.280079
C	-1.0311113926	 1.1210769535	-0.0439172287	-0.151425
C	-1.8036872671	 0.8873605637	 1.2633885695	 0.123776
O	-3.1120517918	 1.4147882016	 1.127233429	-0.437492
C	-1.7562240551	-0.6817640045	 1.3251705486	-0.297994
C	 0.1016309761	 0.0856582453	 0.0981172196	 0.399849
O	 1.2967841642	 0.1002393767	 0.0748631467	-0.329052
H	-0.1127626168	-2.9158584989	 0.4568198785	 0.128227
H	-1.615910481	-3.0116088517	-0.4722060563	 0.118856
H	-0.1121041984	-2.5014260625	-1.2606740666	 0.127073
H	-1.2210516983	 0.0054656687	-1.9699507062	 0.112902
H	-2.7500706907	 0.0231680164	-1.0156851753	 0.122479
H	-0.8608978118	 2.1477677678	-0.3576857215	 0.088951
H	-1.2931022848	 1.3471669739	 2.1199848162	 0.077157
H	-3.6027361025	 1.2064943945	 1.9290584001	 0.283153
H	-1.2396326079	-1.0611663322	 2.2121070082	 0.106346
H	-2.7707379115	-1.0933249745	 1.308446317	 0.102815
136.9409	154.6929	178.4476	222.5226	255.1799	283.654	336.585	436.6299	449.699	520.4563	618.5552	672.6451	705.8792	780.2147	801.0909	847.8831	867.7853	921.737	958.1285	985.5534	1006.4773	1017.8119	1059.6363	1076.3751	1118.2794	1148.9135	1165.9207	1194.5572	1225.5258	1239.5498	1248.7344	1271.8351	1337.9955	1354.0152	1415.1038	1423.1373	1478.6086	1490.9105	1491.393	1500.631	1894.4625	3008.4942	3031.6083	3044.0654	3079.9307	3094.4705	3096.9578	3105.0306	3148.6851	3158.6563	3811.6195
CC12CC(C(O)C1)C2=O	C[C@@]12C[C@@H]([C@@H](O)C1)C2=O	
InChI=1S/C7H10O2/c1-7-2-4(6(7)9)5(8)3-7/h4-5,8H,2-3H2,1H3	InChI=1S/C7H10O2/c1-7-2-4(6(7)9)5(8)3-7/h4-5,8H,2-3H2,1H3/t4-,5-,7+/m0/s1
