19
gdb 1091	2.5014513	1.4682666	1.1397106	2.5193	77.47	-0.24715	-0.02599	0.22116000000000002	1147.5241	0.15383	-422.549998	-422.540493	-422.539549	-422.584581	34.418	
C	 4.0316098083	-0.3638238769	-1.1846579396	-0.492088
C	 3.3856560192	-0.4476825238	 0.1819252778	 0.276114
O	 3.9688788747	-0.1549185967	 1.2050223841	-0.307696
C	 1.9700725373	-0.8984300281	 0.2540081329	 0.263336
C	 1.0265762556	-0.7937300239	 1.455891681	-0.291472
C	 0.3048532088	-2.0903058933	 0.9586616018	-0.278518
C	 1.2905412545	-2.1496308296	-0.2225402598	 0.328501
C	 1.7611905412	-3.3640459584	-0.954839653	-0.499042
O	 1.1578987788	-0.9227820195	-0.9355866762	-0.311904
H	 5.0580933362	-0.0122223738	-1.0750905068	 0.138855
H	 4.0269122071	-1.3410821257	-1.6786188678	 0.141527
H	 3.4625827195	 0.312310983	-1.8299680772	 0.154636
H	 1.5526325246	-0.9292832818	 2.4011659989	 0.132121
H	 0.4311236754	 0.1208314255	 1.4902473552	 0.112672
H	 0.4135666466	-2.927929367	 1.651399663	 0.111093
H	-0.7430797475	-1.9922273491	 0.6655999799	 0.112722
H	 2.1222461391	-4.1231912769	-0.2543837813	 0.133908
H	 0.9330293433	-3.8008697016	-1.5252215348	 0.138139
H	 2.5610799571	-3.1216160624	-1.6578833081	 0.137094
50.6257	111.6359	142.2884	170.0204	180.4672	228.6652	321.1492	350.2113	396.8165	496.0982	504.516	593.755	606.635	676.7974	741.1337	775.0907	848.2362	904.694	933.2425	949.1214	987.053	1035.4039	1057.6664	1086.994	1114.4077	1149.819	1209.1453	1219.4674	1222.5058	1264.9011	1325.9243	1383.2866	1402.2338	1444.2921	1456.4472	1464.1876	1469.3094	1478.6986	1488.1283	1497.4133	1784.1045	3036.8331	3047.2017	3067.2221	3082.4867	3098.9913	3110.2265	3121.9372	3131.5267	3148.8747	3155.999
CC(=O)C12CCC1(C)O2	CC(=O)[C@]12CC[C@@]1(C)O2	
InChI=1S/C7H10O2/c1-5(8)7-4-3-6(7,2)9-7/h3-4H2,1-2H3	InChI=1S/C7H10O2/c1-5(8)7-4-3-6(7,2)9-7/h3-4H2,1-2H3/t6-,7-/m1/s1
