19
gdb 1561	2.9165818	1.5312663	1.3592402	2.6992	75.62	-0.24516	-0.01012	0.23504	1026.5854	0.157368	-422.563771	-422.555781	-422.554837	-422.595532	32.205	
C	 0.0778703567	 0.6035483006	 0.0752439409	-0.420858
C	 1.5218473078	 0.1098233471	 0.1438954122	 0.315243
O	 1.5044685664	-1.2108808907	-0.4095451733	-0.471012
C	 2.0096203007	 0.0494292539	 1.612511637	-0.276065
C	 3.49770654	-0.1795144916	 1.7309116533	 0.028066
O	 4.0946628767	-1.0625360483	 0.7724207114	-0.26725
C	 4.3744850464	 0.3646702078	 0.6783881321	 0.002091
C	 3.7473988052	 1.0928551554	-0.4500023657	-0.073208
C	 2.4381034403	 0.9906575478	-0.6889694786	-0.095638
H	-0.5697348852	-0.0364567317	 0.6808201866	 0.121609
H	-0.0056337915	 1.6332567279	 0.435242997	 0.111875
H	-0.2762586143	 0.5625207094	-0.9588161328	 0.124551
H	 2.4126502621	-1.5372344295	-0.3334565403	 0.285691
H	 1.7697458136	 0.9857262443	 2.1323365291	 0.106663
H	 1.4605131787	-0.7553803771	 2.113522291	 0.118098
H	 3.8951374206	-0.2894650568	 2.7400100831	 0.097393
H	 5.4065219329	 0.6071832809	 0.9194337649	 0.098112
H	 4.3902773479	 1.7010664507	-1.0788939866	 0.097708
H	 1.991515305	 1.5034177697	-1.5366159112	 0.096931
156.3331	206.951	233.9368	309.2201	330.0097	353.9153	389.4374	426.9437	509.9881	552.667	576.9694	664.9796	703.1627	726.2791	793.6646	827.3493	873.622	917.4719	929.7962	943.5482	988.5278	993.8371	1010.7875	1069.4834	1097.8071	1130.5064	1166.1771	1174.1199	1237.8689	1262.9106	1290.4006	1329.8441	1369.2962	1391.8191	1416.8078	1434.5839	1448.1575	1466.7585	1483.8101	1496.6512	1697.7509	3029.3143	3042.1184	3077.6682	3109.695	3118.4394	3120.2981	3143.4893	3159.5699	3183.6519	3731.7212
CC1(O)CC2OC2C=C1	C[C@]1(O)C[C@H]2O[C@H]2C=C1	
InChI=1S/C7H10O2/c1-7(8)3-2-5-6(4-7)9-5/h2-3,5-6,8H,4H2,1H3	InChI=1S/C7H10O2/c1-7(8)3-2-5-6(4-7)9-5/h2-3,5-6,8H,4H2,1H3/t5-,6+,7+/m0/s1
