19
gdb 4842	2.4332782	1.5282783	1.1163966	3.1476	75.53	-0.25515	-0.00872	0.24642999999999998	1140.783	0.154585	-422.502861	-422.493874	-422.49293	-422.536443	33.656	
C	 3.0193880582	 1.2493193394	-0.4917882691	-0.38466
C	 2.7011342413	-0.2510257898	-0.5437159321	-0.272842
C	 1.2715502538	-0.5767851572	-0.9846812997	 0.34028
C	 0.2012184149	-0.105275316	-0.0051757166	-0.47733
C	 1.0146965129	-2.0007083617	-1.58711899	-0.124428
O	-0.1245492716	-1.4456456701	-2.3649317992	-0.305004
C	 0.9100705935	-0.3847494678	-2.4985239282	-0.111877
C	 1.8367860443	-1.583876911	-2.8361867612	 0.460769
O	 2.5790878297	-2.001328943	-3.6615907277	-0.319517
H	 2.3990691311	 1.7753700342	 0.2394872301	 0.123978
H	 4.0646817949	 1.4092452095	-0.2124906714	 0.12275
H	 2.8623409144	 1.7234209241	-1.4666987757	 0.121248
H	 3.4156800169	-0.7393631361	-1.2176501876	 0.119196
H	 2.8666022785	-0.6958053998	 0.4458313134	 0.104624
H	 0.3779642302	-0.5369318024	 0.986001319	 0.118411
H	 0.2174514363	 0.9833522867	 0.1014950728	 0.123487
H	-0.7926034754	-0.4015154072	-0.3428685896	 0.143751
H	 0.8663604057	-2.9590014421	-1.0918084758	 0.108089
H	 0.6390113405	 0.5112244901	-3.0542635716	 0.109074
68.5859	146.2757	165.9505	218.3292	229.4944	275.5284	337.1202	365.4783	420.3277	481.6578	544.7986	625.581	697.999	764.3586	790.2022	792.5297	828.8082	876.4319	920.6813	953.9372	1005.8321	1021.5896	1035.5191	1085.1615	1122.6063	1137.2766	1150.1081	1171.2574	1218.5638	1250.9393	1274.2416	1341.7977	1377.6713	1404.621	1413.7645	1482.9657	1495.9348	1498.5611	1507.7867	1511.8584	1934.2405	3022.7855	3038.9242	3042.5749	3055.9803	3100.9612	3106.3956	3115.6007	3140.7167	3144.0163	3146.0119
CCC1(C)C2OC1C2=O	CC[C@]1(C)[C@H]2O[C@@H]1C2=O	
InChI=1S/C7H10O2/c1-3-7(2)5-4(8)6(7)9-5/h5-6H,3H2,1-2H3	InChI=1S/C7H10O2/c1-3-7(2)5-4(8)6(7)9-5/h5-6H,3H2,1-2H3/t5-,6+,7+
