19
gdb 2332	2.473789	1.7625125	1.526595	0.4467	74.67	-0.22841	0.06365	0.29206	974.0514	0.157101	-422.510794	-422.502951	-422.502007	-422.54284	31.018	
O	 0.5386535693	 0.4160367552	 0.5712556282	-0.472249
C	-0.4793331451	 1.3650303592	 0.5078736589	 0.290369
C	-1.9195497087	 0.8843843883	 0.1776207214	-0.157545
O	-2.4523811778	 1.4612415269	 1.3972714456	-0.331686
C	-1.1996136626	 2.0544285538	 1.7105047279	 0.409778
C	-0.6146683791	 2.3063933839	 3.0852276687	-0.325522
C	 0.1752609782	 3.5001902701	 2.4480499512	-0.231411
C	-0.7022064694	 3.4289682785	 1.1529351157	-0.085034
C	-0.0455197418	 2.732773766	-0.070677463	-0.290893
H	 0.2051860985	-0.3680061823	 1.0220526952	 0.283515
H	-2.3830562697	 1.3051407836	-0.7224810993	 0.10688
H	-2.0361666464	-0.2076578726	 0.1661460543	 0.09549
H	-1.3746166959	 2.6543333704	 3.791633849	 0.114409
H	-0.0438238984	 1.4965175444	 3.5495522183	 0.096099
H	 0.1065854005	 4.4409575212	 2.9961812516	 0.107802
H	 1.2295759862	 3.2771713456	 2.268373587	 0.110922
H	-1.367014704	 4.2763111325	 0.9846214238	 0.069395
H	-0.479712011	 2.976029638	-1.0445265097	 0.099551
H	 1.0404364272	 2.8425082771	-0.1329294045	 0.11013
92.6585	169.9325	220.9979	310.1695	348.0958	381.3124	396.0144	490.9033	502.1625	609.365	695.6841	711.9015	796.9996	805.2118	864.7629	901.0868	917.0719	922.5202	976.4152	991.211	1008.1051	1058.9513	1080.8687	1100.4991	1110.1665	1148.9037	1160.5915	1194.5266	1216.4669	1227.7836	1258.428	1262.5937	1277.1197	1293.7358	1313.9742	1357.1283	1381.7313	1470.0952	1475.6384	1492.5083	1511.8692	3006.1098	3046.9284	3053.3976	3061.5412	3070.4784	3095.1749	3103.8203	3111.1366	3130.3275	3796.0941
OC12COC11CCC1C2	O[C@@]12CO[C@]31CC[C@H]3C2	
InChI=1S/C7H10O2/c8-6-3-5-1-2-7(5,6)9-4-6/h5,8H,1-4H2	InChI=1S/C7H10O2/c8-6-3-5-1-2-7(5,6)9-4-6/h5,8H,1-4H2/t5-,6-,7+/m0/s1
