19
gdb 4703	4.3658929	0.5908215	0.5288832	2.2538	78.35	-0.24247	-0.01866	0.22380999999999998	2004.9579	0.152744	-422.537518	-422.526601	-422.525657	-422.575555	37.3	
O	-0.2329079889	-1.7440243185	 1.1635415719	-0.402409
C	 0.4707067447	-0.7953995702	 1.9418357875	-0.164657
C	 0.325325406	 0.6644380917	 1.490139966	 0.317374
O	 0.6633719788	 1.5575077895	 2.2320564709	-0.292006
C	-0.2118563779	 0.9074458974	 0.0902981883	-0.294988
C	-0.2055730654	 2.380408022	-0.3111621288	-0.170124
C	-0.7702669193	 2.5975488601	-1.7287744686	-0.363793
C	-0.7734779344	 3.9991841771	-2.1300371231	 0.291475
C	-0.7661333684	 5.1608847331	-2.4382174467	-0.430692
H	-1.1584010612	-1.7233150634	 1.4246278571	 0.291959
H	 0.2258335438	-0.845554759	 3.0109570451	 0.125967
H	 1.5352297458	-1.0466117096	 1.8503464412	 0.145198
H	 0.3695399266	 0.288833965	-0.6072655914	 0.132595
H	-1.2253304703	 0.4843982712	 0.0394187988	 0.114333
H	-0.7874533507	 2.9626446154	 0.4091400665	 0.125584
H	 0.814190197	 2.7734944779	-0.2592767539	 0.124894
H	-0.1853391307	 2.0134974086	-2.4520896831	 0.12898
H	-1.7937520134	 2.20203113	-1.7823551468	 0.126468
H	-0.7628526621	 6.1848423218	-2.7184754711	 0.193841
29.5483	63.6776	68.518	82.8426	117.1401	162.9942	260.2197	310.3842	323.3463	348.9753	447.9852	498.3529	513.3637	604.2719	616.8951	636.1935	714.6482	792.1529	812.1673	917.2664	965.184	1033.0899	1061.0286	1072.1159	1094.4049	1138.6535	1151.1823	1209.2722	1271.8024	1286.0461	1314.5314	1357.52	1361.5295	1391.8889	1396.0704	1435.2749	1461.0542	1472.3174	1494.4367	1809.884	2240.0732	3010.1835	3017.4602	3019.9041	3037.6604	3042.8502	3064.6765	3065.6865	3106.5929	3508.0505	3828.8594
OCC(=O)CCCC#C	OCC(=O)CCCC#C	
InChI=1S/C7H10O2/c1-2-3-4-5-7(9)6-8/h1,8H,3-6H2	InChI=1S/C7H10O2/c1-2-3-4-5-7(9)6-8/h1,8H,3-6H2
