19
gdb 5145	2.9881625	1.3919578	1.1713861	0.7441	73.81	-0.23523	0.07544	0.31067	1098.8915	0.15745	-422.517252	-422.509247	-422.508303	-422.549688	31.421	
O	 1.4095307092	 0.5583235103	-0.1695230398	-0.414095
C	 0.0333560684	 0.2788515119	 0.0426996058	-0.159315
C	-0.7969082037	 0.4599990971	-1.202639088	 0.282543
C	-0.9869132691	-0.7050026437	-2.1676927752	-0.389102
C	-2.1588333011	-0.1626453458	-1.3886593401	 0.055236
O	-3.0293151552	 0.758569769	-1.9967629233	-0.261298
C	-2.3848484637	 2.002903547	-2.1534488096	 0.105208
C	-1.2978319016	 2.1283454461	-3.1871413066	-0.336639
C	-0.9426916051	 1.8745479152	-1.7337210805	-0.132517
H	 1.7000757972	 0.018479565	-0.9125825685	 0.283279
H	-0.1136718818	-0.7385329872	 0.4396995082	 0.084086
H	-0.2892099718	 0.9813414384	 0.8197539341	 0.112794
H	-0.9394859029	-0.5443559479	-3.2373197244	 0.121669
H	-0.6052136631	-1.6703501818	-1.8458896155	 0.110021
H	-2.6532900214	-0.7824768633	-0.6472001901	 0.1015
H	-3.0303799828	 2.8420414202	-1.9175820605	 0.100516
H	-1.1788969651	 1.345411417	-3.9257048728	 0.119368
H	-1.0972649119	 3.1264158487	-3.5635169717	 0.114904
H	-0.4247505744	 2.6488249039	-1.1812440213	 0.101842
88.3462	136.2829	253.0707	270.6071	308.6999	356.4753	394.9725	483.4257	489.8653	656.7202	708.6342	724.1795	785.3627	817.8226	832.908	909.2132	926.9815	966.1142	978.8939	988.6172	1005.4624	1017.7965	1043.4903	1064.048	1067.1714	1088.9283	1106.0349	1115.2744	1170.2763	1200.1361	1208.1989	1243.3131	1287.1622	1327.1336	1373.4422	1382.2541	1401.5393	1427.123	1467.6337	1492.9398	1506.8077	2972.6457	3060.7477	3125.5452	3137.8388	3156.7262	3167.5176	3187.7694	3220.3785	3228.5294	3805.4024
OCC12CC1OC1CC21	OC[C@@]12C[C@@H]1O[C@@H]1C[C@H]21	
InChI=1S/C7H10O2/c8-3-7-2-6(7)9-5-1-4(5)7/h4-6,8H,1-3H2	InChI=1S/C7H10O2/c8-3-7-2-6(7)9-5-1-4(5)7/h4-6,8H,1-3H2/t4-,5+,6-,7+/m0/s1
