19
gdb 1625	3.0694438	1.2909242	1.2285119	1.9119	74.36	-0.23669	0.07284	0.30953	1110.2904	0.155447	-422.49	-422.481458	-422.480514	-422.523347	32.162	
C	 5.0652864321	-0.6402249751	-1.4245435015	-0.472391
C	 3.8808983655	 0.2864514798	-1.2572347159	 0.287537
C	 4.0512959942	 1.7414778171	-1.4132058174	-0.2243
O	 3.9390042844	 1.1519869908	-0.1131477712	-0.27658
C	 2.5391143244	-0.323290553	-1.4821970886	 0.231238
C	 1.7468346404	-1.0134142831	-0.384061827	-0.346654
C	 1.1519726215	 0.146765873	-1.1191831	 0.046444
O	 0.5941705989	-0.2731227253	-2.368990617	-0.286699
C	 1.910080854	-0.6791137184	-2.8307802762	-0.13743
H	 4.9787340334	-1.4943452254	-0.7451996374	 0.132004
H	 5.1129543812	-1.0288050303	-2.447883308	 0.123002
H	 5.999588302	-0.1170942233	-1.2069208805	 0.127757
H	 5.0332655793	 2.1458151575	-1.6558481377	 0.112302
H	 3.2052142179	 2.3532072413	-1.7215953413	 0.114141
H	 1.3341700399	-2.0082462409	-0.5289768161	 0.112589
H	 2.1032538405	-0.7863879177	 0.6156780894	 0.132219
H	 0.7779004341	 1.0588458233	-0.6692265397	 0.113586
H	 1.9372238647	-1.7277569036	-3.1498392067	 0.104961
H	 2.2454412816	-0.0321767166	-3.6503171073	 0.106272
54.9087	145.0521	169.3916	204.5727	298.1899	301.9918	360.1091	440.2097	482.9819	499.9433	553.9554	758.5245	795.847	851.6623	872.6136	906.1604	920.5083	932.086	985.6037	999.7288	1020.198	1026.81	1062.8858	1079.0312	1087.4084	1117.1849	1134.5366	1157.6409	1163.5819	1183.6353	1225.502	1291.0882	1326.3483	1371.1049	1412.4104	1427.998	1479.2612	1482.8701	1500.1532	1516.2937	1526.1474	3017.8266	3035.9779	3067.4699	3083.0642	3100.6824	3115.2551	3124.8628	3171.5882	3185.9602	3215.5931
CC1(CO1)C12CC1OC2	C[C@@]1(CO1)[C@@]12C[C@@H]1OC2	
InChI=1S/C7H10O2/c1-6(3-9-6)7-2-5(7)8-4-7/h5H,2-4H2,1H3	InChI=1S/C7H10O2/c1-6(3-9-6)7-2-5(7)8-4-7/h5H,2-4H2,1H3/t5-,6+,7+/m0/s1
