19
gdb 863	3.4865488	1.196606	0.9905292	2.8612	75.15	-0.2538	-0.02789	0.22591000000000003	1204.7697	0.157553	-422.554874	-422.546708	-422.545763	-422.588124	30.67	
O	 0.68183198	 0.1960908106	 0.7458297547	-0.244607
C	 0.0429410608	-0.2271571834	-0.1813795196	 0.135418
C	-0.5520100755	 0.6454914296	-1.274814403	 0.036942
C	-0.9344714306	 2.0514162146	-0.7945512834	-0.232552
C	-1.8858713752	 2.7372520951	-1.7731822632	-0.04187
C	-3.3519610656	 2.3679202178	-1.7711175924	-0.279904
C	-2.4793352491	 1.9402701708	-2.9184223269	-0.031284
C	-2.0829286177	 0.4837770748	-3.0477123408	-0.102709
O	-1.6547350357	-0.0650757598	-1.8095178195	-0.264787
H	-0.157068389	-1.3119562541	-0.3238256324	 0.093571
H	 0.2302655272	 0.7298465523	-2.0555431945	 0.090581
H	-1.3868388623	 1.9821732987	 0.2005115425	 0.116453
H	-0.0187470265	 2.6363800121	-0.6745395779	 0.117346
H	-1.6601798703	 3.7785800944	-1.97790125	 0.088305
H	-3.6622605943	 1.5981497646	-1.0714408492	 0.120617
H	-4.0838726379	 3.1498020552	-1.9402150639	 0.109653
H	-2.6109802956	 2.4501250509	-3.8683174001	 0.086316
H	-2.9267927986	-0.1327744985	-3.3744036735	 0.112451
H	-1.2764359139	 0.3793139143	-3.7939140868	 0.090063
57.5013	104.797	188.8132	224.6201	326.9757	346.9501	416.8189	437.9127	520.1497	609.9386	697.1784	771.5589	783.2741	825.4728	863.1166	876.7479	938.7984	975.7441	1021.7943	1067.9452	1073.8383	1085.4998	1103.1689	1123.2707	1126.9659	1139.6709	1163.6802	1223.9131	1242.7135	1279.689	1306.3613	1352.6097	1367.2208	1371.2357	1391.8449	1406.8754	1420.2186	1482.7461	1491.0915	1499.4551	1838.3971	2897.6627	2909.5924	2957.6731	3049.9052	3069.3288	3096.1456	3129.828	3148.2218	3159.1777	3218.1664
O=CC1CC2CC2CO1	O=C[C@@H]1C[C@@H]2C[C@@H]2CO1	
InChI=1S/C7H10O2/c8-3-7-2-5-1-6(5)4-9-7/h3,5-7H,1-2,4H2	InChI=1S/C7H10O2/c8-3-7-2-5-1-6(5)4-9-7/h3,5-7H,1-2,4H2/t5-,6+,7-/m0/s1
