19
gdb 4704	2.3376817	1.0642196	0.8014093	1.3003	78.22	-0.24292	-0.02151	0.22141	1458.3102	0.152675	-422.539569	-422.528663	-422.527719	-422.576744	37.838	
C	 0.4684221968	-0.3086057543	-0.823501389	-0.382185
C	 0.6725383155	 0.7935129939	 0.2116018714	-0.286326
C	 2.1242011852	 1.1814560335	 0.39718779	 0.377653
O	 3.0303904716	 0.6297155391	-0.1832550965	-0.306566
C	 2.4663560255	 2.3619125341	 1.3405025591	-0.326873
C	 3.0225421992	 3.5253892898	 0.4622040083	-0.057593
O	 3.4935190768	 4.6138073638	 1.2203098542	-0.407377
C	 1.3854923599	 2.8041381495	 2.2094181489	 0.346931
C	 0.4937939209	 3.1790303108	 2.9231373343	-0.456379
H	-0.5915204733	-0.5619993794	-0.9112173309	 0.112244
H	 0.8320708813	 0.0035012181	-1.8060750063	 0.129761
H	 1.0193513665	-1.2108349669	-0.5463608915	 0.132947
H	 0.1107785859	 1.7033850034	-0.0404265961	 0.132381
H	 0.282435692	 0.5046870761	 1.1965493561	 0.139707
H	 3.3041288145	 2.0009564602	 1.9525505112	 0.124394
H	 3.7953594908	 3.1005944607	-0.1907201542	 0.118973
H	 2.2177485088	 3.9209791945	-0.1650738446	 0.121251
H	 4.2808186064	 4.3318392329	 1.6974766642	 0.286816
H	-0.2906059242	 3.51136248	 3.5572559813	 0.200241
24.334	80.76	99.956	132.8436	169.8232	184.0533	216.7701	256.4487	310.3021	338.5761	377.7528	477.5406	525.0857	562.8359	635.4434	645.0578	671.2782	756.7737	807.2872	858.9192	980.059	998.3381	1062.5213	1070.9996	1086.3179	1110.0286	1145.8605	1169.5461	1250.4436	1279.5848	1334.7258	1372.5465	1387.2033	1414.8091	1416.9523	1438.083	1493.0528	1497.7246	1504.484	1798.3462	2234.895	3017.7599	3025.7029	3027.5572	3051.106	3051.8592	3092.4907	3122.6282	3126.5726	3503.0397	3812.4698	24.3321	80.7607	99.9572	132.8435	169.8232	184.0534	216.7702	256.4485	310.3032	338.5765	377.7526	477.5406	525.0855	562.8358	635.4429	645.0571	671.2783	756.7738	807.2872	858.9192	980.0591	998.338	1062.5214	1070.9997	1086.3181	1110.0288	1145.8604	1169.5462	1250.4436	1279.5847	1334.7259	1372.5464	1387.2031	1414.8091	1416.9519	1438.0828	1493.0526	1497.7246	1504.4837	1798.3454	2234.8951	3017.7599	3025.7029	3027.5571	3051.106	3051.8592	3092.4908	3122.6282	3126.5726	3503.0395	3812.4704
CCC(=O)C(CO)C#C	CCC(=O)[C@@H](CO)C#C	
InChI=1S/C7H10O2/c1-3-6(5-8)7(9)4-2/h1,6,8H,4-5H2,2H3	InChI=1S/C7H10O2/c1-3-6(5-8)7(9)4-2/h1,6,8H,4-5H2,2H3/t6-/m1/s1
