19
gdb 2627	2.1883062	1.5630378	1.1302758	3.8912	78.17	-0.23105	-0.01932	0.21173	1150.8255	0.15652	-422.592512	-422.583349	-422.582405	-422.626425	33.75	
C	 1.1994453664	 0.4868700436	-1.4128670893	-0.478418
C	-0.0392923639	 0.0017335001	-0.7088469787	 0.252886
C	-0.201847051	-1.2597344862	-0.2927217978	-0.142608
C	-1.4220597705	-1.7994553997	 0.4055444308	-0.261343
C	-2.3361277154	-0.6858983571	 0.9589301122	-0.315236
C	-2.446744586	 0.4214616974	-0.0698164638	 0.390537
O	-3.4866480478	 0.7753073971	-0.5708588632	-0.313092
C	-1.1008344969	 1.050346719	-0.4540122671	-0.043832
O	-0.6854389645	 1.9714681376	 0.5679544765	-0.43435
H	 1.6124987965	 1.3653955751	-0.9050088916	 0.137719
H	 1.9704603585	-0.286639528	-1.4568870122	 0.120677
H	 0.9681455007	 0.7985249494	-2.4392724436	 0.132602
H	 0.5936776712	-1.9783448772	-0.4827504118	 0.089825
H	-1.9943216835	-2.4211314641	-0.2976849313	 0.130555
H	-1.120584026	-2.4756123913	 1.2143175205	 0.113692
H	-3.3313831301	-1.0574678146	 1.2092201532	 0.121814
H	-1.8854288853	-0.268963788	 1.8686158561	 0.113494
H	-1.2715008486	 1.6660422973	-1.3427008177	 0.103381
H	-0.2521965137	 1.4577493195	 1.2586299187	 0.281696
60.5613	122.0311	182.4221	217.3662	238.1217	272.5932	301.9783	317.0934	407.1129	468.	509.4869	592.453	610.4933	713.1522	764.3098	855.2679	866.4465	909.7894	939.6319	1008.5823	1024.6359	1046.6983	1068.4544	1083.8325	1151.4036	1162.0848	1210.8796	1244.8869	1258.51	1300.6367	1323.5379	1371.2308	1372.6327	1404.6226	1410.8194	1469.603	1475.9513	1486.0559	1493.9209	1728.1517	1828.888	3011.3018	3024.1533	3031.4715	3052.0975	3069.5169	3079.0998	3116.5163	3119.4231	3141.0001	3803.3294
CC1=CCCC(=O)C1O	CC1=CCCC(=O)[C@H]1O	
InChI=1S/C7H10O2/c1-5-3-2-4-6(8)7(5)9/h3,7,9H,2,4H2,1H3	InChI=1S/C7H10O2/c1-5-3-2-4-6(8)7(5)9/h3,7,9H,2,4H2,1H3/t7-/m0/s1
