19
gdb 2556	2.4364681	1.8233194	1.4284215	1.7637	75.36	-0.23455	0.01278	0.24733	991.1888	0.157364	-422.566379	-422.558267	-422.557323	-422.598399	31.992	
C	 1.2279900927	 0.6590912271	-0.4867101049	-0.529291
C	-0.1266488149	 0.1257430337	-0.1642896457	 0.290403
C	-0.5259861858	-1.116146612	 0.1412694866	-0.195734
C	-1.9950068599	-1.0160711264	 0.5124867836	 0.055329
C	-2.4788158659	 0.069271964	-0.460174508	-0.250514
C	-1.3561950065	 1.023634902	 8.7425*^-6	 0.273553
O	-1.3456140841	 2.2776543452	-0.6254892268	-0.492374
C	-1.6721205972	 1.0203274219	 1.534273248	-0.121211
O	-2.0818295207	-0.319069749	 1.7998011797	-0.275431
H	 1.5804359445	 1.3580162554	 0.2848730002	 0.121904
H	 1.9660703171	-0.1429440215	-0.5670313384	 0.132159
H	 1.2141136323	 1.2156682579	-1.4311778908	 0.138396
H	 0.0906373793	-2.0005748898	 0.2442315856	 0.096846
H	-2.5644191174	-1.9388597422	 0.6003008131	 0.076008
H	-2.3881039674	-0.2036194909	-1.5118830189	 0.107498
H	-3.4841339361	 0.43547386	-0.2359315127	 0.103678
H	-0.67883254	 2.8280475586	-0.2013174494	 0.282186
H	-0.7987517003	 1.2848701931	 2.1456709926	 0.085815
H	-2.4881030195	 1.721546663	 1.7521761638	 0.100779
154.8253	169.1897	229.1655	239.6276	273.983	345.05	426.3255	451.5451	491.7378	552.2712	594.9016	647.3696	731.6737	791.4584	814.1931	867.7325	892.388	920.5923	958.0975	967.2288	1005.0246	1031.385	1050.1399	1068.4639	1086.6741	1151.412	1169.6574	1198.093	1250.0283	1257.7026	1278.9235	1288.0826	1330.7776	1347.0746	1381.8818	1410.3537	1477.7923	1487.5877	1489.9089	1522.9717	1688.1037	3000.9009	3010.7177	3043.9267	3063.8856	3070.8618	3115.7643	3141.4003	3145.7937	3203.9627	3809.4627
CC1=CC2CC1(O)CO2	CC1=C[C@@H]2C[C@@]1(O)CO2	
InChI=1S/C7H10O2/c1-5-2-6-3-7(5,8)4-9-6/h2,6,8H,3-4H2,1H3	InChI=1S/C7H10O2/c1-5-2-6-3-7(5,8)4-9-6/h2,6,8H,3-4H2,1H3/t6-,7-/m1/s1
