19
gdb 2770	2.707385	1.3225329	1.1231962	1.1338	77.4	-0.23178	0.00688	0.23866	1163.8545	0.156029	-422.556807	-422.547905	-422.546961	-422.589737	34.269	
C	 1.3105902669	-0.8488655329	-1.2500352584	-0.417321
C	 0.9607570129	-0.0027578115	-0.0459154282	-0.048342
C	 1.691008683	-0.2385935371	 1.2623383742	-0.189645
C	 1.0064866881	 0.1678540109	 2.5701288311	 0.065649
O	 1.7890654012	-0.1036550162	 3.7296092241	-0.437708
C	 0.8334858074	 1.6654050541	 2.4290031845	-0.085219
C	 1.3572126574	 2.1269884185	 1.2912557613	-0.166563
C	 1.940864617	 1.0325112072	 0.4617118468	 0.38111
O	 3.0773129329	 1.2761815538	-0.3062942436	-0.471328
H	 0.7967225753	-1.8155868805	-1.2091873381	 0.111736
H	 1.0155393578	-0.3495393867	-2.1786826535	 0.121432
H	 2.3864204603	-1.0306830959	-1.302249237	 0.128535
H	-0.0887091635	 0.2753714132	 0.0307103452	 0.082714
H	 2.436469473	-1.0263998951	 1.291457025	 0.083455
H	 0.0212313346	-0.319101527	 2.6628029555	 0.073222
H	 1.7433122614	-1.0505578705	 3.8980101457	 0.279822
H	 0.3091418771	 2.247694312	 3.1770750396	 0.101919
H	 1.3483499163	 3.1573035405	 0.9530423716	 0.101723
H	 3.8021459012	 1.4758931833	 0.2965742441	 0.284809
127.1933	180.4616	190.8396	219.3019	272.938	290.9019	325.1604	353.4676	410.2757	419.8488	488.2197	588.1849	651.4421	726.0506	769.3569	807.1016	853.851	893.7775	944.8392	956.4654	974.1408	1028.1461	1049.9039	1053.3277	1084.187	1114.9607	1140.6905	1144.5823	1216.8976	1225.2298	1249.1781	1278.9078	1312.3233	1339.5938	1374.1791	1410.6799	1414.8222	1446.7406	1491.2398	1501.5538	1663.6133	2959.1753	3034.9086	3094.1293	3115.238	3131.9486	3171.8605	3190.0548	3216.8488	3794.5134	3810.1535
CC1C2C(O)C=CC12O	C[C@H]1[C@@H]2[C@@H](O)C=C[C@]12O	
InChI=1S/C7H10O2/c1-4-6-5(8)2-3-7(4,6)9/h2-6,8-9H,1H3	InChI=1S/C7H10O2/c1-4-6-5(8)2-3-7(4,6)9/h2-6,8-9H,1H3/t4-,5-,6+,7-/m0/s1
