19
gdb 564	3.0462036	1.8049056	1.5161768	1.2376	73.34	-0.24397	0.07389	0.31786	928.6626	0.159846	-422.525729	-422.518946	-422.518002	-422.556727	27.708	
C	-0.2644068805	 1.3097769745	-0.0878595783	-0.100388
O	-0.0070378637	-0.0946433465	-0.3150112418	-0.301775
C	 1.402363463	 0.0618192569	-0.0328576638	 0.11268
C	 2.324707103	-0.1910919607	-1.217275261	-0.052011
C	 3.5855820177	 0.694044497	-0.972930987	-0.250674
C	 2.7378152394	 1.8548009489	-1.5674135331	 0.126504
C	 1.9573186414	 0.7804855659	-2.3713598569	-0.250479
O	 1.9306486316	 2.4768338944	-0.5740011273	-0.283655
C	 1.2177034745	 1.5773273818	 0.25557401	 0.055955
H	-0.6198394538	 1.8260571555	-0.9870674445	 0.107676
H	-0.9764125834	 1.4653811482	 0.7313274977	 0.101645
H	 1.7027153336	-0.5429943767	 0.8325678398	 0.076572
H	 2.4401480423	-1.2548859997	-1.4351686052	 0.069794
H	 3.9522251364	 0.8134684978	 0.050766469	 0.100007
H	 4.413914541	 0.4205958061	-1.6305123715	 0.105432
H	 3.2369379781	 2.669620684	-2.0933588889	 0.078199
H	 0.9021589854	 0.9560713568	-2.5858872388	 0.11311
H	 2.480973507	 0.5207923049	-3.2948312218	 0.10111
H	 1.3836628669	 1.8805985009	 1.2924144834	 0.090296
115.1935	205.7826	339.6562	384.997	435.1269	457.3425	506.3554	600.0728	750.3866	793.6366	806.4897	863.4754	870.4958	893.3498	916.0894	942.0978	956.3636	994.4431	1009.7347	1028.1901	1059.0659	1070.4322	1088.3374	1104.1457	1138.2283	1143.5185	1167.824	1205.1704	1239.23	1252.2711	1263.726	1267.5888	1282.1358	1335.1812	1346.3472	1358.9254	1376.94	1401.4099	1470.4835	1499.074	1514.383	3016.5132	3022.5957	3056.0547	3063.5451	3069.6051	3078.0546	3087.5559	3104.9679	3118.2447	3132.8619
C1OC2C3CC(C3)OC12	C1O[C@H]2[C@@H]3C[C@@H](C3)O[C@@H]12	
InChI=1S/C7H10O2/c1-4-2-5(1)9-6-3-8-7(4)6/h4-7H,1-3H2	InChI=1S/C7H10O2/c1-4-2-5(1)9-6-3-8-7(4)6/h4-7H,1-3H2/t4-,5+,6-,7-/m0/s1
