19
gdb 4474	3.3683192	1.3374232	1.1366283	3.5043	74.58	-0.22888	-0.03352	0.19536	1116.7231	0.157052	-422.568549	-422.560322	-422.559378	-422.601784	31.08	
C	-4.3238783942	-0.4930408115	 1.2021780451	-0.406321
C	-2.8916233506	 0.0217820028	 1.3844472907	 0.007192
C	-2.0035019511	-1.0150720729	 2.1081913594	-0.109562
O	-1.545355834	-1.9048557568	 1.0884650626	-0.248048
C	-1.2817637295	-1.114001101	-0.0458707757	-0.000577
C	-2.1656757242	 0.1815891026	 0.0321542063	-0.051539
C	-0.8966091237	 1.0846774369	 0.0139406152	-0.386225
C	-0.0247708723	-0.1855220905	 0.0384446886	 0.377994
O	 1.1493663734	-0.386856152	 0.1273830903	-0.283553
H	-4.8209226219	-0.6242825126	 2.1687557132	 0.115664
H	-4.9230120984	 0.2042238666	 0.607975562	 0.115317
H	-4.3243617533	-1.46106646	 0.69045228	 0.131908
H	-2.9060086693	 0.9667509552	 1.9377872522	 0.078212
H	-1.1496372108	-0.5299007475	 2.6056889286	 0.100914
H	-2.5401313736	-1.6118318957	 2.8498229028	 0.114035
H	-1.3237826115	-1.7445792653	-0.9379180568	 0.102395
H	-2.8561349868	 0.3513032203	-0.7940074424	 0.078769
H	-0.76422487	 1.6734644763	-0.8991039637	 0.134544
H	-0.7533047682	 1.7505643152	 0.8714337718	 0.128881
43.8	127.5882	222.3253	245.2592	262.7148	330.9029	414.2011	420.1926	540.8549	610.0284	697.1524	731.4142	758.67	826.1159	854.7254	885.6951	944.5056	954.1475	981.3952	1019.6484	1027.6292	1043.942	1072.6337	1130.2608	1144.8573	1151.1817	1176.4226	1221.2823	1233.4747	1253.301	1282.7964	1302.9248	1325.2723	1369.3901	1379.8572	1409.1424	1433.21	1495.6017	1500.4993	1516.0443	1894.972	2985.9565	3032.8078	3049.8703	3052.4676	3082.0453	3097.1972	3098.9738	3103.8623	3107.0677	3113.0148
CC1COC2C1CC2=O	C[C@H]1CO[C@H]2[C@@H]1CC2=O	
InChI=1S/C7H10O2/c1-4-3-9-7-5(4)2-6(7)8/h4-5,7H,2-3H2,1H3	InChI=1S/C7H10O2/c1-4-3-9-7-5(4)2-6(7)8/h4-5,7H,2-3H2,1H3/t4-,5+,7-/m0/s1
