19
gdb 1745	2.1812415	1.9008083	1.8377578	2.5462	73.7	-0.23661	0.06955	0.30616	922.702	0.15858	-422.539929	-422.532521	-422.531577	-422.57141	29.777	
O	 0.6188841123	 0.1411778097	 0.22051176	-0.489088
C	-0.5976724642	 0.80749567	 0.1509983602	 0.381471
C	-2.0555932486	 0.2087810547	 0.3038015538	-0.120188
C	-2.3892107306	 1.3977817762	 1.2487555469	-0.236355
C	-0.9645789723	 2.0129222339	 1.0584743654	-0.113511
C	-0.8526773012	 3.2164143433	 0.1305309708	-0.088642
O	-1.1820977245	 2.7417084085	-1.1769994046	-0.278255
C	-0.9855594034	 1.3350403774	-1.253234354	 0.08518
C	-2.3071632348	 0.5127609167	-1.1918153562	-0.241888
H	 0.7387526711	-0.1871774183	 1.1180554452	 0.280614
H	-2.274315799	-0.7947955796	 0.6692085546	 0.065254
H	-3.222494952	 2.0328405268	 0.934952742	 0.102937
H	-2.5656236511	 1.079572018	 2.2789698266	 0.099768
H	-0.3870779075	 2.1244638077	 1.9790624494	 0.067311
H	-1.5443167088	 4.0296408785	 0.3779331458	 0.104004
H	 0.1718242087	 3.6200955229	 0.1453533333	 0.093915
H	-0.2965830384	 1.0919155226	-2.0668074041	 0.08506
H	-3.2141071169	 1.0634193801	-1.4534975369	 0.100363
H	-2.2411673188	-0.3907567688	-1.804447728	 0.102049
111.9796	209.6702	273.4588	305.0587	366.6403	381.0257	415.018	581.4436	589.9764	660.7434	705.5538	796.0493	806.1214	846.8983	879.2567	930.9007	961.9828	967.1829	1007.0819	1024.9045	1033.6421	1073.9238	1086.8241	1111.5413	1127.1619	1134.4089	1154.6804	1191.2972	1198.6708	1235.7203	1249.7431	1279.4792	1285.0629	1305.9882	1320.651	1334.2282	1386.0885	1401.384	1466.3115	1485.7899	1517.1741	2981.3527	3054.1361	3055.5176	3058.8523	3071.5243	3083.6452	3101.5785	3110.9106	3116.792	3804.8318
OC12C3CC1COC2C3	O[C@@]12[C@H]3C[C@@H]1CO[C@@H]2C3	
InChI=1S/C7H10O2/c8-7-4-1-5(7)3-9-6(7)2-4/h4-6,8H,1-3H2	InChI=1S/C7H10O2/c8-7-4-1-5(7)3-9-6(7)2-4/h4-6,8H,1-3H2/t4-,5+,6+,7-/m0/s1
