19
gdb 5736	3.6797343	1.1226228	1.024077	0.9387	76.73	-0.22883	0.04998	0.27881	1206.0712	0.156197	-422.411889	-422.403885	-422.402941	-422.444296	31.51	
O	 1.6747710089	 0.8040386183	-0.0414187939	-0.417062
C	 0.3280400242	 0.4106386391	-0.2245559955	-0.083432
C	-0.0082752507	 0.2095851976	-1.6933525643	-0.051052
C	-1.4607006736	-0.3710515165	-2.0404858988	-0.367385
C	-0.6965283091	-1.1751325289	-3.0949644029	 0.38723
C	-0.0522061567	-0.5270360947	-4.3582527129	-0.25533
C	 0.8692141103	-1.6063227708	-3.8013146102	 0.005777
O	-0.350757209	-2.5144206616	-3.6611643793	-0.377345
C	 0.6069240135	-1.108570804	-2.3390950573	-0.06103
H	 2.227951629	 0.130811403	-0.4535278395	 0.287535
H	 0.0928499041	-0.5069844344	 0.3399031952	 0.087196
H	-0.2852503732	 1.2162202616	 0.1948094235	 0.113451
H	 0.2029335969	 1.1283792864	-2.2415292172	 0.100393
H	-1.8308088783	-0.9862588553	-1.2152135109	 0.124592
H	-2.2393420657	 0.3204944458	-2.3717791801	 0.112961
H	-0.542628614	-0.7779258539	-5.2981017187	 0.110011
H	 0.2733701041	 0.5134249948	-4.3088252788	 0.102588
H	 1.7429855877	-2.092802713	-4.2417548586	 0.09351
H	 0.7087876116	-1.9021620235	-1.5942846698	 0.087391
101.8209	139.2405	215.5393	305.2174	322.1644	352.0513	426.3136	470.7565	502.039	581.6569	650.4917	688.5228	783.6038	821.6636	850.1078	881.5785	934.9254	963.3822	966.1148	993.4974	1014.1787	1029.4297	1058.5246	1085.1068	1117.4481	1141.9968	1154.9911	1175.5849	1191.1889	1196.721	1224.2054	1237.2135	1252.0363	1286.2351	1303.245	1355.423	1384.392	1420.4929	1478.4799	1494.9493	1507.5015	2967.7626	3056.9668	3063.8051	3074.1242	3077.6846	3089.3085	3108.2424	3123.1229	3158.8028	3798.6186
OCC1CC23CC(O2)C13	OC[C@@H]1C[C@]23C[C@H](O2)[C@@H]13	
InChI=1S/C7H10O2/c8-3-4-1-7-2-5(9-7)6(4)7/h4-6,8H,1-3H2	InChI=1S/C7H10O2/c8-3-4-1-7-2-5(9-7)6(4)7/h4-6,8H,1-3H2/t4-,5-,6+,7+/m0/s1
