19
gdb 4987	2.5827605	1.5589017	1.1303733	1.5042	76.88	-0.21672	0.01307	0.22979	1119.0986	0.156272	-422.533932	-422.525227	-422.524283	-422.566965	33.032	
C	 1.4120962911	-0.1705559446	 0.0714208473	-0.268165
O	-0.0026611478	-0.1307522297	 0.2291304457	-0.303793
C	-0.4166434387	 0.6539813589	 1.3087009259	 0.36408
C	-0.2611584841	 2.1375922087	 1.3152103001	-0.161083
C	-1.3177363059	 2.7325934479	 1.8741144738	-0.072177
C	-2.3882139682	 1.7440323895	 2.2930257975	-0.28607
C	-1.7687690546	 0.3880233286	 1.959624359	-0.192136
C	-0.4918747056	-0.0368369741	 2.6577648658	 0.081777
O	-0.1843713172	-1.3967689398	 2.7042606102	-0.447349
H	 1.9083586537	-0.5128106912	 0.988468307	 0.126956
H	 1.6188021091	-0.8735816571	-0.738673538	 0.12974
H	 1.8151537757	 0.8121041494	-0.2060150816	 0.118276
H	 0.6250241388	 2.6422069948	 0.948968762	 0.097966
H	-1.4141084272	 3.7988501553	 2.045663405	 0.098104
H	-2.6256429362	 1.8319279318	 3.361311642	 0.114664
H	-3.3293185986	 1.9163776368	 1.7536201276	 0.111713
H	-2.3895744249	-0.4198312613	 1.5884712157	 0.09647
H	-0.1600541556	 0.4827953206	 3.5522507577	 0.101429
H	-0.1699021637	-1.7036357045	 1.7879413273	 0.2896
92.755	160.6769	185.2951	220.4887	260.8253	289.2345	322.1896	410.3475	435.6326	471.3589	523.2409	707.7215	714.211	742.1358	789.2423	889.766	919.2979	927.4879	957.5173	975.1841	1020.6398	1025.2327	1061.4309	1085.3253	1121.282	1135.6979	1175.8769	1178.8631	1202.2451	1229.7858	1246.8771	1279.9033	1310.5813	1351.3883	1388.9221	1442.8836	1475.9308	1478.957	1492.2157	1506.4344	1666.6805	3005.6843	3013.4028	3040.655	3065.6673	3122.6634	3149.8568	3178.1006	3188.4863	3213.2351	3762.3417
COC12C=CCC1C2O	CO[C@@]12C=CC[C@@H]1[C@H]2O	
InChI=1S/C7H10O2/c1-9-7-4-2-3-5(7)6(7)8/h2,4-6,8H,3H2,1H3	InChI=1S/C7H10O2/c1-9-7-4-2-3-5(7)6(7)8/h2,4-6,8H,3H2,1H3/t5-,6-,7+/m1/s1
