19
gdb 2182	2.3625064	1.8171605	1.5964576	2.5244	74.45	-0.24026	0.05518	0.29544	963.0081	0.156441	-422.51603	-422.507972	-422.507028	-422.547919	31.842	
C	-0.0256214078	 0.2685043908	-0.5173791733	-0.499491
C	 1.336930022	-0.0211848089	 0.065403787	 0.246802
C	 1.8105193193	-1.4993541127	 0.1889482989	-0.282819
C	 3.258382292	-1.0869118312	-0.1655657676	 0.021619
O	 3.9222962888	-0.4683495325	 0.9580829705	-0.300109
C	 3.2707347368	 0.7984630584	 0.7161014795	 0.061549
C	 1.8299753507	 0.8213062026	 1.2795635753	-0.283055
C	 2.7264374461	 0.3078774983	-0.6487786556	 0.312676
O	 2.9419472301	 0.98542843	-1.8272755854	-0.469518
H	-0.8223656488	-0.0224345613	 0.1778775941	 0.123841
H	-0.1475812469	 1.3360616828	-0.7320293782	 0.120183
H	-0.1926596525	-0.2840141726	-1.450315653	 0.103432
H	 1.6690095925	-2.0074783895	 1.1464476607	 0.102703
H	 1.3785552928	-2.1097157036	-0.6133058429	 0.090484
H	 3.9100174895	-1.779966587	-0.7014948204	 0.07804
H	 3.9367739259	 1.6471568171	 0.8781038467	 0.084107
H	 1.689122376	 0.4132793845	 2.2839353799	 0.10153
H	 1.419926178	 1.8364446564	 1.2356419236	 0.100211
H	 2.4529505055	 0.5487756484	-2.5339347298	 0.287813
166.5853	190.1937	216.9231	244.6425	293.7285	337.9732	405.6133	423.1878	437.5412	591.5589	633.0584	649.9505	769.2001	836.1942	852.4707	860.4091	915.4606	941.1143	982.7277	983.3238	987.2341	1024.429	1050.0902	1102.9709	1107.2197	1148.0165	1173.1545	1187.546	1240.4114	1245.5203	1246.4691	1286.7702	1300.7373	1316.1526	1346.9128	1403.984	1416.8783	1460.4342	1477.0538	1491.1663	1493.3547	3014.7599	3032.9822	3041.4077	3075.4588	3087.6891	3090.4102	3101.2235	3102.8659	3106.127	3795.6922
CC12CC3OC(C1)C23O	C[C@]12C[C@@H]3O[C@H](C1)[C@]23O	
InChI=1S/C7H10O2/c1-6-2-4-7(6,8)5(3-6)9-4/h4-5,8H,2-3H2,1H3	InChI=1S/C7H10O2/c1-6-2-4-7(6,8)5(3-6)9-4/h4-5,8H,2-3H2,1H3/t4-,5+,6-,7-
