19
gdb 3784	4.7790287	0.8098598	0.746178	4.5468	77.14	-0.26802	0.01536	0.28337999999999997	1535.7963	0.156373	-422.574206	-422.565371	-422.564427	-422.608398	32.377	
C	-4.6528015086	-1.2547699426	-2.5782512181	-0.409821
C	-4.198446708	-0.549027886	-1.32046286	 0.001656
C	-4.0401379577	 0.9476695353	-1.2837220904	-0.293612
C	-2.8159735346	 0.0619030729	-1.2413900208	-0.007408
C	-2.023742613	-0.0594468367	 0.0181262062	 0.118953
C	-0.8967206642	-1.1106739013	 0.086920481	-0.440276
C	 0.0150575777	 0.1072961399	 0.2321445775	 0.444964
O	 1.1742376601	 0.3309825783	 0.3708335118	-0.317295
O	-1.0105186203	 1.0126764118	 0.1566212762	-0.25097
H	-4.3091873804	-2.2947386248	-2.6007590762	 0.120079
H	-5.7455770855	-1.2618358283	-2.6528655394	 0.123552
H	-4.2632855337	-0.7556161902	-3.4716340711	 0.119027
H	-4.5584268219	-1.0000903707	-0.3982438944	 0.086203
H	-4.2220363972	 1.5037449612	-2.1970991069	 0.118638
H	-4.3145585437	 1.4781891138	-0.3780372251	 0.119178
H	-2.2174991096	 0.020297763	-2.1485212971	 0.089159
H	-2.6735103918	-0.0403673138	 0.8982120334	 0.093265
H	-0.8990919	-1.7791392276	 0.9491319534	 0.142751
H	-0.7320770674	-1.6882223942	-0.8247283398	 0.141959
59.9718	85.2576	135.9117	205.3645	238.9155	307.9032	345.3042	413.8041	437.2969	521.6737	538.6411	757.2791	793.707	805.0948	864.4999	896.0923	913.308	929.39	955.8	1011.0231	1020.8496	1066.4318	1077.8319	1105.3913	1110.6859	1139.8723	1140.258	1201.6116	1219.2288	1229.2526	1236.0252	1298.7124	1305.8958	1387.6842	1419.0673	1450.3168	1459.6831	1492.625	1495.1511	1506.1989	1938.1221	3029.3328	3065.6971	3088.2632	3092.8616	3097.601	3129.9479	3133.783	3138.0687	3146.3533	3217.6646
CC1CC1C1CC(=O)O1	C[C@@H]1C[C@H]1[C@H]1CC(=O)O1	
InChI=1S/C7H10O2/c1-4-2-5(4)6-3-7(8)9-6/h4-6H,2-3H2,1H3	InChI=1S/C7H10O2/c1-4-2-5(4)6-3-7(8)9-6/h4-6H,2-3H2,1H3/t4-,5-,6-/m1/s1
