19
gdb 2922	2.2206278	1.7925594	1.3799868	2.5161	73.93	-0.24242	0.0703	0.31272	1016.6671	0.158028	-422.541059	-422.533134	-422.53219	-422.572952	31.661	
O	 0.328002723	-0.1917360993	 0.4916238735	-0.442585
C	-0.9581559059	 0.3615459537	 0.670686337	 0.155871
C	-1.4865225143	 0.224303557	 2.0975960129	-0.166525
C	-2.6209508031	 1.2328731158	 2.3615036795	-0.125111
C	-3.3887274806	 1.811980303	 1.1736520387	-0.23717
C	-2.2914773459	 2.5332040418	 0.3374156117	-0.224345
C	-0.9797769955	 1.9195568704	 0.8456811369	-0.143005
C	-1.1923837816	 1.681514198	 2.3800765378	 0.357207
O	-0.4894719853	 2.2262763869	 3.4353340387	-0.467309
H	 0.8651245904	 0.0694391198	 1.2491925347	 0.280886
H	-1.566497629	-0.0404607356	-0.1466132029	 0.0779
H	-1.3663079275	-0.6470858002	 2.7322869018	 0.090403
H	-3.1195199748	 1.0832316695	 3.3136956947	 0.087212
H	-3.8912949036	 1.0303025507	 0.5945375493	 0.106317
H	-4.1662558782	 2.5063360648	 1.5071039835	 0.097441
H	-2.4263596533	 2.3963508666	-0.7401302904	 0.101429
H	-2.3055878279	 3.6118333377	 0.5330411935	 0.093391
H	-0.0612560391	 2.410565398	 0.5227514798	 0.072102
H	-0.8936793777	 3.0683823615	 3.6725167593	 0.285891
134.9427	210.1029	236.7877	281.5654	310.3017	359.405	384.592	422.7116	488.9803	592.7258	649.4201	704.4487	777.493	827.2835	848.7553	865.4664	900.7508	925.3285	968.0887	995.9455	1013.066	1030.7771	1049.813	1058.7517	1102.2203	1138.1907	1158.6249	1173.3274	1219.372	1247.9868	1248.9959	1262.6371	1288.3206	1301.3941	1314.652	1333.5207	1338.1493	1431.7349	1474.9368	1487.1952	1506.4732	3032.305	3044.1386	3054.3098	3072.8413	3089.9659	3114.8611	3167.0818	3176.918	3786.4033	3789.7694
OC1C2C3CCC1C23O	O[C@H]1[C@@H]2[C@@H]3CC[C@H]1[C@]23O	
InChI=1S/C7H10O2/c8-6-4-2-1-3-5(6)7(3,4)9/h3-6,8-9H,1-2H2	InChI=1S/C7H10O2/c8-6-4-2-1-3-5(6)7(3,4)9/h3-6,8-9H,1-2H2/t3-,4+,5-,6+,7-/m0/s1
