19
gdb 4135	2.4917484	1.686147	1.2597263	2.554	74.92	-0.2552	-0.03877	0.21642999999999998	1048.5876	0.156579	-422.553881	-422.545573	-422.544629	-422.5868	31.459	
C	 1.046636736	-0.2796842912	-1.0589900989	-0.425935
C	 0.978451581	 0.1419945291	 0.4062005548	-0.003518
C	 1.5052468062	 1.5916384798	 0.6884221286	-0.239632
C	 2.6369951111	 1.2194071429	 1.6649973463	 0.074046
C	 1.9709786345	 0.2247077487	 2.6380325468	-0.271605
C	 2.0034624547	-0.5926073232	 1.3132519422	 0.322798
O	 3.2626327431	 0.0763848666	 0.9912850754	-0.333117
C	 2.0723696054	-2.0886196738	 1.3464835536	 0.056263
O	 1.1064504872	-2.8030768289	 1.2454915467	-0.257046
H	 0.7025162007	-1.3098359349	-1.1895739432	 0.132154
H	 0.41682451	 0.3671801204	-1.6779474799	 0.113472
H	 2.0742774943	-0.2046883351	-1.4283918311	 0.127377
H	-0.0345150694	-0.0043991458	 0.7907271797	 0.087163
H	 1.8993302734	 2.0667000256	-0.2131722719	 0.110929
H	 0.7574598757	 2.2528835847	 1.1341185249	 0.102245
H	 3.3437933106	 1.9849445146	 1.9842034464	 0.085023
H	 2.6723708037	-0.1645118729	 3.3768440703	 0.116759
H	 1.0011224779	 0.4622920322	 3.0806205459	 0.108703
H	 3.0957700038	-2.4935087689	 1.5074794934	 0.093921
71.1469	152.4314	176.8444	226.3782	258.607	326.3023	411.6256	450.2701	462.9538	582.9025	661.0363	718.0641	827.1899	832.8619	850.7244	869.4976	912.6115	935.6247	952.1393	1011.9309	1016.7192	1035.1214	1068.5309	1109.8379	1119.5478	1146.8371	1193.1667	1209.8301	1238.439	1279.1019	1290.6282	1302.6792	1319.9801	1365.4312	1401.9566	1408.2849	1478.1422	1494.8327	1498.4924	1506.8665	1820.3111	2895.8128	3037.0935	3063.2325	3069.4491	3074.8072	3106.2367	3112.9309	3118.7647	3126.5534	3147.9606
CC1CC2CC1(O2)C=O	C[C@@H]1C[C@H]2C[C@@]1(O2)C=O	
InChI=1S/C7H10O2/c1-5-2-6-3-7(5,4-8)9-6/h4-6H,2-3H2,1H3	InChI=1S/C7H10O2/c1-5-2-6-3-7(5,4-8)9-6/h4-6H,2-3H2,1H3/t5-,6+,7-/m1/s1
