19
gdb 4743	1.7761005	1.4204775	1.1147519	1.6167	77.04	-0.25074	-0.0229	0.22784000000000001	1218.7302	0.152319	-422.53823	-422.527426	-422.526482	-422.574092	38.158	
C	 4.6174284731	 0.0043279285	-1.4973537584	-0.431445
C	 3.0800230286	-0.1006517171	-1.3967249293	 0.131278
C	 2.5943893629	-1.4744578555	-1.8677063463	-0.094126
O	 3.2047697432	-2.4573811739	-1.039898226	-0.434623
C	 2.655675044	 0.1681193013	 0.076925543	-0.382831
C	 1.2118700629	 0.2350323785	 0.2689165204	 0.290932
C	 0.0183388594	 0.2959630763	 0.3996780546	-0.435288
C	 2.4941515375	 0.9892562498	-2.2824594004	 0.153251
O	 1.9027745864	 0.8033868537	-3.3140098449	-0.258345
H	 5.081201017	-0.7424117834	-0.8491750942	 0.147483
H	 4.9514592251	-0.1795971901	-2.5228928665	 0.127755
H	 4.9691040623	 0.9966092406	-1.1960999573	 0.115679
H	 1.4994881298	-1.5142397505	-1.7987838093	 0.113437
H	 2.866743422	-1.6094003456	-2.9229246023	 0.102951
H	 2.8379927243	-3.314410446	-1.2731843983	 0.292727
H	 3.0780022121	-0.6324953581	 0.6927171735	 0.156353
H	 3.1123741673	 1.1064979218	 0.416302597	 0.127061
H	-1.0347646249	 0.3518236956	 0.5239605762	 0.198745
H	 2.6847596669	 2.0226288043	-1.9075691815	 0.079007
60.3922	79.2551	133.5284	145.7144	203.1568	216.1226	232.212	287.9686	313.5366	320.4775	348.392	367.5595	459.1777	535.8215	624.7042	640.2542	655.5531	758.0833	874.5294	906.8714	933.0256	961.2764	997.9707	1047.4577	1081.0645	1134.673	1175.4185	1195.0633	1258.4465	1283.9649	1313.2172	1334.0011	1399.1382	1425.1261	1455.4774	1466.285	1490.2759	1503.589	1515.8861	1830.3989	2236.4187	2855.126	3009.3412	3028.2002	3039.8069	3048.0864	3080.9158	3107.944	3131.8823	3505.6583	3842.367
CC(CO)(CC#C)C=O	C[C@@](CO)(CC#C)C=O	
InChI=1S/C7H10O2/c1-3-4-7(2,5-8)6-9/h1,5,9H,4,6H2,2H3	InChI=1S/C7H10O2/c1-3-4-7(2,5-8)6-9/h1,5,9H,4,6H2,2H3/t7-/m1/s1
