19
gdb 2282	2.6839093	1.8713365	1.5246386	1.53	75.01	-0.23936	0.01113	0.25049	955.2608	0.158486	-422.582283	-422.574779	-422.573834	-422.613683	30.179	
C	 0.0261990745	 0.3365078308	 0.1517594362	-0.46373
C	 1.5166259723	 0.1111119597	 0.0455602749	 0.414755
O	 1.8227094087	-0.4813765105	-1.2210856277	-0.287509
C	 3.1748577476	-0.1160520474	-1.4925711639	-0.10454
C	 3.5028165652	 0.9643392107	-0.4207127308	 0.040572
C	 4.2669906052	 0.3918397777	 0.7808182483	-0.267548
C	 3.3872954576	-0.6064530735	 1.4958406098	-0.090639
C	 2.1071293511	-0.7478752617	 1.1584125681	-0.060983
O	 2.1988078816	 1.3552276	 0.009255239	-0.274499
H	-0.2147044864	 0.8160261728	 1.1037703788	 0.130447
H	-0.3045558095	 0.9754053552	-0.6692333654	 0.132708
H	-0.4991906825	-0.6202129621	 0.0951717365	 0.128474
H	 3.8403388074	-0.9844687826	-1.4136657044	 0.100701
H	 3.2276681385	 0.2799355339	-2.511535481	 0.109354
H	 3.9998035454	 1.841064483	-0.841046018	 0.0839
H	 5.1967237112	-0.0846504213	 0.4439056189	 0.107775
H	 4.5643746744	 1.2001437405	 1.4629664672	 0.115142
H	 3.8285835873	-1.2027794688	 2.2899323246	 0.094432
H	 1.4618152303	-1.4809723564	 1.6319418188	 0.091189
157.0736	199.6021	262.8931	276.052	333.9048	375.9039	491.5439	504.2476	536.979	647.8842	718.4742	727.6264	794.689	831.8209	855.225	882.4148	910.947	918.3374	958.1367	988.559	1024.3652	1044.0148	1065.4091	1077.3837	1131.972	1161.8333	1200.0991	1212.1087	1218.6881	1280.4348	1318.4746	1340.6132	1355.544	1379.325	1407.4082	1416.0086	1467.2232	1481.1491	1484.7663	1519.0117	1708.7772	3013.5845	3025.5441	3046.6088	3056.3115	3073.3936	3094.5943	3133.2564	3144.6809	3157.4544	3185.6114
CC12OCC(CC=C1)O2	C[C@]12OC[C@H](CC=C1)O2	
InChI=1S/C7H10O2/c1-7-4-2-3-6(9-7)5-8-7/h2,4,6H,3,5H2,1H3	InChI=1S/C7H10O2/c1-7-4-2-3-6(9-7)5-8-7/h2,4,6H,3,5H2,1H3/t6-,7+/m0/s1
