19
gdb 2335	2.7148295	1.5057691	1.2898672	1.957	74.53	-0.23983	-0.02219	0.21764	1059.2553	0.156899	-422.580911	-422.572661	-422.571717	-422.613621	31.475	
C	-3.2570588606	-1.5338922669	-0.6568287091	-0.457684
C	-2.1950726133	-0.7406747077	 0.0765024865	 0.425576
C	-2.2894800383	 0.7859734839	-0.0848620334	-0.2574
C	-0.8858038626	 1.3166209865	 0.2480900089	-0.333052
C	 0.0644717233	 0.1902658192	-0.1753130251	 0.404569
O	 1.209976885	 0.3170285399	-0.5233387937	-0.319618
C	-0.6995101302	-1.1281375349	-0.0951033015	-0.223658
C	-0.8256669282	-1.6574862758	 1.352867008	-0.092801
O	-2.1451914238	-1.1017960696	 1.4921062903	-0.326704
H	-4.2521038419	-1.256187435	-0.2932755729	 0.129261
H	-3.2181454671	-1.3381985619	-1.7334476866	 0.11908
H	-3.1248814753	-2.6072592053	-0.4934637234	 0.123262
H	-2.5504915394	 1.0240934909	-1.1227428375	 0.10563
H	-3.0741869767	 1.1917278811	 0.5593060746	 0.116678
H	-0.6171368556	 2.2572386349	-0.2353851496	 0.127
H	-0.7724448698	 1.4565881188	 1.3305072353	 0.140831
H	-0.3939365208	-1.8388570107	-0.8620295062	 0.096018
H	-0.8280467432	-2.7525296437	 1.4218202026	 0.109963
H	-0.1210597915	-1.2563338836	 2.0907094428	 0.113048
83.7245	146.1622	210.4973	224.172	275.0266	342.3766	367.1014	455.0152	515.6338	562.2003	638.5926	678.0934	748.7013	801.7997	866.1584	882.4072	923.7337	958.331	985.3398	996.9854	1012.1735	1035.9775	1105.9257	1112.4962	1160.6247	1174.5992	1185.1042	1207.4709	1235.1155	1269.3412	1281.9351	1296.4055	1347.4824	1359.1683	1410.1973	1451.7264	1476.6147	1483.7441	1490.4735	1526.9654	1843.9571	3014.679	3033.6422	3041.0579	3044.4135	3060.2527	3098.8139	3106.3114	3113.4691	3123.4592	3125.397
CC12CCC(=O)C1CO2	C[C@]12CCC(=O)[C@H]1CO2	
InChI=1S/C7H10O2/c1-7-3-2-6(8)5(7)4-9-7/h5H,2-4H2,1H3	InChI=1S/C7H10O2/c1-7-3-2-6(8)5(7)4-9-7/h5H,2-4H2,1H3/t5-,7+/m1/s1
