19
gdb 2250	2.3762007	1.6989929	1.4732878	1.3665	74.23	-0.233	0.0696	0.3026	992.4533	0.157731	-422.541232	-422.533194	-422.532249	-422.573096	32.059	
O	 2.0390435048	 0.6494029467	 3.4029881813	-0.471797
C	 1.1229726047	 0.1536054874	 2.493548306	 0.30756
C	-0.2826310711	 0.7017927363	 2.266719118	-0.301348
C	-0.2043839033	 0.1664786903	 0.7914220832	-0.106039
C	-0.8399417288	-1.2261543277	 0.6618511028	-0.207884
C	-0.0442629693	-2.0895696914	 1.6836832203	-0.23798
C	 1.2270807586	-1.2762317223	 1.928592254	-0.156516
C	 1.31798383	-0.0917270563	 1.0109626934	 0.330723
O	 2.3618282578	 0.1107736766	 0.1359189388	-0.460655
H	 1.9328542072	 0.177098021	 4.2360423721	 0.284002
H	-1.0995324508	 0.3136344187	 2.8867548153	 0.084558
H	-0.2885812058	 1.7945654909	 2.3075110938	 0.100767
H	-0.4894377265	 0.8823211971	 0.0194632251	 0.065933
H	-1.9164149471	-1.2191223208	 0.8599259326	 0.09339
H	-0.694223317	-1.6073850172	-0.3549604773	 0.102411
H	-0.6132306386	-2.249807073	 2.6063187963	 0.094976
H	 0.1909915919	-3.079872247	 1.2823923111	 0.101115
H	 2.1634462892	-1.762903461	 2.1807238256	 0.088375
H	 2.522537494	 1.0585457218	 0.0685680177	 0.288408
172.5866	205.4001	220.7619	261.8622	309.3774	320.0837	362.1005	423.2952	518.8786	557.7866	668.1119	677.8402	694.5432	760.8707	834.8424	862.1956	898.5988	910.6171	935.7485	974.102	995.3203	1046.3704	1063.2332	1088.6997	1119.8165	1138.9977	1194.291	1204.459	1222.4454	1228.0107	1256.3454	1280.9796	1284.0377	1302.0436	1329.7928	1336.8115	1375.4544	1480.555	1486.6867	1504.8656	1526.0591	3027.9715	3036.0402	3041.9803	3073.3955	3088.7895	3091.6884	3106.4741	3176.8418	3791.4027	3792.1855	172.5852	205.3993	220.7602	261.858	309.3761	320.0818	362.0999	423.295	518.8787	557.7865	668.1119	677.8397	694.5433	760.8705	834.8422	862.1955	898.5987	910.617	935.7483	974.1017	995.3202	1046.3705	1063.233	1088.6998	1119.8165	1138.9978	1194.2908	1204.4591	1222.4448	1228.0107	1256.3454	1280.9797	1284.0376	1302.0439	1329.7927	1336.8119	1375.4545	1480.5546	1486.687	1504.8657	1526.0589	3027.9713	3036.0401	3041.9803	3073.3955	3088.7895	3091.6884	3106.4741	3176.8418	3791.4015	3792.1845
OC12CC3CCC1C23O	O[C@]12C[C@@H]3CC[C@H]1[C@]23O	
InChI=1S/C7H10O2/c8-6-3-4-1-2-5(6)7(4,6)9/h4-5,8-9H,1-3H2	InChI=1S/C7H10O2/c8-6-3-4-1-2-5(6)7(4,6)9/h4-5,8-9H,1-3H2/t4-,5+,6+,7-/m0/s1
