19
gdb 648	2.2697422	1.7492374	1.5455697	3.4288	74.75	-0.23534	-0.0144	0.22094	983.3556	0.159225	-422.564244	-422.556768	-422.555824	-422.595877	29.587	
O	 1.19192482	 0.0977735531	 0.0700942349	-0.313338
C	 0.001909576	 0.0471821587	-0.025375537	 0.43389
C	-1.0250408893	-1.104430783	-0.0307471175	-0.123658
C	-2.0567173206	-0.0546706545	 0.4920878525	-0.263296
C	-1.1300818627	 1.098252389	-0.0103405143	-0.148984
C	-1.4155259439	 1.5781867481	-1.4439056567	-0.094483
O	-1.1063462033	 0.6257807782	-2.448873733	-0.242699
C	-1.8696721441	-0.5698388824	-2.4167340056	-0.075737
C	-1.3095704298	-1.626214624	-1.4522730798	-0.225097
H	-0.776503538	-1.9368419712	 0.6329681619	 0.092301
H	-3.0627135015	-0.0942828721	 0.0700185976	 0.103
H	-2.1320902012	-0.065178303	 1.5814582667	 0.111902
H	-0.9986667078	 1.9588405774	 0.6508239025	 0.091897
H	-2.467755514	 1.8964298081	-1.5286668409	 0.09573
H	-0.7794808178	 2.4392762609	-1.6668877472	 0.125533
H	-2.9195533722	-0.3408461807	-2.1781496007	 0.09234
H	-1.8518091002	-0.9698637034	-3.4357961744	 0.112012
H	-2.0288396766	-2.4530080913	-1.4001162167	 0.104356
H	-0.3795928531	-2.0352538278	-1.8630913523	 0.124331
128.3412	204.4471	223.2767	308.9997	346.2012	379.7967	444.2722	478.9622	588.1104	645.4735	736.6831	773.9409	803.7972	834.9028	890.1916	905.6939	930.1786	984.366	1010.2747	1049.0692	1061.9389	1073.5856	1093.9678	1138.842	1158.4925	1175.7169	1199.9947	1223.1082	1271.6089	1280.3361	1299.0529	1310.4883	1333.727	1377.3571	1396.5542	1418.0028	1475.0091	1487.6718	1488.6707	1511.0123	1895.5585	2971.6088	2991.4338	3029.2077	3067.8974	3069.9526	3078.1441	3079.5792	3082.7921	3093.7919	3124.9535
O=C1C2CC1COCC2	O=C1[C@H]2C[C@@H]1COCC2	
InChI=1S/C7H10O2/c8-7-5-1-2-9-4-6(7)3-5/h5-6H,1-4H2	InChI=1S/C7H10O2/c8-7-5-1-2-9-4-6(7)3-5/h5-6H,1-4H2/t5-,6-/m1/s1
