19
gdb 2726	2.3951101	1.7914089	1.2916976	2.3086	75.47	-0.23043	0.00969	0.24012	1027.7576	0.155147	-422.536284	-422.527447	-422.526503	-422.56881	34.815	
C	 2.2673282745	 1.4458465725	-0.3321121648	-0.433554
C	 1.5993472032	 0.0986397003	-0.101199286	-0.015366
C	 1.9683467243	-1.0998534434	-1.0521051009	 0.369932
O	 1.9939892542	-0.8698295839	-2.4233664548	-0.48986
C	 3.2594185395	-1.3055868801	-0.1780395725	-0.364937
C	 2.2372985639	-0.8910681518	 0.94295804	 0.369979
O	 2.6149892434	-0.3876722893	 2.1830604055	-0.489864
C	 1.2413928772	-2.0608602884	 0.8503926829	-0.168522
C	 1.0639444979	-2.1986219179	-0.4659223005	-0.168497
H	 2.082831248	 2.1031053221	 0.5235111341	 0.125503
H	 3.3483279383	 1.3814300547	-0.4731642622	 0.11815
H	 1.8443522121	 1.9221516103	-1.2222394946	 0.125435
H	 0.5221700128	 0.2331182551	 0.0299790577	 0.071436
H	 2.3274929779	-1.6608742582	-2.8598236998	 0.279827
H	 3.6747551639	-2.3154871693	-0.1283558494	 0.082211
H	 4.0387072001	-0.5637907059	-0.3606947297	 0.103643
H	 3.0724816369	-1.0823064857	 2.6685026344	 0.27983
H	 0.7921833211	-2.5802674482	 1.6865472095	 0.102327
H	 0.425792491	-2.8647222229	-1.0314298389	 0.102329
156.7552	191.2542	210.5237	219.0632	239.2679	284.2317	375.7299	393.9968	446.6493	475.083	556.2088	564.9964	611.557	662.7236	663.7766	687.791	814.428	846.7977	894.036	898.4585	945.793	1020.9316	1041.7608	1048.3088	1066.683	1094.0464	1116.6527	1153.2454	1156.7267	1202.9325	1234.83	1306.3147	1311.1351	1349.6368	1362.127	1394.1463	1407.5248	1487.8104	1492.6186	1506.5395	1625.0009	3043.414	3060.5228	3069.5371	3106.4615	3121.9997	3137.9054	3203.7215	3231.9612	3808.5627	3808.6959
CC1C2(O)CC1(O)C=C2	C[C@H]1[C@@]2(O)C[C@]1(O)C=C2	
InChI=1S/C7H10O2/c1-5-6(8)2-3-7(5,9)4-6/h2-3,5,8-9H,4H2,1H3	InChI=1S/C7H10O2/c1-5-6(8)2-3-7(5,9)4-6/h2-3,5,8-9H,4H2,1H3/t5-,6-,7+
