19
gdb 615	2.2208796	2.0962474	1.8103627	2.1579	73.99	-0.23808	0.00468	0.24276	900.9766	0.160764	-422.561168	-422.55424	-422.553296	-422.591972	28.484	
C	-0.5410750898	 2.3936465817	-0.1297059502	-0.076616
O	 0.6086059724	 1.9912007457	 0.6230881602	-0.266837
C	 1.443345722	 1.0208201627	 0.0306281551	 0.158306
O	 0.9782652458	-0.3057016732	 0.2793587156	-0.268958
C	-0.4340920703	-0.4529218916	 0.3113548511	-0.060594
C	-1.1897970578	 0.055823579	-0.9303463617	-0.22672
C	-0.7919041636	 1.4951578268	-1.3533146813	-0.075977
C	 0.4964321119	 1.4877082452	-2.1484672593	-0.094463
C	 1.6069665005	 1.2579324686	-1.4574304357	-0.060789
H	-1.3962375787	 2.3675780751	 0.557136718	 0.103537
H	-0.3976971263	 3.4309650327	-0.4593852167	 0.10166
H	 2.3969732746	 1.088196733	 0.5604301939	 0.088695
H	-0.6073806646	-1.5259639426	 0.4358786713	 0.104115
H	-0.831693658	 0.0487692131	 1.2040240163	 0.103384
H	-1.0294771843	-0.6201966002	-1.7763138722	 0.106318
H	-2.2597891985	 0.0230171597	-0.6897015572	 0.095987
H	-1.605085837	 1.935410265	-1.9387270119	 0.072535
H	 0.4849903907	 1.6607550269	-3.2197775753	 0.095655
H	 2.5995198711	 1.2192402324	-1.89179334	 0.100761
192.3524	251.6537	283.7135	342.1568	360.0243	442.6515	505.1666	591.3185	608.1522	698.7813	730.1792	775.7894	821.6889	855.0334	914.1217	945.6572	956.6556	972.0124	984.7072	1008.1438	1023.4354	1056.6875	1091.8891	1123.4237	1139.7489	1191.3505	1234.5661	1239.3444	1279.0904	1317.624	1347.3865	1356.6866	1368.1602	1383.5145	1397.7394	1413.0522	1421.0796	1481.2489	1503.6398	1515.3546	1714.1349	3010.2225	3011.4519	3027.9857	3050.0666	3059.9618	3074.4451	3079.9138	3087.802	3171.5455	3200.3806
C1OC2OCCC1C=C2	C1O[C@H]2OCC[C@@H]1C=C2	
InChI=1S/C7H10O2/c1-2-7-8-4-3-6(1)5-9-7/h1-2,6-7H,3-5H2	InChI=1S/C7H10O2/c1-2-7-8-4-3-6(1)5-9-7/h1-2,6-7H,3-5H2/t6-,7+/m0/s1
