19
gdb 5591	2.3739115	1.4257565	1.0654583	2.5298	77.64	-0.24148	-0.03589	0.20559	1192.7065	0.155125	-422.522615	-422.513534	-422.51259	-422.556541	32.953	
C	 1.3340904543	-0.581377747	 1.1231754642	-0.379889
C	 1.0003846593	 0.0473810019	-0.2340020772	-0.217797
C	 1.7126051376	-0.6326905289	-1.3860929451	-0.059221
C	 1.8935847889	 0.1166367285	-2.6734782836	-0.184666
C	 2.5929687893	-0.7660202812	-3.7005621825	-0.104412
O	 3.6485495497	-1.1085033922	-2.7600944481	-0.320059
C	 3.1111300014	-0.2000165061	-1.7942613086	 0.3455
C	 4.0474763883	 0.6721334409	-1.0708138408	 0.065808
O	 3.7341575342	 1.557978396	-0.3077079625	-0.27377
H	 1.1002238422	-1.6516799196	 1.135005783	 0.111704
H	 2.395595629	-0.4629527861	 1.3578088463	 0.131398
H	 0.7596166014	-0.104965008	 1.9230627104	 0.116081
H	-0.080209495	-0.0163948992	-0.4170020315	 0.099131
H	 1.2635219354	 1.1081570064	-0.2172616697	 0.128331
H	 1.5618555187	-1.7101490728	-1.4567447944	 0.097153
H	 1.4474659641	 1.0860339512	-2.8528771177	 0.119946
H	 2.0504730684	-1.6503295956	-4.0535082727	 0.113518
H	 3.0029947652	-0.2140832798	-4.5533051947	 0.11788
H	 5.1107859276	 0.4411456516	-1.3011238947	 0.093365
84.4713	118.8611	162.1114	178.7749	206.1146	225.1117	294.9378	384.9038	388.6536	457.7746	542.0377	719.4617	739.756	760.6368	833.6193	901.9401	947.1874	964.5022	991.6035	1008.0007	1020.7498	1049.5272	1065.5384	1100.4227	1119.7787	1144.6949	1166.9716	1177.119	1248.4259	1304.1538	1324.7364	1338.3049	1370.3892	1414.1111	1417.7611	1431.8802	1478.4968	1499.7443	1504.2525	1516.5468	1794.439	2896.9422	3024.545	3029.9956	3037.2599	3080.8452	3090.8094	3103.1994	3113.4591	3120.639	3204.8346
CCC1C2COC12C=O	CC[C@H]1[C@@H]2CO[C@]12C=O	
InChI=1S/C7H10O2/c1-2-5-6-3-9-7(5,6)4-8/h4-6H,2-3H2,1H3	InChI=1S/C7H10O2/c1-2-5-6-3-9-7(5,6)4-8/h4-6H,2-3H2,1H3/t5-,6-,7+/m0/s1
