19
gdb 3931	3.6345787	1.3778683	1.3315029	1.4438	74.98	-0.24585	0.06458	0.31043	1042.0257	0.158051	-422.481442	-422.47421	-422.473265	-422.512633	29.626	
C	 0.1514292027	-0.3176047421	-0.3886622979	-0.406928
C	 0.821900049	 0.6290653716	 0.5788240055	 0.072838
O	 2.2030301928	 0.9553754157	 0.141276226	-0.361633
C	 2.6140549057	 0.7649953231	 1.4811457952	 0.401037
C	 2.2388204931	 1.8782324983	 2.5398166741	-0.294342
C	 1.7540676731	 0.6241140598	 3.2626271656	 0.051267
O	 3.0265419384	-0.0895333535	 3.4743997291	-0.294152
C	 3.7335027346	 0.0335767242	 2.1969734704	-0.153501
C	 1.3512819122	-0.0052150856	 1.9111324778	-0.085772
H	-0.8530713013	-0.5687700076	-0.0314319484	 0.12343
H	 0.0628303757	 0.1462578183	-1.3755823888	 0.131854
H	 0.7289914051	-1.240337006	-0.4922084721	 0.127167
H	 0.2434192943	 1.551802502	 0.6901009553	 0.090298
H	 3.0475325509	 2.43521011	 3.0147805033	 0.10334
H	 1.4540269818	 2.5449903292	 2.1865552935	 0.110534
H	 1.197782171	 0.5912528798	 4.1979090009	 0.080285
H	 4.662770173	 0.5937748197	 2.342792553	 0.106054
H	 3.9519743661	-0.9574141699	 1.7881838964	 0.110727
H	 1.3560550818	-1.0960682369	 1.8834418112	 0.087498
160.9009	223.8528	264.766	358.5582	368.6039	411.3901	471.699	503.8418	555.7425	660.3395	762.0229	809.2494	822.8117	840.8861	863.3335	901.5615	916.0472	949.0308	990.1966	1006.3748	1050.3139	1054.2704	1062.1045	1096.5765	1123.8958	1136.9771	1171.3416	1190.817	1210.4038	1248.6162	1255.9109	1265.1396	1287.9609	1326.0884	1347.3501	1394.4572	1408.7229	1478.9865	1492.9552	1495.9216	1527.7709	3038.1033	3039.002	3051.7846	3088.9918	3091.4418	3097.7305	3111.9653	3122.1241	3134.6013	3160.9067
CC1OC23CC(OC2)C13	C[C@@H]1O[C@]23C[C@H](OC2)[C@@H]13	
InChI=1S/C7H10O2/c1-4-6-5-2-7(6,9-4)3-8-5/h4-6H,2-3H2,1H3	InChI=1S/C7H10O2/c1-4-6-5-2-7(6,9-4)3-8-5/h4-6H,2-3H2,1H3/t4-,5-,6+,7+/m0/s1
