19
gdb 3078	2.6575737	1.6570682	1.3570275	3.2887	74.02	-0.2416	0.07705	0.31865	1016.7759	0.157323	-422.516057	-422.508348	-422.507404	-422.547939	30.462	
C	 1.605554681	-1.1608513383	-0.9576162761	-0.438422
C	 1.3931200922	-0.0388375647	 0.0452966613	 0.027772
C	 2.233065673	 1.27013089	 0.0639467538	 0.051375
C	 3.7038511306	 0.8022706476	 0.142257861	-0.327551
C	 3.4830030622	-0.2457281681	 1.2485817985	 0.5073
C	 4.2541829761	-1.4628961608	 1.502422667	-0.285758
O	 4.3564789619	-0.3211997454	 2.3640763441	-0.286646
C	 1.9867062621	-0.0546567059	 1.4812452664	-0.038263
O	 1.8933215415	 1.4058024357	 1.4802375282	-0.296366
H	 1.0244741462	-2.0449450941	-0.6740519609	 0.123753
H	 1.2694354099	-0.8557916384	-1.9544155475	 0.122921
H	 2.6524886327	-1.4651802018	-1.0355409373	 0.123018
H	 0.3373867554	 0.2336316716	 0.1191477549	 0.091201
H	 1.9918691383	 2.1455087493	-0.5389623886	 0.081721
H	 4.094153052	 0.3907329586	-0.7922237318	 0.104036
H	 4.3600040074	 1.6044643528	 0.4859390051	 0.128312
H	 3.77373189	-2.3373136671	 1.9415480874	 0.112813
H	 5.137968893	-1.6774275341	 0.902297491	 0.11459
H	 1.5268260046	-0.5441714669	 2.3392756536	 0.084192
118.433	186.2991	228.8775	268.9575	322.8578	348.4529	441.1537	497.8889	582.0113	597.3697	725.3636	793.6336	829.7916	849.1424	863.9679	882.8095	910.1631	941.7838	949.4423	1005.0685	1015.3133	1053.8259	1079.3806	1122.2584	1137.9075	1153.8394	1170.4419	1185.9872	1203.0971	1207.1846	1244.15	1288.0109	1294.9266	1318.6731	1383.9404	1414.9969	1437.7802	1473.9752	1496.5471	1501.2899	1538.878	3036.9711	3067.6637	3074.6397	3081.9543	3096.6291	3118.0039	3121.9987	3125.5661	3132.4843	3158.2236
CC1C2CC3(CO3)C1O2	C[C@@H]1[C@@H]2C[C@]3(CO3)[C@H]1O2	
InChI=1S/C7H10O2/c1-4-5-2-7(3-8-7)6(4)9-5/h4-6H,2-3H2,1H3	InChI=1S/C7H10O2/c1-4-5-2-7(3-8-7)6(4)9-5/h4-6H,2-3H2,1H3/t4-,5+,6+,7+/m1/s1
