19
gdb 3129	2.1649277	1.3149238	1.2155724	2.1931	77.37	-0.24798	-0.0235	0.22448	1164.7151	0.155191	-422.545658	-422.536506	-422.535562	-422.579426	33.929	
C	 0.9969411423	-0.7552569963	-0.7764270875	-0.4267
C	 1.1055073795	 0.1474299482	 0.4450564508	-0.090421
C	 1.924327049	-0.3190287045	 1.6988689383	 0.149067
O	 1.1911107937	-0.5269955763	 2.8787990322	-0.435371
C	 2.7605464141	 0.974483696	 1.6377645128	-0.153735
C	 3.4450918236	 1.0981612259	 0.3261137769	-0.341916
C	 1.9652029908	 1.4190701777	 0.3693140969	 0.263499
C	 1.4565337171	 2.7661792059	 0.1008280205	 0.050001
O	 0.3150569706	 3.0162451796	-0.2128061074	-0.273899
H	 0.4551661056	-1.674263879	-0.529351586	 0.125016
H	 0.456362144	-0.2507658791	-1.5833273535	 0.133398
H	 1.9808199413	-1.0433694211	-1.1612836856	 0.112645
H	 0.1025142309	 0.4292963098	 0.783678871	 0.090697
H	 2.5128654224	-1.2313781373	 1.5545920217	 0.093199
H	 0.5988044019	 0.223017125	 3.004216819	 0.282092
H	 3.0225819545	 1.5825584486	 2.4960425099	 0.107643
H	 4.1001999159	 1.956759159	 0.2093404762	 0.127809
H	 3.7737714447	 0.2136120145	-0.2130810014	 0.124124
H	 2.211953788	 3.5776484535	 0.2277338551	 0.062851
75.4403	151.7448	156.6198	203.989	228.6389	280.1814	312.3586	345.8265	379.1822	453.9404	493.2509	546.5726	678.1904	736.397	784.1879	855.6551	869.6578	939.4441	969.4874	995.7034	1029.8761	1048.5014	1083.7787	1093.0161	1102.8574	1115.0284	1131.4831	1205.0195	1233.6338	1249.2108	1284.058	1300.3923	1367.1801	1391.7261	1406.9882	1431.6749	1435.7189	1484.7124	1494.4594	1498.852	1796.0648	2848.6511	3032.9041	3049.8406	3057.5367	3100.1102	3106.8803	3113.9172	3184.2575	3199.0258	3796.596
CC1C(O)C2CC12C=O	C[C@H]1[C@H](O)[C@H]2C[C@@]12C=O	
InChI=1S/C7H10O2/c1-4-6(9)5-2-7(4,5)3-8/h3-6,9H,2H2,1H3	InChI=1S/C7H10O2/c1-4-6(9)5-2-7(4,5)3-8/h3-6,9H,2H2,1H3/t4-,5+,6-,7+/m0/s1
