19
gdb 2226	2.6869716	1.9359995	1.7988252	2.2544	72.64	-0.25341	0.09002	0.34343	889.0474	0.160111	-422.562602	-422.556006	-422.555061	-422.593088	27.935	
C	 2.5011475991	-1.1311248574	-1.8960330797	-0.507645
C	 2.2993003492	 0.0785416262	-1.0097005814	 0.261101
C	 0.867629806	 0.6360918529	-0.7825975702	-0.242496
C	 1.3064757721	 1.4321406331	 0.4557672861	 0.033062
O	 1.6485799354	 0.3212978353	 1.3009305399	-0.243035
C	 2.7834472098	-0.0535089229	 0.5413572439	 0.133889
O	 3.6337635533	 1.0605631941	 0.744232581	-0.243031
C	 2.7846951967	 1.9826071892	 0.041228181	 0.033066
C	 2.9833322488	 1.423939831	-1.3759112404	-0.242502
H	 1.9564633074	-2.0004208119	-1.5113311332	 0.120745
H	 2.1435998305	-0.9414097808	-2.9140705043	 0.119059
H	 3.5606818229	-1.4017281039	-1.9631418698	 0.120744
H	 0.5078965964	 1.2188792763	-1.6336947506	 0.094189
H	 0.1192706518	-0.1071676346	-0.5027515215	 0.104707
H	 0.6231977639	 2.1144050813	 0.9561144514	 0.084055
H	 3.2274609823	-0.9834621899	 0.8897941302	 0.091144
H	 3.037118372	 3.0133214404	 0.2791603332	 0.084053
H	 2.465966169	 1.9480531618	-2.1827896275	 0.094189
H	 4.0481754433	 1.3558626696	-1.6045262982	 0.104705
213.5087	246.0084	264.834	403.5654	532.5874	544.9503	576.5474	616.0717	632.6947	722.6733	740.3555	828.6093	829.9918	891.7279	908.2603	924.4553	928.9139	952.2886	963.5353	964.5196	1022.4744	1027.629	1066.1948	1094.0723	1126.6269	1138.2109	1197.7387	1220.1396	1241.0724	1244.2475	1251.7792	1259.3046	1276.4885	1301.5486	1346.9862	1350.8689	1416.1703	1481.5287	1494.9361	1496.0122	1513.9207	3025.5109	3065.298	3076.496	3091.3059	3092.6952	3123.1679	3130.8262	3148.4817	3154.6493	3159.2811
CC12CC3OC1OC3C2	C[C@@]12C[C@H]3O[C@@H]1O[C@H]3C2	
InChI=1S/C7H10O2/c1-7-2-4-5(3-7)9-6(7)8-4/h4-6H,2-3H2,1H3	InChI=1S/C7H10O2/c1-7-2-4-5(3-7)9-6(7)8-4/h4-6H,2-3H2,1H3/t4-,5+,6-,7+
