19
gdb 1178	1.9341353	1.3787635	0.9835882	1.4854	77.3	-0.24053	-0.01481	0.22572	1269.9289	0.152124	-422.543114	-422.532156	-422.531212	-422.579383	38.583	
C	 4.7158938212	 1.4371034131	-0.4645136019	-0.420329
C	 3.1811882872	 1.3405868668	-0.3945012175	-0.08283
C	 2.742572142	-0.0710759092	 0.077078376	-0.055838
O	 3.3267179515	-0.4023699551	 1.3330796808	-0.415982
C	 1.2819217037	-0.1919606732	 0.1198737005	 0.281643
C	 0.0828815927	-0.2513882758	 0.1863051504	-0.431431
C	 2.5695112509	 1.7670574609	-1.7358779949	 0.385564
C	 2.5642574731	 0.7608781218	-2.874530338	-0.4893
O	 2.1367229169	 2.8865859441	-1.8797231083	-0.304975
H	 5.1468267522	 1.1493422752	 0.4965375581	 0.140668
H	 5.1271377144	 0.7687200487	-1.2289163546	 0.118797
H	 5.0250586546	 2.4583174626	-0.7018979227	 0.132094
H	 2.8117586117	 2.0678183522	 0.3368974257	 0.096453
H	 3.1448214194	-0.8189194463	-0.6170724318	 0.119069
H	 2.8581519528	 0.0973640654	 2.0113909029	 0.288017
H	-0.976462712	-0.3148939443	 0.2374186821	 0.206636
H	 1.8183102307	-0.0156934623	-2.67042324	 0.154649
H	 2.30210799	 1.2689369522	-3.8031546072	 0.142897
H	 3.532681587	 0.2621538133	-2.9818695698	 0.134198
54.8667	71.5298	117.5523	139.595	195.7258	206.4688	225.1638	256.6463	289.5047	307.8744	368.4374	457.6284	499.4494	559.9832	588.5229	602.9272	637.6462	683.2477	769.3581	869.8489	933.6699	968.8539	1003.5086	1044.6505	1075.0456	1102.4286	1121.2771	1229.5324	1249.0239	1294.0525	1310.2043	1362.1143	1380.1852	1399.0466	1421.1249	1466.3689	1478.0188	1493.0274	1502.5392	1809.565	2231.3394	3036.0463	3040.4815	3042.6192	3058.3453	3103.8226	3112.8776	3136.2226	3152.7003	3500.8437	3802.6839
CC(C(O)C#C)C(C)=O	C[C@H]([C@@H](O)C#C)C(=O)C	
InChI=1S/C7H10O2/c1-4-7(9)5(2)6(3)8/h1,5,7,9H,2-3H3	InChI=1S/C7H10O2/c1-4-7(9)5(2)6(3)8/h1,5,7,9H,2-3H3/t5-,7-/m0/s1
