19
gdb 1983	3.1290495	1.4387845	1.2992603	2.3157	74.14	-0.24197	0.07742	0.31939	1041.9641	0.158176	-422.536963	-422.529269	-422.528324	-422.569098	30.355	
O	 0.4788645828	 0.2021415767	 0.7287846599	-0.469405
C	-0.8081815486	 0.6338598153	 0.405721268	 0.409376
C	-1.993744107	-0.1606556757	 0.8951183509	-0.360709
C	-1.6813126408	 1.1973730416	 1.4988809433	-0.087306
C	-2.4645187452	 2.374140987	 0.9625167311	-0.091704
C	-1.8266092106	 3.7615145762	 1.1735192355	-0.085931
O	-1.3418944858	 3.7993473127	-0.1838537978	-0.289512
C	-2.004946709	 2.5566514556	-0.5166746445	 0.138112
C	-1.0093519607	 1.4413220758	-0.878884258	-0.319988
H	 0.6798887074	-0.5691724418	 0.18773399	 0.28194
H	-2.8657234459	-0.2675101007	 0.2549183166	 0.104838
H	-1.7748199858	-1.0219496305	 1.5167260472	 0.11336
H	-1.3166488122	 1.2192945685	 2.520276483	 0.096529
H	-3.5381451777	 2.3131373903	 1.1543938046	 0.076563
H	-2.5392348616	 4.5722418278	 1.3727223552	 0.095328
H	-1.0111332304	 3.8131545363	 1.90548562	 0.103353
H	-2.7794812738	 2.7176416514	-1.2748675241	 0.070286
H	-1.3705914001	 0.8214646458	-1.7080534171	 0.090252
H	-0.0623964851	 1.8976621975	-1.1803891836	 0.124618
81.1887	143.6817	278.5267	310.6074	361.3683	380.0643	414.1635	443.6247	573.6071	651.9314	731.8377	785.276	819.1265	861.1496	879.9014	917.7418	928.7023	944.6777	999.7772	1021.1052	1023.9416	1033.3207	1050.2963	1061.0688	1106.0999	1134.0815	1162.9772	1167.5763	1217.402	1253.0469	1259.1463	1274.8759	1305.5447	1311.656	1345.539	1361.3652	1365.8422	1406.2786	1470.3743	1489.5217	1525.1447	3008.1452	3027.6994	3044.149	3051.883	3082.3749	3099.5614	3114.7082	3170.6246	3211.1344	3796.6153
OC12CC1C1COC1C2	O[C@@]12C[C@@H]1[C@H]1CO[C@H]1C2	
InChI=1S/C7H10O2/c8-7-1-5(7)4-3-9-6(4)2-7/h4-6,8H,1-3H2	InChI=1S/C7H10O2/c8-7-1-5(7)4-3-9-6(4)2-7/h4-6,8H,1-3H2/t4-,5-,6+,7-/m1/s1
