19
gdb 1181	3.1020489	0.9317587	0.9291034	2.5697	77.52	-0.25861	0.04168	0.30029	1378.3835	0.154424	-422.50822	-422.498273	-422.497328	-422.543126	36.63	
O	-0.8148120588	 3.3525594536	-2.1161493707	-0.423658
C	 0.2712066455	 3.8052678124	-1.324802754	-0.079859
C	 1.5706549893	 3.4212328734	-1.891707292	 0.331388
C	 2.6350783829	 3.109807258	-2.3545109004	-0.443062
C	 0.1139823385	 3.289038083	 0.1249093642	 0.100967
O	-0.0068167362	 1.8722051508	-0.0009725104	-0.454354
C	-1.0934350915	 3.8904748622	 0.8024299093	-0.009144
C	-1.2233896616	 3.7956590509	 2.3063734937	-0.29889
C	-0.9487657514	 5.1257783617	 1.6512806864	-0.269664
H	-0.8595962509	 2.4001592491	-1.9537184749	 0.290815
H	 0.2005100458	 4.8986904936	-1.3055183839	 0.117041
H	 3.5727736272	 2.8331869005	-2.769193176	 0.194272
H	 1.0217366156	 3.5451915481	 0.6929197724	 0.076147
H	-0.4448280641	 1.5482125308	 0.7923554537	 0.289992
H	-2.0056055081	 3.7986704162	 0.2212910276	 0.104869
H	-2.2064478975	 3.618816302	 2.7278746686	 0.119266
H	-0.411519075	 3.3360911207	 2.8623649257	 0.11539
H	-1.7441047529	 5.8614691106	 1.6207741121	 0.120589
H	 0.0435587231	 5.5485022023	 1.7706398485	 0.117895
70.0406	86.0475	120.5383	182.7173	231.3862	254.1147	280.1579	318.7024	343.8404	440.814	472.7897	495.1799	566.1451	624.2345	665.1435	739.5934	782.9795	834.4807	858.8772	872.2846	942.9032	968.2305	1000.4003	1052.8687	1061.2021	1082.4182	1091.9662	1148.6253	1166.3418	1199.9818	1218.476	1222.8479	1294.9821	1312.4299	1338.6728	1378.3651	1433.7669	1438.9259	1469.1236	1503.8469	2234.2782	2987.1125	3053.0676	3127.3391	3134.7103	3164.5915	3208.7932	3224.3758	3503.7477	3759.9613	3824.0672
OC(C#C)C(O)C1CC1	O[C@H](C#C)[C@H](O)C1CC1	
InChI=1S/C7H10O2/c1-2-6(8)7(9)5-3-4-5/h1,5-9H,3-4H2	InChI=1S/C7H10O2/c1-2-6(8)7(9)5-3-4-5/h1,5-9H,3-4H2/t6-,7-/m1/s1
