19
gdb 5627	3.1799238	1.3602335	1.1562911	1.5668	75.12	-0.23659	-0.00108	0.23551	1105.0204	0.158441	-422.542306	-422.534357	-422.533412	-422.574806	30.794	
O	 1.4633303333	 0.7621946675	 0.1399800203	-0.42705
C	 0.4902899083	-0.1530011817	 0.6256980492	-0.083492
C	-0.3903384239	 0.4525905281	 1.7351688541	-0.039191
C	-1.506370156	-0.5008867643	 2.1198661187	-0.089585
C	-1.5646099761	-0.9592076734	 3.370440957	-0.062466
C	-0.4960431648	-0.4474109748	 4.3153170096	 0.045051
C	-0.4440206953	 1.0976990992	 4.2240752296	-0.25108
C	 0.4330317179	 0.7634021482	 2.9991176169	 0.071651
O	 0.7965980294	-0.50272439	 3.6290514564	-0.300985
H	 2.2350853525	 0.7072201461	 0.7098813589	 0.290016
H	-0.1374868479	-0.421548016	-0.2312173265	 0.104062
H	 0.9523528532	-1.0738871844	 1.0039034243	 0.112834
H	-0.8097462788	 1.3892593879	 1.3412029169	 0.086066
H	-2.2156393011	-0.8051959483	 1.3547327141	 0.09522
H	-2.3350007841	-1.637578489	 3.7211645121	 0.094305
H	-0.4690498237	-0.9421774507	 5.2876786079	 0.076821
H	-1.3805731235	 1.6386421907	 4.0795290342	 0.103318
H	 0.1479055544	 1.5408768566	 5.0267651439	 0.108174
H	 1.3041916159	 1.3898490084	 2.7879229026	 0.066331
83.3846	145.6648	199.4566	243.7836	338.5179	363.1714	424.9891	489.5816	551.5474	596.1182	717.3059	730.8488	788.6103	856.7167	892.7378	912.4054	941.8236	961.4685	970.4463	985.263	996.0281	1053.6457	1064.5262	1072.5982	1112.4023	1117.0792	1166.8248	1184.4523	1215.7621	1251.2213	1272.1095	1308.0754	1310.8905	1351.7918	1357.8213	1393.73	1396.2332	1404.9137	1484.058	1498.8482	1691.9274	3010.0957	3023.4886	3065.8549	3074.4209	3076.457	3099.3343	3139.2146	3158.3767	3190.7861	3841.1743
OCC1C=CC2CC1O2	OC[C@H]1C=C[C@@H]2C[C@H]1O2	
InChI=1S/C7H10O2/c8-4-5-1-2-6-3-7(5)9-6/h1-2,5-8H,3-4H2	InChI=1S/C7H10O2/c8-4-5-1-2-6-3-7(5)9-6/h1-2,5-8H,3-4H2/t5-,6-,7-/m1/s1
