19
gdb 2320	2.6199896	1.9656229	1.6218085	2.5207	74.21	-0.24768	0.06819	0.31587	922.2713	0.157442	-422.495172	-422.487732	-422.486788	-422.526484	30.115	
C	-0.0391538186	-0.0962439424	 0.3827346197	-0.484685
C	 1.3911342813	-0.0664121531	-0.0904409902	 0.444729
O	 1.8553701752	-1.4242491876	-0.3840829156	-0.335454
C	 2.8381142142	-1.3729729544	 0.6927404423	-0.191035
C	 2.6964534376	 0.1384057886	 0.7101712078	 0.321086
C	 2.5547275931	 1.4263018473	 1.5045758277	-0.322029
C	 1.9496356432	 2.2481537762	 0.2880414173	-0.221278
C	 2.0179867753	 1.1415311098	-0.8237943522	-0.02026
O	 3.3323715615	 0.6147142374	-0.5344579039	-0.322246
H	-0.149551176	-0.7267148957	 1.2708036965	 0.124856
H	-0.4323214993	 0.8975325537	 0.6098393528	 0.12024
H	-0.6606715836	-0.5347967493	-0.4059968445	 0.138572
H	 2.4757012665	-1.8920769237	 1.5891925433	 0.102675
H	 3.8130502927	-1.7611707597	 0.3879554453	 0.122507
H	 1.8625106558	 1.3385923057	 2.3458074055	 0.106983
H	 3.500726938	 1.8387851526	 1.8591813234	 0.115205
H	 0.9505287599	 2.6427400235	 0.486798591	 0.102986
H	 2.5991165332	 3.0765628265	 0.0008312719	 0.117095
H	 1.8529660399	 1.4435105347	-1.8603101881	 0.080053
153.0324	197.4442	254.9551	306.9909	338.3605	399.6376	470.6421	512.2429	585.9526	641.3819	715.0986	782.5951	822.4878	834.4872	858.4313	868.5366	897.7998	915.3657	954.3326	979.2327	992.8987	1044.1608	1083.1419	1120.2069	1142.2265	1170.6319	1172.1749	1199.6543	1214.9629	1232.114	1256.1125	1288.0595	1298.9657	1332.0974	1360.9276	1409.4727	1475.7329	1480.8416	1490.813	1497.0298	1501.9314	3021.1399	3037.4646	3068.633	3076.8316	3097.701	3098.7931	3104.7863	3117.0824	3122.4673	3134.9249
CC12OCC11CCC2O1	C[C@]12OC[C@@]31CC[C@H]2O3	
InChI=1S/C7H10O2/c1-6-5-2-3-7(6,9-5)4-8-6/h5H,2-4H2,1H3	InChI=1S/C7H10O2/c1-6-5-2-3-7(6,9-5)4-8-6/h5H,2-4H2,1H3/t5-,6-,7-/m1/s1
