19
gdb 3295	3.4510238	1.5553624	1.4278111	2.1063	73.32	-0.23277	0.07516	0.30793000000000004	967.7354	0.160378	-422.554401	-422.547606	-422.546662	-422.585128	28.311	
O	 0.5728770363	 0.1174656382	 0.5758086759	-0.448682
C	-0.7500104072	 0.5024198047	 0.8910488069	 0.120419
C	-1.0094028494	 0.8721512919	 2.3819774704	-0.12476
C	-2.4843315883	 1.3022241705	 2.3042091189	-0.226913
C	-2.3283669097	 2.3993920114	 1.1978221143	-0.069574
C	-2.0192986107	 3.708625996	 1.9304223242	-0.079404
O	-0.8085886107	 3.4102960907	 2.646033566	-0.283624
C	-0.283098713	 2.2362963911	 2.0577235233	 0.151438
C	-0.9193924684	 2.0151389808	 0.6613156046	-0.065179
H	 0.7248289359	-0.7547893932	 0.9530442653	 0.283276
H	-1.4836090217	-0.1685599828	 0.4224137186	 0.060087
H	-0.7025978541	 0.2135590577	 3.1960109542	 0.056104
H	-3.1355789607	 0.4771554883	 1.9995974316	 0.093582
H	-2.8686702929	 1.7150209578	 3.2404898152	 0.104496
H	-3.1390310682	 2.4621981796	 0.4714235728	 0.068528
H	-1.8523273129	 4.5508636159	 1.2422167075	 0.090418
H	-2.7988541338	 3.9914132748	 2.6465443305	 0.10236
H	 0.8002310505	 2.2215570356	 2.1378709183	 0.094917
H	-0.5594637712	 2.5059646311	-0.2420980989	 0.072512
215.4806	249.2548	288.332	333.2356	403.1971	426.0232	493.2813	601.9981	703.4719	777.5699	808.1088	837.1089	873.0977	893.7877	907.3484	942.8603	956.1906	964.5131	984.0945	1018.21	1019.6731	1059.6943	1076.9398	1108.1662	1116.7473	1151.4841	1189.3687	1190.92	1210.2885	1221.7934	1235.5277	1257.1842	1286.4479	1301.1622	1317.7945	1324.1464	1340.2406	1389.6372	1424.9151	1500.0941	1524.1914	2989.8083	2997.5381	3049.7274	3061.7984	3096.6333	3103.9003	3110.8216	3127.345	3164.0844	3815.6035
OC1C2CC3COC2C13	O[C@H]1[C@@H]2C[C@H]3CO[C@@H]2[C@@H]13	
InChI=1S/C7H10O2/c8-6-4-1-3-2-9-7(4)5(3)6/h3-8H,1-2H2	InChI=1S/C7H10O2/c8-6-4-1-3-2-9-7(4)5(3)6/h3-8H,1-2H2/t3-,4-,5+,6-,7-/m0/s1
