19
gdb 682	3.6351307	1.0365594	0.9220652	4.4094	75.05	-0.26159	0.01626	0.27785	1302.7939	0.158148	-422.590208	-422.581968	-422.581024	-422.623794	30.7	
O	 1.1908315403	-0.0124747214	 0.4276244809	-0.335775
C	 0.0416578185	-0.0529321779	 0.0994175599	 0.431199
C	-0.7614833275	-1.2395231504	-0.4238179689	-0.371976
C	-2.2248993353	-0.798508092	-0.2604409383	-0.045831
C	-2.0772665901	 0.735139769	-0.362055131	-0.091057
O	-0.7688307341	 1.0426404399	 0.146526823	-0.219629
C	-2.8145500987	-1.2266185993	 1.0689860857	 0.036708
C	-4.3083480705	-1.3269473345	 1.2434638449	-0.279149
C	-3.4634875073	-2.578478742	 1.2146657567	-0.278574
H	-0.4910310066	-1.389178774	-1.4753303709	 0.134474
H	-0.4994024005	-2.1484617643	 0.1192814463	 0.14129
H	-2.8580058071	-1.1741882298	-1.0699721614	 0.078839
H	-2.1418174889	 1.0881615176	-1.398271103	 0.111011
H	-2.8074284115	 1.2771006754	 0.2427556951	 0.126748
H	-2.258600581	-0.8706427378	 1.9338102248	 0.098283
H	-4.7414128928	-1.0176367327	 2.1879699837	 0.118608
H	-4.9356635349	-1.1231367818	 0.3813120608	 0.112031
H	-3.3185755323	-3.1254802859	 2.1393212895	 0.119226
H	-3.5260930698	-3.2085559982	 0.3329944423	 0.113574
69.9435	76.4381	149.0468	214.0974	291.2047	320.8913	430.2819	514.3894	556.6547	686.7246	736.8699	757.0949	809.0125	832.0025	854.9607	902.1583	922.4236	946.3453	985.4509	1007.1874	1051.0672	1059.5766	1081.0153	1085.0756	1139.1441	1147.1861	1167.8832	1197.5158	1209.8892	1226.7508	1243.8296	1266.8528	1307.0251	1317.2531	1395.8575	1430.6056	1461.5847	1470.0093	1506.8387	1522.0205	1884.9902	3032.2358	3051.5218	3065.0291	3109.0815	3128.4448	3129.3508	3130.7655	3134.6667	3208.3644	3223.0307
O=C1CC(CO1)C1CC1	O=C1C[C@H](CO1)C1CC1	
InChI=1S/C7H10O2/c8-7-3-6(4-9-7)5-1-2-5/h5-6H,1-4H2	InChI=1S/C7H10O2/c8-7-3-6(4-9-7)5-1-2-5/h5-6H,1-4H2/t6-/m1/s1
