19
gdb 4114	2.3479048	1.7149482	1.5141612	2.6443	74.7	-0.23121	-0.02208	0.20913	994.6259	0.157822	-422.558426	-422.550478	-422.549533	-422.590612	30.893	
C	-0.8293098736	-0.0946468378	 3.2157498029	-0.400885
C	-1.9073997408	-0.0385617699	 2.1292924945	 0.123732
C	-1.8789417848	 1.2902935071	 1.3233320206	-0.247126
C	-1.1059217354	 1.1280852246	-0.004807956	-0.139696
C	-1.8135026422	 0.0055241655	-0.8305228361	-0.253574
C	-1.0877032187	-1.0265359117	 0.0842091008	 0.016599
O	-1.8088765185	-1.206402961	 1.2897252998	-0.285466
C	 0.0010059182	 0.0804940501	 0.2033246519	 0.399762
O	 1.1969917317	 0.0954299512	 0.2107193325	-0.323311
H	-0.8614595043	-1.0658772684	 3.7161049046	 0.127466
H	 0.1752567289	 0.045693816	 2.8065390114	 0.141932
H	-1.0042335775	 0.6871638114	 3.96252962	 0.113249
H	-2.8840213228	-0.1380717167	 2.6139174677	 0.088538
H	-2.8958339335	 1.6235471419	 1.089878032	 0.111022
H	-1.4167157934	 2.0676746082	 1.9394645263	 0.115721
H	-0.8547625443	 2.0811311802	-0.4718275621	 0.088328
H	-2.9039019762	-0.0229321653	-0.7821554944	 0.110926
H	-1.4702741727	-0.0388403526	-1.8667555545	 0.11539
H	-0.8202852901	-2.0129394429	-0.2960223818	 0.097394
115.7984	142.5924	202.3496	253.0635	355.1585	378.2604	428.0486	450.6845	475.1903	553.9709	679.6114	759.6592	783.5031	826.7311	860.0597	887.364	914.55	943.8541	997.1997	1008.4021	1030.7121	1057.1985	1092.6509	1111.5283	1117.2539	1145.6594	1166.9664	1208.8445	1232.2998	1263.3954	1276.7643	1331.9309	1356.5228	1364.3593	1388.7998	1411.3653	1474.683	1488.3973	1497.6166	1498.5578	1885.4157	3037.3977	3040.9719	3052.9753	3067.2547	3087.4808	3108.3331	3113.2696	3115.9837	3128.2352	3133.3803
CC1CC2CC(O1)C2=O	C[C@H]1C[C@@H]2C[C@H](O1)C2=O	
InChI=1S/C7H10O2/c1-4-2-5-3-6(9-4)7(5)8/h4-6H,2-3H2,1H3	InChI=1S/C7H10O2/c1-4-2-5-3-6(9-4)7(5)8/h4-6H,2-3H2,1H3/t4-,5+,6-/m0/s1
