19
gdb 4192	2.9861459	1.2280978	0.9913807	2.6989	76.45	-0.25568	-0.03465	0.22103	1232.653	0.156301	-422.571562	-422.563013	-422.562069	-422.604733	32.049	
C	-0.0112581023	-0.0851736086	-0.2872662781	-0.408562
C	 1.4581563336	 0.0492909809	 0.1061016452	 0.029134
C	 1.9758128872	 1.5111022332	 0.1332931638	-0.255887
C	 3.1308875127	 1.4899630089	 1.1136033887	-0.006815
O	 4.034831283	 0.4047336744	 0.9479938734	-0.288358
C	 3.0082956291	 0.269544313	 1.953625372	 0.309237
C	 1.7917253357	-0.5133561731	 1.5120354449	-0.307051
C	 3.5078625491	 0.2583712802	 3.352275082	 0.090824
O	 2.9039994286	-0.2193856377	 4.2804210258	-0.260431
H	-0.6591411451	 0.4527299096	 0.4144389537	 0.115211
H	-0.1934988596	 0.3198512426	-1.2882765625	 0.116171
H	-0.3242139787	-1.1343776007	-0.2919053904	 0.119399
H	 2.0680495121	-0.4987109104	-0.6184048153	 0.096119
H	 2.272086515	 1.8714762116	-0.8569706512	 0.115691
H	 1.208408602	 2.196669786	 0.5162382227	 0.108139
H	 3.5747668086	 2.4121819632	 1.4830040321	 0.103201
H	 1.9665702172	-1.5929859128	 1.5019029435	 0.117455
H	 0.9846186757	-0.3219194402	 2.228950092	 0.121696
H	 4.5037911059	 0.7393027997	 3.4712379476	 0.084824
97.0302	119.0332	182.5471	233.7963	254.8279	304.6094	376.7195	398.7634	429.9316	481.0785	615.6438	654.3409	763.8997	823.9058	849.1446	879.5029	904.3445	932.9038	953.8256	1001.4828	1021.9248	1055.7418	1090.7056	1135.8821	1152.1525	1176.8595	1235.3394	1256.4039	1279.4471	1301.4698	1337.729	1353.7957	1369.242	1392.3416	1414.5018	1439.084	1476.1606	1488.8685	1498.7648	1499.9542	1817.2761	2896.6348	3026.6969	3030.2244	3047.7535	3056.0739	3082.8344	3092.8639	3099.9696	3101.593	3139.1569
CC1CC2OC2(C1)C=O	C[C@H]1C[C@@H]2O[C@@]2(C1)C=O	
InChI=1S/C7H10O2/c1-5-2-6-7(3-5,4-8)9-6/h4-6H,2-3H2,1H3	InChI=1S/C7H10O2/c1-5-2-6-7(3-5,4-8)9-6/h4-6H,2-3H2,1H3/t5-,6-,7-/m0/s1
