19
gdb 3378	1.9607534	1.8156669	1.1842993	3.2252	75.28	-0.24486	-0.0184	0.22646	1107.5622	0.155948	-422.530982	-422.522322	-422.521377	-422.565003	31.418	
C	 0.9676959577	 1.1099722407	-0.2844643981	-0.422271
C	 0.9710719708	-0.3883437603	-0.0117952221	 0.010834
C	 1.694091289	-1.2676394465	-1.0771026328	-0.088785
C	 1.2215159434	-2.7313654472	-1.1330105737	-0.088703
O	 2.1142004113	-3.1089908634	-0.052012121	-0.286183
C	 2.6772197303	-1.7864232089	 0.0058304497	 0.098982
C	 1.9864273998	-0.8725453288	 1.0667515023	-0.134493
C	 1.4513756851	-1.5989856637	 2.2721371085	 0.159651
O	 0.2824667846	-1.7017476783	 2.5449298685	-0.247711
H	 0.5987750516	 1.663790405	 0.5852919751	 0.125222
H	 1.9749109012	 1.4784357417	-0.5127775143	 0.111608
H	 0.3237261641	 1.3539314742	-1.1362221322	 0.11903
H	-0.0432495041	-0.7327728186	 0.2086195718	 0.097856
H	 1.999915087	-0.7865575456	-2.0056306031	 0.07787
H	 0.1694087977	-2.9152204881	-0.8855450784	 0.113693
H	 1.4770554004	-3.2671712276	-2.0553430739	 0.104778
H	 3.768524946	-1.7914770093	-0.0518584332	 0.078907
H	 2.6663195624	-0.0812635903	 1.4095038426	 0.09116
H	 2.2330945218	-2.0598144551	 2.9175519644	 0.078555
45.7544	99.7371	168.3625	196.8389	237.5714	269.907	288.9908	401.5874	494.4708	640.9738	684.6124	795.6286	805.2261	838.4556	863.3579	919.3663	949.2219	983.6615	985.9174	1014.0476	1044.8839	1080.6811	1102.1126	1112.2728	1146.0639	1150.2425	1172.8889	1221.0579	1223.7882	1245.5325	1283.2305	1306.438	1312.6211	1361.4416	1384.8512	1412.5329	1423.8216	1497.1208	1498.1397	1517.904	1824.3744	2874.9747	3016.4443	3023.6642	3028.1716	3064.0799	3068.8381	3076.1047	3093.2316	3099.6529	3116.4592
CC1C2COC2C1C=O	C[C@H]1[C@@H]2CO[C@@H]2[C@@H]1C=O	
InChI=1S/C7H10O2/c1-4-5(2-8)7-6(4)3-9-7/h2,4-7H,3H2,1H3	InChI=1S/C7H10O2/c1-4-5(2-8)7-6(4)3-9-7/h2,4-7H,3H2,1H3/t4-,5-,6+,7-/m1/s1
