19
gdb 555	3.8189422	1.4260507	1.2016485	0.9657	73.74	-0.24231	0.06339	0.30569999999999997	1050.7479	0.159582	-422.526451	-422.519381	-422.518437	-422.558021	27.833	
C	 1.3933410152	-2.1487150548	-2.4512170724	-0.092048
O	 2.1479931712	-1.1187182195	-3.1331612558	-0.292443
C	 2.1084925563	-0.258774528	-1.9774991998	 0.111385
C	 1.2305492696	-1.2792050909	-1.1948322668	-0.116414
C	 0.0365232617	-0.2853966159	-1.2614326299	 0.103879
O	-0.3212924276	 0.2981443004	-0.0251422668	-0.257959
C	 0.6239285067	 1.3182633149	 0.2834707591	-0.090296
C	 1.0142141221	 1.938118123	-1.0681170304	-0.243448
C	 0.9344624538	 0.7489508164	-2.0339505853	-0.070809
H	 0.4724373787	-2.4165910061	-2.9863646115	 0.099761
H	 1.9971052076	-3.0531603153	-2.3077670985	 0.104484
H	 3.1001779248	 0.1035320292	-1.6882643191	 0.071963
H	 1.4629490953	-1.7097701024	-0.2217805034	 0.084261
H	-0.8757873848	-0.6664897002	-1.727935342	 0.080817
H	 0.1435119987	 2.0191845208	 0.9708432265	 0.111565
H	 1.5050931475	 0.8938574844	 0.7899511282	 0.094224
H	 0.2845996351	 2.7002117598	-1.3572899229	 0.1122
H	 2.0024750341	 2.406716953	-1.0454474823	 0.104244
H	 0.6467728642	 1.024393631	-3.049140957	 0.084634
100.4734	181.6175	255.8449	283.5548	347.4954	412.7098	593.4722	651.6403	781.889	820.8059	853.9683	861.7027	875.6888	897.1174	912.433	960.3582	972.1497	986.8558	1014.7927	1033.4738	1055.2352	1063.0315	1100.5074	1124.068	1158.4044	1165.8025	1193.2622	1222.8079	1225.0513	1243.3738	1262.3589	1272.4327	1276.2942	1303.8763	1332.318	1349.8534	1368.6328	1393.9937	1483.3195	1522.264	1523.9516	2980.2622	3006.2583	3049.7337	3053.3892	3056.1074	3073.0681	3091.8881	3101.9848	3110.8924	3123.9928
C1OC2C1C1OCCC21	C1O[C@@H]2[C@H]1[C@H]1OCC[C@@H]21	
InChI=1S/C7H10O2/c1-2-8-6-4(1)7-5(6)3-9-7/h4-7H,1-3H2	InChI=1S/C7H10O2/c1-2-8-6-4(1)7-5(6)3-9-7/h4-7H,1-3H2/t4-,5-,6+,7+/m1/s1
