19
gdb 1724	2.9901718	1.2699257	1.1568462	3.2155	78.52	-0.2424	-0.03321	0.20919	1147.1873	0.155713	-422.575387	-422.566433	-422.565489	-422.609116	33.065	
C	-0.2046607033	-0.138424566	-0.1401532116	-0.418128
C	 1.3068792768	 0.0297321242	 0.056214519	 0.232565
O	 1.7707540191	-0.6703331896	 1.2064773365	-0.306296
C	 1.7608541627	 0.0740420492	 2.4166496849	-0.083273
C	 2.6890120779	 1.2841255829	 2.3286543029	-0.259496
C	 2.3923228941	 2.0435237676	 1.0644854435	-0.087938
C	 1.7293785518	 1.4835847309	 0.0544670836	-0.083986
C	 2.0783784364	-0.611424781	-1.1104735211	 0.138824
O	 1.6851319533	-0.6544619297	-2.2451711285	-0.256149
H	-0.757538667	 0.3867147077	 0.6429414896	 0.116957
H	-0.5016536566	 0.2620441857	-1.1121533408	 0.138215
H	-0.465013476	-1.199708401	-0.1096578669	 0.1284
H	 0.7404448935	 0.407919296	 2.6572086752	 0.097957
H	 2.077920969	-0.6248312308	 3.1950994273	 0.110298
H	 2.5453270417	 1.9278808323	 3.2052484073	 0.108854
H	 3.7389720801	 0.9626144531	 2.3491324473	 0.120923
H	 2.7045206335	 3.0824292485	 1.0011984625	 0.099693
H	 1.4807348991	 2.0404062982	-0.8441739085	 0.110764
H	 3.065977084	-1.0121552582	-0.7966806621	 0.091816
76.4004	86.7573	187.6887	204.7658	256.5991	274.4901	320.3103	397.4007	415.3401	488.3384	529.288	594.3705	720.5559	743.5959	783.1103	865.1383	895.7984	915.9291	975.1586	996.3661	1010.2372	1011.9531	1080.0519	1102.5098	1129.6732	1183.6624	1192.2795	1229.7574	1236.9304	1298.6947	1361.4512	1377.4053	1386.8465	1399.2342	1420.9845	1467.9887	1482.4065	1488.473	1503.2004	1711.2528	1833.9723	2910.3687	2995.1145	3019.2667	3049.7373	3056.2305	3093.2943	3126.8303	3135.8537	3157.544	3182.408
CC1(OCCC=C1)C=O	C[C@@]1(OCCC=C1)C=O	
InChI=1S/C7H10O2/c1-7(6-8)4-2-3-5-9-7/h2,4,6H,3,5H2,1H3	InChI=1S/C7H10O2/c1-7(6-8)4-2-3-5-9-7/h2,4,6H,3,5H2,1H3/t7-/m0/s1
