19
gdb 1320	4.8582117	0.4925156	0.4645147	4.9329	85.19	-0.25943	-0.05373	0.2057	2295.5335	0.15325	-422.538484	-422.527483	-422.526539	-422.576928	36.914	
C	-5.2286812643	-2.7228744068	-0.6757959506	-0.408782
C	-4.6334061524	-1.3455688153	-0.3867415146	 0.12878
O	-4.9736674641	-0.4068493865	-1.4056390766	-0.43419
C	-3.1074188435	-1.379446396	-0.3248677028	-0.161808
C	-2.5058458089	 0.0088130929	-0.0287718896	-0.372978
C	-1.0531980285	 0.0072920374	 0.020694399	 0.076837
C	 0.1546349231	-0.0306017003	 0.0511041616	 0.048967
C	 1.591499061	-0.0245640609	 0.1045843073	 0.021574
O	 2.2979966174	-0.9593587882	-0.1997715301	-0.234038
H	-4.9619363636	-3.4404791486	 0.106751773	 0.120598
H	-6.3226477874	-2.6716971125	-0.7196281954	 0.107463
H	-4.8662695097	-3.1016081105	-1.6365511774	 0.129635
H	-5.0140904122	-0.9907845571	 0.5872490666	 0.065209
H	-5.932836226	-0.3623045336	-1.4665835083	 0.285008
H	-2.792106777	-2.0909615067	 0.4448734695	 0.111962
H	-2.7194236689	-1.7430685343	-1.2825745315	 0.122168
H	-2.8447050965	 0.7135388127	-0.7964187608	 0.165036
H	-2.8959454162	 0.3912183746	 0.9245336674	 0.134157
H	 2.0266893577	 0.9330618499	 0.4581642133	 0.094402
23.0062	51.0423	57.5747	113.5571	161.5035	182.939	240.381	246.8488	283.5402	327.5871	401.7828	448.6216	454.5628	500.9572	626.0944	762.0839	826.9552	863.349	940.6368	960.5302	1023.1575	1025.114	1073.3901	1120.0498	1132.7701	1160.8451	1185.1699	1275.4634	1286.9504	1319.658	1362.3242	1386.7823	1406.2821	1423.7034	1428.2598	1459.6996	1479.9875	1492.2304	1499.3714	1765.7055	2327.4812	2911.0281	2944.6864	3019.2359	3029.2975	3050.1588	3069.4469	3096.0511	3099.0804	3115.1698	3823.498
CC(O)CCC#CC=O	C[C@H](O)CCC#CC=O	
InChI=1S/C7H10O2/c1-7(9)5-3-2-4-6-8/h6-7,9H,3,5H2,1H3	InChI=1S/C7H10O2/c1-7(9)5-3-2-4-6-8/h6-7,9H,3,5H2,1H3/t7-/m0/s1
