19
gdb 5587	2.9229615	1.1692751	0.9189452	4.6493	75.93	-0.25943	0.01281	0.27224	1304.5105	0.157832	-422.593839	-422.585396	-422.584452	-422.627239	31.27	
C	 2.8256057868	 0.5161352848	 0.3262080387	-0.37548
C	 1.8127891622	-0.6105076556	 0.0944482902	-0.219187
C	 1.9211703071	-1.2273226344	-1.2849597436	 0.001604
C	 0.7413302436	-1.898163512	-1.9141214369	-0.101313
C	 1.0491540833	-2.8862693408	-3.0277561743	-0.105519
O	 1.8190332079	-2.1714058104	-4.0080577407	-0.233061
C	 1.7831950554	-0.8171657474	-3.791601631	 0.447767
O	 2.1870165036	-0.0346781475	-4.6017797889	-0.347856
C	 1.1936004345	-0.5560818197	-2.4439741589	-0.199733
H	 2.7265954531	 0.9327691784	 1.332936365	 0.116443
H	 3.8522564521	 0.1515261727	 0.2149865199	 0.121288
H	 2.6839923391	 1.3291061896	-0.3929173751	 0.127328
H	 1.9569579029	-1.3974266069	 0.8460349975	 0.10532
H	 0.7935575239	-0.2311687666	 0.2415250122	 0.09901
H	 2.8990390796	-1.6461301864	-1.5186143724	 0.102225
H	-0.1804484042	-2.010191216	-1.3558048182	 0.102976
H	 1.6414026292	-3.7455157989	-2.6973117343	 0.121868
H	 0.1334573818	-3.2532440816	-3.5053859708	 0.120535
H	 0.6740375382	 0.3794988786	-2.2865433784	 0.115785
86.4281	123.5048	164.3623	189.1039	240.9049	285.0373	370.1531	412.7464	499.275	632.6231	715.1719	749.0766	781.4237	853.7667	859.2622	875.5633	903.9403	969.6104	991.2783	1020.7637	1050.8106	1067.3256	1083.7104	1093.1512	1137.5292	1152.5679	1176.0486	1206.4544	1235.6825	1286.2773	1303.1881	1316.1781	1363.2121	1396.5703	1414.7064	1450.6344	1484.8353	1498.5817	1507.0873	1519.7064	1880.3972	3019.1694	3036.2148	3037.5131	3051.2856	3081.3878	3105.7892	3111.8105	3119.3833	3183.9693	3211.5818
CCC1C2COC(=O)C12	CC[C@H]1[C@@H]2COC(=O)[C@H]12	
InChI=1S/C7H10O2/c1-2-4-5-3-9-7(8)6(4)5/h4-6H,2-3H2,1H3	InChI=1S/C7H10O2/c1-2-4-5-3-9-7(8)6(4)5/h4-6H,2-3H2,1H3/t4-,5-,6+/m0/s1
