19
gdb 1570	2.3020928	1.6523256	1.2212268	2.7451	76.31	-0.24518	-0.03547	0.20971	1081.45	0.155433	-422.587142	-422.578337	-422.577393	-422.620319	33.564	
C	-1.2386874671	-1.3194843194	-1.519187375	-0.449935
C	 0.1833442497	-0.9161222324	-1.9152061552	 0.370206
O	 0.282510514	 0.4961836565	-2.0388478578	-0.476069
C	 0.6388093652	-1.4738054459	-3.2896254081	-0.278557
C	 2.1032139268	-1.7754181337	-3.1000099932	-0.066066
C	 2.4572462867	-1.7715932167	-1.8177783909	-0.092633
C	 1.2729987716	-1.459985481	-0.9248476027	-0.172579
C	 1.5986371073	-0.578877392	 0.2583359151	 0.164628
O	 0.9423992857	 0.3636002753	 0.6370396646	-0.271246
H	-1.494696458	-0.9025183869	-0.5394468315	 0.122692
H	-1.9517825171	-0.9294757928	-2.251221164	 0.124892
H	-1.3522462856	-2.4076170081	-1.4678640428	 0.106991
H	 0.1847924822	 0.8605442419	-1.1482972311	 0.290822
H	 0.0840823506	-2.3824675722	-3.5597493129	 0.102908
H	 0.4423952479	-0.7296395989	-4.0674542806	 0.124886
H	 2.7683950871	-1.9993463943	-3.9264867109	 0.0995
H	 3.4463788865	-1.9836005628	-1.4271119081	 0.098831
H	 0.9234935621	-2.3998011121	-0.4580118024	 0.108736
H	 2.5137965445	-0.8800589343	 0.8165554275	 0.091993
90.0548	108.2972	215.9392	242.4424	263.7014	299.0378	354.2254	397.367	439.7829	460.2641	566.7462	606.7358	677.6301	694.8253	736.6328	775.3074	883.6201	938.1914	949.7551	967.5438	969.0982	972.4992	1048.5493	1068.2406	1100.4547	1138.1349	1148.5406	1160.3762	1227.4213	1252.6727	1309.4288	1321.373	1358.2453	1403.3543	1409.9328	1428.9363	1469.0907	1492.41	1497.969	1688.1299	1805.7875	2878.0518	2939.9367	3019.5376	3031.9324	3083.0351	3101.4184	3113.9314	3182.6365	3207.6708	3741.1461
CC1(O)CC=CC1C=O	C[C@]1(O)CC=C[C@H]1C=O	
InChI=1S/C7H10O2/c1-7(9)4-2-3-6(7)5-8/h2-3,5-6,9H,4H2,1H3	InChI=1S/C7H10O2/c1-7(9)4-2-3-6(7)5-8/h2-3,5-6,9H,4H2,1H3/t6-,7-/m0/s1
