19
gdb 1630	3.4359634	1.1788344	0.9522082	2.5644	78.52	-0.22927	0.00602	0.23529	1251.1874	0.155995	-422.53715	-422.528321	-422.527377	-422.571273	32.138	
C	-2.4196488358	-1.4141482723	 0.7704777648	-0.479631
C	-0.9551114865	-1.0692933201	 0.921697248	 0.312435
C	-0.2445146081	-1.4994256511	 2.1465334442	-0.227282
O	-0.0616924389	-2.2073834273	 0.9252109357	-0.270591
C	-0.4474680604	 0.0933320976	 0.1568185046	 0.289001
C	-1.143492301	 1.0429904423	-0.4665079625	-0.253008
C	-0.2129642821	 2.0160206303	-1.1291259999	-0.099789
O	 1.0970089557	 1.5504068009	-0.8211072097	-0.268415
C	 1.0263531225	 0.3469318782	-0.0639075461	-0.157354
H	-2.6507256526	-2.3245884236	 1.3278280592	 0.129062
H	-3.0518533877	-0.6042943531	 1.1485623205	 0.126476
H	-2.6697281492	-1.5789959738	-0.2818386531	 0.132601
H	 0.6205427221	-0.9444790806	 2.5048599448	 0.116753
H	-0.8055958585	-2.0268162766	 2.9177979974	 0.115435
H	-2.2208532321	 1.1328895133	-0.5153934371	 0.100827
H	-0.356238299	 2.050958087	-2.2217981428	 0.105172
H	-0.3397465043	 3.045376268	-0.7570908148	 0.105099
H	 1.5004474446	-0.4811102087	-0.6098667353	 0.121425
H	 1.5834200213	 0.4743670996	 0.877136162	 0.101785
51.2151	91.3336	165.2803	184.8878	210.7326	320.3111	342.3673	388.8867	435.8299	530.5215	559.0309	765.1564	786.4618	817.5366	857.6617	905.4865	925.2974	930.2815	976.4077	1020.8654	1027.2346	1063.9894	1082.2796	1098.9331	1135.5681	1140.1156	1163.949	1173.93	1224.314	1267.9912	1322.028	1367.4938	1379.8263	1394.7627	1415.4137	1483.1178	1497.3393	1516.8062	1525.6659	1529.1073	1718.7592	2965.1049	2980.2816	2983.6812	3012.1429	3042.6436	3081.4102	3109.5221	3130.3607	3169.1354	3219.8803
CC1(CO1)C1=CCOC1	C[C@]1(CO1)C1=CCOC1	
InChI=1S/C7H10O2/c1-7(5-9-7)6-2-3-8-4-6/h2H,3-5H2,1H3	InChI=1S/C7H10O2/c1-7(5-9-7)6-2-3-8-4-6/h2H,3-5H2,1H3/t7-/m0/s1
