19
gdb 2417	2.901208	1.8340413	1.310598	1.2314	74.91	-0.23618	0.07553	0.31171	1003.5664	0.156189	-422.507764	-422.49986	-422.498916	-422.53941	31.509	
C	 4.5386092509	 0.3646044514	 1.406632536	-0.508804
C	 3.3129363246	 0.1627446128	 0.5546725079	 0.289952
C	 3.2048807554	-1.0236970985	-0.3901267458	-0.151605
O	 1.9077148611	-0.8226092635	-0.9831017858	-0.312599
C	 1.4474038108	 0.3583152501	-0.3678058637	 0.460523
C	 0.0864837907	 0.7794994107	-0.8334617409	-0.496512
C	 2.6273268396	 1.3680620943	-0.1757044891	-0.061687
O	 2.0423274462	 1.846919001	 1.0805535399	-0.319421
C	 1.8758918767	 0.3912718902	 1.1368583473	-0.061661
H	 4.6995763557	-0.4840422934	 2.0806269683	 0.11936
H	 5.4381300116	 0.4748653868	 0.7909361387	 0.119354
H	 4.4199833229	 1.2682361843	 2.01059858	 0.141882
H	 3.9766280524	-1.0241263633	-1.1702332484	 0.105744
H	 3.2332458567	-1.9904680134	 0.1282454056	 0.105744
H	-0.2004540248	 1.69727468	-0.3152180957	 0.14093
H	 0.0867902329	 0.96125846	-1.9123400699	 0.127897
H	-0.6522940559	 0.0010029876	-0.6209326599	 0.127892
H	 3.05574263	 2.1046599288	-0.8571568984	 0.086506
H	 1.4067911925	-0.0387841258	 2.0231373941	 0.086506
201.2915	232.3634	247.0972	248.5432	260.256	299.0315	380.1484	445.6958	516.7138	585.5457	691.8845	716.1582	731.9224	743.7672	809.671	874.607	879.8647	929.8394	944.5039	1001.5276	1018.2979	1055.1937	1096.1501	1103.902	1129.2984	1156.0341	1162.3762	1178.1097	1220.1929	1241.4698	1290.5315	1297.3282	1342.9901	1392.2858	1408.7744	1425.2384	1485.2151	1492.5284	1495.5201	1499.1353	1520.0226	3015.8186	3031.9964	3046.4877	3053.8429	3090.9926	3104.9557	3112.0141	3112.3616	3118.6035	3136.542
CC12COC3(C)C1OC23	C[C@]12CO[C@]3(C)[C@H]1O[C@H]23	
InChI=1S/C7H10O2/c1-6-3-8-7(2)4(6)9-5(6)7/h4-5H,3H2,1-2H3	InChI=1S/C7H10O2/c1-6-3-8-7(2)4(6)9-5(6)7/h4-5H,3H2,1-2H3/t4-,5+,6-,7+
