19
gdb 5916	1.9707839	1.1978904	0.9626729	2.2012	78.91	-0.2489	-0.06234	0.18656	1354.3684	0.15232	-422.526695	-422.515836	-422.514892	-422.563797	37.29	
C	 2.7225809915	 0.1219137185	 4.1504642686	-0.385208
C	 3.2467550147	 0.2137697906	 2.7285081925	-0.046969
O	 2.8404684292	-0.9549555554	 2.0291094236	-0.248042
C	 3.2769548735	-1.0104875032	 0.692286697	 0.038633
C	 3.0627837385	-2.4389882534	 0.1889402534	-0.416916
C	 2.5182549646	-0.036001292	-0.2248012948	 0.198732
O	 3.0398024149	 0.4682884212	-1.1947136856	-0.284111
C	 1.122941905	 0.205307381	 0.1073984884	 0.311759
C	-0.0358891639	 0.4186667676	 0.3544303065	-0.451005
H	 3.1117747875	-0.7721740283	 4.6456810868	 0.127861
H	 3.0288254336	 1.0004958925	 4.7258188243	 0.117518
H	 1.6304806746	 0.0674397286	 4.1519609557	 0.129782
H	 2.855259343	 1.115861003	 2.2335212612	 0.098776
H	 4.346232726	 0.2873054635	 2.7196620391	 0.093807
H	 4.340443175	-0.7391696195	 0.6078069298	 0.091987
H	 3.6209161138	-3.1336125592	 0.8214579812	 0.132224
H	 2.0023928759	-2.7029030882	 0.2372287714	 0.137292
H	 3.4082305114	-2.5357677488	-0.8433150088	 0.136651
H	-1.0598547987	 0.6077000617	 0.5690413299	 0.217228
32.178	54.7878	101.4509	142.0778	173.5976	200.5843	230.5166	245.1421	277.1349	316.0967	362.4178	443.8408	533.4109	647.7449	667.8042	693.0973	715.5682	748.746	820.175	866.2413	942.2723	1005.028	1078.3901	1100.1914	1151.1016	1177.3995	1187.5434	1209.862	1300.4519	1319.1155	1343.6981	1396.391	1401.1114	1436.7978	1482.2927	1483.6136	1496.878	1498.5545	1524.6633	1768.434	2208.5488	2971.5243	2994.1491	3004.274	3046.2459	3049.0548	3121.2153	3123.8449	3127.1965	3135.6015	3493.5318
CCOC(C)C(=O)C#C	CCO[C@@H](C)C(=O)C#C	
InChI=1S/C7H10O2/c1-4-7(8)6(3)9-5-2/h1,6H,5H2,2-3H3	InChI=1S/C7H10O2/c1-4-7(8)6(3)9-5-2/h1,6H,5H2,2-3H3/t6-/m0/s1
