19
gdb 5182	2.4702292	1.627357	1.3875919	2.0023	74.55	-0.22237	0.05617	0.27854	1020.9881	0.156877	-422.504041	-422.495653	-422.494709	-422.53698	32.547	
O	 0.2204532758	 0.9828816241	 0.665290019	-0.422203
C	 0.4557754052	 0.0224872545	-0.3698933696	-0.211807
C	-0.4852598815	 0.229800395	-1.5238876092	 0.235272
C	-0.5196474942	 1.5585085523	-2.3409280186	-0.28118
C	-2.0141826891	 1.3054404829	-2.5130454251	-0.150503
C	-2.1905567418	-0.2439708811	-2.6674567978	-0.120772
C	-0.7943380155	-0.8619421827	-2.5932501845	-0.290207
C	-2.0567179358	 0.3826165205	-1.3200340009	 0.368452
O	-2.8275894978	 0.2684900335	-0.1950737846	-0.457296
H	 0.5438257993	 1.8335822392	 0.352760861	 0.286856
H	 1.5079787729	 0.0382414068	-0.6943919575	 0.095395
H	 0.2719976504	-0.952699128	 0.0938232672	 0.117766
H	-0.3387418868	 2.4388142895	-1.7143587192	 0.079408
H	 0.119814312	 1.6074016514	-3.2300981815	 0.089461
H	-2.7798408097	 1.9743906325	-2.8841257144	 0.087192
H	-3.0830797317	-0.6382763778	-3.1354624183	 0.089637
H	-0.8245862989	-1.863293222	-2.153342393	 0.102371
H	-0.1679057044	-0.8729755648	-3.4927275012	 0.088114
H	-2.4147354386	 0.8208207141	 0.4816568784	 0.294045
52.7617	155.8366	213.0341	271.5473	303.3044	348.5328	394.9972	420.6521	486.0891	488.0145	636.7785	648.0296	727.0136	757.4572	817.6022	874.0463	902.6412	926.6463	966.9284	984.1168	989.39	1017.2791	1040.2047	1082.0253	1086.0918	1090.1732	1127.4412	1154.1575	1202.4139	1229.4411	1242.0025	1251.9814	1281.5366	1318.5796	1350.4501	1375.3556	1412.6029	1483.3758	1491.2586	1495.3211	1515.6827	2984.1903	3022.3365	3031.4078	3070.0086	3074.0319	3091.6212	3196.6999	3205.9685	3769.2732	3823.1751
OCC12CC3C(C1)C23O	OC[C@@]12C[C@H]3[C@@H](C1)[C@@]23O	
InChI=1S/C7H10O2/c8-3-6-1-4-5(2-6)7(4,6)9/h4-5,8-9H,1-3H2	InChI=1S/C7H10O2/c8-3-6-1-4-5(2-6)7(4,6)9/h4-5,8-9H,1-3H2/t4-,5+,6+,7+
