19
gdb 3712	2.48668	1.5530557	1.3302259	1.6486	75.97	-0.23571	0.07203	0.30774	1052.1066	0.155735	-422.506358	-422.497721	-422.496777	-422.539153	33.688	
O	-0.7788416263	 0.3867180814	-0.1690281283	-0.428095
C	-1.7460563113	 0.0296899431	 0.7838039439	 0.015651
C	-2.8699195552	 0.9972982979	 1.0892525521	-0.398966
C	-3.1089503644	-0.2153216645	 0.2340398132	 0.294461
C	-4.1460736424	-1.3372037769	 0.4533802485	-0.330283
C	-4.5209698249	-1.2281745327	-1.0360059637	-0.112502
C	-3.2939367089	-1.4833643512	-1.8864409249	-0.337871
C	-3.4744802998	-0.1393268565	-1.2357898455	 0.358603
O	-3.5734803571	 1.0379815746	-1.9508949592	-0.461486
H	-0.1957846654	 1.0400621722	 0.2320717439	 0.287139
H	-1.3832514885	-0.6014595926	 1.5957140738	 0.08324
H	-3.2741314223	 1.0197191791	 2.0969412422	 0.108255
H	-2.8579267793	 1.9520692188	 0.572066938	 0.118322
H	-3.7583455914	-2.3102748661	 0.7741198754	 0.096643
H	-4.9501948653	-1.0314688851	 1.1276849411	 0.106952
H	-5.522127726	-1.3020252746	-1.4405687778	 0.093584
H	-2.5214812148	-2.1757582115	-1.559015313	 0.106664
H	-3.4816950667	-1.4778408681	-2.9556620915	 0.110431
H	-2.6878911099	 1.2469686326	-2.2711996982	 0.289257
108.2049	118.3775	185.3059	288.6759	306.6592	358.4529	366.0376	397.6329	440.8918	448.674	509.7248	618.2916	682.3872	780.2943	809.3642	843.8224	871.8455	893.2884	929.4204	962.8513	990.886	1010.3233	1020.9355	1030.5699	1075.7356	1088.0995	1103.1834	1154.753	1158.3138	1173.8332	1227.0594	1237.3583	1268.0519	1290.8003	1313.3974	1358.1977	1406.4193	1423.2473	1478.2281	1493.1521	1504.2387	3039.3808	3094.1772	3097.5733	3103.9236	3118.074	3194.1186	3203.6027	3209.2932	3785.8301	3799.768
OC1CC11CC2CC12O	O[C@H]1C[C@@]21C[C@@H]1C[C@]21O	
InChI=1S/C7H10O2/c8-5-3-6(5)1-4-2-7(4,6)9/h4-5,8-9H,1-3H2	InChI=1S/C7H10O2/c8-5-3-6(5)1-4-2-7(4,6)9/h4-5,8-9H,1-3H2/t4-,5+,6-,7-/m1/s1
