19
gdb 3438	2.1967701	1.7278982	1.0998323	1.1803	76.94	-0.24431	0.0042	0.24851	1129.9148	0.15743	-422.555303	-422.546877	-422.545933	-422.588245	31.798	
C	 1.254382314	 0.6123680569	-0.0920976704	-0.499723
C	-0.1202570756	 0.0358068955	 0.0166124196	 0.319045
C	-0.4761490193	-1.186043803	 0.4309923149	-0.226743
C	-1.968096362	-1.426946107	 0.4093977524	 0.08992
O	-2.3480766261	-2.4393804241	-0.5223251979	-0.433651
C	-2.5386354279	-0.0334262456	 0.0775181214	-0.11988
C	-2.7304858874	 0.9661216863	 1.2402161394	-0.086093
O	-1.6574445833	 1.8122106761	 0.7712564752	-0.295248
C	-1.3401522564	 0.8712530847	-0.2919688946	 0.029686
H	 1.3386684888	 1.5046465728	 0.539593405	 0.148013
H	 2.0247247699	-0.1011998027	 0.211133833	 0.125335
H	 1.4666855716	 0.9342530976	-1.1194530742	 0.127401
H	 0.2164947161	-1.9658035553	 0.7327087572	 0.096107
H	-2.3464387826	-1.7928368209	 1.3715787659	 0.089705
H	-1.8794612387	-2.2591554725	-1.3449431559	 0.272544
H	-3.3716218129	-0.0951132169	-0.6221326942	 0.085784
H	-3.685540252	 1.5027346896	 1.2563887452	 0.105306
H	-2.5316142144	 0.5594210637	 2.2409288971	 0.099545
H	-1.3001535818	 1.3837533149	-1.2607428691	 0.072949
101.0974	136.4934	185.9862	229.4545	255.8801	314.4248	335.0134	372.8252	497.4051	570.5506	596.1203	724.8506	799.6609	847.5059	881.0257	893.6711	932.0414	969.563	980.3232	1007.2707	1026.5143	1042.731	1059.5892	1069.9278	1101.2129	1161.5951	1172.4074	1228.4365	1253.8995	1263.7036	1285.4363	1316.265	1318.2394	1353.7929	1358.3968	1408.9947	1426.5181	1477.7127	1488.9199	1520.0204	1704.6937	3008.5456	3022.847	3033.7107	3038.7438	3061.1576	3075.044	3116.4269	3120.1276	3182.1912	3798.4677
CC1=CC(O)C2COC12	CC1=C[C@H](O)[C@H]2CO[C@@H]12	
InChI=1S/C7H10O2/c1-4-2-6(8)5-3-9-7(4)5/h2,5-8H,3H2,1H3	InChI=1S/C7H10O2/c1-4-2-6(8)5-3-9-7(4)5/h2,5-8H,3H2,1H3/t5-,6+,7+/m1/s1
