19
gdb 1704	2.3247896	1.4002325	1.3708695	2.9554	75.86	-0.23495	-0.02981	0.20514	1091.6674	0.154257	-422.528824	-422.519613	-422.518669	-422.563079	33.662	
C	-0.1665874503	 0.0094416696	 0.0989087794	-0.472904
C	 1.3587605251	-0.0345897074	 0.1084316229	 0.058743
C	 2.1224080552	 1.1936649906	-0.4276703014	-0.11643
O	 2.765127459	 0.4052229354	-1.4591866168	-0.31008
C	 2.0408395423	-0.756460868	-1.0757561089	 0.443762
C	 2.6322100534	-2.1222505152	-1.2034829091	-0.340623
C	 1.4686170878	-1.6930517775	-2.0892734243	-0.339921
C	 1.8666037986	-0.5460614768	 1.4418341201	 0.129293
O	 2.6835307525	 0.0013866297	 2.1353338021	-0.248727
H	-0.5419664444	 0.7466860422	 0.8166516419	 0.131941
H	-0.5359843874	 0.2772312784	-0.8944772469	 0.136502
H	-0.5941471631	-0.9635870796	 0.3669671307	 0.123583
H	 1.4886446158	 1.9798454979	-0.8534212799	 0.101059
H	 2.8448641251	 1.6219965162	 0.2717692144	 0.132061
H	 3.615732602	-2.1783006319	-1.6573941398	 0.132731
H	 2.44864896	-2.8612649424	-0.4307133379	 0.117919
H	 1.6843961623	-1.4709024575	-3.128901746	 0.130098
H	 0.4933690391	-2.1346290182	-1.9105117575	 0.115632
H	 1.4126821869	-1.5166325355	 1.7515439667	 0.075361
59.9815	71.5006	184.988	208.3145	225.3228	273.5252	291.8695	334.6853	385.9005	488.8428	538.5527	586.3103	725.7884	756.751	857.4065	875.9064	881.719	933.1024	947.6633	972.1203	991.046	1014.4808	1028.884	1050.5851	1069.0655	1149.0463	1161.4391	1186.8884	1217.9174	1222.0446	1270.8321	1347.182	1364.8471	1404.1931	1426.4297	1447.5198	1486.8631	1493.1476	1496.5707	1522.2668	1829.7004	2855.6326	3029.6457	3034.6738	3094.6815	3103.8104	3116.9112	3128.0661	3131.9681	3211.8427	3225.8244
CC1(COC11CC1)C=O	C[C@@]1(COC21CC2)C=O	
InChI=1S/C7H10O2/c1-6(4-8)5-9-7(6)2-3-7/h4H,2-3,5H2,1H3	InChI=1S/C7H10O2/c1-6(4-8)5-9-7(6)2-3-7/h4H,2-3,5H2,1H3/t6-/m0/s1
