19
gdb 3943	3.4718399	1.3949881	1.3449731	1.2012	74.	-0.22512	0.054	0.27912	1043.8028	0.157008	-422.498785	-422.491022	-422.490078	-422.530754	30.746	
C	 0.4578688174	 0.876090404	-0.1916781595	-0.401179
C	 0.9847104593	-0.5194876994	 0.0822764811	 0.137298
C	 2.1883163444	-0.6062621625	 1.0846054799	-0.338271
C	 3.0265779704	-1.722140607	 0.5049270545	 0.337216
C	 3.8939640263	-1.5587999473	-0.7103327362	-0.369402
C	 2.4563597397	-2.0070767606	-0.8527399288	 0.253169
C	 2.2409722768	-3.4265240548	-0.3164706533	-0.148144
O	 2.9198236155	-3.0925527922	 0.9331654796	-0.325964
O	 1.4671136182	-1.0904776632	-1.1680605136	-0.307289
H	 0.0516621954	 1.3161297595	 0.7244634911	 0.119831
H	 1.2594452724	 1.5221127378	-0.5636161382	 0.121915
H	-0.3382115848	 0.8483294544	-0.9405431971	 0.13102
H	 0.1684121114	-1.1562643668	 0.4546887155	 0.081924
H	 2.7331281079	 0.3425990686	 1.1194143872	 0.111028
H	 1.8522501859	-0.8430796761	 2.0963713961	 0.125659
H	 4.0790702766	-0.5395344426	-1.02971355	 0.127214
H	 4.7035347253	-2.2620997535	-0.8813722308	 0.121714
H	 1.1839215237	-3.6581473103	-0.1437611436	 0.113257
H	 2.7248611081	-4.2581651283	-0.8409831439	 0.109002
85.6489	215.8403	242.5248	278.7858	336.6334	369.8369	423.771	466.7293	561.1129	594.9335	652.6617	793.7291	803.6379	806.1296	862.6898	875.815	891.3793	940.0448	941.4587	984.3034	1011.1964	1017.8825	1066.0978	1090.492	1138.0082	1145.8527	1162.7816	1194.4548	1240.4442	1283.7077	1292.6182	1326.1507	1350.4784	1369.0298	1389.8352	1410.965	1460.5922	1472.8273	1482.9826	1496.7942	1511.4427	2989.2991	3026.3291	3040.1006	3054.9292	3080.4046	3112.7233	3118.8076	3121.5049	3125.4613	3227.8849
CC1CC23CC2(CO3)O1	C[C@@H]1C[C@]23C[C@]2(CO3)O1	
InChI=1S/C7H10O2/c1-5-2-6-3-7(6,9-5)4-8-6/h5H,2-4H2,1H3	InChI=1S/C7H10O2/c1-5-2-6-3-7(6,9-5)4-8-6/h5H,2-4H2,1H3/t5-,6+,7-/m1/s1
