19
gdb 3730	3.4664998	1.1115879	0.9431261	3.0792	75.8	-0.24098	-0.0199	0.22108	1275.1876	0.155534	-422.577981	-422.569201	-422.568256	-422.61178	32.718	
C	-3.2717512568	-3.0360048662	 1.0355685464	-0.422205
C	-3.1205606275	-1.5699400415	 1.3521390313	-0.005421
O	-1.9871834711	-1.1788901407	 2.1438975546	-0.296964
C	-2.0747463309	-0.7118527436	 0.7871289665	 0.401958
C	-2.235577808	 0.7972153252	 0.606112246	-0.299106
C	-0.8128002237	 1.2862112591	 0.2909568029	-0.321821
C	-0.1373382242	 0.1047993408	-0.4156606999	 0.400765
O	 0.8724803742	 0.15274558	-1.0663567461	-0.308139
C	-0.9745104297	-1.1600073721	-0.1603520297	-0.406178
H	-3.620122673	-3.5815553625	 1.918546259	 0.132654
H	-4.0120260634	-3.1796695984	 0.2408393556	 0.123369
H	-2.325207368	-3.4757909672	 0.7140506763	 0.128336
H	-4.0466788814	-1.0746874258	 1.6551014826	 0.084248
H	-2.9024066113	 0.9977075698	-0.2413912428	 0.110924
H	-2.6739065236	 1.252274339	 1.4963089791	 0.120669
H	-0.7499020658	 2.1930692804	-0.3137393894	 0.129262
H	-0.2512449489	 1.4706364952	 1.2160787979	 0.144242
H	-1.3731429909	-1.5067311652	-1.1220082254	 0.136208
H	-0.354341906	-1.9599390663	 0.248986285	 0.147198
57.9895	110.2937	161.1643	182.2366	241.6157	356.9464	393.079	452.6884	470.6527	478.0687	545.7772	601.2594	714.3504	737.246	797.6814	826.8473	876.1235	941.467	965.9034	987.0202	995.564	1025.0152	1114.7389	1132.4911	1152.0899	1167.0794	1194.9385	1202.29	1243.1657	1261.1227	1294.8793	1314.7677	1369.4824	1408.8637	1427.1569	1449.7809	1471.8833	1482.1373	1489.7786	1520.0675	1851.9507	3035.3422	3038.8118	3041.1754	3043.5381	3073.9654	3101.1776	3112.8099	3117.5214	3118.3874	3132.6899
CC1OC11CCC(=O)C1	C[C@H]1O[C@@]21CCC(=O)C2	
InChI=1S/C7H10O2/c1-5-7(9-5)3-2-6(8)4-7/h5H,2-4H2,1H3	InChI=1S/C7H10O2/c1-5-7(9-5)3-2-6(8)4-7/h5H,2-4H2,1H3/t5-,7+/m1/s1
