19
gdb 3562	1.97172	1.6349918	0.9582156	4.3865	79.4	-0.2537	0.00917	0.26287	1253.3425	0.155935	-422.609897	-422.600655	-422.599711	-422.645205	33.377	
C	-3.434563889	 1.4702372596	 0.2171041609	-0.383648
C	-2.4109227274	 0.5833293958	-0.4979598546	 0.08408
O	-2.6655519375	-0.7792537598	-0.1005211606	-0.239737
C	-1.7839362262	-1.5767902918	 0.537786307	 0.410314
O	-2.1174244737	-2.6908519565	 0.8396935737	-0.329211
C	-0.3965569149	-1.0422667832	 0.8537465522	-0.448524
C	-0.0668461474	 0.3261047735	 0.3294641829	 0.282594
C	 1.3396263176	 0.8083560301	 0.5422827335	-0.473143
C	-1.0034495774	 1.0424034818	-0.28438088	-0.163587
H	-3.2477415457	 1.4767306731	 1.2948433718	 0.126304
H	-3.3692036317	 2.4981614103	-0.1525234936	 0.119733
H	-4.4456326049	 1.096975773	 0.0361430494	 0.135559
H	-2.6331239282	 0.6022592317	-1.5743862718	 0.106101
H	-0.2882949394	-1.0774294055	 1.9466104696	 0.147081
H	 0.3160992981	-1.7896969946	 0.482050349	 0.145804
H	 1.5925609114	 0.8259308034	 1.6100840979	 0.129768
H	 2.0623490846	 0.1359214241	 0.0628111004	 0.130706
H	 1.4873009799	 1.8135140647	 0.1395004205	 0.125984
H	-0.782425678	 2.0358698204	-0.6664448383	 0.093821
21.3822	74.9509	142.8164	196.3017	242.8203	291.367	339.7967	402.3148	434.2088	472.2801	510.3879	555.5206	583.4107	686.2352	809.6186	846.9588	903.4395	918.6816	961.7259	989.3203	1019.1219	1064.8799	1068.5185	1105.0777	1168.7799	1190.2882	1220.497	1233.2939	1316.3653	1349.4325	1387.4801	1400.3114	1404.1688	1416.3166	1448.1339	1477.4953	1485.6717	1490.5395	1494.8485	1769.4116	1838.3985	3003.1352	3017.7846	3023.8493	3043.1943	3048.9095	3066.1638	3116.6974	3118.9011	3129.3389	3161.0478
CC1OC(=O)CC(C)=C1	C[C@@H]1OC(=O)CC(=C1)C	
InChI=1S/C7H10O2/c1-5-3-6(2)9-7(8)4-5/h3,6H,4H2,1-2H3	InChI=1S/C7H10O2/c1-5-3-6(2)9-7(8)4-5/h3,6H,4H2,1-2H3/t6-/m0/s1
