19
gdb 463	3.8404194	1.114288	1.0008159	1.9724	75.11	-0.24413	0.06382	0.30795	1223.9799	0.157631	-422.4905	-422.482599	-422.481655	-422.52372	29.562	
C	 1.4027565803	 0.1989279822	 4.1905974876	-0.186336
O	 0.9731723959	 1.5588841797	 4.2576523925	-0.243741
C	 0.4159819695	 0.7206466685	 3.2361095758	 0.090498
C	 0.7742422341	 1.0688757618	 1.8207586446	-0.022645
C	-0.0198878354	 2.2166758399	 1.1081448732	-0.265311
C	-0.3516333269	 1.2639212862	-0.0758907128	-0.076935
C	-1.6487181171	 0.4664596752	 0.1119653554	-0.075904
O	-0.9846924792	-0.495464855	 0.9694202081	-0.293643
C	 0.3089967028	 0.0944914011	 0.7083998955	 0.096409
H	 2.4339758211	 0.0495949955	 3.8712750008	 0.108225
H	 1.0770758432	-0.437951001	 5.0119963679	 0.115288
H	-0.6289540885	 0.4583098544	 3.3956586917	 0.102568
H	 1.8527073026	 1.2441747599	 1.7517460532	 0.076633
H	-0.896991742	 2.5776285539	 1.6534273516	 0.106679
H	 0.5954164475	 3.0782882527	 0.8439198069	 0.110644
H	-0.0718119566	 1.5754011413	-1.0807262345	 0.078889
H	-2.477167301	 0.9766491306	 0.6189369522	 0.103044
H	-2.0272129985	-0.0156728175	-0.7988696804	 0.101836
H	 1.0205371281	-0.6350072994	 0.3109526106	 0.073803
65.0337	82.1118	160.9944	235.6368	321.714	367.9274	428.3554	514.0261	695.3435	759.0069	796.8311	835.6669	858.397	894.2691	914.1848	926.8624	938.5494	993.3376	998.342	1021.8972	1049.6149	1067.1856	1107.3622	1139.4376	1149.7951	1157.1584	1175.2738	1185.7308	1207.0613	1220.8694	1249.6296	1272.179	1287.2902	1298.138	1306.9291	1326.3858	1362.054	1452.9241	1483.8891	1523.767	1529.7055	3006.9927	3053.181	3053.3529	3059.9937	3068.057	3078.8879	3115.607	3125.6144	3129.569	3164.8486
C1OC1C1CC2COC12	C1O[C@H]1[C@@H]1C[C@@H]2CO[C@H]12	
InChI=1S/C7H10O2/c1-4-2-9-7(4)5(1)6-3-8-6/h4-7H,1-3H2	InChI=1S/C7H10O2/c1-4-2-9-7(4)5(1)6-3-8-6/h4-7H,1-3H2/t4-,5+,6-,7+/m1/s1
