19
gdb 746	2.5698369	1.7587355	1.2872496	4.4866	74.74	-0.25355	0.00878	0.26233	1019.6903	0.16008	-422.581357	-422.573972	-422.573028	-422.613129	29.152	
O	-2.1268695607	-1.0965660163	 0.7800358458	-0.318782
C	-1.2339470965	-0.3116003296	 0.9559105846	 0.385433
O	-0.6150804902	-0.3021598932	 2.1712172502	-0.23194
C	 0.7305279737	 0.1585064599	 2.3657435062	-0.070595
C	 0.9914508758	 1.6443933023	 2.1177520389	-0.226246
C	 0.5807154722	 2.1506903419	 0.7289901474	-0.000135
C	 0.6196009471	 1.046734227	-0.3657675768	-0.258878
C	-0.8839100861	 0.7520743495	-0.069713895	-0.115995
C	-0.9613232502	 2.1865320229	 0.5456568799	-0.229055
H	 0.9389518747	-0.0773659584	 3.4121456842	 0.123477
H	 1.4042445568	-0.4567048717	 1.7588928822	 0.115735
H	 0.4871675482	 2.2430586842	 2.8859884824	 0.112008
H	 2.0697896245	 1.7888246113	 2.2643500776	 0.105721
H	 1.1098003398	 3.0798481773	 0.5032638877	 0.071718
H	 0.7082267381	 1.4819830187	-1.364186979	 0.110114
H	 1.3478588412	 0.2374217601	-0.2834247649	 0.106093
H	-1.5163876207	 0.5493174239	-0.9326545505	 0.100574
H	-1.2683380598	 2.9126651789	-0.2106555109	 0.108411
H	-1.5754716678	 2.3195112414	 1.4397227903	 0.112343
91.2833	196.5298	267.0867	320.8488	356.2954	376.7125	440.0932	515.2751	631.8478	701.5931	753.3143	790.9166	806.1939	836.5266	890.6665	929.9643	930.9488	962.271	988.3532	1059.063	1061.2007	1085.0391	1101.1578	1124.7006	1162.81	1177.1627	1237.6698	1238.8627	1263.0387	1278.5035	1297.8131	1313.3858	1343.3039	1358.8868	1390.872	1426.6296	1473.149	1481.3301	1501.3448	1522.877	1830.1356	3022.1543	3040.2579	3060.8297	3065.6157	3065.8696	3076.8917	3100.8403	3115.1465	3118.2948	3126.485
O=C1OCCC2CC1C2	O=C1OCC[C@H]2C[C@@H]1C2	
InChI=1S/C7H10O2/c8-7-6-3-5(4-6)1-2-9-7/h5-6H,1-4H2	InChI=1S/C7H10O2/c8-7-6-3-5(4-6)1-2-9-7/h5-6H,1-4H2/t5-,6+
