19
gdb 4571	3.4303227	1.0343097	0.9352597	1.2934	76.88	-0.24976	0.05147	0.30123	1313.8369	0.155132	-422.526459	-422.516858	-422.515914	-422.562168	33.962	
C	 5.2451779444	 2.1962188761	-1.3265361637	-0.418056
C	 4.6514371261	 1.3668629108	-0.1909876962	 0.106957
O	 4.8597999701	 1.975450928	 1.0866543417	-0.267513
C	 3.7444872659	 2.8002231821	 1.3499363634	 0.017865
O	 2.7090717433	 2.4351449735	 0.4556019494	-0.260888
C	 3.1178306323	 1.2630619183	-0.2389350305	 0.105262
C	 2.592121987	-0.0221894455	 0.4349229486	-0.388283
C	 1.1397274619	-0.0711878729	 0.5241511738	 0.303749
C	-0.0599817611	-0.1088630445	 0.5782652097	-0.435523
H	 5.1608881043	 1.6620628493	-2.2786973738	 0.117543
H	 4.7232866422	 3.1532339993	-1.4240125488	 0.131958
H	 6.3029281721	 2.3945423634	-1.1345351155	 0.12814
H	 5.1294491657	 0.3829385371	-0.1470087667	 0.089114
H	 3.4449449318	 2.6448511305	 2.395887926	 0.107295
H	 3.9759119017	 3.8638116774	 1.1878698321	 0.100677
H	 2.7217437905	 1.3350796363	-1.2559973162	 0.097891
H	 2.955813456	-0.8861710339	-0.1371665243	 0.128407
H	 3.0379295644	-0.0995531827	 1.434400368	 0.140926
H	-1.1196262086	-0.1389889826	 0.6357009628	 0.194479
30.9495	62.3383	118.514	127.915	225.9778	257.5498	294.1425	345.7843	363.8382	469.9792	553.9816	618.3568	637.4072	740.2721	754.0464	844.6304	867.8095	927.7637	958.1074	991.0248	1023.2658	1037.3894	1076.8963	1084.728	1141.2609	1154.9928	1159.083	1206.3165	1236.4665	1269.9151	1319.5108	1342.9088	1368.155	1398.4016	1406.4155	1437.8449	1465.4648	1489.8586	1495.7321	1560.6197	2242.3378	2983.1372	3018.3657	3020.4425	3038.9691	3054.4001	3059.6725	3078.556	3111.1466	3123.3313	3507.9996
CC1OCOC1CC#C	C[C@H]1OCO[C@@H]1CC#C	
InChI=1S/C7H10O2/c1-3-4-7-6(2)8-5-9-7/h1,6-7H,4-5H2,2H3	InChI=1S/C7H10O2/c1-3-4-7-6(2)8-5-9-7/h1,6-7H,4-5H2,2H3/t6-,7-/m1/s1
