19
gdb 1294	2.6996633	1.1583467	1.1084944	3.0447	75.57	-0.2582	-0.0122	0.246	1225.1458	0.15466	-422.503323	-422.494312	-422.493368	-422.537346	33.248	
C	-1.6533289055	-3.5742775237	 1.6362682183	-0.38824
C	-0.7705572928	-2.3675953756	 1.9880520799	-0.026041
C	-0.5207024187	-2.2794900591	 3.5009741333	-0.388244
C	-1.3989044753	-1.0775645915	 1.4739585185	 0.042086
C	-1.4173488989	-0.7080719573	-0.0370401836	-0.098639
O	-1.6065668622	 0.7128715259	 0.3567996506	-0.303262
C	-0.5867356652	 0.2414206639	 1.3302957124	-0.098642
C	 0.0981351062	-0.3702812254	 0.0734087688	 0.454316
O	 1.124710932	-0.4185482181	-0.5166802227	-0.311715
H	-2.6397154071	-3.4885088121	 2.1069022883	 0.117736
H	-1.8050608473	-3.6616413622	 0.5556256745	 0.117921
H	-1.1979747272	-4.5059793232	 1.9859342283	 0.119117
H	 0.2007012692	-2.5019421933	 1.4914027774	 0.091407
H	-0.05193068	-3.1957358177	 3.8730412276	 0.119116
H	 0.1371941895	-1.4415800798	 3.7530133091	 0.117922
H	-1.4618261965	-2.1418141936	 4.0460857348	 0.117736
H	-2.3761560689	-0.865208631	 1.9201558677	 0.093131
H	-2.0271965332	-1.0898009105	-0.8530886551	 0.112147
H	-0.2439244182	 0.9487037443	 2.0824903719	 0.112147
57.0344	110.4562	160.1713	223.3175	225.0451	265.7597	306.3534	419.9411	434.2671	437.4032	539.4636	639.8563	779.6673	798.2373	857.3357	868.029	886.0713	896.0856	928.8618	944.7336	970.9869	1011.9971	1021.0374	1122.2162	1130.776	1140.7778	1173.8548	1204.2674	1213.0182	1218.9729	1249.699	1302.3403	1346.9894	1400.9741	1407.24	1424.5684	1485.9625	1492.8234	1505.8849	1508.8351	1935.5189	3008.0686	3027.5754	3031.2533	3071.082	3094.0004	3099.0326	3103.9763	3106.7184	3150.3293	3154.8319
CC(C)C1C2OC1C2=O	CC(C)[C@@H]1[C@H]2O[C@@H]1C2=O	
InChI=1S/C7H10O2/c1-3(2)4-6-5(8)7(4)9-6/h3-4,6-7H,1-2H3	InChI=1S/C7H10O2/c1-3(2)4-6-5(8)7(4)9-6/h3-4,6-7H,1-2H3/t4-,6-,7+
