19
gdb 1242	1.8818586	1.4680361	0.9461019	1.2046	78.16	-0.2435	-0.02293	0.22057	1290.8687	0.151814	-422.545883	-422.53487	-422.533926	-422.582228	38.728	
C	 4.730708469	 0.1520064378	 1.7970255397	-0.422097
C	 3.2131294273	 0.2127541782	 1.6225627452	 0.133363
O	 2.5738121963	-0.8334551204	 2.3441504649	-0.435261
C	 2.7804605071	 0.0181448243	 0.154141684	-0.26719
C	 1.3276105889	-0.0112627323	 0.0009817753	 0.332753
C	 0.1384834418	 0.0212230495	-0.1719128058	-0.451074
C	 3.3163194991	 1.1334000238	-0.7814082032	 0.380547
C	 3.3015863566	 0.8117190048	-2.2603331499	-0.477164
O	 3.7111891144	 2.1869173669	-0.3452259438	-0.294842
H	 4.9858173738	 0.2352650827	 2.8594082186	 0.105824
H	 5.1205519218	-0.8047976505	 1.433380079	 0.116601
H	 5.2246400196	 0.9713368807	 1.271263758	 0.143172
H	 2.8461068354	 1.1949945846	 1.949335458	 0.093792
H	 2.780502416	-0.7156750321	 3.2764395296	 0.283251
H	 3.1842980903	-0.9438101453	-0.1930912704	 0.116476
H	-0.9158185164	 0.0255365789	-0.2989710115	 0.198651
H	 4.0583248147	 0.0459567584	-2.4705378453	 0.143181
H	 2.3329630821	 0.3989303666	-2.5552980033	 0.155858
H	 3.5277014822	 1.7081239834	-2.8385812293	 0.144158
53.0772	73.376	124.3773	137.6442	163.2094	189.2223	235.1243	254.0539	319.9393	343.8572	400.3048	405.8702	464.1574	527.6429	576.4614	609.649	623.0894	646.3183	826.7023	882.4344	930.78	957.0383	1000.4732	1051.775	1091.9483	1112.5825	1132.2884	1175.1955	1246.0134	1273.3737	1313.0507	1367.9231	1380.6227	1403.1161	1417.8051	1462.523	1475.1323	1492.4373	1504.9961	1817.866	2231.6807	3005.4106	3021.9937	3034.3238	3038.9332	3097.1883	3108.9845	3138.8916	3157.6533	3503.8232	3823.5578
CC(O)C(C#C)C(C)=O	C[C@H](O)[C@@H](C#C)C(=O)C	
InChI=1S/C7H10O2/c1-4-7(5(2)8)6(3)9/h1,5,7-8H,2-3H3	InChI=1S/C7H10O2/c1-4-7(5(2)8)6(3)9/h1,5,7-8H,2-3H3/t5-,7+/m0/s1
