19
gdb 5318	2.0971846	1.3188506	0.8564066	2.1891	81.8	-0.24817	-0.05834	0.18983	1338.9633	0.156791	-422.583079	-422.573827	-422.572883	-422.617782	33.048	
O	-0.3278184051	-0.3176467996	 1.1477008826	-0.40688
C	 0.3952978755	 0.4604672406	 0.1978694189	-0.18278
C	-0.3555200189	 0.5981498406	-1.0951028437	 0.202204
C	 0.0563601179	 0.319069678	-2.3499562309	 0.136139
C	-1.0333690961	 0.5684000445	-3.3717919528	-0.301429
C	-2.0876254565	 1.374431556	-2.5753785135	-0.223419
C	-1.7953065041	 1.0633832508	-1.0882517345	-0.281858
C	 1.3648416357	-0.2032548162	-2.7469503145	 0.056188
O	 1.6641870073	-0.4551653318	-3.8959239149	-0.2704
H	-0.3981692219	-1.2119382155	 0.7971499621	 0.287855
H	 0.4997816185	 1.4497038771	 0.660842697	 0.126355
H	 1.408227992	 0.0673205377	 0.0454996859	 0.105292
H	-0.6580806778	 1.0941422174	-4.2539227032	 0.123945
H	-1.4312828734	-0.388092739	-3.7354211202	 0.116151
H	-1.9429204095	 2.4441701546	-2.7569965309	 0.110052
H	-3.1135254113	 1.1347140756	-2.8642275732	 0.103971
H	-1.9498729336	 1.9212728008	-0.4237870181	 0.113155
H	-2.4370197909	 0.2640623471	-0.694389641	 0.121045
H	 2.0967631623	-0.3677927189	-1.9274730353	 0.064413
54.9789	119.3476	126.8393	154.1865	203.5487	243.8525	299.3248	358.5967	392.3682	510.1407	523.9087	634.3939	676.6586	754.3568	850.3686	885.1998	914.8277	929.7376	990.8047	1014.6081	1025.2994	1060.2564	1068.8088	1144.0454	1175.7533	1207.677	1223.2194	1236.5527	1269.9987	1321.7739	1328.4893	1368.6818	1378.8935	1408.3849	1429.6872	1473.394	1485.231	1494.4938	1504.4832	1684.8194	1770.6577	2894.0803	3020.8218	3024.0181	3027.055	3049.5944	3058.3917	3064.0356	3088.8985	3107.0469	3810.5962
OCC1=C(CCC1)C=O	OCC1=C(CCC1)C=O	
InChI=1S/C7H10O2/c8-4-6-2-1-3-7(6)5-9/h4,9H,1-3,5H2	InChI=1S/C7H10O2/c8-4-6-2-1-3-7(6)5-9/h4,9H,1-3,5H2
