19
gdb 4576	2.7683919	1.3797135	1.014183	3.4443	80.13	-0.25209	-0.05849	0.1936	1185.0554	0.158002	-422.595948	-422.587519	-422.586575	-422.628939	31.93	
O	-1.2392800386	-0.4402316249	 1.2114422003	-0.447635
C	-1.0739940999	 0.2359570297	-0.0318602429	 0.03521
C	-2.2204346671	 1.2370904511	-0.1955319794	-0.217503
C	-1.960147228	 2.5306194356	 0.5833048777	-0.208465
C	-0.6879402549	 3.2198849064	 0.0687827843	-0.256502
C	 0.4457711675	 2.2487912096	-0.0711992691	-0.126035
C	 0.2815996044	 0.9172661237	-0.0891979371	 0.21049
C	 1.4633097692	 0.0462306219	-0.0783772998	 0.089241
O	 1.4147837371	-1.154395165	 0.1073160364	-0.295777
H	-0.532279781	-1.0975830292	 1.2484908269	 0.295427
H	-1.1164669644	-0.495699693	-0.8532651906	 0.078453
H	-2.3411577549	 1.466413999	-1.2619037255	 0.094247
H	-3.1414001134	 0.7521963579	 0.1402330932	 0.113073
H	-2.814346274	 3.2100007174	 0.5052863883	 0.095678
H	-1.8349687964	 2.2860183111	 1.6439623578	 0.122956
H	-0.8734373208	 3.6934739886	-0.908264087	 0.121995
H	-0.3850987263	 4.0385093294	 0.7329976841	 0.11614
H	 1.455398727	 2.6550684496	-0.1346000108	 0.100835
H	 2.4383287347	 0.5604968609	-0.2279559768	 0.078173
86.8534	132.1443	199.7446	237.4729	282.1687	318.1361	393.7417	396.5153	505.5401	512.6621	559.2936	633.4464	701.9293	806.3881	816.3323	872.2046	889.5104	938.2834	969.1915	1010.19	1036.8048	1065.8642	1085.4369	1110.6691	1172.7181	1189.8874	1211.4577	1279.2288	1290.7463	1338.9658	1362.1554	1368.6967	1385.8469	1391.4856	1422.6097	1440.9423	1459.3963	1476.596	1493.537	1701.1699	1765.596	2888.0311	2979.6187	2992.3134	3031.4766	3041.514	3053.1969	3089.5029	3095.2002	3128.4243	3771.5929
OC1CCCC=C1C=O	O[C@H]1CCCC=C1C=O	
InChI=1S/C7H10O2/c8-5-6-3-1-2-4-7(6)9/h3,5,7,9H,1-2,4H2	InChI=1S/C7H10O2/c8-5-6-3-1-2-4-7(6)9/h3,5,7,9H,1-2,4H2/t7-/m0/s1
