19
gdb 4496	2.6705	1.5186695	1.1684151	3.0182	75.05	-0.23864	-0.02369	0.21495	1100.2476	0.157139	-422.574464	-422.566275	-422.565331	-422.607656	31.01	
C	-1.5664126207	-3.1589610035	-1.2613842984	-0.408931
C	-0.9104745272	-1.7781227698	-1.3033125786	 0.115122
O	-1.584848008	-0.8930779164	-2.2035743158	-0.263345
C	-2.6292467741	-0.2409647182	-1.4883573748	-0.102052
C	-2.0629588108	 0.0347282078	-0.0950665922	-0.038911
C	-0.9964055592	 1.1714943795	-0.0123580626	-0.362486
C	 0.0798471736	 0.0952868583	 0.1889360709	 0.411371
O	 1.2593524232	 0.1227409069	 0.3879600141	-0.296673
C	-0.9383548666	-1.0503637131	 0.0614803408	-0.175348
H	-0.9790722394	-3.8419854929	-0.6393463366	 0.120575
H	-2.579347667	-3.1130346054	-0.8482853234	 0.117449
H	-1.6256598381	-3.5734248519	-2.2715245739	 0.128654
H	 0.1133184612	-1.8731293317	-1.6798572205	 0.102963
H	-2.8920788164	 0.6633277567	-2.04527048	 0.112229
H	-3.5260420683	-0.8763571359	-1.4242701285	 0.092938
H	-2.8250694737	 0.0690066252	 0.6830912162	 0.081344
H	-0.866080609	 1.7594480444	-0.9268575988	 0.136449
H	-1.0951758552	 1.8599383876	 0.8319671349	 0.130944
H	-0.9691221844	-1.7366709675	 0.9100382872	 0.097708
47.1722	137.9717	182.7291	238.3513	288.5201	354.2285	423.2202	456.8382	523.8847	595.0974	703.626	727.8175	772.6693	821.833	856.0788	873.5805	943.2926	949.6084	994.7381	1005.0926	1036.8672	1068.1003	1089.1404	1114.8037	1124.5394	1156.2852	1167.9794	1224.9753	1228.8754	1238.4818	1261.2536	1314.1647	1325.3173	1373.5208	1393.9107	1401.5427	1430.1485	1486.7122	1494.7736	1517.9785	1890.0382	2983.7321	3037.0827	3052.8951	3056.8056	3082.4426	3096.6425	3105.1304	3108.4091	3118.9379	3120.0258
CC1OCC2CC(=O)C12	C[C@H]1OC[C@@H]2CC(=O)[C@H]12	
InChI=1S/C7H10O2/c1-4-7-5(3-9-4)2-6(7)8/h4-5,7H,2-3H2,1H3	InChI=1S/C7H10O2/c1-4-7-5(3-9-4)2-6(7)8/h4-5,7H,2-3H2,1H3/t4-,5+,7-/m1/s1
