19
gdb 5233	2.6098616	1.466277	1.2098458	2.2469	75.24	-0.23119	0.06835	0.29954000000000003	1109.5451	0.156196	-422.495363	-422.486715	-422.48577	-422.528794	32.418	
C	-1.2019921674	-3.8797770616	 0.6290926653	-0.532185
C	 0.052080926	-3.4095624344	 1.2902099053	 0.212355
C	 1.5331630089	-3.434308604	 0.8950090725	-0.197517
C	 1.9291415766	-4.1153091463	 2.2030628658	-0.237486
C	 0.6289964469	-3.487916516	 2.7640026634	 0.023509
O	 0.9053005684	-2.0585265185	 2.758461924	-0.343894
C	 0.8247550839	-2.1319042414	 1.327790278	 0.412205
C	 0.7885033941	-0.8486092309	 0.5693539665	-0.193797
O	 2.0183825331	-0.1436395156	 0.6465656182	-0.412106
H	-2.0932222719	-3.4681921287	 1.1158956455	 0.128921
H	-1.2231449636	-3.5716403812	-0.4217197147	 0.127806
H	-1.2815074896	-4.9727558119	 0.6512425922	 0.125565
H	 1.9583239894	-3.5523381639	-0.0941244585	 0.092833
H	 1.8561530236	-5.2037232915	 2.1289272981	 0.102509
H	 2.860134443	-3.824980238	 2.6999461334	 0.100086
H	 0.1353242095	-3.8306965666	 3.6715432464	 0.085658
H	 0.608871498	-1.0533844972	-0.4913143493	 0.113
H	-0.0464283532	-0.2319276109	 0.937130438	 0.098629
H	 2.2321958743	-0.0601965113	 1.58243479	 0.293909
64.6627	114.1919	197.5192	206.1899	248.536	286.022	352.9902	397.986	481.2571	571.6583	599.7035	700.5998	753.7764	807.115	829.9601	892.6295	910.1458	929.761	943.9731	968.2431	999.9239	1047.1779	1063.5556	1094.4058	1102.8517	1127.7365	1151.8278	1165.3395	1223.8197	1231.823	1269.0232	1289.3522	1326.2875	1375.1961	1412.9115	1419.6586	1481.456	1486.6808	1490.2655	1492.659	1507.8421	2985.1963	3023.2226	3047.8599	3076.0035	3083.6614	3094.1432	3108.4622	3139.0716	3195.5209	3808.2182
CC12C3CC1OC23CO	C[C@]12[C@@H]3C[C@H]1O[C@]23CO	
InChI=1S/C7H10O2/c1-6-4-2-5(6)9-7(4,6)3-8/h4-5,8H,2-3H2,1H3	InChI=1S/C7H10O2/c1-6-4-2-5(6)9-7(4,6)3-8/h4-5,8H,2-3H2,1H3/t4-,5+,6-,7-/m0/s1
