19
gdb 2014	3.2346052	1.3327771	1.1000781	3.8735	75.	-0.24136	-0.01416	0.22719999999999999	1153.1272	0.156805	-422.581749	-422.573327	-422.572383	-422.614838	31.935	
C	-3.9094126355	-0.1101662203	 2.0034023195	-0.467965
C	-2.4641063474	-0.0216852107	 1.5683017781	 0.385102
C	-1.7646663394	-1.3502632698	 1.2978695128	-0.277034
C	-0.7390169261	-1.3022725153	 0.1467420748	-0.304466
C	 0.0815593401	-0.0228074392	 0.134890478	 0.390079
O	 1.2880143685	-0.0096612074	 0.1421588107	-0.304142
C	-0.7489838044	 1.2545893891	 0.0509543521	-0.337371
C	-1.950893687	 1.2271497973	 0.9674391735	-0.002168
O	-1.6688274804	 0.9054495728	 2.3328202083	-0.286567
H	-4.0045317634	-0.7552981097	 2.8839388227	 0.129743
H	-4.2964527351	 0.8783067253	 2.2622344183	 0.129723
H	-4.5316433239	-0.5353619467	 1.2085263533	 0.120772
H	-1.2674575937	-1.6502559767	 2.2270098714	 0.13168
H	-2.5111020664	-2.1205211845	 1.0795058089	 0.10692
H	-0.0599465168	-2.1565469812	 0.1807966946	 0.123988
H	-1.2800245965	-1.339593524	-0.8094025882	 0.116213
H	-0.1061995986	 2.11015888	 0.2776365761	 0.135075
H	-1.0906767138	 1.3653116908	-0.9883834134	 0.122743
H	-2.6497264103	 2.0563155202	 0.8408632083	 0.087675
67.652	115.4572	202.7705	234.9482	314.2475	360.7043	392.0621	407.1237	486.5264	519.5351	548.6237	681.2393	710.2345	768.5408	776.4423	860.5146	906.5943	913.3531	979.1586	1020.0474	1026.4569	1054.7949	1072.2326	1121.966	1169.9924	1209.2237	1232.3332	1244.3662	1257.9594	1310.9587	1330.1599	1352.9452	1387.0777	1412.8775	1449.4726	1464.749	1471.1956	1484.9932	1489.517	1503.0126	1829.4622	3013.1005	3019.7208	3032.4521	3043.8399	3083.6316	3087.6818	3093.9056	3096.0603	3113.368	3124.0938	67.6521	115.4574	202.7703	234.9481	314.2475	360.7044	392.0623	407.1239	486.5265	519.5352	548.6238	681.2394	710.2345	768.5408	776.4428	860.5149	906.5944	913.3532	979.159	1020.0476	1026.457	1054.7951	1072.2329	1121.9662	1169.9927	1209.224	1232.3336	1244.3663	1257.9595	1310.9588	1330.16	1352.9455	1387.0778	1412.8777	1449.473	1464.7494	1471.1955	1484.9933	1489.5173	1503.0129	1829.4625	3013.1005	3019.7209	3032.4521	3043.8399	3083.6316	3087.6819	3093.9056	3096.0603	3113.368	3124.0938
CC12CCC(=O)CC1O2	C[C@@]12CCC(=O)C[C@@H]1O2	
InChI=1S/C7H10O2/c1-7-3-2-5(8)4-6(7)9-7/h6H,2-4H2,1H3	InChI=1S/C7H10O2/c1-7-3-2-5(8)4-6(7)9-7/h6H,2-4H2,1H3/t6-,7+/m0/s1
