19
gdb 4392	2.2475443	1.3873066	1.1501855	2.7504	75.87	-0.24477	-0.03714	0.20762999999999998	1163.3716	0.156068	-422.604542	-422.595462	-422.594517	-422.6392	32.709	
C	-0.1061733427	 1.9199626546	 1.0936382284	-0.402152
C	-0.9492208011	 1.3169045895	-0.047520352	-0.085468
C	-2.3257251788	 0.7977701698	 0.4068143512	-0.236972
C	-2.0803704305	-0.6556044006	 0.8771642891	-0.235662
C	-0.9735241642	-1.1868828309	-0.0385563572	-0.192723
C	 0.0281504006	-2.1309165497	 0.6004584864	 0.147214
O	-0.0255781839	-2.5020859123	 1.7443308373	-0.239579
C	-0.2434403236	 0.0684160323	-0.5849055767	 0.386492
O	 0.7258684963	 0.0426313657	-1.2971393145	-0.323454
H	-0.0004348285	 1.2218658321	 1.9307755585	 0.131729
H	 0.8952595233	 2.1749910245	 0.7369022661	 0.139343
H	-0.5824866107	 2.8285029396	 1.4738047553	 0.124686
H	-1.018113965	 2.0507982602	-0.8558002233	 0.100404
H	-2.7696427295	 1.4174357543	 1.190592658	 0.106378
H	-3.0202208761	 0.8026142465	-0.4409753625	 0.103876
H	-1.7249609785	-0.6846398817	 1.9113892654	 0.132066
H	-2.986847939	-1.2632079357	 0.8380014858	 0.110685
H	-1.3644228637	-1.7027450299	-0.9276185636	 0.126087
H	 0.8488337254	-2.4426955685	-0.0780494918	 0.10705
33.6781	103.5642	146.9565	200.1638	215.4852	246.8162	292.7256	349.7611	481.2383	541.2222	595.7274	634.3864	696.4381	767.5706	813.0843	880.2277	899.8164	932.8381	964.9488	990.7162	1020.5883	1043.5185	1103.8559	1129.1241	1156.9413	1175.4772	1212.2033	1214.6263	1287.2185	1300.8916	1327.2152	1342.5726	1348.7163	1404.7267	1414.6497	1489.817	1498.304	1502.3284	1508.5083	1813.1839	1843.1707	2925.5057	3016.8224	3037.8479	3040.8084	3067.2529	3069.6541	3093.0833	3108.4444	3114.2606	3122.1369
CC1CCC(C=O)C1=O	C[C@@H]1CC[C@H](C=O)C1=O	
InChI=1S/C7H10O2/c1-5-2-3-6(4-8)7(5)9/h4-6H,2-3H2,1H3	InChI=1S/C7H10O2/c1-5-2-3-6(4-8)7(5)9/h4-6H,2-3H2,1H3/t5-,6-/m1/s1
