19
gdb 4781	2.5020014	1.0035471	0.830675	1.9805	80.08	-0.27637	-0.03898	0.23739	1463.1856	0.153263	-422.556531	-422.546012	-422.545068	-422.592716	36.858	
C	 0.6361424988	-1.1004073623	-0.1130335896	-0.390408
C	 0.644942809	 0.3300651092	-0.6570849042	-0.183209
C	 1.6659869978	 1.2390391613	 0.0202374555	 0.143553
C	 1.7228351937	 2.642251308	-0.5723165308	-0.411991
O	 1.2680301148	 1.3232143009	 1.4213143967	-0.24759
C	 2.2346910835	 1.5830426633	 2.3140682511	 0.303239
O	 3.4004691126	 1.7612511764	 2.0566975147	-0.361296
C	 1.6930069558	 1.6196437755	 3.6574127435	 0.221841
C	 1.2981585811	 1.6627105116	 4.7912835671	-0.361101
H	 0.4024854204	-1.1106879877	 0.9549043203	 0.132551
H	-0.1113469649	-1.7098860601	-0.6290632272	 0.115517
H	 1.6108630227	-1.5818838829	-0.2490141498	 0.116996
H	 0.8728016305	 0.3228108157	-1.7296924763	 0.102564
H	-0.3491347212	 0.7815328618	-0.5516499907	 0.10796
H	 2.6616675414	 0.7854873683	-0.0064397726	 0.110491
H	 2.4630887343	 3.2510803618	-0.0489182028	 0.143114
H	 2.0083414894	 2.5892547597	-1.6273854734	 0.121536
H	 0.7460782086	 3.1310269662	-0.5030164081	 0.12467
H	 0.9495159318	 1.7011764832	 5.7945140867	 0.211563
53.8127	67.2619	117.1733	126.8736	212.2678	216.765	226.794	256.7581	289.1681	371.6519	422.7755	485.3613	537.7306	607.4518	654.3138	698.1873	773.0207	777.3513	838.9087	881.9921	945.7887	981.2769	1007.3106	1035.5409	1137.2671	1143.1116	1200.7479	1254.4632	1300.1086	1330.4338	1384.4892	1398.5416	1407.0788	1410.6864	1474.5344	1488.8522	1496.9421	1502.4679	1509.2512	1783.8962	2236.3814	3030.4708	3038.4993	3044.865	3061.1298	3075.2924	3105.408	3116.3348	3121.6536	3134.5126	3498.4583
CCC(C)OC(=O)C#C	CC[C@@H](C)OC(=O)C#C	
InChI=1S/C7H10O2/c1-4-6(3)9-7(8)5-2/h2,6H,4H2,1,3H3	InChI=1S/C7H10O2/c1-4-6(3)9-7(8)5-2/h2,6H,4H2,1,3H3/t6-/m1/s1
