19
gdb 2022	3.6054626	1.2885471	1.178168	2.1811	74.89	-0.21917	0.07534	0.29451	1106.6361	0.156525	-422.525761	-422.517733	-422.516788	-422.557821	32.274	
O	-2.9569944948	-1.1513860963	 1.5878669629	-0.468913
C	-1.7611327296	-1.3297529014	 0.8957341169	 0.363148
C	-1.5264501454	-2.5925945042	 0.0852601098	-0.388207
C	-1.7310096245	-1.2507169045	-0.5966109664	 0.058205
O	-0.6087161502	-0.5317166566	-1.03312808	-0.289586
C	 0.2840825012	-0.4322654257	 0.0666706142	 0.445566
C	 1.4572536564	 0.4672349934	-0.1211594263	-0.34371
C	 1.6527882098	-1.0401975867	-0.1038536643	-0.31771
C	-0.5262694887	-0.5614739128	 1.3532447025	-0.378085
H	-2.9533821219	-1.7439780598	 2.3475802258	 0.282937
H	-0.545996278	-3.0560716561	 0.0754508719	 0.121698
H	-2.3667494479	-3.2764809567	 0.0273684246	 0.114384
H	-2.6112098293	-1.0703200896	-1.2007263921	 0.111211
H	 1.5369569231	 0.9687941367	-1.0790217593	 0.127515
H	 1.8028216097	 1.0482056141	 0.7272684297	 0.11549
H	 1.859075885	-1.5223456839	-1.0526979003	 0.121874
H	 2.1356706602	-1.489890067	 0.7581755841	 0.107796
H	 0.043074364	-1.0547455112	 2.1473939095	 0.100056
H	-0.8590765591	 0.4157247885	 1.7214622569	 0.116331
99.8859	201.2215	259.4878	297.3933	337.5236	386.6949	387.8303	433.0468	453.7025	528.9072	618.7002	715.9823	766.9198	780.1824	856.3379	864.751	904.2295	919.2821	924.7917	936.6274	988.8736	1001.5627	1022.1338	1047.7797	1052.33	1075.1894	1081.7847	1154.2257	1179.2622	1190.7071	1212.0955	1238.3436	1283.7396	1296.877	1345.5051	1373.6351	1408.9894	1451.2686	1472.6924	1496.1735	1504.2155	3037.1876	3082.7025	3126.2534	3130.8842	3134.4257	3199.017	3214.8587	3225.5287	3229.1372	3793.7404
OC12CC1OC1(CC1)C2	O[C@@]12C[C@@H]1OC1(CC1)C2	
InChI=1S/C7H10O2/c8-7-3-5(7)9-6(4-7)1-2-6/h5,8H,1-4H2	InChI=1S/C7H10O2/c8-7-3-5(7)9-6(4-7)1-2-6/h5,8H,1-4H2/t5-,7+/m0/s1
