19
gdb 1083	3.7834009	1.1276953	1.0194622	2.2566	77.3	-0.24397	-0.0218	0.22216999999999998	1236.5139	0.153659	-422.521749	-422.512379	-422.511435	-422.556719	34.151	
C	 5.4947327239	 1.5658066567	 0.8986747492	-0.485634
C	 4.6931152928	 0.6890163881	-0.0339535352	 0.245382
O	 5.1562026303	-0.2351848243	-0.6629020313	-0.306987
C	 3.2309989383	 1.0183736694	-0.1613067621	 0.334471
C	 2.0040346785	 0.1583712867	 0.2421015586	-0.282603
C	 1.5198717938	 1.5746244028	-0.1708495776	 0.388045
C	 0.177072536	 2.213673076	-0.0126524419	-0.509651
C	 2.4527594172	 1.5105261587	-1.4103361768	-0.282592
O	 2.661135085	 2.1476044772	 0.6079330704	-0.377015
H	 5.0644392795	 1.5271010294	 1.90534994	 0.152441
H	 6.535591821	 1.2413350856	 0.9141066022	 0.137834
H	 5.4218259303	 2.6111562398	 0.5794145867	 0.152399
H	 1.7451104034	-0.6874200872	-0.3978792411	 0.108634
H	 1.9312509767	-0.0653349541	 1.3073433751	 0.10754
H	-0.1515657885	 2.1625205592	 1.0296575512	 0.135748
H	 0.2146418655	 3.2645465597	-0.3147895296	 0.135765
H	-0.5615483328	 1.6994362663	-0.6353580201	 0.130044
H	 2.2319891172	 0.7796477821	-2.1907642091	 0.108638
H	 2.7750490619	 2.4772152778	-1.7998531085	 0.10754
24.7066	125.9296	136.9026	153.4898	190.043	296.3649	320.8806	342.605	459.3181	533.4599	561.0461	610.3294	610.482	635.0451	715.0601	781.1798	911.3121	934.1221	940.248	964.8253	983.9682	1020.4353	1053.5162	1067.3148	1096.8302	1116.2752	1158.6313	1169.3912	1190.5791	1199.4991	1284.4807	1365.7591	1384.3854	1414.9055	1454.5866	1461.2332	1466.4957	1476.5028	1488.3277	1518.4611	1806.7515	3040.5574	3041.6847	3067.6318	3075.263	3102.165	3115.6059	3116.8561	3149.2553	3154.9516	3157.9955
CC(=O)C12CC(C)(C1)O2	CC(=O)[C@]12C[C@](C)(C1)O2	
InChI=1S/C7H10O2/c1-5(8)7-3-6(2,4-7)9-7/h3-4H2,1-2H3	InChI=1S/C7H10O2/c1-5(8)7-3-6(2,4-7)9-7/h3-4H2,1-2H3/t6-,7+
