19
gdb 3853	3.7021685	1.2162108	1.1610081	1.5953	75.5	-0.23028	0.07166	0.30194	1179.1138	0.156478	-422.474184	-422.466294	-422.46535	-422.506759	31.032	
O	-0.2401125798	-0.0499765012	-0.1625962069	-0.438741
C	-0.4939738928	 0.8315996824	 0.9170312472	 0.120092
C	-1.8107917625	 1.5925340516	 0.6263457236	-0.334923
C	-2.536796032	 0.5986480684	 1.5622544442	 0.455844
C	-1.1814762216	 0.1403554235	 2.1321213303	-0.344006
C	-3.8249204361	 0.8053895352	 2.3888473917	-0.046084
C	-4.6688368815	 0.698802471	 1.0965837593	-0.234195
C	-3.6051897435	-0.4238337143	 1.1060833075	-0.011534
O	-3.9186042743	-0.6698220755	 2.5362770764	-0.3221
H	 0.431559148	-0.6787501028	 0.1213048747	 0.282177
H	 0.3866018233	 1.4473927122	 1.1412194937	 0.061555
H	-1.7978782997	 2.6118415835	 1.0230981072	 0.102292
H	-2.1029385893	 1.6170825226	-0.4255849551	 0.114656
H	-0.9391746126	 0.629285112	 3.081109932	 0.098972
H	-1.0201654618	-0.935116329	 2.2364895616	 0.105623
H	-3.9894279751	 1.4108061205	 3.2818256205	 0.086826
H	-5.6948553335	 0.3609103578	 1.2456603252	 0.106249
H	-4.5814281395	 1.4921603093	 0.3505068858	 0.100672
H	-3.497758736	-1.2921571674	 0.455404241	 0.096627
52.2979	185.5246	221.7947	292.5177	328.5716	372.8459	407.1488	480.9456	547.631	645.1249	724.6397	773.1476	820.1637	843.7982	847.5271	880.6676	902.8094	919.1333	948.4343	991.2557	1015.1255	1021.2018	1069.8554	1093.4138	1123.401	1138.5035	1159.1831	1170.3638	1191.6791	1194.3182	1203.7459	1239.3918	1244.1236	1270.7586	1280.9532	1329.3489	1347.4586	1412.6241	1453.3953	1476.4811	1485.146	3008.7414	3051.331	3060.9084	3066.829	3103.297	3110.8472	3117.5213	3119.6264	3148.5597	3809.4635	52.2983	185.5246	221.7947	292.5181	328.5723	372.8459	407.1488	480.9456	547.631	645.1247	724.6396	773.1475	820.1636	843.7982	847.5271	880.6672	902.8094	919.1332	948.4344	991.2557	1015.1253	1021.2016	1069.8553	1093.4137	1123.401	1138.5034	1159.1831	1170.3635	1191.679	1194.318	1203.7457	1239.3918	1244.1236	1270.7585	1280.9531	1329.349	1347.4586	1412.6242	1453.3953	1476.4811	1485.1455	3008.7414	3051.331	3060.9084	3066.8289	3103.297	3110.8472	3117.5213	3119.6264	3148.5597	3809.4638
OC1CC2(C1)C1CC2O1	O[C@H]1C[C@@]2(C1)[C@H]1C[C@@H]2O1	
InChI=1S/C7H10O2/c8-4-2-7(3-4)5-1-6(7)9-5/h4-6,8H,1-3H2	InChI=1S/C7H10O2/c8-4-2-7(3-4)5-1-6(7)9-5/h4-6,8H,1-3H2/t4-,5-,6+,7-/m0/s1
