19
gdb 1999	2.9436621	1.7146047	1.6059668	0.4422	73.19	-0.23741	0.0797	0.31711	927.0688	0.159492	-422.547523	-422.540541	-422.539597	-422.578258	29.457	
O	 0.1995621178	 0.0899114283	-0.0366326701	-0.472878
C	-1.0439465188	 0.3315146693	 0.54625928	 0.398709
C	-1.8113342421	 1.5947082456	 0.2906368229	-0.366113
C	-2.3081226701	 0.2656174682	-0.2728337684	-0.097324
C	-3.2438790113	-0.6574462689	 0.54342214	-0.055411
C	-3.6705609626	 0.0419045346	 1.8391763013	-0.090942
O	-2.4310628357	 0.1821375913	 2.5665419163	-0.278058
C	-1.4279932159	-0.5024442249	 1.7976878281	 0.030789
C	-2.2120861731	-1.652464149	 1.1460576838	-0.22897
H	 0.8501670006	 0.6438247644	 0.4089783964	 0.283389
H	-2.3187554235	 2.0893436036	 1.1090316693	 0.130015
H	-1.37799977	 2.2605988679	-0.449227872	 0.108689
H	-2.260326528	 0.1321017057	-1.3472367932	 0.094599
H	-4.0698143667	-1.0829841145	-0.0266489316	 0.068171
H	-4.1155141199	 1.0293850019	 1.6778307711	 0.101666
H	-4.3738992899	-0.5667836713	 2.4219635107	 0.096094
H	-0.5911955282	-0.7459831677	 2.4529116222	 0.071601
H	-1.6328837557	-2.1792843673	 0.3848552995	 0.112088
H	-2.6324478969	-2.3625020273	 1.8647470741	 0.093886
205.9399	280.9953	317.4688	327.7799	386.9746	453.1023	480.3059	514.4891	578.0964	696.4503	754.1514	782.4707	841.37	888.7835	896.6212	906.8803	925.6438	948.9477	961.3559	968.3521	1005.1643	1014.3396	1038.0897	1069.1104	1088.2932	1099.2554	1139.9044	1169.4011	1210.1073	1231.6235	1244.8048	1269.7945	1279.3046	1295.3606	1319.5257	1325.4911	1379.8202	1399.7836	1483.6269	1491.1261	1532.7095	3017.1393	3059.3952	3066.3115	3115.4707	3119.8366	3124.9979	3137.0497	3181.4989	3229.9042	3791.5774
OC12CC1C1COC2C1	O[C@@]12C[C@@H]1[C@@H]1CO[C@H]2C1	
InChI=1S/C7H10O2/c8-7-2-5(7)4-1-6(7)9-3-4/h4-6,8H,1-3H2	InChI=1S/C7H10O2/c8-7-2-5(7)4-1-6(7)9-3-4/h4-6,8H,1-3H2/t4-,5+,6-,7-/m0/s1
