19
gdb 3343	2.4735596	1.5084339	1.1050417	2.2944	76.54	-0.22314	0.0653	0.28844000000000003	1144.7742	0.156329	-422.490635	-422.482175	-422.481231	-422.523725	32.288	
O	 2.2198408361	 0.3667858869	 2.5003003236	-0.429031
C	 1.2132705362	 1.2961875155	 2.7691951124	 0.023228
C	 1.5787860179	 2.757204268	 2.5354287914	-0.251636
C	 0.3486384132	 3.6078763613	 2.7913802553	-0.10096
O	-0.460548926	 2.7735155959	 1.9128706628	-0.328307
C	 0.6908662143	 1.9968693817	 1.5530987704	 0.466915
C	 0.8247574667	 1.5405620385	 0.1548559087	-0.103709
C	-0.4257305412	 1.2620047599	-0.6484995211	-0.266618
C	 0.4377195711	 2.4504311326	-0.984674209	-0.273669
H	 2.8996756909	 0.4523006866	 3.1771687476	 0.291063
H	 0.5162432906	 1.0301350379	 3.567944823	 0.086692
H	 2.6049607931	 3.0890044872	 2.4452245684	 0.09986
H	-0.0527430239	 3.6342130989	 3.8120412673	 0.103089
H	 0.4191511399	 4.627716432	 2.3965790793	 0.111528
H	 1.6658084105	 0.8731281175	 0.006025067	 0.103505
H	-0.41909258	 0.4051426887	-1.3126362052	 0.11062
H	-1.3780747764	 1.4599356835	-0.1705426621	 0.13133
H	 1.0386923383	 2.4212010457	-1.8867471033	 0.107354
H	 0.0496197888	 3.4292764517	-0.7264152669	 0.118746
76.2284	141.157	178.7095	238.3586	280.7596	301.6773	332.9301	443.2472	472.0973	549.8066	644.7784	749.9188	792.2076	819.3259	882.4799	892.0285	921.2732	950.3969	962.3384	983.2363	990.5653	1035.2673	1059.1062	1069.9813	1085.4683	1107.3362	1135.1462	1149.5983	1160.7501	1195.7956	1202.5284	1217.3162	1255.6531	1276.6282	1300.7472	1349.1502	1400.325	1461.6818	1480.6073	1511.3933	1520.0254	3018.7155	3065.4034	3067.0256	3135.9101	3141.156	3180.7546	3198.1464	3219.2582	3234.4431	3798.1984
OC1C2COC12C1CC1	O[C@H]1[C@@H]2CO[C@]12C1CC1	
InChI=1S/C7H10O2/c8-6-5-3-9-7(5,6)4-1-2-4/h4-6,8H,1-3H2	InChI=1S/C7H10O2/c8-6-5-3-9-7(5,6)4-1-2-4/h4-6,8H,1-3H2/t5-,6-,7-/m0/s1
