19
gdb 2285	2.2204831	1.816598	1.6247781	2.5095	73.94	-0.22704	-0.02126	0.20578	970.9614	0.158088	-422.584703	-422.576639	-422.575694	-422.617005	30.877	
C	-0.4872376724	 2.5268536276	-0.0422401494	-0.485055
C	-1.013975981	 1.1085232154	-0.0010574141	 0.155495
C	-1.89102538	 0.7129069018	 1.2225043639	-0.257221
C	-1.872240982	-0.8593313316	 1.2217933348	-0.237529
C	-0.9896446685	-1.1781211008	 0.004149726	-0.001676
O	-1.710015409	-0.8340220749	-1.1859875039	-0.28812
C	-1.7573137666	 0.6139976327	-1.2565613091	-0.097752
C	 0.0228260571	-0.0267559983	 0.0841290759	 0.40689
O	 1.2142154529	 0.0032504247	 0.2012589152	-0.327302
H	 0.1160175236	 2.7383367543	 0.8458195829	 0.131017
H	 0.1494270342	 2.6831420678	-0.9186603826	 0.128446
H	-1.3027962813	 3.256639405	-0.0798456934	 0.117534
H	-1.4598416407	 1.114830032	 2.1439040465	 0.110696
H	-2.9022241352	 1.1186561025	 1.1264536633	 0.108562
H	-1.4407346175	-1.2590195054	 2.144502134	 0.112921
H	-2.8656428979	-1.2938045738	 1.0908705438	 0.117756
H	-0.6019961975	-2.1906682561	-0.0855832594	 0.095409
H	-1.262654207	 0.9451406054	-2.1789612892	 0.107631
H	-2.8041657912	 0.9420662016	-1.2846525854	 0.102297
132.1679	145.1232	172.8608	223.0897	304.2303	316.2942	388.9964	481.1545	557.9438	589.0731	664.285	753.5722	770.5862	833.4869	871.6662	873.0839	905.9813	942.5101	967.1558	1004.4696	1023.3258	1056.8774	1082.2032	1128.9726	1171.82	1185.8494	1218.5696	1219.7771	1263.244	1274.2863	1290.2692	1318.0174	1334.9831	1396.7952	1417.1117	1472.7621	1490.4968	1491.5039	1499.8555	1529.2394	1888.6194	3006.1045	3036.0314	3045.3819	3049.4944	3060.9278	3091.7655	3103.0102	3110.067	3116.5668	3149.2225
CC12CCC(OC1)C2=O	C[C@@]12CC[C@@H](OC1)C2=O	
InChI=1S/C7H10O2/c1-7-3-2-5(6(7)8)9-4-7/h5H,2-4H2,1H3	InChI=1S/C7H10O2/c1-7-3-2-5(6(7)8)9-4-7/h5H,2-4H2,1H3/t5-,7-/m1/s1
