19
gdb 643	4.1349447	0.9452585	0.8682278	3.3971	76.78	-0.24875	-0.0205	0.22825	1375.8301	0.15667	-422.533168	-422.524255	-422.523311	-422.568629	31.398	
O	-0.0715846082	 2.2115429528	-2.4685978603	-0.333947
C	-0.575838216	 1.318703677	-1.8177462999	 0.375469
C	-1.6780950856	 0.4740722446	-2.3602260783	-0.105548
C	-2.6757938951	 1.1471728242	-3.2956414273	-0.248401
C	-1.6773331001	 0.1983146615	-3.8582501694	-0.249226
C	-0.112397263	 0.9811327513	-0.4132734266	-0.160714
C	 1.1322406469	 1.7188615058	 0.1059493101	-0.089322
O	 1.8928886644	 0.4895833292	 0.1696883184	-0.268326
C	 0.7794398784	-0.2895659201	-0.2911789996	-0.074183
H	-2.0559019287	-0.305557533	-1.7077983288	 0.08844
H	-3.7111475062	 0.8370555084	-3.2154442357	 0.120437
H	-2.5122894364	 2.2048672454	-3.4666899537	 0.140747
H	-2.0055616271	-0.7838052104	-4.178199021	 0.120429
H	-0.8429904951	 0.6190056055	-4.4073913041	 0.141788
H	-0.9736958604	 0.9729071774	 0.2603289148	 0.099904
H	 1.5548572016	 2.4337552348	-0.6063706577	 0.129588
H	 1.0308478608	 2.1868325808	 1.0918160016	 0.099143
H	 0.9952476027	-0.8085912866	-1.2338991465	 0.109485
H	 0.4472823272	-1.0243710485	 0.452717664	 0.104234
34.3739	55.7713	76.8601	158.8011	226.8411	273.7149	313.999	371.528	599.1577	719.0869	755.9826	802.2641	826.3184	829.4882	880.3227	886.7137	896.6927	954.6161	1017.5518	1033.8627	1050.231	1066.2649	1092.4698	1101.5747	1116.6456	1128.8708	1135.4464	1162.2834	1167.8098	1211.0201	1223.1119	1228.352	1307.8657	1341.3218	1376.1875	1410.153	1454.1001	1485.1043	1510.9384	1536.2821	1782.0843	3007.8548	3032.0522	3049.1651	3074.6908	3093.7683	3142.2275	3143.6445	3169.04	3230.1629	3244.5713
O=C(C1CC1)C1COC1	O=C(C1CC1)C1COC1	
InChI=1S/C7H10O2/c8-7(5-1-2-5)6-3-9-4-6/h5-6H,1-4H2	InChI=1S/C7H10O2/c8-7(5-1-2-5)6-3-9-4-6/h5-6H,1-4H2
