19
gdb 3974	2.9507212	1.3792261	1.105635	3.9489	75.87	-0.23213	-0.03193	0.2002	1144.0253	0.155014	-422.544382	-422.535542	-422.534598	-422.577761	33.173	
C	-4.0405913492	 0.93639036	 1.3074496172	-0.413567
C	-2.6651844665	 0.3055630144	 1.2141586066	 0.116219
O	-1.6226299943	 1.2923760104	 1.4645469474	-0.308251
C	-1.0944009338	 1.1730629399	 0.1262106758	-0.054003
C	 0.0737840884	 0.1649894769	 0.1276383446	 0.425149
O	 1.2613918766	 0.2630848333	 0.2160697341	-0.291504
C	-0.8906209227	-1.0199761912	-0.0936010226	-0.424809
C	-2.0793054752	-0.0104516139	-0.1874352664	 0.270998
C	-2.9703960626	-0.1068042856	-1.4053393776	-0.499467
H	-4.1997377056	 1.3169643067	 2.3209434886	 0.133267
H	-4.144707106	 1.7736862816	 0.611578675	 0.123914
H	-4.8222583767	 0.1998519114	 1.0921747862	 0.118401
H	-2.586597543	-0.5280419969	 1.9252470109	 0.078783
H	-1.0075072881	 2.1303326403	-0.3957297254	 0.087442
H	-0.6740416181	-1.5412260911	-1.0323025663	 0.131993
H	-0.9339922599	-1.7607952505	 0.7103463052	 0.130123
H	-3.559740804	-1.0310032942	-1.3886033505	 0.126245
H	-3.6673607946	 0.7330100408	-1.4737482228	 0.126287
H	-2.3731314548	-0.1181185223	-2.3234864	 0.122778
66.9691	136.0774	208.4861	221.9602	263.2186	292.1949	335.4261	361.3286	430.876	453.3587	534.2757	613.0442	647.5081	778.5555	802.7734	871.3922	878.2832	901.7875	949.6487	1005.9318	1046.0442	1065.6988	1080.3384	1086.3612	1118.1095	1154.123	1163.6219	1204.3329	1238.7534	1257.7729	1296.5181	1333.8656	1385.1899	1408.8633	1419.1876	1437.5841	1480.9264	1488.0289	1498.5818	1504.3235	1894.9936	3010.306	3030.0818	3038.1732	3049.2622	3074.1575	3089.9653	3103.0216	3109.8299	3110.3477	3120.17
CC1OC2C(=O)CC12C	C[C@@H]1O[C@H]2C(=O)C[C@@]12C	
InChI=1S/C7H10O2/c1-4-7(2)3-5(8)6(7)9-4/h4,6H,3H2,1-2H3	InChI=1S/C7H10O2/c1-4-7(2)3-5(8)6(7)9-4/h4,6H,3H2,1-2H3/t4-,6-,7-/m0/s1
