19
gdb 834	4.6410308	0.8916874	0.8625086	2.1953	76.32	-0.24928	-0.02652	0.22276	1364.9873	0.155956	-422.527625	-422.518885	-422.517941	-422.562462	31.168	
O	 1.0937571975	-0.3775452932	-0.1033389686	-0.241702
C	-0.0363120612	-0.2683501399	-0.509485385	 0.138329
C	-0.7573891131	 1.0375314319	-0.6923776616	-0.070965
C	-1.7775905628	 1.395786466	 0.4484434111	-0.320829
C	-1.1970457967	 2.8318376449	 0.4647505456	 0.309328
C	-2.0629342364	 4.0124017807	-0.0276550554	-0.12469
O	-1.897852144	 4.7158611964	 1.217941269	-0.272523
C	-1.0625238692	 3.6668313603	 1.7490190922	-0.136155
C	 0.0071289006	 2.3436457638	-0.374222929	-0.315576
H	-0.6463103212	-1.1713587796	-0.7447295978	 0.076478
H	-1.2526855793	 1.040258403	-1.6690335064	 0.09194
H	-2.8402593034	 1.2907469443	 0.2171745857	 0.112584
H	-1.563569265	 0.8545040911	 1.3755260295	 0.116782
H	-1.650927433	 4.5757362172	-0.8761283287	 0.09977
H	-3.1168742689	 3.7792475558	-0.2322964444	 0.098041
H	-0.0470984485	 4.0205885407	 1.9725694595	 0.103545
H	-1.490958218	 3.2163891953	 2.6545861042	 0.099912
H	 0.3017203033	 2.9682608586	-1.2209683694	 0.107086
H	 0.8911553394	 2.1317961029	 0.2335367294	 0.128645
45.7306	59.1603	83.802	202.0658	261.8517	269.3696	375.8567	393.1527	471.4712	633.0848	730.1237	819.6185	843.4964	865.4848	882.9053	915.4682	932.3963	954.7217	983.0497	1001.6211	1041.7455	1063.9146	1106.9138	1142.3686	1150.2537	1159.1391	1199.2878	1216.8714	1234.2359	1240.1033	1259.9763	1302.6672	1309.8789	1355.4124	1387.6119	1422.19	1471.0773	1490.0176	1507.258	1532.1936	1822.0412	2862.8357	2990.3508	3003.5719	3036.5787	3042.0613	3049.94	3056.3237	3062.8192	3109.4737	3117.3249
O=CC1CC2(COC2)C1	O=CC1CC2(COC2)C1	
InChI=1S/C7H10O2/c8-3-6-1-7(2-6)4-9-5-7/h3,6H,1-2,4-5H2	InChI=1S/C7H10O2/c8-3-6-1-7(2-6)4-9-5-7/h3,6H,1-2,4-5H2
