19
gdb 2491	2.2956056	1.6758035	1.4569756	3.3392	74.83	-0.22572	-0.02906	0.19666	1020.9323	0.156566	-422.57615	-422.567726	-422.566782	-422.60939	31.746	
C	-1.0727599768	 1.9956666804	 1.2678860741	-0.46509
C	-1.1366544402	 1.0949510382	 0.0535207283	 0.313667
O	-1.350787711	 1.8761849264	-1.1078471324	-0.282423
C	-1.9440462498	 1.0410372128	-2.0986859029	-0.100613
C	-2.8820781792	 0.0961671648	-1.3261427545	-0.230912
C	-2.1364050515	-0.1240955907	-0.0025063302	-0.091073
C	-0.9508859724	-1.1343852	-0.0358377448	-0.369268
C	 0.0266464859	 0.0537676331	-0.0789880177	 0.357088
O	 1.2120033425	 0.1546211481	-0.1964247103	-0.295827
H	-0.927285495	 1.4130409036	 2.1825447227	 0.118479
H	-0.2359515172	 2.6929268543	 1.1697981169	 0.145216
H	-1.9992107805	 2.5706277313	 1.3590371865	 0.125328
H	-2.4573033534	 1.6876342645	-2.8142342553	 0.115329
H	-1.1713036794	 0.4756681849	-2.6426671378	 0.102491
H	-3.8379972003	 0.5941751775	-1.1380541607	 0.111371
H	-3.0847843827	-0.8315161156	-1.8685834865	 0.105732
H	-2.8031329889	-0.2356184669	 0.8524628277	 0.078802
H	-0.8394959866	-1.744873749	 0.8656254943	 0.133695
H	-0.8964021937	-1.7986391578	-0.9046474672	 0.128008
46.7406	161.3239	194.1468	211.3231	272.8995	286.0446	368.1637	474.0303	514.6346	572.2636	626.5981	668.8999	754.0229	783.5499	827.8595	896.5331	909.9326	920.7357	957.8127	1016.3143	1030.845	1043.2815	1083.9167	1113.4141	1147.4769	1170.7735	1188.4207	1214.2953	1221.0718	1253.9987	1293.3853	1312.066	1339.6034	1384.9301	1402.9055	1432.1062	1477.9823	1486.1183	1489.9471	1520.9439	1891.2812	2983.9534	3040.2272	3050.0946	3054.9853	3097.5537	3098.4882	3104.9205	3113.5848	3115.5291	3121.0635
CC12OCCC1CC2=O	C[C@]12OCC[C@H]1CC2=O	
InChI=1S/C7H10O2/c1-7-5(2-3-9-7)4-6(7)8/h5H,2-4H2,1H3	InChI=1S/C7H10O2/c1-7-5(2-3-9-7)4-6(7)8/h5H,2-4H2,1H3/t5-,7-/m0/s1
