19
gdb 1905	2.1257897	1.6969581	1.3626732	2.3745	76.04	-0.23336	-0.00789	0.22547	1051.5776	0.154538	-422.555211	-422.545913	-422.544969	-422.588499	35.209	
C	-1.1527431348	-1.9423470437	 1.3446209013	-0.456805
C	-0.9439913717	-1.0536225885	 0.1209483924	 0.087413
C	-0.6749484458	-1.8948989468	-1.1341488465	-0.458987
C	 0.1395689594	 0.070766665	 0.1941132706	 0.421997
O	 1.3364831401	 0.0067315063	 0.2782529592	-0.339407
C	-0.8248180157	 1.1688510319	-0.0918936939	-0.293685
C	-1.9904720378	 1.0879837018	 0.9070827814	-0.332365
C	-1.9619140277	 0.0802099676	-0.1636894214	 0.408227
O	-3.0231251057	-0.0151673476	-1.0297590719	-0.450834
H	-1.9674860955	-2.655746803	 1.1778607024	 0.120512
H	-0.2419483095	-2.5134481243	 1.5519285745	 0.133784
H	-1.3920374276	-1.3637276372	 2.2408959707	 0.119101
H	 0.2162546104	-2.5110855793	-0.9893235276	 0.143101
H	-1.519463625	-2.5614367735	-1.3440690228	 0.120001
H	-0.49517763	-1.2697065884	-2.0171017926	 0.114644
H	-0.6430210163	 2.0761987079	-0.6548895951	 0.111488
H	-1.8137164116	 0.841353827	 1.9496870476	 0.124355
H	-2.7211240714	 1.8763888962	 0.753909161	 0.134029
H	-2.7189065539	-0.4311907813	-1.8446001092	 0.293432
107.1124	170.6646	181.2253	212.8637	234.9447	277.7577	291.3469	339.9908	388.7617	408.6569	484.4294	522.6114	597.0882	679.4973	707.6825	739.8902	762.5112	872.0006	931.7373	955.6964	958.286	987.6424	1010.2763	1041.9716	1073.5867	1114.9142	1174.5452	1190.3976	1194.7244	1240.6652	1265.5921	1345.3247	1391.2033	1415.7459	1429.6377	1481.7225	1486.1308	1501.2877	1506.2892	1514.2193	1867.8381	3020.5396	3033.4238	3083.5898	3098.8589	3110.9066	3115.9672	3121.1558	3193.1184	3207.0568	3796.4992
CC1(C)C(=O)C2CC12O	CC1(C)C(=O)[C@@H]2C[C@]12O	
InChI=1S/C7H10O2/c1-6(2)5(8)4-3-7(4,6)9/h4,9H,3H2,1-2H3	InChI=1S/C7H10O2/c1-6(2)5(8)4-3-7(4,6)9/h4,9H,3H2,1-2H3/t4-,7+/m0/s1
