19
gdb 3098	2.8549392	1.599453	1.1871321	3.0256	75.14	-0.23586	0.07022	0.30608	1056.5909	0.157452	-422.483833	-422.476011	-422.475067	-422.516003	30.475	
O	 0.8601381738	 0.8768719237	 0.5191527751	-0.434928
C	-0.5304261444	 0.6774763784	 0.5443004586	 0.149592
C	-1.2396668173	 0.2779856323	 1.879499077	-0.176918
C	-2.5180016435	 0.9124969587	 1.2596216417	-0.245398
C	-1.3706540623	 1.9156662374	 0.9362725718	-0.146158
C	-0.8913735575	 1.6993684572	 2.3994802694	 0.381365
C	 0.449557076	 2.1492634748	 2.9956668596	-0.168378
O	-0.2215533579	 2.7412081324	 4.1316259114	-0.283035
C	-1.5201547341	 2.3596790364	 3.6386348021	-0.175625
H	 1.2882176215	 0.0197418809	 0.4304937616	 0.286857
H	-0.877025959	 0.1370961391	-0.3470001742	 0.066066
H	-1.1623425142	-0.6646632174	 2.424832697	 0.071015
H	-2.9684290154	 0.3900128987	 0.4111822643	 0.093129
H	-3.2778826863	 1.2568707024	 1.9625481644	 0.107628
H	-1.4424401623	 2.8600580509	 0.3951178295	 0.078106
H	 1.1336084923	 1.3464530438	 3.2950966054	 0.094228
H	 1.0077206412	 2.8897069548	 2.4122906651	 0.108113
H	-2.0426156773	 1.6851900978	 4.3312187208	 0.096668
H	-2.1608703233	 3.2314688777	 3.4462986793	 0.097673
101.4077	181.1152	202.9127	269.1558	324.1766	335.6957	384.238	465.7443	555.8307	649.3711	774.6528	782.3746	862.7993	884.3445	888.0978	899.3461	960.1963	980.4105	1017.8645	1022.836	1031.5097	1073.2817	1081.1923	1103.8235	1141.7207	1149.4464	1153.5764	1156.7773	1180.4495	1196.0384	1201.5095	1228.2278	1250.0297	1299.4011	1303.9415	1321.2792	1389.2199	1436.2101	1505.6591	1519.3923	1530.7126	2991.1376	3010.5879	3025.115	3029.8304	3059.796	3068.5042	3095.2024	3108.6836	3130.1421	3822.6596
OC1C2CC1C21COC1	O[C@H]1[C@@H]2C[C@H]1C12COC1	
InChI=1S/C7H10O2/c8-6-4-1-5(6)7(4)2-9-3-7/h4-6,8H,1-3H2	InChI=1S/C7H10O2/c8-6-4-1-5(6)7(4)2-9-3-7/h4-6,8H,1-3H2/t4-,5+,6-
