19
gdb 533	2.5211269	1.9478872	1.321996	2.2789	73.79	-0.24823	0.06166	0.30989	992.7282	0.159018	-422.529433	-422.522111	-422.521167	-422.561427	28.504	
C	-1.6846753675	 2.4900111707	 0.8689822506	-0.100367
O	-1.6415323086	 1.6796756885	-0.3325997936	-0.32218
C	-0.2661825723	 1.3694938683	-0.1222299569	 0.392718
C	 0.7637028238	 1.4714345041	-1.2487250406	-0.153072
O	 1.3549170864	 0.2145166093	-0.8502072533	-0.298472
C	 0.2809870864	-0.0567249576	 0.0916231113	 0.066415
C	 0.7343141927	-0.1414463343	 1.5595003188	-0.236122
C	-0.0214370964	 1.0030451135	 2.2876338116	-0.23723
C	-0.232301143	 2.1088154052	 1.2291393839	-0.131919
H	-1.8493390451	 3.5463820935	 0.62754197	 0.105586
H	-2.4609704411	 2.1522368651	 1.5653335061	 0.104681
H	 0.3059351804	 1.4152410082	-2.2452207868	 0.110208
H	 1.4788713548	 2.3022121615	-1.2195138996	 0.101519
H	-0.3471796355	-0.8892546313	-0.2429794221	 0.082909
H	 0.5469051056	-1.1158776705	 2.0181571713	 0.10327
H	 1.8147223277	 0.0323200367	 1.5801733569	 0.11843
H	-0.9946145823	 0.6377235032	 2.6353755125	 0.106363
H	 0.5159948641	 1.3568843766	 3.1713308471	 0.105409
H	 0.4668053099	 2.9406957592	 1.3290325129	 0.081852
94.2634	106.3288	248.6997	306.4289	377.3922	441.3421	522.8445	558.9397	616.9599	790.5179	811.0561	820.3015	864.712	885.8324	921.655	950.8449	986.9342	1002.1051	1007.2855	1037.8416	1059.8345	1067.7031	1116.6734	1128.2793	1156.9227	1162.3218	1188.0584	1204.3821	1218.8413	1250.7255	1269.589	1314.247	1317.8754	1327.4168	1344.1632	1361.375	1362.7922	1484.9784	1499.7141	1511.8677	1523.3038	3010.4757	3022.2904	3041.8479	3050.9876	3058.1268	3060.9469	3068.709	3086.4506	3102.0377	3109.9872
C1OC23COC2CCC13	C1O[C@]23CO[C@H]2CC[C@H]13	
InChI=1S/C7H10O2/c1-2-6-7(4-8-6)5(1)3-9-7/h5-6H,1-4H2	InChI=1S/C7H10O2/c1-2-6-7(4-8-6)5(1)3-9-7/h5-6H,1-4H2/t5-,6+,7+/m1/s1
