19
gdb 5348	2.7893267	1.510579	1.213357	2.7105	76.34	-0.22806	0.00853	0.23659000000000002	1074.6469	0.157579	-422.53183	-422.523648	-422.522704	-422.564239	32.313	
O	 1.6121241575	 1.0589459466	 0.2678707002	-0.42472
C	 0.8882516498	-0.0488835286	 0.7890339449	-0.207861
C	-0.577940168	 0.2211343872	 0.8393011395	 0.283634
C	-1.6661004529	-0.3925159141	 0.3693162569	-0.223409
C	-2.8114717525	 0.5335689655	 0.8082025784	-0.074514
C	-2.1985160123	 1.9360901834	 0.4506725662	-0.239082
C	-1.1740351292	 1.4755192561	 1.5256242558	 0.305267
O	-0.2842732351	 2.4086158945	 2.0852476588	-0.491334
C	-2.3893410699	 0.8489690734	 2.2869005865	-0.271707
H	 1.3293700101	 1.8290823332	 0.7789504997	 0.28987
H	 1.1004819019	-0.9048389929	 0.1405680431	 0.116524
H	 1.2572988262	-0.3142986859	 1.7971377727	 0.079136
H	-1.7579686766	-1.3108533488	-0.1942050563	 0.103214
H	-3.8345503679	 0.2712678437	 0.5497593718	 0.071937
H	-1.827392505	 2.0812735006	-0.5652559019	 0.106309
H	-2.8139258068	 2.7787113346	 0.7797505375	 0.098469
H	 0.0101151925	 2.0740293899	 2.9395628779	 0.288121
H	-2.1933077489	-0.0007096487	 2.9458487951	 0.091556
H	-3.0241360528	 1.5961034402	 2.7734261031	 0.09859
99.6896	145.2812	222.7873	249.5906	315.3069	384.9272	433.5569	484.5843	515.1263	551.6214	585.5535	649.1206	681.7508	781.552	794.623	840.2635	894.0037	913.2314	918.6748	961.7158	991.5471	1017.242	1043.4504	1059.924	1076.6729	1127.9982	1153.8702	1171.3094	1199.6423	1221.401	1238.8103	1247.9817	1263.562	1318.4609	1337.604	1370.9515	1447.4391	1478.0283	1499.7686	1519.3356	1698.7945	2924.3525	3045.8902	3060.3752	3074.0699	3117.1571	3134.0484	3146.1138	3223.1496	3755.3334	3806.794
OCC1=CC2CC1(O)C2	OCC1=C[C@@H]2C[C@@]1(O)C2	
InChI=1S/C7H10O2/c8-4-6-1-5-2-7(6,9)3-5/h1,5,8-9H,2-4H2	InChI=1S/C7H10O2/c8-4-6-1-5-2-7(6,9)3-5/h1,5,8-9H,2-4H2/t5-,7-
