19
gdb 2505	2.6735529	1.9886768	1.4377092	1.8312	73.74	-0.24546	0.08749	0.33295	954.4103	0.158557	-422.530448	-422.523095	-422.522151	-422.561693	29.704	
C	 0.066879858	-0.1682357512	 0.1158239751	-0.468843
C	 1.5681055427	-0.0312316562	 0.1432523377	 0.435028
O	 2.1427358228	-0.603447651	 1.3066430353	-0.293006
C	 3.0159631208	-1.6558412824	 0.9737682891	 0.011461
O	 4.1493178368	-1.2161809771	 0.2602843412	-0.266526
C	 3.8274472631	-0.2065139461	-0.6855131691	 0.104971
C	 3.6838233678	 1.2438118408	-0.1072118734	-0.256718
C	 2.1941772889	 1.2067081721	-0.4378531449	-0.11882
C	 2.3542728513	-0.1640253497	-1.1289291916	-0.188459
H	-0.3707641217	 0.2972472277	 1.0043861396	 0.131593
H	-0.3558127732	 0.3146362768	-0.7700837229	 0.118522
H	-0.2276884754	-1.2227785767	 0.1068314823	 0.122277
H	 3.3722578284	-2.0957521484	 1.9077770179	 0.115649
H	 2.4722679057	-2.411971366	 0.3828666927	 0.081388
H	 4.5576980179	-0.2847306824	-1.4916226184	 0.089724
H	 3.953527849	 1.3591079828	 0.9448112493	 0.110005
H	 4.2314022756	 1.9703578193	-0.7122126437	 0.101008
H	 1.5855375613	 2.0465957115	-0.7505210092	 0.085735
H	 1.9361201902	-0.5486719638	-2.051629257	 0.085012
179.6052	217.7744	246.9298	268.7819	354.6782	391.8363	490.946	518.0302	541.773	666.3624	698.3701	804.9716	829.1401	842.3338	858.2363	917.6484	962.5487	973.3958	1000.6266	1009.0294	1039.0765	1043.8126	1079.2884	1107.6222	1124.1541	1137.5819	1174.1392	1205.3512	1239.3155	1252.1605	1272.1294	1288.8378	1300.1597	1369.8292	1409.1043	1419.1671	1443.3208	1478.4606	1480.8109	1501.6705	1520.3918	2956.4244	3036.1141	3065.3408	3101.4588	3103.1306	3106.5962	3114.7929	3124.2348	3174.807	3187.1877
CC12OCOC3CC1C23	C[C@]12OCO[C@@H]3C[C@H]1[C@H]23	
InChI=1S/C7H10O2/c1-7-4-2-5(6(4)7)8-3-9-7/h4-6H,2-3H2,1H3	InChI=1S/C7H10O2/c1-7-4-2-5(6(4)7)8-3-9-7/h4-6H,2-3H2,1H3/t4-,5+,6-,7-/m0/s1
