19
gdb 4657	2.1922803	0.975317	0.6990766	3.252	80.93	-0.24909	-0.02629	0.2228	1614.5011	0.152824	-422.550528	-422.539382	-422.538438	-422.589307	37.516	
C	 1.608454306	-0.1528149746	 0.0491107142	-0.498785
C	 0.1577450552	-0.0537732083	 0.124965117	 0.052489
C	-1.0426706062	 0.0250429701	 0.1830668392	 0.079214
C	-2.4953924269	 0.1455653105	 0.2868418648	-0.269566
C	-2.9457181499	 0.7862082091	 1.6140290115	-0.382341
C	-3.232494874	-1.1795496416	 0.028488933	 0.367433
O	-4.3410641576	-1.3835320385	 0.4733424062	-0.324934
C	-2.5786861211	-2.233631011	-0.8493484064	-0.136187
O	-3.4492985863	-3.296275616	-1.0995047542	-0.423675
H	 2.0771685921	 0.1846126865	 0.9798864111	 0.153058
H	 1.9268985128	-1.1861026978	-0.1265818056	 0.152963
H	 2.0072606123	 0.4610369488	-0.765749987	 0.152024
H	-2.8426937994	 0.7935686439	-0.535679642	 0.139158
H	-2.5991347541	 0.1903432617	 2.462281661	 0.131514
H	-2.5280033492	 1.7910174426	 1.7054148935	 0.125031
H	-4.0349450172	 0.8385107238	 1.6505952367	 0.141084
H	-2.2460502368	-1.7561530996	-1.7848894981	 0.120426
H	-1.6596154255	-2.566175858	-0.3403991697	 0.127904
H	-4.2427178042	-3.1030474516	-0.5752121553	 0.29319
20.591	27.0411	77.3923	110.7264	144.6878	207.5539	214.0398	288.3571	308.0586	328.8451	395.4675	402.718	451.565	484.3753	541.9921	657.7813	744.1362	838.9603	944.5895	970.3175	1048.8367	1052.9929	1059.6397	1082.7776	1125.2587	1165.979	1186.6807	1236.2416	1282.9522	1306.0047	1315.7591	1403.8406	1415.2137	1449.0573	1477.1439	1478.0396	1480.5635	1490.3388	1497.5878	1792.45	2369.1871	2971.2335	2985.2639	3001.7027	3029.6375	3058.1126	3091.6231	3092.0689	3132.571	3149.3655	3688.5667
CC#CC(C)C(=O)CO	CC#C[C@H](C)C(=O)CO	
InChI=1S/C7H10O2/c1-3-4-6(2)7(9)5-8/h6,8H,5H2,1-2H3	InChI=1S/C7H10O2/c1-3-4-6(2)7(9)5-8/h6,8H,5H2,1-2H3/t6-/m0/s1
