19
gdb 996	2.0221638	1.0791931	0.7377662	1.7493	81.48	-0.2447	-0.02333	0.22137	1529.997	0.152283	-422.540533	-422.529148	-422.528203	-422.579289	38.021	
C	 1.5225981387	-0.0018701332	-0.0128519832	-0.501225
C	 0.0682267026	-0.0306667417	-0.0479911831	 0.115682
C	-1.1355263401	-0.0586263637	-0.0906727182	 0.010474
C	-2.5984501383	-0.0955641467	-0.0794888627	-0.055407
O	-3.1645010106	 1.1888153493	 0.1650183871	-0.418038
C	-3.1259872867	-1.1500676014	 0.9336611784	-0.070712
C	-4.6624091402	-1.2074896689	 0.9074756025	-0.418648
C	-2.5687770043	-2.5210898739	 0.6031064434	 0.166027
O	-2.0301065636	-3.2587450229	 1.3861160349	-0.250513
H	 1.9153363261	-0.7143333845	 0.7202393061	 0.158562
H	 1.9469405766	-0.2567993791	-0.9898557866	 0.154958
H	 1.889455044	 0.9939779257	 0.2584734971	 0.153261
H	-2.9641826791	-0.3718352244	-1.0776562192	 0.115626
H	-2.686610595	 1.5747850984	 0.9076569147	 0.285723
H	-2.7703897507	-0.8849624173	 1.9350255271	 0.093086
H	-5.0418299363	-1.8522590731	 1.7044947928	 0.128028
H	-5.0689433798	-0.2021841888	 1.0349626982	 0.143643
H	-5.0260272553	-1.5994123602	-0.0498149176	 0.119339
H	-2.730444488	-2.8305008735	-0.4579710619	 0.070131
19.4765	51.2846	59.5534	94.8982	141.6728	214.5329	221.9418	275.3278	293.0034	301.7198	340.4535	352.8897	409.4124	475.4257	565.469	572.5681	789.261	895.2103	911.6669	949.5491	1039.8819	1052.0723	1053.0082	1091.636	1111.3962	1150.9609	1173.8085	1235.1426	1287.3154	1307.4791	1360.7989	1396.5195	1412.7744	1420.7569	1433.1372	1474.7702	1477.5604	1493.3719	1502.5053	1835.2663	2365.121	2839.1058	3018.901	3030.902	3035.4436	3062.1014	3093.2891	3095.584	3107.2366	3136.5289	3805.2008	19.4664	51.2845	59.5534	94.8981	141.673	214.5341	221.9421	275.3283	293.0035	301.7201	340.4537	352.8901	409.4127	475.4259	565.4691	572.5683	789.2611	895.2104	911.667	949.5492	1039.8822	1052.0725	1053.0083	1091.6361	1111.3962	1150.9608	1173.8086	1235.1424	1287.3152	1307.4788	1360.7987	1396.5192	1412.7746	1420.7567	1433.1372	1474.7706	1477.5608	1493.3714	1502.5047	1835.2664	2365.1211	2839.1059	3018.901	3030.902	3035.4436	3062.1014	3093.2891	3095.584	3107.2366	3136.5289	3805.2012
CC#CC(O)C(C)C=O	CC#C[C@H](O)[C@@H](C)C=O	
InChI=1S/C7H10O2/c1-3-4-7(9)6(2)5-8/h5-7,9H,1-2H3	InChI=1S/C7H10O2/c1-3-4-7(9)6(2)5-8/h5-7,9H,1-2H3/t6-,7-/m0/s1
