19
gdb 2715	2.2748237	1.5946857	1.4000377	2.608	74.8	-0.21602	0.05729	0.27331	1053.8407	0.154234	-422.478012	-422.468961	-422.468017	-422.510983	34.529	
C	-0.109957772	 0.1325567142	 0.0478095431	-0.428402
C	 1.3941625207	-0.0123228994	-0.0533072559	-0.090752
C	 2.1941070021	-0.2226796193	 1.2308710033	 0.183113
C	 1.6387360102	-0.6270737624	 2.5649469582	-0.505925
C	 3.7160286038	-0.3931398984	 0.8843825905	-0.030055
O	 3.9340097394	-0.3395349976	-0.5361269379	-0.236445
C	 3.7580805669	 0.886916429	 0.1887956327	-0.063
C	 2.2333905372	 1.1133979564	 0.4825142972	 0.285675
O	 1.6843808141	 2.3490024257	 0.7653418736	-0.45101
H	-0.4088986568	 0.7622290937	 0.8890950485	 0.12338
H	-0.5027023862	 0.6007267028	-0.8603200767	 0.12472
H	-0.591703545	-0.8449573742	 0.1561603605	 0.115011
H	 1.7417759203	-0.5217930625	-0.9456916368	 0.108561
H	 1.593560851	-1.7193024206	 2.6600533404	 0.125818
H	 2.2585449519	-0.2546432535	 3.3900679738	 0.112389
H	 0.6263911113	-0.2426797804	 2.7142927082	 0.128997
H	 4.456453513	-0.9117131889	 1.4834637206	 0.103898
H	 4.5273562353	 1.6467032198	 0.1006934081	 0.105324
H	 2.0619273827	 2.6759410255	 1.5894701887	 0.288702
141.935	163.2031	179.6465	224.5936	253.2565	283.2108	295.4927	319.3622	360.711	457.8845	543.2906	573.0331	615.4449	730.7962	752.6935	793.4954	816.9111	847.1041	881.4723	969.6049	996.4019	1034.9026	1049.908	1065.6592	1091.6774	1121.9801	1161.4212	1173.5012	1194.7802	1231.7756	1282.5732	1341.2084	1346.0002	1370.3844	1410.9245	1419.8513	1459.7434	1485.917	1495.0194	1496.6713	1513.3202	3016.393	3038.8638	3064.8414	3098.7676	3110.1831	3120.8853	3166.354	3168.3369	3183.6534	3788.7158
CC1C2(C)C3OC3C12O	C[C@@H]1[C@@]2(C)[C@H]3O[C@H]3[C@@]12O	
InChI=1S/C7H10O2/c1-3-6(2)4-5(9-4)7(3,6)8/h3-5,8H,1-2H3	InChI=1S/C7H10O2/c1-3-6(2)4-5(9-4)7(3,6)8/h3-5,8H,1-2H3/t3-,4+,5-,6+,7+/m1/s1
