19
gdb 1229	3.4854633	0.7008929	0.6602318	1.6538	82.86	-0.23817	0.03225	0.27042	1768.579	0.153824	-422.509864	-422.499434	-422.49849	-422.546482	37.402	
C	 4.020919926	 1.5356264204	-1.9491750681	-0.38386
C	 3.7228296993	 0.1246617806	-1.4202671789	-0.023248
O	 3.4899800873	-0.7952182553	-2.4865678726	-0.413902
C	 2.6222993831	 0.1358256667	-0.4522695739	 0.01786
C	 1.6944260266	 0.1646937514	 0.3186921023	 0.057546
C	 0.5994617318	 0.1260019743	 1.2527514913	 0.234033
O	 0.697059889	-0.8461851142	 2.2619394342	-0.444541
C	-0.7980928877	 0.4867285442	 0.7685866286	-0.31182
C	-0.0564639511	 1.4041840709	 1.7070484253	-0.288896
H	 4.3005990166	 2.2072873015	-1.1325225022	 0.126638
H	 4.8404020799	 1.4863142634	-2.6707915992	 0.126082
H	 3.1388726758	 1.9526780383	-2.4461583563	 0.114972
H	 4.622415949	-0.2599851309	-0.9242749211	 0.120006
H	 2.6270451318	-0.5861155249	-2.8611109875	 0.280293
H	 0.7620891498	-1.7060010852	 1.830868171	 0.285733
H	-0.9221447864	 0.7863994768	-0.2653939122	 0.120176
H	-1.6020133235	-0.1098455296	 1.1842880519	 0.123421
H	 0.3344980822	 2.3386828791	 1.3241042073	 0.126683
H	-0.3661513897	 1.4179900126	 2.7455259702	 0.132826
23.6429	77.3017	88.4624	190.9798	207.8785	251.974	284.0196	295.9143	324.6585	377.0055	403.5926	504.0854	512.838	568.788	589.1763	642.3297	774.994	822.7229	883.243	897.8145	924.4973	974.0808	1003.5924	1044.6553	1053.3871	1081.223	1089.1367	1135.5886	1193.6564	1239.4593	1279.5967	1304.8628	1336.5901	1382.3991	1397.7034	1416.2768	1448.3208	1486.6166	1487.9391	1492.0462	2343.8689	3036.2765	3040.5078	3114.0596	3128.202	3140.1478	3148.0019	3230.7455	3246.142	3796.7029	3803.8413
CC(O)C#CC1(O)CC1	C[C@H](O)C#CC1(O)CC1	
InChI=1S/C7H10O2/c1-6(8)2-3-7(9)4-5-7/h6,8-9H,4-5H2,1H3	InChI=1S/C7H10O2/c1-6(8)2-3-7(9)4-5-7/h6,8-9H,4-5H2,1H3/t6-/m0/s1
