19
gdb 2499	2.6812348	2.0716375	1.4014117	1.5273	74.26	-0.24639	0.09719	0.34358	951.9332	0.158778	-422.517813	-422.510663	-422.509719	-422.548866	29.263	
C	 0.0211444599	 0.1726897237	 0.2677810723	-0.473969
C	 1.4043342057	-0.386128458	 0.0007512193	 0.465955
O	 2.1698466082	-0.0927623925	 1.1664427332	-0.316655
C	 3.2622412607	-0.9550251371	 1.319128729	 0.009633
O	 3.9729170824	-1.1134570331	 0.1160551658	-0.272033
C	 3.0776260974	-1.303770349	-0.9481544763	 0.150838
C	 2.1492969869	-0.1162463989	-1.3504542398	-0.139425
C	 1.2445147058	-1.1881007229	-2.0108867947	-0.260748
C	 1.6242605813	-1.8103606131	-0.6427844828	-0.179903
H	-0.4399686077	-0.3555618613	 1.1077900113	 0.124298
H	 0.1072239046	 1.2269144747	 0.5474555768	 0.131947
H	-0.6416350833	 0.0997108722	-0.5953616148	 0.119453
H	 3.9384162457	-0.515315755	 2.0558774386	 0.117675
H	 2.9137705031	-1.9422364162	 1.6697101596	 0.083124
H	 3.6162322402	-1.7996354941	-1.7583028409	 0.08449
H	 2.4545065625	 0.850760052	-1.7513754274	 0.075071
H	 0.1976841265	-0.9385289779	-2.1752510398	 0.104344
H	 1.6659317739	-1.689361415	-2.8861956177	 0.098985
H	 1.3135447461	-2.7824303485	-0.2568914018	 0.07692
180.3299	203.8509	268.4932	359.3998	367.939	445.027	465.3143	534.8699	567.5122	648.472	743.6332	784.497	796.0446	885.0325	898.9461	910.9113	918.448	996.0048	1007.2319	1027.0088	1081.7082	1084.3028	1086.2774	1096.5579	1142.4451	1158.0903	1167.2472	1186.0779	1208.4882	1232.985	1243.749	1254.9243	1281.3798	1316.0184	1395.8895	1416.1519	1450.4744	1482.1625	1494.1476	1525.1979	1529.0065	2947.4714	3049.8475	3070.3043	3091.5151	3102.6627	3103.4773	3111.2749	3115.821	3139.3461	3154.1135
CC12OCOC3C1CC23	C[C@]12OCO[C@@H]3[C@H]1C[C@H]23	
InChI=1S/C7H10O2/c1-7-4-2-5(7)6(4)8-3-9-7/h4-6H,2-3H2,1H3	InChI=1S/C7H10O2/c1-7-4-2-5(7)6(4)8-3-9-7/h4-6H,2-3H2,1H3/t4-,5+,6-,7+
