19
gdb 5761	4.1024236	1.1035061	0.9660953	2.8431	76.01	-0.24431	0.00574	0.25005	1238.2394	0.15845	-422.552159	-422.544163	-422.543219	-422.585085	30.397	
O	 1.6720084017	 0.6087832039	 0.1184024442	-0.422244
C	 0.3478244145	 0.1718573103	-0.1109935764	-0.071648
C	 0.0592694549	 0.1095564685	-1.6008278529	 0.123976
O	 0.3021786954	 1.4168678284	-2.1911827796	-0.332284
C	-1.0556523733	 1.4617008928	-2.7211612982	 0.095075
C	-1.1380761206	 1.1804670839	-4.1953593967	-0.083217
C	-1.5422404758	-0.0670458181	-4.4368516374	-0.055505
C	-1.8306275606	-0.8563883928	-3.1787581416	-0.286204
C	-1.4181708594	 0.1099515111	-2.0521405689	-0.111044
H	 1.77238046	 1.4156308991	-0.4025651125	 0.293664
H	 0.249153512	-0.8223867512	 0.3402488172	 0.104807
H	-0.3865068825	 0.8374935415	 0.373085541	 0.080623
H	 0.689341004	-0.6532119135	-2.0778738408	 0.080697
H	-1.5602976916	 2.3812787412	-2.4058830587	 0.080145
H	-0.8777618872	 1.9172761395	-4.9463725038	 0.101186
H	-1.6649862996	-0.4994971624	-5.4245959079	 0.100959
H	-2.890843359	-1.1330099384	-3.1152308248	 0.110851
H	-1.2683038771	-1.7988485485	-3.1469403494	 0.11172
H	-2.1291471159	 0.1471243747	-1.2254014627	 0.078443
72.1737	112.527	164.9308	274.1526	290.0396	354.171	465.1978	481.4258	554.9699	666.7866	737.1023	769.3268	834.7609	859.372	881.796	916.231	946.4235	964.4262	981.2347	1006.743	1025.049	1041.1283	1079.8075	1091.889	1108.2429	1131.0512	1179.1373	1217.504	1222.7437	1244.626	1282.1965	1302.7206	1328.8577	1336.8345	1356.7502	1380.9727	1399.8564	1436.5184	1484.6243	1497.7248	1676.8297	2962.934	3016.3327	3019.6912	3043.8324	3048.0104	3063.8282	3096.9562	3181.9631	3210.6479	3778.9356
OCC1OC2C=CCC12	OC[C@@H]1O[C@H]2C=CC[C@@H]12	
InChI=1S/C7H10O2/c8-4-7-5-2-1-3-6(5)9-7/h1,3,5-8H,2,4H2	InChI=1S/C7H10O2/c8-4-7-5-2-1-3-6(5)9-7/h1,3,5-8H,2,4H2/t5-,6+,7+/m1/s1
