19
gdb 5503	3.9046973	0.9308518	0.8614456	3.8377	75.78	-0.23876	-0.01507	0.22369	1372.0654	0.156864	-422.576538	-422.567868	-422.566924	-422.610367	32.246	
O	 2.6286508466	-0.8372188361	-1.6386921694	-0.419203
C	 2.0094680302	 0.2632930191	-0.9869841034	-0.111394
C	 1.1192654556	 0.960583867	-1.9796809574	-0.001707
C	-0.0992742583	 1.7016357882	-1.485146194	-0.07442
C	-0.6083057797	 2.8421296335	-2.3416524089	-0.337698
C	-0.8692234732	 2.2294456628	-3.7299911543	 0.379358
O	-1.0544413281	 2.8519913293	-4.7418604072	-0.304389
C	-0.8592554936	 0.6953729324	-3.6120261936	-0.338813
C	-0.2512710577	 0.3966234782	-2.2579616963	-0.039778
H	 3.273045138	-1.2189210037	-1.0350921928	 0.286688
H	 1.4057252951	-0.0706631239	-0.1263745272	 0.080939
H	 2.7619451308	 0.9694626578	-0.6010983174	 0.089462
H	 1.6557627096	 1.3915857474	-2.8238020545	 0.091527
H	-0.2822904001	 1.7293664593	-0.4166652986	 0.085519
H	-1.5612883464	 3.2329571946	-1.9618779725	 0.12929
H	 0.0720979577	 3.6943691009	-2.4334556312	 0.129687
H	-1.8982895083	 0.3459295969	-3.6723456064	 0.128739
H	-0.3260081445	 0.2595819169	-4.462361358	 0.135415
H	-0.5339765238	-0.5152770806	-1.744912167	 0.090779
64.6465	90.1342	148.6673	232.3202	273.9694	288.3194	368.1212	444.448	470.8674	496.063	643.5384	647.261	770.9199	786.4389	812.2157	857.0267	906.1052	972.2952	1007.0884	1016.2013	1058.8771	1071.0883	1081.7914	1091.0584	1132.7942	1142.9503	1171.3611	1198.826	1213.0369	1252.2874	1258.5352	1280.9481	1291.3963	1328.6497	1339.3969	1438.657	1449.6209	1457.0645	1479.2164	1518.2894	1848.3892	2957.4713	2987.9162	3032.0983	3035.4551	3085.6631	3087.8956	3118.7459	3166.3008	3177.2974	3825.7135
OCC1C2CC(=O)CC12	OC[C@@H]1[C@H]2CC(=O)C[C@@H]12	
InChI=1S/C7H10O2/c8-3-7-5-1-4(9)2-6(5)7/h5-8H,1-3H2	InChI=1S/C7H10O2/c8-3-7-5-1-4(9)2-6(5)7/h5-8H,1-3H2/t5-,6+,7+
