19
gdb 2304	2.1309724	1.8187429	1.706174	0.5418	73.67	-0.21698	0.06264	0.27962	958.3383	0.155924	-422.511697	-422.503298	-422.502354	-422.544144	33.167	
O	 0.6723695186	 1.6461617181	 1.6158214278	-0.4908
C	-0.6746428669	 1.266796424	 1.5886932779	 0.376765
C	-0.920885574	-0.2139488135	 1.9715615521	-0.285256
C	-1.6528629503	-0.4458207644	 0.6011425129	-0.308737
C	-1.4044736955	 1.0491067986	 0.2298766253	 0.368887
O	-0.769626298	 1.372408965	-0.972674495	-0.495255
C	-2.4372071021	 2.1295137189	 0.6208827892	-0.090855
C	-3.1240712276	 1.8306493704	 1.9196364928	-0.302346
C	-1.7143713987	 2.3539117124	 1.9626803421	-0.152325
H	 0.7356804807	 2.5220125194	 1.2157516407	 0.2813
H	 0.0196616271	-0.7618877781	 2.0583818295	 0.110023
H	-1.5110165933	-0.3868085829	 2.8737696586	 0.103343
H	-1.1133324849	-1.1242882574	-0.0653514948	 0.097312
H	-2.6945330287	-0.7722150525	 0.6512383504	 0.102918
H	 0.1161389862	 0.9914434722	-0.9388945264	 0.280451
H	-2.8220800279	 2.8523076344	-0.0884147936	 0.092217
H	-3.8839646919	 2.5509012465	 2.2078051202	 0.115576
H	-3.3613056349	 0.8145651246	 2.2197583648	 0.113642
H	-1.4649571477	 3.2771965042	 2.4755139955	 0.083141
89.1163	174.2995	188.3871	291.5221	306.1333	343.4077	378.2148	409.8222	493.5856	527.67	574.6674	687.0001	697.3827	741.7129	775.1648	814.7948	915.5801	929.5168	942.1018	950.2173	985.5534	991.501	1002.3888	1052.3168	1053.8263	1092.5808	1108.458	1124.4043	1185.0904	1201.4514	1206.8985	1227.4053	1254.4072	1270.3378	1308.1015	1357.7773	1366.7122	1389.9312	1468.2023	1480.9519	1501.1414	3057.3919	3072.3021	3106.5757	3121.8469	3129.7336	3158.7161	3183.4814	3199.6162	3782.2282	3785.2116
OC12CCC1(O)C1CC21	O[C@]12CC[C@@]1(O)[C@H]1C[C@@H]21	
InChI=1S/C7H10O2/c8-6-1-2-7(6,9)5-3-4(5)6/h4-5,8-9H,1-3H2	InChI=1S/C7H10O2/c8-6-1-2-7(6,9)5-3-4(5)6/h4-5,8-9H,1-3H2/t4-,5+,6+,7-
