19
gdb 4748	2.5865847	1.0567279	0.9063114	3.5	77.67	-0.2426	-0.01845	0.22415000000000002	1361.5769	0.151803	-422.538465	-422.527614	-422.52667	-422.574525	38.367	
C	 2.8799445049	 2.1221228672	 1.4489872332	-0.414051
C	 3.2313185919	 0.6406361419	 1.3060542882	-0.182865
C	 2.6848751684	-0.0149886424	 0.0149885095	 0.142114
O	 3.1939816253	 0.6561101863	-1.1461089899	-0.451022
C	 3.2000082872	-1.463452722	-0.1039244766	-0.29111
C	 2.6323348469	-2.2112430381	-1.2958713402	 0.158874
O	 2.3969928673	-3.3921924887	-1.2931355539	-0.249737
C	 1.2130637967	 0.0059839382	 0.0070432596	 0.331862
C	 0.0111556701	 0.0395492625	-0.007317431	-0.489933
H	 3.2900554657	 2.5252049156	 2.3790206652	 0.122853
H	 3.3002490834	 2.7081940752	 0.6253832185	 0.116624
H	 1.7964027851	 2.2749507768	 1.4649500524	 0.130454
H	 4.3199699989	 0.5154795252	 1.2908120098	 0.106124
H	 2.8505905337	 0.0782617918	 2.1658913592	 0.10906
H	 2.6727355865	 1.4540379359	-1.2823651105	 0.291356
H	 4.2888634829	-1.4053541428	-0.2368937299	 0.136532
H	 2.996695077	-2.0353208152	 0.8042064119	 0.127953
H	 2.4680346334	-1.5861960993	-2.1979013449	 0.096026
H	-1.0511792053	 0.056012262	-0.0248964507	 0.208886
59.0683	98.3696	108.3579	138.8233	160.2352	194.7151	236.8097	284.4288	288.9012	355.9623	400.4713	412.2486	472.4641	570.3668	641.0357	646.9742	672.4128	691.7755	782.0711	808.494	941.0354	958.2552	1013.441	1046.2984	1056.8166	1095.3225	1145.5583	1169.811	1236.1132	1297.8046	1322.1826	1345.0704	1383.2004	1409.6086	1421.235	1436.6024	1472.9973	1499.4203	1510.7277	1832.0897	2227.1622	2923.7146	3029.918	3037.9199	3040.6734	3078.6315	3110.6747	3116.0595	3117.9824	3497.1452	3823.7473
CCC(O)(CC=O)C#C	CC[C@@](O)(CC=O)C#C	
InChI=1S/C7H10O2/c1-3-7(9,4-2)5-6-8/h1,6,9H,4-5H2,2H3	InChI=1S/C7H10O2/c1-3-7(9,4-2)5-6-8/h1,6,9H,4-5H2,2H3/t7-/m1/s1
