19
gdb 859	4.3331847	0.9634945	0.8869892	2.1688	77.29	-0.24449	-0.02381	0.22068000000000002	1273.7415	0.156472	-422.553531	-422.544938	-422.543994	-422.588076	31.563	
O	 1.4838902064	-0.1269803189	-0.1197825535	-0.251683
C	 0.3060739459	 0.1056028799	-0.196297968	 0.153438
C	-0.362395278	 0.8852786062	-1.3031723283	-0.08479
C	-1.1568756111	 2.1086054519	-0.7415520651	-0.12239
O	-2.5335842656	 1.8651907382	-0.9918627253	-0.275109
C	-2.601163324	 1.0541307959	-2.1376720282	 0.459147
C	-3.9512943594	 0.7761700827	-2.6948580768	-0.341284
C	-2.9914741482	 1.6861195336	-3.450614234	-0.329439
C	-1.4690918071	 0.0523562978	-2.0060267956	-0.324889
H	-0.4060961095	-0.2523947432	 0.5865752897	 0.077647
H	 0.4086799357	 1.2080999575	-2.004741716	 0.098856
H	-1.0368258222	 2.2451434463	 0.338334607	 0.115802
H	-0.8201237036	 3.0255739134	-1.2433604855	 0.10889
H	-4.1513002475	-0.2129780726	-3.0928013474	 0.117995
H	-4.7930226837	 1.2442633599	-2.197278355	 0.129793
H	-2.5429864863	 1.3168051259	-4.3671105597	 0.112647
H	-3.2104439399	 2.7479103211	-3.4409982726	 0.122913
H	-1.7846957624	-0.7812732496	-1.3664079509	 0.112606
H	-1.1346788195	-0.3603893561	-2.9592563648	 0.119853
26.3561	77.6847	131.2172	267.6948	281.4688	322.4984	368.773	403.2379	460.6128	562.389	722.0626	758.9839	777.1431	863.8319	872.1742	899.1607	921.7542	953.289	968.6225	988.1717	1001.7725	1043.2968	1072.1078	1078.9815	1095.188	1145.1127	1187.9876	1191.0414	1240.2602	1263.4245	1268.0654	1295.592	1331.6902	1374.4018	1391.4725	1425.5647	1450.9311	1487.3836	1499.3966	1515.2564	1835.0113	2841.3209	3009.8135	3030.8836	3070.0808	3097.974	3118.286	3129.624	3135.7792	3216.1943	3230.0149	26.3551	77.6843	131.217	267.6948	281.4688	322.4984	368.7729	403.2379	460.6128	562.389	722.0627	758.9839	777.1431	863.8319	872.1742	899.1607	921.7542	953.289	968.6225	988.1716	1001.7725	1043.2969	1072.1078	1078.9814	1095.188	1145.1128	1187.9877	1191.0414	1240.2603	1263.4245	1268.0655	1295.592	1331.6903	1374.4019	1391.4725	1425.565	1450.9312	1487.3838	1499.3967	1515.2565	1835.0112	2841.3209	3009.8135	3030.8836	3070.0808	3097.974	3118.286	3129.624	3135.7792	3216.1943	3230.0149
O=CC1COC2(CC2)C1	O=C[C@@H]1COC2(CC2)C1	
InChI=1S/C7H10O2/c8-4-6-3-7(1-2-7)9-5-6/h4,6H,1-3,5H2	InChI=1S/C7H10O2/c8-4-6-3-7(1-2-7)9-5-6/h4,6H,1-3,5H2/t6-/m1/s1
