19
gdb 2531	3.0225231	1.1195992	1.040618	3.49	79.79	-0.22922	-0.03042	0.1988	1257.6351	0.153919	-422.579536	-422.569852	-422.568908	-422.614312	34.514	
C	 1.410267089	 0.8297978406	-0.0200655564	-0.493782
C	 0.0110285103	 0.3293909763	 0.1296571002	 0.29999
C	-1.1361739573	 0.9931481498	 0.0043320718	-0.250784
C	-2.3135493076	 0.0809117656	 0.264515122	 0.258145
C	-3.2285221309	 0.5317044661	 1.4025211815	-0.419122
O	-1.7148862812	-1.1874359442	 0.5584931918	-0.308277
C	-0.2943844749	-1.1006137583	 0.4976998116	-0.16691
C	-3.0967569691	-0.073587317	-1.0487753161	 0.134453
O	-4.0517945138	 0.5865844725	-1.361663203	-0.252394
H	 1.9787779315	 0.6945040442	 0.908450324	 0.135085
H	 1.9464120108	 0.2730222182	-0.7986705205	 0.135425
H	 1.4323656153	 1.889961297	-0.2827286914	 0.134609
H	-1.2603005162	 2.038013895	-0.2506627177	 0.113964
H	-3.9560510116	-0.2527184449	 1.6287511939	 0.130322
H	-2.6422819256	 0.7398206703	 2.3007053231	 0.115899
H	-3.7753620181	 1.4300225253	 1.1064285929	 0.136779
H	 0.1440393562	-1.3799377984	 1.4693499653	 0.106617
H	 0.0947412074	-1.8136580107	-0.2458720634	 0.107682
H	-2.6677701843	-0.8587890375	-1.7111787496	 0.082299
65.0264	84.5311	151.4289	166.7565	197.9051	254.0894	259.0716	315.0659	366.6892	392.2122	464.0879	510.6041	602.4674	713.9648	830.1239	845.4641	896.2841	908.57	943.3301	990.4607	999.7699	1013.683	1077.5279	1093.5623	1108.7055	1179.2598	1186.6154	1211.3829	1242.011	1306.2045	1380.6019	1386.5982	1400.8249	1414.1498	1478.5132	1481.0086	1486.7876	1488.7731	1521.4273	1722.3847	1830.3954	2885.5797	2972.2871	2991.7258	3023.0036	3049.7687	3070.0946	3121.1508	3126.6045	3137.2638	3217.6765
CC1=CC(C)(OC1)C=O	CC1=C[C@](C)(OC1)C=O	
InChI=1S/C7H10O2/c1-6-3-7(2,5-8)9-4-6/h3,5H,4H2,1-2H3	InChI=1S/C7H10O2/c1-6-3-7(2,5-8)9-4-6/h3,5H,4H2,1-2H3/t7-/m0/s1
