19
gdb 2955	2.6445038	1.4325756	1.2217276	4.6509	75.5	-0.25638	0.01931	0.27569	1110.2233	0.15745	-422.571303	-422.562852	-422.561908	-422.604445	31.677	
C	-2.8307645684	-1.4255900664	-1.5831313692	-0.455665
C	-1.6517083358	-0.602715292	-1.0803147224	 0.042005
C	-1.8124966426	 0.4675712506	 0.0328094146	 0.048304
O	-0.4921042868	 1.0982368703	-0.0105030276	-0.246157
C	 0.3447309547	-0.0014044707	-0.0402250127	 0.446405
O	 1.5351849185	 0.0649441784	-0.0818269347	-0.353626
C	-0.6352512919	-1.1656332307	-0.0032193889	-0.227853
C	-1.5727614475	-0.6007157827	 1.1384238347	 0.042868
C	-2.6808760026	-1.4652830442	 1.7260315986	-0.455646
H	-3.5108304776	-1.7780356098	-0.8100699149	 0.128634
H	-3.4187464513	-0.8199916054	-2.2815770513	 0.128236
H	-2.4698660986	-2.2991272896	-2.1362392958	 0.130736
H	-1.1429507926	-0.1880884973	-1.956907313	 0.100227
H	-2.5814639027	 1.2385478464	 0.0583586911	 0.090605
H	-0.2124168557	-2.1674705799	-0.0151676493	 0.092414
H	-1.0160832541	-0.1649980986	 1.9747549288	 0.100547
H	-2.2517556988	-2.1327927362	 2.4806419015	 0.1311
H	-3.4214860838	-0.8370978779	 2.2336348258	 0.126914
H	-3.2049956225	-2.0918677944	 1.0070498746	 0.129953
72.704	147.9687	155.7321	248.5691	258.8594	297.8932	315.9376	470.6443	474.7891	560.6001	651.3141	716.9817	765.9831	826.5107	830.609	857.9253	909.6825	918.4996	997.9823	1037.2071	1053.4412	1059.7002	1096.7024	1113.2635	1128.6363	1135.8561	1158.1393	1219.3877	1231.6829	1268.4674	1279.6594	1305.5296	1394.5847	1408.736	1424.4982	1437.3283	1488.6102	1490.5478	1504.3814	1517.304	1911.112	3040.2969	3042.1241	3049.4367	3053.0399	3095.3546	3096.4062	3133.677	3150.0156	3153.3395	3178.7325
CC1C2OC(=O)C1C2C	C[C@H]1[C@@H]2OC(=O)[C@H]1[C@@H]2C	
InChI=1S/C7H10O2/c1-3-5-4(2)6(3)9-7(5)8/h3-6H,1-2H3	InChI=1S/C7H10O2/c1-3-5-4(2)6(3)9-7(5)8/h3-6H,1-2H3/t3-,4+,5-,6+
