19
gdb 3348	2.8484427	1.3511305	1.0746091	3.0191	76.16	-0.23539	-0.04041	0.19498	1157.6634	0.155954	-422.534849	-422.526131	-422.525186	-422.568389	32.454	
O	 1.0101204028	 3.1074327691	-1.0845065623	-0.44934
C	-0.2618391285	 3.1713570151	-0.5223336727	 0.077055
C	-1.3866159059	 3.2629702741	-1.5081617409	-0.140612
C	-2.7069064939	 3.4820741247	-0.7644055391	-0.230546
C	-2.459502532	 2.1628703546	 0.0425166421	-0.301098
C	-1.1431190186	 1.9604410723	-0.7199011171	 0.330321
C	-0.5756884266	 0.6379330203	-1.177729065	-0.418021
C	 0.4114878637	 0.012739926	-0.2072949473	 0.155025
O	 1.2956234833	 0.6253073605	 0.3458392563	-0.247789
H	 1.4888201554	 2.4392125344	-0.5694421317	 0.295188
H	-0.328255541	 3.7303147355	 0.4168055885	 0.071658
H	-1.1814586706	 3.4771965619	-2.5502710466	 0.093049
H	-2.7758194343	 4.4057478533	-0.1801904176	 0.100879
H	-3.5838288607	 3.4127550685	-1.4110778678	 0.106419
H	-2.3754072974	 2.2583259082	 1.1309595505	 0.098103
H	-3.2063178187	 1.3960239918	-0.1811661119	 0.101072
H	-1.3726465436	-0.0797194205	-1.4021015654	 0.108864
H	-0.0120694051	 0.7868117159	-2.1090907298	 0.154709
H	 0.3097345517	-1.0812766659	-0.0392613922	 0.095065
82.015	97.2999	160.007	224.2335	246.3371	274.6954	345.9137	365.3065	525.834	564.4518	621.0344	669.0198	706.554	776.8245	854.7752	881.5082	925.1229	941.6104	947.6864	971.759	979.168	1028.7028	1072.2901	1099.8339	1118.1042	1169.6781	1182.7516	1219.6147	1243.4651	1247.1326	1254.864	1291.359	1330.9742	1356.501	1383.4623	1423.2172	1445.6495	1458.0812	1480.8015	1502.4656	1805.3746	2898.6968	3023.5256	3034.7554	3037.6825	3048.5615	3072.9443	3086.1161	3111.9719	3186.902	3693.3954
OC1C2CCC12CC=O	O[C@H]1[C@@H]2CC[C@]12CC=O	
InChI=1S/C7H10O2/c8-4-3-7-2-1-5(7)6(7)9/h4-6,9H,1-3H2	InChI=1S/C7H10O2/c8-4-3-7-2-1-5(7)6(7)9/h4-6,9H,1-3H2/t5-,6-,7+/m0/s1
