19
gdb 5743	4.3216234	1.0005988	0.8874186	4.3714	75.42	-0.27022	0.00908	0.2793	1334.9412	0.157215	-422.571615	-422.563181	-422.562236	-422.605081	31.241	
C	 2.1842933813	-0.445866709	 1.1511362589	-0.38634
C	 1.8479645221	 0.0806774717	-0.2472147097	-0.197438
C	 2.2753425934	-0.8649652987	-1.3683624135	 0.015736
C	 1.8734907224	-0.4093555066	-2.8101690466	-0.277544
C	 0.9692678512	-1.6731461133	-2.9642895981	-0.22771
C	 1.3911731535	-2.1249159597	-1.5459970371	 0.103797
O	 2.1327115978	-3.2484421057	-2.1207725395	-0.256868
C	 1.7511303688	-2.9073808625	-3.4025952383	 0.447515
O	 2.023992193	-3.4727744473	-4.4114431704	-0.323461
H	 1.7065536107	-1.4124129003	 1.3440317413	 0.120647
H	 3.2641195308	-0.5835435106	 1.2705428958	 0.123284
H	 1.8477031853	 0.2492517532	 1.9259499859	 0.11918
H	 0.7682687528	 0.2705889822	-0.3246696832	 0.096178
H	 2.3351364562	 1.0510512231	-0.4050372109	 0.105071
H	 3.3311701098	-1.1293664184	-1.2586759247	 0.092175
H	 1.2893135463	 0.5137400892	-2.8068244361	 0.115819
H	 2.6747768067	-0.311105643	-3.5446901825	 0.124361
H	-0.0481235222	-1.5626301738	-3.3326590058	 0.10851
H	 0.7226076701	-2.4573010003	-0.7528242554	 0.097089
71.2013	117.055	146.4987	197.4763	251.3147	303.2495	406.6698	413.9264	480.6281	647.8363	730.1751	768.2157	788.6848	832.1129	874.3993	896.7492	926.7079	948.2186	980.0426	988.6813	999.5263	1059.163	1091.5512	1111.6839	1118.4071	1181.3665	1188.5091	1224.6272	1241.8412	1246.0932	1280.5673	1302.9412	1310.707	1347.3912	1383.7516	1415.66	1485.4418	1487.1837	1500.3795	1506.0874	1934.8567	3011.4046	3035.4366	3046.6169	3070.1849	3071.1778	3101.7838	3108.7198	3125.3502	3126.8228	3146.9544
CCC1CC2C1OC2=O	CC[C@@H]1C[C@@H]2[C@H]1OC2=O	
InChI=1S/C7H10O2/c1-2-4-3-5-6(4)9-7(5)8/h4-6H,2-3H2,1H3	InChI=1S/C7H10O2/c1-2-4-3-5-6(4)9-7(5)8/h4-6H,2-3H2,1H3/t4-,5-,6+/m1/s1
