19
gdb 5355	3.060414	1.2775686	1.0203092	2.2237	76.83	-0.24363	-0.00864	0.23499	1205.1895	0.156605	-422.54802	-422.539298	-422.538353	-422.581523	32.781	
C	 1.5749773133	-0.8712398873	 0.661431289	-0.383687
C	 1.0435865693	 0.1917515145	-0.3187376478	-0.287819
C	 1.6920859737	 1.5388614972	-0.1781172084	 0.271495
C	 1.107649028	 2.6786052879	 0.2205377311	-0.206782
C	 2.0368545282	 3.8376171332	 0.0980762561	 0.006122
O	 2.4742865101	 4.0698923764	-1.2670241189	-0.254135
C	 3.3095683626	 3.3016727114	-0.4075597404	-0.003632
C	 3.1539514658	 1.786744217	-0.5517990905	 0.00353
O	 4.0878392571	 1.0825130887	 0.2625758336	-0.417889
H	 1.0688078369	-1.8277958783	 0.4995806253	 0.11293
H	 2.6493916053	-1.0198180292	 0.5349886684	 0.141584
H	 1.3947741002	-0.5669652368	 1.6980718918	 0.110641
H	 1.1971792947	-0.1677939283	-1.3454428315	 0.111498
H	-0.0388604332	 0.3016131886	-0.1885984262	 0.10343
H	 0.0714926308	 2.7756673508	 0.5246154728	 0.102691
H	 1.9478181779	 4.7317977799	 0.7066822907	 0.099434
H	 4.2900062599	 3.711256614	-0.1763212564	 0.100603
H	 3.3637506594	 1.4637568648	-1.5775905139	 0.108553
H	 3.85240251	 1.2533496557	 1.1817185152	 0.281434
60.8767	127.7161	185.9513	222.624	255.8041	300.056	347.8761	396.0538	428.8247	527.7462	585.1379	670.3892	750.7912	780.127	816.992	859.3881	866.5201	889.3849	949.6041	973.356	1011.6844	1042.7657	1067.8895	1083.1817	1089.6512	1119.4295	1185.8895	1232.3128	1252.9419	1257.4269	1290.0472	1304.9773	1348.9164	1358.9871	1397.6361	1407.1712	1417.8184	1480.093	1496.3953	1514.8466	1680.2474	3015.3951	3038.3485	3059.205	3062.2225	3103.5862	3134.3396	3146.3775	3169.857	3197.275	3798.1435
CCC1=CC2OC2C1O	CCC1=C[C@@H]2O[C@@H]2[C@H]1O	
InChI=1S/C7H10O2/c1-2-4-3-5-7(9-5)6(4)8/h3,5-8H,2H2,1H3	InChI=1S/C7H10O2/c1-2-4-3-5-7(9-5)6(4)8/h3,5-8H,2H2,1H3/t5-,6-,7-/m0/s1
