19
gdb 2100	2.4072781	1.9013677	1.404711	2.3954	74.51	-0.24033	0.06821	0.30854	979.8634	0.157686	-422.540426	-422.532473	-422.531529	-422.572203	31.812	
O	 0.4096907331	 0.6557713715	 0.1107080652	-0.481655
C	-0.8200748786	 0.9631142893	 0.6618946899	 0.407063
C	-1.2737184831	 0.8763868462	 2.1438294675	-0.382065
C	-2.5211672291	 1.2825978099	 1.3142484865	 0.407063
O	-3.8268384987	 1.4514905951	 1.7353007209	-0.481659
C	-2.1307297339	 0.2621663386	 0.2098221412	-0.081468
C	-2.5503938542	 0.8114681364	-1.1535507019	-0.246866
C	-2.1939496294	 2.3155047195	-0.9607693187	-0.240691
C	-1.6534889299	 2.2768854716	 0.4674729624	-0.156446
H	 1.066395002	 1.261091677	 0.4712371242	 0.28316
H	-1.2867191528	-0.1183607088	 2.5970998175	 0.096182
H	-0.8691889125	 1.6280646198	 2.8305932855	 0.0764
H	-3.8544123538	 2.1838383657	 2.3602485549	 0.283161
H	-2.2502722955	-0.8022952392	 0.4194466208	 0.066206
H	-1.9891456034	 0.3476650111	-1.9695966744	 0.104004
H	-3.6152627417	 0.653113537	-1.3459728902	 0.10401
H	-1.4420856066	 2.6636191025	-1.6756275912	 0.097772
H	-3.0669897682	 2.9688676658	-1.0524999176	 0.0978
H	-1.3005734238	 3.2002388211	 0.9355104177	 0.048027
179.3633	203.1015	235.0564	255.92	258.4164	313.8849	440.3652	459.8009	505.6776	612.3076	661.8804	702.598	714.6095	749.0671	812.0802	887.1944	898.0154	924.765	981.4962	985.993	1028.8854	1036.3588	1080.0332	1084.4347	1092.5021	1123.0333	1125.3255	1133.2039	1172.0593	1248.5587	1250.8472	1277.9706	1289.503	1306.4851	1327.2542	1347.4447	1348.159	1439.0419	1480.4786	1504.0456	1527.8178	3035.516	3046.9762	3058.9694	3078.0866	3082.5518	3104.2598	3104.7169	3108.2542	3808.3713	3809.0054
OC12CC3(O)C1CCC23	O[C@]12C[C@]3(O)[C@H]1CC[C@H]23	
InChI=1S/C7H10O2/c8-6-3-7(9)4(6)1-2-5(6)7/h4-5,8-9H,1-3H2	InChI=1S/C7H10O2/c8-6-3-7(9)4(6)1-2-5(6)7/h4-5,8-9H,1-3H2/t4-,5+,6+,7-
