19
gdb 940	3.3602024	0.9426661	0.8097243	1.1565	76.64	-0.23525	-0.02845	0.20679999999999998	1418.2959	0.154789	-422.523195	-422.514029	-422.513085	-422.55859	32.583	
O	 1.4729530732	-0.2932202877	-0.1073237073	-0.233862
C	 0.3032466327	-0.0245629284	-0.014452343	 0.157423
C	-0.3102689769	 0.7935779944	 1.100520251	-0.296582
C	-1.0575544769	 2.019721605	 0.5681455025	-0.150709
C	-2.4076701381	 1.787585215	-0.1560605878	-0.090367
O	-3.1213948589	 2.5742300462	 0.8211178601	-0.302841
C	-1.920943303	 2.8018866134	 1.561501059	 0.460636
C	-1.9121503552	 2.8148795707	 3.0549443966	-0.336971
C	-1.6651264532	 4.0928425977	 2.2604610414	-0.333168
H	-0.4235405287	-0.3758754066	-0.7844426893	 0.075534
H	-1.0191590241	 0.1531388257	 1.644016887	 0.125433
H	 0.487807845	 1.0832792913	 1.7907214838	 0.123731
H	-0.3743030975	 2.660962275	 0.0041333364	 0.097595
H	-2.4926659692	 2.2108195353	-1.162712805	 0.111761
H	-2.7578667606	 0.7475685784	-0.171726089	 0.102032
H	-2.8723097525	 2.712720842	 3.5492435337	 0.128094
H	-1.0784436302	 2.3623241627	 3.5823914204	 0.117466
H	-2.4616092421	 4.8288799988	 2.2379778476	 0.127562
H	-0.6615018638	 4.5061222012	 2.2414682618	 0.117233
47.5955	65.3488	73.3713	143.2807	241.0258	249.7028	342.263	405.5555	460.8734	530.4297	570.0646	757.4894	778.5312	834.6706	868.0897	875.4916	905.659	942.5902	969.3492	980.4509	1023.2297	1048.1199	1067.8318	1070.2596	1108.6918	1132.3953	1167.997	1186.939	1219.7473	1235.2201	1241.0604	1300.969	1348.3856	1356.4542	1395.5455	1433.9888	1446.5214	1463.5519	1494.2329	1527.6163	1835.3348	2854.2625	3014.3672	3019.9599	3058.9175	3074.016	3095.6703	3126.1166	3128.4755	3209.8719	3223.8165
O=CCC1COC11CC1	O=CC[C@H]1COC21CC2	
InChI=1S/C7H10O2/c8-4-1-6-5-9-7(6)2-3-7/h4,6H,1-3,5H2	InChI=1S/C7H10O2/c8-4-1-6-5-9-7(6)2-3-7/h4,6H,1-3,5H2/t6-/m0/s1
