19
gdb 2833	2.4725861	1.5381408	1.2198477	2.6644	74.82	-0.24003	0.06344	0.30347	1086.1232	0.156181	-422.512065	-422.503469	-422.502525	-422.544673	33.311	
C	-2.6439127371	-4.2232338419	 3.8041294054	-0.526631
C	-2.6936101233	-3.3840151002	 2.5681383459	 0.300105
C	-3.7670863267	-2.4844882575	 1.983354553	-0.167323
C	-2.3756318301	-1.9228201543	 2.3087689936	-0.167323
C	-1.4593968369	-2.2691179328	 1.1358795828	 0.153109
O	-0.096944579	-2.3867582216	 1.4827028373	-0.445464
C	-2.2486686152	-3.6044003082	 1.0459916858	-0.196969
C	-3.6756563946	-3.1637424704	 0.6175818274	 0.153109
O	-4.6062958398	-4.2070198197	 0.4281462926	-0.445464
H	-3.2170441087	-5.1518441208	 3.6941001914	 0.118938
H	-1.6177008436	-4.5062038259	 4.0681754508	 0.118938
H	-3.063680835	-3.6770978842	 4.6562199472	 0.129535
H	-4.6540641888	-2.0977255333	 2.472734718	 0.089955
H	-2.2501332524	-1.1273686873	 3.0349335742	 0.089955
H	-1.4789166283	-1.6283243609	 0.2477867204	 0.082677
H	-0.0466400155	-2.8733935323	 2.3137074866	 0.277125
H	-1.7892658796	-4.4925668382	 0.6146184796	 0.075928
H	-3.7468394807	-2.5438101176	-0.2825973245	 0.082675
H	-4.6351713146	-4.7256152728	 1.2406351127	 0.277125
141.3005	164.4473	200.3057	244.5237	288.5235	289.2731	351.0566	352.2282	417.8575	460.8498	549.6973	595.9131	785.768	816.1504	839.6648	853.8684	858.6897	906.8702	976.0806	983.0078	1002.2174	1011.2074	1053.0399	1062.7351	1086.1709	1108.68	1156.7558	1159.5381	1167.9177	1227.6415	1237.2245	1277.3102	1281.705	1291.1082	1300.3726	1411.724	1432.416	1439.191	1449.9545	1481.2709	1497.8276	3014.7842	3049.4742	3060.3825	3068.4876	3087.9058	3135.7126	3174.6929	3184.8747	3791.079	3791.7699
CC12C3C1C(O)C2C3O	C[C@@]12[C@H]3[C@@H]1[C@@H](O)[C@@H]2[C@H]3O	
InChI=1S/C7H10O2/c1-7-2-3(7)6(9)4(7)5(2)8/h2-6,8-9H,1H3	InChI=1S/C7H10O2/c1-7-2-3(7)6(9)4(7)5(2)8/h2-6,8-9H,1H3/t2-,3+,4-,5-,6+,7+
