19
gdb 2794	2.7855747	1.313402	1.0827095	1.5835	75.69	-0.20216	0.06784	0.27	1183.8777	0.154591	-422.482152	-422.473183	-422.472239	-422.514973	34.938	
C	 0.1107075699	-0.065458957	-0.1646116738	-0.423269
C	 1.6163856151	 0.0053612048	-0.0062149256	-0.019518
C	 2.1714638307	-0.116453959	 1.392056584	-0.137453
C	 2.1797361937	 1.2271744551	 0.6804743989	-0.147763
C	 3.734882271	 1.2760180645	 0.7949566867	 0.343243
O	 4.4344317195	 2.4482323767	 0.995080114	-0.44899
C	 4.4288261099	 0.0975320312	 0.1690499995	-0.415114
C	 3.7279555644	-0.0676311145	 1.5044201811	 0.291115
O	 4.3825359929	-0.462219094	 2.6548370973	-0.455148
H	-0.4000797425	 0.3897840443	 0.6906064454	 0.115909
H	-0.214322811	 0.462179128	-1.0676048799	 0.120767
H	-0.2278810518	-1.1042832738	-0.2409557969	 0.118847
H	 2.1569935994	-0.4373326788	-0.8365402459	 0.082287
H	 1.5598133585	-0.4046381625	 2.2388483346	 0.087555
H	 1.5663104497	 2.0939161452	 0.8999755162	 0.082447
H	 4.1376312956	 2.8369977026	 1.8260561689	 0.289079
H	 4.1297837927	-0.3775414896	-0.7601446766	 0.109323
H	 5.5046826171	 0.1760466793	 0.3028642634	 0.120796
H	 4.6508247751	-1.3828625724	 2.5542397489	 0.285887
157.4101	191.7686	206.3807	216.8002	256.5294	268.7542	324.2088	373.0192	393.2552	412.1297	498.3566	565.3039	594.9468	738.4	763.2545	780.621	821.503	872.8574	878.145	911.6277	978.716	1018.0807	1022.9875	1040.5764	1064.1512	1093.7859	1127.8183	1142.0685	1167.5594	1190.5729	1223.4799	1258.3936	1279.7633	1301.4796	1363.7229	1388.9692	1415.261	1440.7081	1495.5334	1500.2179	1523.3499	3028.8001	3094.9287	3096.3367	3112.1532	3154.3237	3169.8251	3184.1043	3198.6355	3776.045	3785.4684
CC1C2C1C1(O)CC21O	C[C@@H]1[C@@H]2[C@H]1[C@]1(O)C[C@]21O	
InChI=1S/C7H10O2/c1-3-4-5(3)7(9)2-6(4,7)8/h3-5,8-9H,2H2,1H3	InChI=1S/C7H10O2/c1-3-4-5(3)7(9)2-6(4,7)8/h3-5,8-9H,2H2,1H3/t3-,4-,5+,6+,7-
