19
gdb 2179	2.8128496	1.6858968	1.2857071	1.4342	74.42	-0.23472	0.07483	0.30955	1011.3044	0.157053	-422.531487	-422.52375	-422.522806	-422.562874	31.957	
O	-4.1317089196	 2.0211405185	 4.7218823166	-0.483726
C	-4.3056727216	 1.8930203526	 3.3435223244	 0.432314
C	-5.2557106411	 0.8081655565	 2.7872609803	-0.294871
C	-4.3389865627	 0.6465685281	 1.5465364379	-0.036825
C	-4.483609702	 1.7942742865	 0.5149257586	-0.2647
C	-3.654286922	 2.7201010626	 1.4206861082	 0.441975
O	-2.8259225424	 3.5933946064	 0.7184145417	-0.484635
C	-4.450782038	 3.2537494312	 2.6343933101	-0.342274
C	-3.2125165635	 1.460477051	 2.2796716337	-0.229154
H	-4.0503555771	 1.1392825698	 5.1005739617	 0.275393
H	-5.1997578381	-0.0906284179	 3.4138022821	 0.086552
H	-6.3096742392	 1.0658055702	 2.63711449	 0.094777
H	-4.2056163658	-0.360933555	 1.1554718459	 0.070345
H	-3.9059389815	 1.5731184424	-0.3869081685	 0.110873
H	-5.4892966216	 2.119221988	 0.2282533098	 0.090023
H	-2.3736992984	 4.1613215966	 1.3514462544	 0.275793
H	-3.8483415878	 3.9863808425	 3.1846485394	 0.098199
H	-5.4533614769	 3.6613677885	 2.4710657526	 0.095616
H	-2.1959412508	 1.1318052315	 2.4819827911	 0.064324
208.6638	232.3535	281.6923	314.8543	343.5041	389.64	395.6675	419.209	432.2665	568.0881	595.1633	686.0821	738.1048	826.879	837.4154	876.3267	912.2533	913.139	944.4208	958.9997	975.8953	1010.9855	1050.866	1086.8646	1092.319	1107.7188	1114.0969	1124.305	1181.011	1208.7171	1225.2234	1233.8903	1265.1661	1292.3558	1322.709	1329.9502	1380.1631	1398.582	1470.5924	1476.8494	1494.4349	3022.9268	3032.4392	3043.1481	3076.9364	3091.2066	3102.6438	3114.7447	3148.24	3804.2612	3805.6047
OC12CC3CC(O)(C1)C23	O[C@@]12C[C@H]3C[C@@](O)(C1)[C@@H]23	
InChI=1S/C7H10O2/c8-6-1-4-2-7(9,3-6)5(4)6/h4-5,8-9H,1-3H2	InChI=1S/C7H10O2/c8-6-1-4-2-7(9,3-6)5(4)6/h4-5,8-9H,1-3H2/t4-,5+,6-,7+
