19
gdb 5671	1.9836769	1.2631436	0.8344745	2.024	79.35	-0.2466	0.04562	0.29222000000000004	1395.085	0.15413	-422.501256	-422.491352	-422.490408	-422.536319	35.894	
C	 1.3756783262	 0.2782544495	-0.0880341173	-0.241855
O	 0.0002813535	 0.4256697953	-0.3703098784	-0.240373
C	-0.7579540109	 0.7955309103	 0.7449737925	 0.146209
C	-1.1348383007	-0.2951387766	 1.788860019	-0.326623
C	-2.57523031	 0.2801516881	 1.793460778	 0.151451
O	-3.676260761	-0.5752353343	 1.8982962963	-0.425122
C	-2.2663983745	 0.9816913786	 0.4234635599	-0.244867
C	-2.7902605379	 2.301717083	 0.1574381753	 0.292771
C	-3.2193122292	 3.4106490353	-0.0239752476	-0.43875
H	 1.5615964969	-0.5183445912	 0.6477491481	 0.109311
H	 1.8717144878	 0.0151860597	-1.0250116973	 0.130977
H	 1.8120783135	 1.2129744429	 0.2962330573	 0.109693
H	-0.3400354274	 1.6914075579	 1.225913844	 0.079902
H	-1.1107883549	-1.282303914	 1.3137420886	 0.102471
H	-0.5959536387	-0.3339995937	 2.7367495979	 0.108022
H	-2.7039070527	 1.0312468799	 2.5762993558	 0.107088
H	-3.5843660281	-1.2693780044	 1.2368724866	 0.28031
H	-2.5104968582	 0.2873586471	-0.3903757192	 0.105525
H	-3.6021452336	 4.3860513667	-0.1948111697	 0.193863
71.672	89.9589	125.9724	151.7819	198.3745	252.7054	297.0343	353.7417	389.5013	420.6673	436.0933	528.0327	546.574	587.6856	619.4187	628.936	828.2487	838.2281	943.2882	1004.9326	1033.8054	1051.9753	1083.5957	1095.2549	1123.315	1161.5572	1179.5336	1184.5084	1214.9599	1235.9139	1253.2204	1271.6429	1321.2127	1357.4809	1394.7834	1442.2975	1475.2921	1485.8892	1489.8545	1509.041	2234.4941	2978.8681	3003.8565	3027.9784	3035.632	3050.9593	3091.614	3119.0952	3125.8459	3504.4087	3806.963
COC1CC(O)C1C#C	CO[C@@H]1C[C@H](O)[C@H]1C#C	
InChI=1S/C7H10O2/c1-3-5-6(8)4-7(5)9-2/h1,5-8H,4H2,2H3	InChI=1S/C7H10O2/c1-3-5-6(8)4-7(5)9-2/h1,5-8H,4H2,2H3/t5-,6+,7-/m1/s1
