19
gdb 2235	2.3619502	2.152044	1.696623	2.252	73.29	-0.23392	0.07014	0.30406	898.4662	0.159569	-422.560339	-422.553354	-422.552409	-422.591129	29.164	
O	 0.4070960802	 0.4035151031	 0.8874515455	-0.48925
C	-0.6327076856	 1.3071085344	 0.7057868644	 0.373839
C	-1.9369216849	 1.044779993	-0.0888133142	-0.311057
C	-2.3152013484	 2.3806548796	 0.5896543717	 0.086127
O	-1.4354351434	 3.320186706	-0.0530601971	-0.291254
C	-0.1536764528	 2.7003937464	 0.2210666313	 0.077509
C	 0.4093786305	 3.3778587469	 1.4701794498	-0.217481
C	-0.6803082482	 3.0441086074	 2.5345633159	-0.236292
C	-1.4993202557	 1.9420777961	 1.8512236867	-0.102106
H	 0.0552424374	-0.3891109092	 1.3045997707	 0.283024
H	-1.9051263397	 1.0316862279	-1.18027416	 0.103195
H	-2.4941912932	 0.1888584925	 0.302405084	 0.089899
H	-3.3292089825	 2.7732682518	 0.6322644089	 0.080878
H	 0.4777659465	 2.7137185065	-0.6692397604	 0.075248
H	 1.3780009473	 2.9411865119	 1.734534935	 0.106981
H	 0.5441530021	 4.450581401	 1.3144404243	 0.10172
H	-0.24169171	 2.6923336235	 3.4723333995	 0.09871
H	-1.2974136802	 3.9156049302	 2.7711105756	 0.107073
H	-2.0306120295	 1.2383043407	 2.4940933284	 0.063238
202.1761	239.221	293.2681	308.0858	414.3577	447.4004	483.7685	577.0233	642.9912	683.4187	747.5906	804.6665	815.852	865.0431	898.8288	915.2593	921.6616	941.1948	977.1379	1009.0709	1019.2068	1031.0021	1050.5961	1079.9593	1100.5315	1124.3363	1174.0766	1203.3076	1210.4741	1233.6974	1254.3365	1279.2851	1285.7965	1298.063	1322.5388	1346.3155	1352.7518	1402.2266	1471.7124	1487.3178	1495.9071	3051.9913	3058.2076	3059.7478	3091.6633	3100.0619	3105.0448	3114.4737	3125.7972	3142.4668	3819.7408
OC12CC3OC1CCC23	O[C@]12C[C@@H]3O[C@H]1CC[C@H]23	
InChI=1S/C7H10O2/c8-7-3-5-4(7)1-2-6(7)9-5/h4-6,8H,1-3H2	InChI=1S/C7H10O2/c8-7-3-5-4(7)1-2-6(7)9-5/h4-6,8H,1-3H2/t4-,5-,6-,7-/m0/s1
