19
gdb 671	2.4973432	1.654392	1.6184731	2.3195	73.52	-0.23721	-0.01549	0.22172	962.2903	0.159869	-422.598014	-422.590588	-422.589643	-422.63012	29.026	
O	 1.297185474	 0.065288055	-0.196799686	-0.328127
C	 0.0973813495	 0.0335434344	-0.0769975916	 0.416349
C	-0.7165870366	-1.2474069671	 0.1141219617	-0.329741
C	-2.1939886207	-0.8583429043	 0.2705372532	 0.095171
C	-2.3807650375	 0.0547368986	 1.4915419317	-0.214262
C	-1.5126952922	 1.3302172432	 1.2923155957	-0.229942
C	-0.8128601355	 1.2537415856	-0.0867221661	-0.135606
C	-1.8943981203	 1.0270648818	-1.1595222415	-0.080445
O	-2.6259953406	-0.1774026813	-0.9103265367	-0.277919
H	-0.5755003062	-1.888626571	-0.7628154583	 0.137316
H	-0.3371374335	-1.7975770191	 0.9825751157	 0.127422
H	-2.8301761213	-1.7440029731	 0.3396120029	 0.082096
H	-3.4398768262	 0.3105495639	 1.5802023228	 0.111005
H	-2.0998030659	-0.4816052685	 2.4037798664	 0.103382
H	-2.1325617835	 2.2318032603	 1.3205563697	 0.110595
H	-0.766502668	 1.434824857	 2.0852001823	 0.114592
H	-0.2308139933	 2.1518355787	-0.3026725185	 0.086543
H	-2.5935377187	 1.875625121	-1.1588258582	 0.10169
H	-1.4484939536	 0.9642098548	-2.1608070752	 0.109882
60.9938	150.4716	263.393	333.6329	364.7615	447.697	484.2355	520.9844	603.7153	634.19	743.5993	814.125	824.7324	864.3717	865.6661	896.9862	949.8847	970.2192	1002.8373	1048.0249	1055.9406	1071.865	1091.7613	1126.8762	1198.8636	1215.2166	1228.5646	1249.9285	1261.3962	1292.0434	1330.7321	1333.5301	1348.5485	1367.7791	1374.6317	1410.0514	1431.9215	1483.198	1503.8542	1528.0392	1835.2144	2994.7898	3032.8887	3043.9276	3045.6647	3054.2574	3081.0295	3083.96	3090.3008	3098.5098	3104.174
O=C1CC2CCC1CO2	O=C1C[C@H]2CC[C@@H]1CO2	
InChI=1S/C7H10O2/c8-7-3-6-2-1-5(7)4-9-6/h5-6H,1-4H2	InChI=1S/C7H10O2/c8-7-3-6-2-1-5(7)4-9-6/h5-6H,1-4H2/t5-,6-/m1/s1
