19
gdb 5597	2.9155723	1.237742	1.1174781	2.6195	74.85	-0.23636	-0.0082	0.22815999999999997	1155.4736	0.158362	-422.560542	-422.55232	-422.551376	-422.593476	31.29	
O	 0.4428453477	-1.876247935	 1.3885543579	-0.415177
C	-0.671206727	-1.2388846775	 0.7810296383	-0.112741
C	-0.9913665287	 0.0950285429	 1.4420983797	-0.003912
C	-2.1212948015	 1.0315381462	 0.8773421625	-0.166971
C	-1.6521213416	 1.3223843822	-0.5686153765	-0.227437
C	-0.1184685117	 1.5534694379	-0.3166062831	-0.228701
C	-0.0638137811	 1.3502003348	 1.2152997331	-0.169876
C	-1.3334577673	 2.1179847542	 1.6344826972	 0.436539
O	-1.5924642987	 3.0391663291	 2.348763054	-0.323531
H	 1.2142552558	-1.3175690216	 1.2490309539	 0.285303
H	-0.523569905	-1.1315227206	-0.3022325281	 0.09259
H	-1.5148038584	-1.9230486588	 0.9221937225	 0.11791
H	-1.1337203688	-0.0760704996	 2.5132967704	 0.101043
H	-3.178804269	 0.8467896624	 1.0548639648	 0.08473
H	-1.8471625979	 0.4886132545	-1.2466229901	 0.111044
H	-2.1449943409	 2.2064082471	-0.9808982822	 0.115642
H	 0.50657001	 0.8372320774	-0.8562576379	 0.104776
H	 0.207545256	 2.5560608175	-0.6039390442	 0.116558
H	 0.8868600481	 1.4838048969	 1.7284569677	 0.082211
81.6293	130.8441	181.8349	243.9781	284.3999	303.4588	394.9815	477.3797	504.4962	651.4027	657.4144	727.6083	781.772	818.1944	860.385	895.8135	904.1889	954.9257	983.3332	1008.4151	1011.1499	1067.2041	1084.1075	1108.4484	1131.6658	1136.3865	1152.5792	1183.9459	1228.2707	1243.5959	1248.7101	1257.7795	1314.6742	1327.3826	1357.6549	1403.0427	1423.2801	1492.7882	1507.1493	1520.1223	1903.9705	3008.4092	3059.9179	3065.1938	3069.591	3078.3373	3097.2054	3115.1618	3137.8724	3145.07	3815.8339
OCC1C2CCC1C2=O	OC[C@@H]1[C@@H]2CC[C@H]1C2=O	
InChI=1S/C7H10O2/c8-3-6-4-1-2-5(6)7(4)9/h4-6,8H,1-3H2	InChI=1S/C7H10O2/c8-3-6-4-1-2-5(6)7(4)9/h4-6,8H,1-3H2/t4-,5+,6+
