19
gdb 2170	3.0746051	1.6818743	1.5797286	1.4025	73.14	-0.23046	0.09023	0.32069000000000003	940.0602	0.158988	-422.550557	-422.543521	-422.542577	-422.58152	28.889	
C	-0.050335258	 0.1437369567	 0.0183097149	-0.503939
C	 1.4430747222	 0.0318107133	 0.121974164	 0.404375
C	 2.0962745577	-0.6602570445	 1.3424126036	-0.266863
C	 3.5638015031	-0.3845225379	 0.9205510072	 0.074107
O	 4.0155410903	 0.8330406142	 1.5082950159	-0.274254
C	 3.1485943372	 1.8652234054	 1.0010695825	-0.118893
C	 2.4403417231	 1.213913816	-0.1786046701	-0.105313
C	 3.2756928813	-0.0183900724	-0.5735065387	 0.075522
O	 2.0830258278	-0.7331411559	-0.9589181799	-0.334236
H	-0.4424254484	 0.7661598105	 0.8292721333	 0.123194
H	-0.3437245413	 0.5893954116	-0.9363554004	 0.12781
H	-0.5145532021	-0.8450752047	 0.0941546367	 0.13158
H	 1.8713446231	-0.2147464381	 2.3146607536	 0.104607
H	 1.829585461	-1.7195139322	 1.3524244958	 0.106846
H	 4.2979399934	-1.1600389949	 1.1316844365	 0.081387
H	 2.457556096	 2.2071579718	 1.7846090706	 0.097707
H	 3.7643662061	 2.7192248241	 0.6977154009	 0.109468
H	 2.1180649485	 1.8625529435	-0.9916240252	 0.082511
H	 4.0852922192	-0.0313298264	-1.3008981013	 0.084384
189.8964	218.6622	244.6139	300.5557	423.5722	444.3635	524.6899	565.3883	638.2006	712.2965	743.6087	813.8378	829.4111	867.9389	880.1011	920.7596	930.7544	969.8459	984.3502	995.6205	1012.7837	1038.919	1058.0422	1112.4032	1131.0181	1164.9812	1181.0596	1208.1164	1235.3172	1251.6485	1265.36	1274.1888	1302.776	1328.877	1362.433	1388.7875	1415.855	1475.7649	1480.1708	1492.29	1521.2631	3001.1695	3037.1516	3056.7176	3067.1803	3106.657	3115.5808	3121.9849	3132.5941	3135.6606	3146.5215
CC12CC3OCC1C3O2	C[C@]12C[C@@H]3OC[C@H]1[C@@H]3O2	
InChI=1S/C7H10O2/c1-7-2-5-6(9-7)4(7)3-8-5/h4-6H,2-3H2,1H3	InChI=1S/C7H10O2/c1-7-2-5-6(9-7)4(7)3-8-5/h4-6H,2-3H2,1H3/t4-,5-,6-,7-/m0/s1
