19
gdb 2324	2.5906173	1.9571261	1.6729519	0.4924	73.81	-0.23599	0.06769	0.30368	906.7383	0.158693	-422.501424	-422.494293	-422.493349	-422.532221	29.975	
O	 0.7024877381	 0.2987886131	 0.6055921731	-0.487629
C	-0.6394495877	 0.682157861	 0.7298795429	 0.40707
C	-1.1109657015	 1.7014252388	-0.365732356	-0.224845
O	-1.1208478835	 2.8013757113	 0.6102568754	-0.35989
C	-1.1194045245	 1.8165963811	 1.649511637	 0.396336
C	-2.4473336287	 0.99667605	 1.8389048814	-0.292212
C	-1.4655423944	-0.1877685787	 1.696971411	-0.123485
C	-0.6202321886	 0.0565560792	 3.0053973846	-0.199649
C	-0.3750684756	 1.630328165	 2.9559875062	-0.311751
H	 1.2182021554	 1.0571659065	 0.309474095	 0.28559
H	-0.3622527587	 1.8741025223	-1.1451530575	 0.106313
H	-2.0898954175	 1.5546589559	-0.8300878828	 0.116841
H	-2.9643577159	 1.0953874336	 2.7952516445	 0.095766
H	-3.1504403352	 1.1188776986	 1.0166252846	 0.104062
H	-1.778322553	-1.2160388244	 1.511912962	 0.065332
H	-1.2000574527	-0.2348411211	 3.8848667854	 0.098455
H	 0.3199370388	-0.4939888292	 2.999976403	 0.118752
H	-0.7967632627	 2.1560181776	 3.8158415985	 0.102992
H	 0.6876587181	 1.8702272293	 2.8757308017	 0.101951
229.5882	257.0808	307.1745	319.6099	350.0619	426.3863	490.3012	537.4556	539.987	637.884	721.0634	780.4509	825.4242	849.3342	854.5592	878.1646	901.8658	927.6384	945.5577	958.0363	982.6242	1034.8933	1061.8232	1092.3983	1121.9935	1142.7994	1158.1026	1180.9444	1210.5593	1211.8062	1226.9423	1258.2069	1270.8346	1284.2213	1323.3907	1337.3145	1377.7252	1478.8352	1490.8234	1506.9969	1525.0498	3044.366	3063.3951	3073.9449	3080.8843	3099.4037	3106.6869	3111.832	3142.3329	3152.2513	3799.2262
OC12COC11CC2CC1	O[C@]12CO[C@]31C[C@@H]2CC3	
InChI=1S/C7H10O2/c8-7-4-9-6(7)2-1-5(7)3-6/h5,8H,1-4H2	InChI=1S/C7H10O2/c8-7-4-9-6(7)2-1-5(7)3-6/h5,8H,1-4H2/t5-,6-,7-/m0/s1
