19
gdb 2120	3.2981598	1.5908041	1.3458652	1.886	76.05	-0.23104	0.08184	0.31288	1014.0106	0.156969	-422.485813	-422.478105	-422.477161	-422.51751	30.617	
C	-0.0072403559	 0.1670674135	 0.0066564312	-0.51588
C	 1.477530711	 0.013386122	 0.0985854023	 0.357839
C	 2.3461612251	-1.2913991817	 0.2876000092	-0.363005
C	 3.2751753838	-0.1045833625	-0.0438490171	 0.392703
C	 4.6249757846	 0.5164722988	-0.2422645953	-0.384923
C	 4.1955640788	 2.0143876043	-0.0686509887	-0.059793
O	 2.9950802429	 2.0670313126	 0.7417067116	-0.282348
C	 2.5490845728	 0.7618625794	 0.9737541285	 0.086839
O	 2.2919093675	 0.3181804502	-1.0900679933	-0.377442
H	-0.478136792	-0.1071853048	 0.9557296735	 0.126154
H	-0.2617010295	 1.2067567534	-0.2196724359	 0.14173
H	-0.4156334998	-0.4719233857	-0.7824607496	 0.131991
H	 2.417835803	-1.7415544787	 1.2816082818	 0.09941
H	 2.2154573846	-2.0244328147	-0.5079336998	 0.114642
H	 5.3195384333	 0.1992712757	 0.5414090389	 0.115779
H	 5.0767175331	 0.3354703981	-1.2195595942	 0.123003
H	 4.9693140249	 2.6103381647	 0.4262442397	 0.10304
H	 3.974127219	 2.4553908498	-1.0446847531	 0.121915
H	 2.5798660828	 0.5002790055	 2.0381086303	 0.068346
158.3845	190.1733	204.1878	234.7847	321.9386	375.0991	462.0404	503.9342	580.9254	653.2849	692.3674	726.5893	779.0001	788.3806	844.775	882.0245	912.1616	922.8316	948.2328	997.7354	1011.2379	1045.101	1114.0859	1129.6518	1133.1169	1146.2519	1159.6541	1182.3156	1213.1377	1236.8077	1245.3196	1295.8206	1338.2664	1386.3238	1398.7333	1415.16	1475.6266	1476.5089	1488.2998	1493.1085	1511.8038	3032.3508	3039.3171	3045.6985	3062.9751	3065.2509	3090.976	3113.0454	3116.9528	3125.6281	3154.7762
CC12CC3(CCOC13)O2	C[C@]12C[C@@]3(CCO[C@@H]13)O2	
InChI=1S/C7H10O2/c1-6-4-7(9-6)2-3-8-5(6)7/h5H,2-4H2,1H3	InChI=1S/C7H10O2/c1-6-4-7(9-6)2-3-8-5(6)7/h5H,2-4H2,1H3/t5-,6-,7+/m0/s1
