19
gdb 5895	1.7819064	1.0568034	0.7439502	3.0538	80.85	-0.23529	-0.02042	0.21487	1594.0666	0.152603	-422.52786	-422.516564	-422.51562	-422.567002	36.825	
C	-3.7631259809	 0.8877753057	-3.5424665217	-0.226572
O	-3.8026324654	 0.7437901476	-2.1407752046	-0.231453
C	-3.5451317356	 1.9436183814	-1.4561580116	-0.151055
C	-3.4229636782	 1.6777534326	 0.0420607861	 0.365945
O	-3.7036240071	 2.530381747	 0.8458725431	-0.294277
C	-2.8993683281	 0.2958208709	 0.4593977654	-0.412232
C	-1.5374644969	 0.0732049476	-0.0123057343	 0.073814
C	-0.4047003678	-0.0723043378	-0.3935106683	 0.03753
C	 0.9644428327	-0.2692586298	-0.8479255332	-0.496049
H	-2.7753751985	 1.2334733018	-3.884179044	 0.110817
H	-3.966397299	-0.0940402934	-3.9756779524	 0.132612
H	-4.5220979217	 1.6001875682	-3.9002932972	 0.110218
H	-2.5937732127	 2.3949529129	-1.7893564372	 0.120427
H	-4.3376957101	 2.6907657225	-1.6100190846	 0.118153
H	-2.9564464698	 0.2473806575	 1.5509078059	 0.141877
H	-3.5699679206	-0.4620493914	 0.036977603	 0.15504
H	 1.5824010529	-0.7156223677	-0.0609970453	 0.150565
H	 1.0056491196	-0.933551466	-1.7182036724	 0.14731
H	 1.4305644871	 0.6805100107	-1.1329796366	 0.14733
30.4002	36.2773	64.9049	74.5897	97.9042	167.6939	214.6507	228.7196	256.2363	346.9498	376.7879	413.9434	489.2376	500.4864	581.3851	750.0153	795.2603	930.8589	1011.9987	1015.114	1052.5003	1054.1569	1141.7297	1165.3478	1177.2939	1183.0718	1226.0165	1234.991	1261.7963	1303.0804	1384.6189	1415.3278	1444.9102	1468.5473	1478.496	1479.2231	1486.0878	1490.0636	1513.0275	1829.2242	2372.0933	2956.8228	2978.2233	3017.744	3026.2106	3026.7724	3037.8589	3086.741	3088.0162	3093.1826	3121.074
COCC(=O)CC#CC	COCC(=O)CC#CC	
InChI=1S/C7H10O2/c1-3-4-5-7(8)6-9-2/h5-6H2,1-2H3	InChI=1S/C7H10O2/c1-3-4-5-7(8)6-9-2/h5-6H2,1-2H3
