19
gdb 2523	2.4192399	1.4793473	1.1545634	5.3471	78.53	-0.25889	-0.03336	0.22553	1143.9648	0.155192	-422.627549	-422.618223	-422.617279	-422.661132	34.56	
C	 1.3132793486	 0.9304876126	 0.4500253666	-0.502902
C	-0.0365612469	 0.3146795153	 0.2869305158	 0.333397
C	-1.2129600328	 0.9182964294	 0.1037726626	-0.387761
C	-2.2797438983	-0.0974354768	-0.0055670804	 0.419945
O	-3.4601915379	 0.0339187854	-0.1720927728	-0.353876
O	-1.6853952594	-1.3292290896	 0.1205583526	-0.258049
C	-0.262771532	-1.1893680316	 0.3104307722	 0.250722
C	 0.0933740597	-1.8164629982	 1.6640683347	-0.414829
C	 0.4377202457	-1.9076246859	-0.8496713393	-0.414821
H	 1.7609366889	 0.6521726993	 1.4113477675	 0.143393
H	 2.0023426392	 0.5846574173	-0.3294128255	 0.143289
H	 1.2600326587	 2.0201746914	 0.4004728359	 0.140416
H	-1.418181484	 1.9772714003	 0.0371796917	 0.125542
H	-0.1973596146	-2.8701482247	 1.6702255268	 0.136713
H	 1.1694064138	-1.7549487025	 1.8515070605	 0.11914
H	-0.4345847897	-1.3061395529	 2.4737561573	 0.131912
H	 0.1485034189	-2.96170349	-0.8590595853	 0.136725
H	 0.1521217115	-1.4609723683	-1.8055466451	 0.13191
H	 1.5251062906	-1.8497477104	-0.7448003659	 0.119134
108.5802	137.6995	187.4575	214.5221	225.8194	246.0209	258.1263	314.2592	367.3392	428.7148	549.9063	575.4365	590.8241	623.5549	729.7676	749.1211	880.6287	894.4987	935.314	943.936	987.7574	1012.0192	1018.3002	1067.1953	1099.8049	1179.0172	1202.2893	1222.7788	1267.1141	1334.8856	1393.2458	1412.3635	1416.9299	1471.1554	1480.3052	1481.2339	1486.3629	1496.6284	1504.0745	1701.8714	1866.1906	3030.5935	3042.7102	3047.746	3081.12	3117.6534	3122.9042	3126.8161	3127.5202	3130.1183	3240.3313
CC1=CC(=O)OC1(C)C	CC1=CC(=O)OC1(C)C	
InChI=1S/C7H10O2/c1-5-4-6(8)9-7(5,2)3/h4H,1-3H3	InChI=1S/C7H10O2/c1-5-4-6(8)9-7(5,2)3/h4H,1-3H3
