19
gdb 3364	2.1829298	1.8975058	1.771044	1.7968	73.98	-0.23978	-0.00028	0.2395	928.4044	0.159997	-422.576291	-422.568952	-422.568008	-422.607604	29.682	
O	 0.3529173361	-0.030239604	 0.602966709	-0.447937
C	-0.7569686325	 0.72831881	 0.1873530372	 0.128091
C	-2.1456732992	 0.0521033043	 0.3134660006	-0.089011
C	-3.0042547418	 1.0187080914	-0.5271392648	-0.078518
O	-2.1079655627	 1.7001759142	-1.4274151043	-0.267802
C	-0.8319372565	 1.0699901386	-1.3138810489	 0.033401
C	-0.7756885497	-0.2211951311	-2.1171849212	-0.093698
C	-1.3598923045	-1.3270464399	-1.6457808329	-0.06355
C	-2.0747552321	-1.3538090106	-0.3136052871	-0.272705
H	 0.4991425753	-0.7142021239	-0.0620388043	 0.280749
H	-0.7301137007	 1.6553716952	 0.7672688517	 0.092719
H	-2.4945999806	-0.0079132	 1.3468045267	 0.075443
H	-3.7779468034	 0.4925966487	-1.1010287442	 0.097985
H	-3.4971285702	 1.7765269461	 0.0927484436	 0.105105
H	-0.0798414248	 1.7894525667	-1.6434723613	 0.079515
H	-0.2815845844	-0.2170390027	-3.0840393149	 0.095848
H	-1.337639677	-2.2513146615	-2.2188021461	 0.096323
H	-3.0857501101	-1.7612932357	-0.4436321232	 0.111852
H	-1.5631861011	-2.0466915558	 0.3687309244	 0.116191
140.713	211.3205	278.6364	304.7159	357.5282	410.1852	477.7493	539.7383	560.4191	611.3991	711.1574	754.7731	810.7983	834.0242	896.9847	913.9722	924.1394	954.2508	996.0547	1011.7042	1037.1403	1060.1565	1091.8705	1110.572	1126.9615	1133.8454	1199.7587	1213.4245	1257.2906	1277.2936	1285.9159	1307.7653	1344.148	1352.3779	1370.5551	1391.2378	1408.3401	1438.2266	1473.0337	1521.7795	1692.8807	3012.8296	3015.0274	3039.5401	3054.3931	3070.6814	3086.7817	3097.4607	3148.3955	3178.8755	3772.1254
OC1C2COC1C=CC2	O[C@@H]1[C@H]2CO[C@@H]1C=CC2	
InChI=1S/C7H10O2/c8-7-5-2-1-3-6(7)9-4-5/h1,3,5-8H,2,4H2	InChI=1S/C7H10O2/c8-7-5-2-1-3-6(7)9-4-5/h1,3,5-8H,2,4H2/t5-,6-,7-/m1/s1
