19
gdb 5438	2.3614962	1.3054611	1.0121607	4.3492	76.45	-0.23518	-0.00553	0.22965	1248.6469	0.155607	-422.546625	-422.537502	-422.536558	-422.580705	33.589	
C	 1.1414445191	-0.1894025779	 1.2673229541	-0.38917
C	 0.8968104158	 0.198308075	-0.1943337228	-0.19117
C	 1.7104225897	-0.6360854726	-1.1852132849	-0.114909
C	 1.2027612435	-2.0660444061	-1.4683399314	-0.128215
C	 2.0030099672	-2.6926557474	-2.5529738046	 0.095609
O	 3.3456491527	-2.3784237035	-2.7846278251	-0.41365
C	 0.9422155776	-1.7150180734	-2.9825694841	-0.222168
C	 1.3613285641	-0.3098186165	-2.6594058556	 0.432791
O	 1.2383932003	 0.7300486836	-3.2426047193	-0.33156
H	 0.8711876799	-1.2336033909	 1.4590403672	 0.113052
H	 2.1961827064	-0.066315921	 1.5364248243	 0.117298
H	 0.5491460705	 0.4347158128	 1.9435198221	 0.118299
H	-0.1709475163	 0.1067746867	-0.4312817034	 0.099635
H	 1.1544091061	 1.2515823019	-0.3512430965	 0.12008
H	 2.7777279439	-0.5820723534	-0.9481716452	 0.088934
H	 0.5478524451	-2.6301898585	-0.8156752786	 0.104201
H	 1.7369044175	-3.7246724091	-2.7864964517	 0.100711
H	 3.8790454101	-2.85523427	-2.13913176	 0.289951
H	 0.1477504368	-2.0021229198	-3.6610009547	 0.110284
84.7604	97.9183	136.2243	171.9967	240.4386	285.0727	299.6161	359.9665	412.5555	495.9006	601.3625	655.9434	669.2681	747.6298	792.7126	854.7043	878.8562	915.6756	939.3012	978.1241	987.8376	1002.782	1065.5991	1071.4361	1110.6462	1123.5491	1147.403	1201.8713	1220.7646	1259.346	1286.409	1288.1728	1316.8182	1341.7545	1378.3874	1411.8819	1446.0377	1485.3042	1498.2982	1505.433	1878.6279	3026.7711	3030.7596	3056.5807	3070.1318	3094.9822	3099.4299	3104.2072	3187.663	3196.4072	3802.309
CCC1C2C(O)C2C1=O	CC[C@H]1[C@@H]2[C@H](O)[C@@H]2C1=O	
InChI=1S/C7H10O2/c1-2-3-4-5(6(3)8)7(4)9/h3-5,7,9H,2H2,1H3	InChI=1S/C7H10O2/c1-2-3-4-5(6(3)8)7(4)9/h3-5,7,9H,2H2,1H3/t3-,4-,5-,7-/m0/s1
