19
gdb 3537	2.3263377	1.5955181	1.2393383	2.8685	74.87	-0.23777	-0.02553	0.21224	1100.5654	0.155655	-422.581728	-422.572833	-422.571889	-422.615162	33.146	
C	-2.9318040951	-1.2103635759	-1.3219712356	-0.402121
C	-2.3579694358	-0.8156497212	 0.0437958965	-0.027656
C	-0.8999740601	-1.303385754	 0.2434149189	-0.350932
C	-0.0104788059	-0.1099128719	-0.1249155032	 0.378796
O	 1.1278187973	-0.1492290749	-0.517658875	-0.318073
C	-0.8390857759	 1.1475263676	 0.0287824849	 0.288245
C	-0.347315594	 2.4668245294	-0.4813865664	-0.495718
O	-1.5073120786	 1.1157439396	 1.3167652217	-0.297859
C	-2.2400320787	 0.6995202715	 0.1683923854	-0.008959
H	-3.0175889994	-2.2974540572	-1.4079917736	 0.125631
H	-3.928210166	-0.7819858554	-1.4734867351	 0.119635
H	-2.2894474948	-0.8607723037	-2.1384857923	 0.122797
H	-3.0124787383	-1.1992129616	 0.834210184	 0.089465
H	-0.702504088	-1.5678291315	 1.2869571202	 0.142025
H	-0.6413721402	-2.1686212197	-0.3708652289	 0.126546
H	 0.606187292	 2.7230615011	-0.0103022227	 0.145209
H	-0.1793931932	 2.4202820919	-1.5615406264	 0.134688
H	-1.0708007061	 3.2566038129	-0.2666533556	 0.129827
H	-3.068882059	 1.343804433	-0.1197646368	 0.098452
85.9983	119.5368	154.2421	230.393	247.3341	285.0482	332.5679	356.3607	471.0421	496.9636	526.052	636.4394	651.5977	698.7746	815.9017	837.2421	861.0439	908.6264	950.2852	1001.8956	1023.5281	1043.983	1083.8801	1097.9518	1112.5771	1155.059	1206.5163	1251.4533	1289.9909	1295.3018	1328.7915	1353.7842	1407.5767	1412.9064	1447.6996	1457.5803	1478.7323	1490.9145	1498.3502	1499.6175	1841.5126	3030.2025	3044.1798	3047.7327	3065.9863	3096.8983	3109.5369	3114.9159	3118.1473	3131.1869	3133.0702
CC1CC(=O)C2(C)OC12	C[C@H]1CC(=O)[C@]2(C)O[C@H]12	
InChI=1S/C7H10O2/c1-4-3-5(8)7(2)6(4)9-7/h4,6H,3H2,1-2H3	InChI=1S/C7H10O2/c1-4-3-5(8)7(2)6(4)9-7/h4,6H,3H2,1-2H3/t4-,6+,7-/m0/s1
