19
gdb 916	4.4583991	0.7063621	0.6680599	2.7718	77.87	-0.24918	-0.0311	0.21808000000000002	1654.3329	0.154763	-422.562891	-422.553382	-422.552437	-422.599107	32.824	
O	 1.5483022188	 0.1704669087	 0.4428118406	-0.237299
C	 0.3597163045	 0.2554443319	 0.2686839335	 0.159359
C	-0.2941267142	 0.7794726242	-0.9904816417	-0.299221
C	-1.1738541942	 2.0017239062	-0.7101105753	 0.03239
C	-2.0170956373	 2.5740324323	-1.8837316928	-0.268042
C	-3.1958594222	 2.7895056478	-0.8673840344	-0.071814
C	-2.4834463189	 1.8298724705	 0.1127249102	-0.254315
C	-4.5575551527	 2.4082939743	-1.3768131373	 0.138728
O	-5.1240339637	 1.3772837715	-1.1119216308	-0.242507
H	-0.3560711782	-0.050703478	 1.0666754728	 0.078477
H	 0.4907886468	 1.0141651159	-1.7164081902	 0.121184
H	-0.9222207229	-0.0223024445	-1.4050656052	 0.117369
H	-0.5600005965	 2.7989233905	-0.2770063326	 0.089267
H	-1.6334291549	 3.4527715238	-2.4052070789	 0.114153
H	-2.2602510981	 1.8022120869	-2.6207246704	 0.116252
H	-3.216702432	 3.8290266357	-0.5232046425	 0.092815
H	-2.4632198982	 2.1129559608	 1.1666708607	 0.110062
H	-2.9081499444	 0.8257813204	 0.024091868	 0.125903
H	-5.0166085017	 3.1475013912	-2.0735539938	 0.077241
42.6566	58.6995	72.2538	98.9867	194.7675	241.7001	305.5731	352.0301	405.5381	493.4845	583.8772	674.2412	778.8399	814.3977	840.0947	888.4608	934.9433	953.2914	968.7312	991.5291	1012.3307	1088.6645	1104.5861	1128.6374	1137.9707	1181.09	1235.522	1240.0094	1258.7539	1268.5674	1284.6132	1312.3463	1353.7713	1381.3909	1422.4171	1431.4353	1463.5861	1479.6852	1501.4992	1822.0326	1833.6712	2863.7662	2864.2029	3011.7533	3046.1865	3055.5757	3057.7189	3067.5975	3091.4473	3120.0572	3124.7382
O=CCC1CC(C1)C=O	O=CC[C@H]1C[C@H](C1)C=O	
InChI=1S/C7H10O2/c8-2-1-6-3-7(4-6)5-9/h2,5-7H,1,3-4H2	InChI=1S/C7H10O2/c8-2-1-6-3-7(4-6)5-9/h2,5-7H,1,3-4H2/t6-,7+
