19
gdb 4607	3.897914	0.7042705	0.6592216	1.3016	81.14	-0.25322	0.02721	0.28043	1728.1421	0.155056	-422.499727	-422.489597	-422.488653	-422.536541	35.083	
C	 4.4747172271	 1.3583402635	-0.6135109878	-0.449571
C	 3.938896332	 0.0593662621	 0.0030993973	 0.096106
C	 4.6019213251	-1.2171752048	-0.6008998448	-0.103769
O	 5.4642416013	-1.359614786	 0.5416777482	-0.26896
C	 4.72170126	-0.3743574823	 1.2807909964	-0.103886
C	 2.4897423546	 0.0616564896	 0.0914098875	-0.005084
C	 1.2853932968	 0.0540047633	 0.1527202716	 0.078569
C	-0.1740811764	 0.099999903	 0.2406194897	-0.195837
O	-0.7437129191	 1.2557517194	-0.3585799274	-0.400722
H	 4.1846977143	 2.2232706191	-0.0095392162	 0.124493
H	 5.5672411421	 1.3240144838	-0.6688268135	 0.128413
H	 4.078723771	 1.5002057484	-1.6232723033	 0.130266
H	 3.9155065292	-2.0654669971	-0.7109879103	 0.106218
H	 5.1626797589	-1.0724760587	-1.5313735468	 0.10706
H	 4.0917413005	-0.8258895759	 2.0570358249	 0.10454
H	 5.3704707562	 0.3872147705	 1.7286453087	 0.105857
H	-0.6102278069	-0.7540925948	-0.2895161918	 0.141299
H	-0.4775397888	 0.0044989514	 1.2957429635	 0.118165
H	-0.2967790681	 2.0227248555	 0.0143355942	 0.286845
21.7205	71.262	105.7076	107.6943	190.867	248.4444	269.6058	320.4839	333.8347	354.6214	477.6187	517.1966	522.6509	619.9773	835.7329	854.3991	914.3928	933.7154	972.5959	985.0317	1014.4465	1034.5535	1040.6911	1082.9241	1154.1402	1163.3378	1164.0312	1210.6251	1215.6437	1305.1563	1305.7976	1359.1823	1369.5922	1409.8843	1418.7089	1490.1704	1491.6599	1494.9296	1509.4346	1532.6976	2353.1105	2974.2062	3011.7731	3022.3558	3037.1532	3061.3695	3068.0946	3070.7497	3113.0244	3115.5639	3817.445
CC1(COC1)C#CCO	CC1(COC1)C#CCO	
InChI=1S/C7H10O2/c1-7(3-2-4-8)5-9-6-7/h8H,4-6H2,1H3	InChI=1S/C7H10O2/c1-7(3-2-4-8)5-9-6-7/h8H,4-6H2,1H3
