19
gdb 2785	2.598533	1.3317683	1.1125627	2.6691	76.95	-0.23285	-0.01315	0.2197	1184.4452	0.154454	-422.554767	-422.545331	-422.544387	-422.588428	35.094	
C	-3.0116615795	 2.11127075	 1.1334106069	-0.4213
C	-1.9423168757	 1.0393178048	 1.0750896158	-0.032992
C	-1.0453227198	 1.0449381279	-0.1625024528	-0.190654
C	-2.1002398503	-0.076267152	 0.1086352307	-0.083487
C	-0.9994695679	-1.136154832	 0.2847038266	 0.286264
C	-0.9007121391	-1.9304194254	 1.5763237433	-0.452894
O	-1.0131418235	-1.9992761863	-0.8450907047	-0.4785
C	 0.0192182586	 0.013326844	-0.034490004	 0.353845
O	 1.1811436271	-0.0466810425	-0.3363353331	-0.342009
H	-3.8186397346	 1.8132555429	 1.8105889985	 0.128042
H	-2.5996947353	 3.0583415104	 1.4955220402	 0.12904
H	-3.4495098107	 2.2890826913	 0.1462310758	 0.123769
H	-1.4755833848	 0.834241384	 2.0357058323	 0.095805
H	-1.0631581762	 1.8759624552	-0.8573366793	 0.109007
H	-3.0042234796	-0.2505686404	-0.4605100901	 0.111382
H	-1.7014669814	-2.6752146635	 1.6166927394	 0.128889
H	 0.0587781414	-2.4574416391	 1.6137536826	 0.126369
H	-0.9664896422	-1.2949020632	 2.4639303308	 0.117407
H	-0.0993073167	-2.261054496	-1.0118578088	 0.292018
105.3403	165.1382	182.1113	202.2612	226.9173	234.7187	256.6125	316.7556	353.4823	401.4576	464.1728	510.5296	653.4176	691.6263	751.1835	778.2784	876.2147	879.1228	927.3396	963.0945	969.0512	996.8579	1048.9205	1072.6925	1100.5087	1128.3907	1148.6977	1173.3617	1188.5287	1216.7314	1266.5141	1296.1216	1367.1239	1403.5924	1416.089	1421.5835	1485.8405	1489.1955	1493.4153	1501.9357	1863.9137	3035.7022	3035.9587	3103.2113	3104.5713	3105.6999	3115.1911	3131.0938	3188.9631	3207.4537	3785.325
CC1C2C1C(C)(O)C2=O	C[C@@H]1[C@@H]2[C@H]1[C@@](C)(O)C2=O	
InChI=1S/C7H10O2/c1-3-4-5(3)7(2,9)6(4)8/h3-5,9H,1-2H3	InChI=1S/C7H10O2/c1-3-4-5(3)7(2,9)6(4)8/h3-5,9H,1-2H3/t3-,4-,5+,7-/m1/s1
