19
gdb 1205	2.2387625	1.4397359	1.3096991	1.8594	77.12	-0.25183	0.02825	0.28008	1106.5106	0.152557	-422.515059	-422.504862	-422.503918	-422.549267	38.618	
C	-1.7488303754	-0.0835021906	 0.6561605241	-0.416729
C	-0.2134998574	-0.1743042068	 0.6456189802	 0.112176
O	 0.2421698066	-1.1348893101	 1.5981772459	-0.454342
C	 0.3772605222	 1.1485262485	 0.9288350915	 0.306603
C	 0.8560489467	 2.229142293	 1.153425016	-0.488369
C	 0.2844339395	-0.6413341213	-0.7323558958	 0.426087
O	-0.0815439338	 0.2353005579	-1.7614871732	-0.47802
C	 0.2543796756	-2.0916173502	-1.0894882232	-0.315967
C	 1.582403577	-1.3878288809	-0.8619266795	-0.325727
H	-2.1048960799	 0.31069062	 1.6130089697	 0.107607
H	-2.0953499847	 0.5718589596	-0.1448869411	 0.14126
H	-2.1637944668	-1.0832729108	 0.5046387243	 0.127381
H	 0.0029628572	-0.8148764482	 2.474130011	 0.28617
H	 1.2815350935	 3.1795076881	 1.3645745007	 0.201878
H	 0.405032309	 1.057450987	-1.6212747191	 0.284021
H	-0.0748785267	-2.7956053309	-0.3351991645	 0.127486
H	-0.0264708912	-2.3272147471	-2.1094206311	 0.11925
H	 2.1306663148	-1.6259026124	 0.0406973261	 0.130021
H	 2.1817791939	-1.158446105	-1.735711982	 0.109215
76.9979	124.8772	185.4601	225.9621	233.2298	242.3158	275.0319	331.3996	368.5822	386.4643	402.551	447.4015	495.1133	536.5232	587.6766	625.7501	656.4632	670.9972	778.7639	823.4922	908.3355	922.1274	944.711	963.0876	996.2507	1052.1501	1083.6492	1091.4404	1131.8887	1185.5629	1197.7213	1259.1825	1283.4127	1352.0078	1394.5773	1407.9192	1441.6316	1481.9841	1491.2554	1499.5715	2221.8317	3045.5302	3120.6488	3144.138	3145.3934	3146.4262	3234.157	3246.6789	3497.5621	3770.427	3820.752
CC(O)(C#C)C1(O)CC1	C[C@](O)(C#C)C1(O)CC1	
InChI=1S/C7H10O2/c1-3-6(2,8)7(9)4-5-7/h1,8-9H,4-5H2,2H3	InChI=1S/C7H10O2/c1-3-6(2,8)7(9)4-5-7/h1,8-9H,4-5H2,2H3/t6-/m0/s1
