19
gdb 1980	3.111308	1.5194779	1.3585425	0.931	74.27	-0.23227	0.07127	0.30354000000000003	1024.2395	0.157422	-422.528928	-422.521154	-422.52021	-422.561203	30.234	
C	 0.17280286	-0.3871616039	-0.0649213428	-0.465436
C	 1.4653355956	 0.3425814718	 0.1607313887	 0.442263
C	 1.7366137072	 1.7315835739	-0.3629120917	-0.353317
C	 2.5549795232	 0.5463349546	-0.8519735636	-0.139575
C	 3.8638122735	 0.3086107448	-0.1374522108	 0.093112
O	 4.3805710866	-1.0285943453	-0.3231600174	-0.297542
C	 4.032575881	-1.4062899865	 1.0286944788	-0.09735
C	 3.4488312233	-0.0055198143	 1.3202998227	 0.042271
O	 2.0393921902	 0.0693220413	 1.433002304	-0.311057
H	-0.5600707692	-0.1176676763	 0.7025844928	 0.129939
H	-0.2483034606	-0.1311693627	-1.0411614331	 0.118717
H	 0.3245773131	-1.4705302811	-0.0248554951	 0.125245
H	 1.0329369644	 2.1694802304	-1.063193748	 0.1143
H	 2.2033506029	 2.4415193561	 0.3130647261	 0.1143
H	 2.4638424563	 0.2116572866	-1.87906241	 0.101983
H	 4.6325327805	 1.0662791666	-0.3259704478	 0.081236
H	 3.2953146342	-2.2160025203	 1.067179517	 0.108414
H	 4.919532844	-1.6832097944	 1.6110554494	 0.102315
H	 3.9077197739	 0.5513969287	 2.1389667108	 0.09018
79.7367	134.6213	218.4424	314.7285	329.3864	382.4178	406.4973	457.092	611.7344	657.1405	753.8906	804.9934	821.0604	840.6893	878.1282	917.8577	938.5699	951.2987	991.7928	1018.27	1037.4437	1049.6898	1071.4997	1077.5614	1098.7206	1123.9229	1135.663	1169.2583	1224.4156	1228.4836	1269.6681	1280.5685	1323.9874	1342.251	1374.1826	1392.4035	1428.7968	1479.106	1484.0281	1503.4028	1511.5411	3020.9558	3037.1802	3045.0405	3073.7223	3097.9712	3102.7483	3117.35	3123.5298	3177.8755	3212.7607
CC12CC1C1OCC1O2	C[C@]12C[C@H]1[C@@H]1OC[C@@H]1O2	
InChI=1S/C7H10O2/c1-7-2-4(7)6-5(9-7)3-8-6/h4-6H,2-3H2,1H3	InChI=1S/C7H10O2/c1-7-2-4(7)6-5(9-7)3-8-6/h4-6H,2-3H2,1H3/t4-,5-,6-,7-/m0/s1
