19
gdb 3156	2.4848152	1.6480626	1.3110907	3.2887	73.91	-0.25591	0.06712	0.32303000000000004	1060.5539	0.15586	-422.531262	-422.522968	-422.522024	-422.563688	31.978	
C	 1.2983909067	 1.1288417083	 0.0374441338	-0.409016
C	 1.0227363293	-0.3794531719	 0.0724907433	-0.063792
C	 1.5910578938	-1.0711680423	-1.1719160904	 0.037636
O	 1.3651985146	-2.4765924154	-1.2622828468	-0.240941
C	 2.6333284453	-2.0355337235	-0.7777571141	-0.046172
C	 2.7511549347	-2.020760582	 0.7445355972	 0.401529
C	 4.0536511781	-2.373557747	 1.4049862297	-0.50182
O	 1.5465612669	-2.4530812923	 1.3866544561	-0.283069
C	 1.756224026	-1.047032709	 1.2391371925	-0.030031
H	 0.9326300056	 1.6154714823	 0.9466715741	 0.123323
H	 2.3716381655	 1.3347898834	-0.0437560862	 0.119983
H	 0.8022612158	 1.5987068091	-0.8171963852	 0.123139
H	-0.0555423639	-0.5607098135	 0.1472304956	 0.103981
H	 1.5934731011	-0.5394827303	-2.1224951921	 0.09248
H	 3.495459965	-2.2897879557	-1.3888874253	 0.093559
H	 3.9982652692	-2.1955127837	 2.481552727	 0.133183
H	 4.2960992812	-3.4298557835	 1.2450018889	 0.13478
H	 4.874152388	-1.774532002	 0.9948596086	 0.122969
H	 1.8766033671	-0.4979936911	 2.1728978935	 0.08828
120.8472	186.5412	197.6461	226.4087	282.7518	311.1117	334.3479	398.0364	516.0899	557.7835	591.2187	688.2209	757.1008	841.749	857.5922	871.8086	886.4061	915.726	944.6967	1004.9517	1023.0775	1030.1778	1071.3067	1097.9428	1111.9145	1135.5892	1146.4984	1224.1969	1260.4715	1285.2679	1293.4807	1315.3726	1334.8008	1405.452	1410.8489	1425.6362	1455.7126	1484.3799	1494.9211	1498.3359	1500.4464	3033.181	3034.2153	3050.5444	3095.7473	3101.3301	3108.4374	3112.493	3120.3844	3124.4797	3150.4746
CC1C2OC2C2(C)OC12	C[C@H]1[C@@H]2O[C@@H]2[C@]2(C)O[C@H]12	
InChI=1S/C7H10O2/c1-3-4-6(8-4)7(2)5(3)9-7/h3-6H,1-2H3	InChI=1S/C7H10O2/c1-3-4-6(8-4)7(2)5(3)9-7/h3-6H,1-2H3/t3-,4-,5+,6-,7+/m0/s1
