19
gdb 6008	5.6830633	0.8781544	0.8669099	2.3252	75.89	-0.23049	0.08041	0.3109	1399.8361	0.155686	-422.45282	-422.444594	-422.443649	-422.486378	30.645	
C	 0.0790733847	-0.4553146204	 0.6619421596	-0.384598
C	 1.0604061939	-0.0079897752	-0.4077759234	-0.039384
O	 1.3549150982	 1.3631179362	-0.2022164515	-0.265897
C	 2.2240501466	 1.9048251118	-1.1585002746	 0.130441
C	 2.6912012678	 3.326175477	-0.8311652392	-0.14185
C	 3.7822121635	 2.8065118883	 0.1615442159	 0.10112
O	 4.8698929391	 3.56141353	-0.4503015821	-0.327921
C	 4.0490675536	 3.1108772433	-1.5684983929	 0.081576
C	 3.7458138163	 1.7096713491	-0.9532918308	-0.140889
H	-0.1736344385	-1.5116016596	 0.5303415222	 0.115444
H	 0.5106951326	-0.3229548089	 1.6581182188	 0.126981
H	-0.841402203	 0.1327732314	 0.6072956998	 0.127765
H	 1.9830048492	-0.6087407615	-0.3617100969	 0.08943
H	 0.6307391934	-0.1528499802	-1.4131230008	 0.087604
H	 1.8496705418	 1.7296151796	-2.1783193901	 0.065003
H	 2.1197033695	 4.2499855769	-0.7562780956	 0.088184
H	 3.7534924212	 2.7088827013	 1.2443233255	 0.104826
H	 4.3445394602	 3.3810600008	-2.5811390982	 0.097421
H	 4.3728378499	 0.8213830001	-1.0191334456	 0.084745
64.4665	81.3841	130.6558	228.9102	264.2276	343.8478	385.9274	555.2659	601.3646	748.4347	788.22	801.3885	819.9096	837.4902	863.2565	887.1953	912.0724	925.0126	960.8995	981.7967	1029.2808	1056.2355	1106.4596	1125.341	1135.9652	1145.9652	1161.2118	1167.2866	1174.9896	1182.4062	1190.0062	1257.6008	1289.0166	1296.9699	1332.652	1379.0103	1405.0598	1444.7001	1483.038	1499.9054	1529.0325	2961.8778	2990.098	2992.1002	3045.2613	3119.9996	3121.801	3123.2125	3131.2089	3137.3731	3153.9597
CCOC1C2C3OC2C13	CCO[C@H]1[C@H]2[C@@H]3O[C@H]2[C@H]13	
InChI=1S/C7H10O2/c1-2-8-5-3-6-4(5)7(3)9-6/h3-7H,2H2,1H3	InChI=1S/C7H10O2/c1-2-8-5-3-6-4(5)7(3)9-6/h3-7H,2H2,1H3/t3-,4+,5-,6-,7+
