19
gdb 3522	2.3246324	1.5212955	0.9697442	1.82	75.72	-0.23941	-0.03894	0.20047	1220.5459	0.154968	-422.615022	-422.605552	-422.604608	-422.649957	34.006	
C	-0.810390007	 2.2079193897	-1.1822758792	-0.403128
C	-0.9822303796	 1.1803764434	-0.0630237841	-0.089405
C	-2.3957117423	 0.5978339927	 0.1318733971	-0.342436
C	-2.1697368286	-0.8250724473	 0.6469253924	 0.373785
O	-2.8872972834	-1.4330980852	 1.3978776362	-0.303285
C	-0.8462744029	-1.3283150898	 0.0723570257	-0.211708
C	-0.1074717853	-2.3839746644	 0.8889131405	-0.399815
C	-0.0640600439	-0.04568516	-0.2255343265	 0.390371
O	 1.1010651083	 0.0053852189	-0.525100089	-0.320445
H	-1.1644166491	 1.8072683808	-2.138477888	 0.119016
H	-1.3744475837	 3.1203969063	-0.9695287247	 0.121539
H	 0.2453303284	 2.4665964527	-1.2941998325	 0.14484
H	-0.6585987551	 1.6382336029	 0.8839044827	 0.118435
H	-3.0390319205	 1.1627909025	 0.8087588958	 0.132564
H	-2.9148884673	 0.5276090013	-0.8343197582	 0.129165
H	-1.0978586626	-1.7413484465	-0.9201592238	 0.136646
H	 0.1331196969	-2.0045474342	 1.8861400896	 0.12852
H	-0.7281740972	-3.2741772554	 1.0101729773	 0.13704
H	 0.8265274448	-2.6563320483	 0.3926653089	 0.138301
37.6458	84.2906	153.1763	214.1732	217.945	236.785	252.25	344.6411	388.4503	479.2849	535.1494	564.8985	614.6391	680.0823	759.8737	802.4291	874.0317	902.2847	973.8616	987.3074	993.6153	1044.3484	1119.8984	1134.721	1144.0119	1185.1098	1216.5968	1224.6826	1265.764	1300.7428	1311.8154	1334.1949	1403.9288	1405.5603	1461.3832	1491.6314	1495.2407	1496.145	1498.8725	1824.819	1864.3109	2973.252	3000.564	3023.842	3039.086	3054.0137	3106.5001	3118.2564	3125.1805	3128.6445	3141.0201
CC1CC(=O)C(C)C1=O	C[C@H]1CC(=O)[C@H](C)C1=O	
InChI=1S/C7H10O2/c1-4-3-6(8)5(2)7(4)9/h4-5H,3H2,1-2H3	InChI=1S/C7H10O2/c1-4-3-6(8)5(2)7(4)9/h4-5H,3H2,1-2H3/t4-,5-/m0/s1
