19
gdb 5780	2.7683735	1.3817876	1.0064737	2.1133	76.07	-0.23668	-0.02101	0.21567	1210.0535	0.156501	-422.564148	-422.555564	-422.55462	-422.597728	31.985	
C	 1.2934004529	 1.1636511623	 0.1882013017	-0.39259
C	 0.9956953833	-0.321392884	-0.0245502084	-0.17218
C	 1.8633330709	-0.9541357357	-1.1087657636	-0.003931
O	 3.2419009676	-0.9340960353	-0.7296281037	-0.273366
C	 3.8276184152	-2.1888669839	-0.9698686666	 0.111807
C	 3.8359943675	-2.6867776314	-2.3719962748	-0.324649
C	 2.7789913567	-3.1985046458	-1.3777598293	-0.190314
C	 1.5024641591	-2.4325720276	-1.36017924	 0.391062
O	 0.3788476908	-2.8596312441	-1.454255566	-0.331688
H	 0.6657558542	 1.5775411468	 0.9829401662	 0.114728
H	 2.3400371057	 1.3138622411	 0.4673107504	 0.134098
H	 1.1024489679	 1.7401678922	-0.7238470986	 0.113862
H	 1.1507623866	-0.8764669566	 0.9081479846	 0.10348
H	-0.0480508583	-0.4782798866	-0.3180639585	 0.121057
H	 1.7314490473	-0.3979473926	-2.0513315888	 0.101356
H	 4.6329205492	-2.4133583613	-0.2807062103	 0.115101
H	 3.5251305779	-2.0209900852	-3.1697248995	 0.133274
H	 4.590794195	-3.4127703522	-2.6522332187	 0.131134
H	 2.7708974405	-4.2422860201	-1.0941123061	 0.11776
69.7819	101.7743	167.0545	190.4165	242.6156	305.8325	387.4451	439.5826	489.526	596.3156	658.6124	692.6048	766.0116	796.4872	815.6371	859.6697	909.7234	944.3887	963.9588	996.9086	1002.8983	1040.0341	1068.9574	1092.0434	1120.236	1142.494	1149.7411	1182.1128	1219.0923	1279.1026	1284.2838	1312.5439	1332.8691	1383.0203	1388.1083	1410.8217	1476.6474	1477.5595	1497.0016	1508.0582	1836.3104	2973.3266	3035.9671	3039.418	3080.8987	3104.5402	3119.6352	3137.1525	3187.4647	3208.3938	3228.6788
CCC1OC2CC2C1=O	CC[C@H]1O[C@@H]2C[C@@H]2C1=O	
InChI=1S/C7H10O2/c1-2-5-7(8)4-3-6(4)9-5/h4-6H,2-3H2,1H3	InChI=1S/C7H10O2/c1-2-5-7(8)4-3-6(4)9-5/h4-6H,2-3H2,1H3/t4-,5+,6+/m0/s1
