19
gdb 5797	4.1280531	1.0326451	0.8988925	2.431	78.43	-0.22703	0.00871	0.23574	1302.4647	0.157172	-422.522279	-422.513811	-422.512867	-422.555677	31.469	
O	 0.0841487282	 1.2771487729	 0.2747934025	-0.42057
C	-0.0077197566	-0.0823777702	-0.123152931	-0.093555
C	-1.4611226366	-0.4940712737	-0.0122315769	-0.060702
C	-2.1136126396	-0.6634665086	 1.4165712668	-0.267674
C	-2.8665440338	-1.9293749028	 0.8644023064	 0.094873
O	-2.8411766052	-3.1980895487	 1.488340952	-0.280936
C	-2.0710905531	-4.077677537	 0.6460077354	-0.10539
C	-1.2834690315	-3.166053144	-0.2866051894	-0.245192
C	-1.8183897531	-1.9540050208	-0.1990356699	 0.202868
H	 1.0081460449	 1.540714544	 0.2385145125	 0.288786
H	 0.3359644551	-0.2215815669	-1.1613700377	 0.089753
H	 0.6050187679	-0.7350303988	 0.5185217703	 0.087827
H	-2.0742710798	 0.1766301354	-0.6239464776	 0.095586
H	-1.3632927783	-0.9490980531	 2.1570957825	 0.114668
H	-2.7202279395	 0.1650281494	 1.7865964179	 0.107163
H	-3.8879022263	-1.6739515428	 0.5482909298	 0.078353
H	-1.4045163503	-4.678550951	 1.2787627208	 0.11032
H	-2.742475231	-4.775953155	 0.1201601158	 0.102856
H	-0.3747529713	-3.4782361381	-0.7853700504	 0.100965
83.6144	114.258	133.4506	220.6636	254.1557	312.6411	361.5353	420.9513	448.8905	664.1812	703.3279	738.0764	795.0724	809.3614	870.5156	919.1652	925.0509	961.8501	980.521	1014.7351	1033.6458	1073.0042	1078.1511	1115.9871	1125.4983	1143.2427	1184.4152	1197.2788	1230.7462	1240.1406	1258.655	1266.8329	1294.1822	1342.749	1351.5663	1388.0181	1460.2804	1469.7062	1517.8283	1522.3882	1723.4087	2963.1904	2969.2347	2994.6811	2999.4709	3028.034	3053.4644	3070.7144	3139.7365	3212.7387	3831.8139
OCC1CC2OCC=C12	OC[C@@H]1C[C@@H]2OC[CH][C]12	
InChI=1S/C7H10O2/c8-4-5-3-7-6(5)1-2-9-7/h1,5,7-8H,2-4H2	InChI=1S/C7H10O2/c8-4-5-3-7-6(5)1-2-9-7/h1,5,7-8H,2-4H2/t5-,7-/m0/s1
