19
gdb 5482	3.3022171	1.2657133	1.1254293	1.0497	75.07	-0.19437	0.07129	0.26566	1155.1677	0.155186	-422.459573	-422.450948	-422.450003	-422.492499	33.224	
C	 1.4239188676	-0.0983842201	 0.0957803979	-0.250846
O	 0.010140977	 0.0290797864	 0.0946933402	-0.269553
C	-0.4614499832	 0.7011505517	 1.2372882691	 0.000845
C	-1.9028068852	 1.1260273897	 1.0675432176	-0.200443
C	-2.445879306	 1.9539367616	 2.2667459771	-0.056252
C	-1.4601926344	 2.1927005864	 3.3834600754	-0.306031
C	-1.3303367139	 2.9731659231	 2.1015026325	-0.10856
C	-0.7711097187	 2.1447726413	 0.9270869456	 0.40629
O	-0.2387449743	 2.7970680854	-0.1646531869	-0.468244
H	 1.7678932845	-0.6933062168	 0.9541630316	 0.115274
H	 1.6982768989	-0.616391813	-0.8261478116	 0.129451
H	 1.9224658152	 0.8797975085	 0.1271288941	 0.121654
H	-0.0411374557	 0.3080167904	 2.164431268	 0.077025
H	-2.5332585806	 0.6440651804	 0.330907734	 0.096816
H	-3.5037620068	 2.1460301997	 2.3898721237	 0.095242
H	-1.8625887565	 2.7695914797	 4.2116107349	 0.112706
H	-0.7322827256	 1.4532544083	 3.6964758091	 0.115751
H	-1.4015478332	 4.0516335984	 2.0517315502	 0.099399
H	-0.0591925291	 2.1112728488	-0.8216047725	 0.289477
91.4308	154.5101	178.7105	227.5139	270.3377	334.9485	386.3425	400.7945	438.973	464.9891	548.2009	690.7297	703.6517	760.7424	850.8696	861.209	890.3089	905.955	930.3524	975.4332	986.3875	1031.2154	1053.3893	1063.4923	1085.0207	1105.102	1113.9699	1148.6544	1181.379	1182.0906	1222.7763	1245.8049	1260.821	1304.7985	1329.6147	1409.6475	1444.0543	1477.3164	1486.3588	1496.747	1510.8082	2992.1619	3048.5601	3070.3042	3120.3633	3129.4833	3187.3728	3195.9784	3200.3427	3209.2471	3768.8338
COC1C2C3CC3C12O	CO[C@@H]1[C@H]2[C@H]3C[C@H]3[C@@]12O	
InChI=1S/C7H10O2/c1-9-6-5-3-2-4(3)7(5,6)8/h3-6,8H,2H2,1H3	InChI=1S/C7H10O2/c1-9-6-5-3-2-4(3)7(5,6)8/h3-6,8H,2H2,1H3/t3-,4+,5+,6+,7-/m0/s1
