19
gdb 3286	4.1280294	1.2632957	1.0921766	1.3006	75.58	-0.23499	0.07933	0.31432	1152.3298	0.15699	-422.505658	-422.497825	-422.496881	-422.537661	30.779	
C	-0.3272681935	-0.3215816984	-0.1369597236	-0.418369
C	 1.1632874658	-0.1770643577	-0.341550904	-0.063731
C	 2.1326664213	-0.6124098389	 0.7292235478	 0.051451
O	 3.3610819911	-1.1433921578	 0.3040931637	-0.256504
C	 4.4468341711	-0.3339398722	 0.6720589783	 0.073051
C	 5.2230353859	 0.3082190424	-0.4477972824	-0.325775
C	 4.2642235697	 1.1286243674	 0.3747289335	 0.07305
O	 3.0369298346	 1.4528138467	-0.2237032173	-0.256504
C	 1.949783606	 0.8523378817	 0.4314513673	 0.051449
H	-0.6053530472	-0.1439680769	 0.9074324314	 0.115056
H	-0.881427363	 0.3954796113	-0.7518155823	 0.12459
H	-0.6661207036	-1.3288822103	-0.4012356677	 0.12459
H	 1.5312089147	-0.3363469029	-1.3510449441	 0.104086
H	 1.7517746847	-1.0347124867	 1.6580735087	 0.087589
H	 4.9627471815	-0.6504392266	 1.5762730274	 0.091229
H	 6.2872677994	 0.468248143	-0.3142316461	 0.11394
H	 4.9046933764	 0.0638042711	-1.4545598327	 0.131986
H	 4.6467064687	 1.8807723708	 1.0616942485	 0.091229
H	 1.435745086	 1.4964893168	 1.1435000932	 0.087589
119.7955	184.1805	221.8107	280.9829	297.9884	325.2105	443.8154	459.6021	507.6789	577.4015	763.6657	806.5611	824.4138	830.3169	856.175	874.4056	915.2048	1001.1149	1003.371	1036.2679	1064.6108	1071.8489	1095.643	1109.0368	1121.5243	1124.132	1134.0108	1152.6526	1170.7092	1187.2665	1207.1326	1234.7112	1308.0084	1312.2325	1382.716	1382.725	1416.1069	1445.1116	1467.9419	1494.0373	1501.6434	3030.1629	3095.2953	3097.2035	3103.1625	3113.9327	3114.7774	3124.9768	3140.8638	3161.4534	3235.9738
CC1C2OC3CC3OC12	C[C@@H]1[C@H]2O[C@H]3C[C@H]3O[C@@H]12	
InChI=1S/C7H10O2/c1-3-6-7(3)9-5-2-4(5)8-6/h3-7H,2H2,1H3	InChI=1S/C7H10O2/c1-3-6-7(3)9-5-2-4(5)8-6/h3-7H,2H2,1H3/t3-,4+,5-,6-,7+
