19
gdb 1272	2.3993637	1.4311727	1.2171241	2.6288	75.59	-0.24051	-0.02558	0.21493	1136.0267	0.15445	-422.541103	-422.531852	-422.530908	-422.575237	33.93	
C	-1.1741874804	-1.537547972	-0.8893309302	-0.40695
C	-1.4413876248	-0.0374130443	-1.0919043717	-0.110731
C	-0.746385063	 0.5003540202	-2.3547438935	-0.400939
C	-0.9972143858	 0.7440932456	 0.1085551269	 0.331095
O	-1.4877875927	 2.0976191243	 0.2927044629	-0.291716
C	-1.6511474357	 1.183439127	 1.3730184865	-0.064144
C	-0.3395914628	 1.2356612771	 2.1668296626	-0.370628
C	 0.3448161568	 0.7454869343	 0.8519678504	 0.383598
O	 1.4428842895	 0.3553365844	 0.5856135983	-0.304269
H	-1.6971308423	-1.9223350076	-0.0078052691	 0.112112
H	-1.5165434026	-2.105763329	-1.759254971	 0.118589
H	-0.1041874355	-1.7286202116	-0.7611568126	 0.142587
H	-2.5223708035	 0.123531677	-1.1927558083	 0.088347
H	-1.090333145	-0.040265191	-3.2417834216	 0.113038
H	-0.960870554	 1.5633726889	-2.4958066168	 0.131181
H	 0.3386229278	 0.3770810355	-2.2790695714	 0.139068
H	-2.655920309	 0.9704275479	 1.7169772251	 0.120029
H	-0.0591073069	 2.2195924106	 2.547089251	 0.137574
H	-0.2358666403	 0.4826253225	 2.9542409125	 0.132156
58.0382	121.1343	148.5412	173.3123	227.966	258.6684	304.7253	395.7517	418.1978	468.7057	494.6141	584.966	650.2629	705.4592	798.5029	874.4324	881.5463	918.7363	935.0525	958.2267	970.5964	990.3462	1033.6012	1060.5965	1130.1031	1138.1679	1186.2645	1192.2685	1238.4915	1263.1086	1329.1639	1343.0131	1398.4331	1416.0848	1435.5118	1452.2783	1489.6775	1494.0589	1503.4519	1519.2414	1888.1459	3026.4044	3036.295	3040.0956	3066.001	3106.1528	3110.76	3115.6199	3118.792	3130.5477	3200.2611
CC(C)C12OC1CC2=O	CC(C)[C@@]12O[C@@H]1CC2=O	
InChI=1S/C7H10O2/c1-4(2)7-5(8)3-6(7)9-7/h4,6H,3H2,1-2H3	InChI=1S/C7H10O2/c1-4(2)7-5(8)3-6(7)9-7/h4,6H,3H2,1-2H3/t6-,7+/m1/s1
