19
gdb 4914	2.6556865	0.9996954	0.8425019	1.8819	82.48	-0.22034	0.03397	0.25431000000000004	1453.428	0.153323	-422.495192	-422.484581	-422.483637	-422.532004	37.026	
C	-2.7090690778	 2.0757401605	 1.344181461	-0.26236
O	-3.1257914259	 0.7216703139	 1.1830537321	-0.290873
C	-2.5423021834	 0.0836357272	 0.0701805307	 0.164114
C	-3.362015419	-1.099102259	-0.4205214113	-0.385675
C	-3.3904457282	 0.1890613314	-1.1975998397	 0.089409
O	-4.5118249424	 1.0112735365	-1.1703326378	-0.429776
C	-1.1078893631	 0.0483514096	 0.0083540648	 0.039866
C	 0.0957386001	 0.0255440661	-0.0622551567	 0.086763
C	 1.5481565893	-0.0145780953	-0.1450894719	-0.50355
H	-3.2396180657	 2.4589343972	 2.2185109645	 0.1273
H	-1.6286504114	 2.1374258399	 1.5178213572	 0.128302
H	-2.9648159863	 2.679673851	 0.4643727099	 0.124197
H	-2.8239354638	-1.9505457547	-0.8201312544	 0.126266
H	-4.2360545459	-1.3360342149	 0.1775456621	 0.125993
H	-2.8870903555	 0.2376912137	-2.1563466454	 0.116163
H	-4.7545947717	 1.1057223213	-0.2394919783	 0.290852
H	 1.9972567669	-0.1764283188	 0.841076827	 0.152011
H	 1.8799064668	-0.8318950976	-0.7950385496	 0.152269
H	 1.9570342969	 0.9178827618	-0.5499595842	 0.148727
23.8561	86.4615	93.2402	126.4361	185.1884	220.2706	266.6958	275.5177	307.099	391.5491	409.7121	439.8231	493.6698	550.566	563.5104	695.2564	815.2053	861.3705	877.2066	992.7404	1015.4246	1050.6528	1053.1024	1059.1649	1086.8595	1098.1413	1145.1211	1183.1635	1214.9848	1251.9602	1291.3165	1340.0812	1413.603	1429.2172	1468.3498	1473.9528	1475.0924	1479.3578	1486.9901	1512.3052	2356.9637	3014.1473	3026.3797	3080.3866	3086.2948	3089.1841	3127.5569	3134.6024	3183.8985	3232.1146	3762.4716
COC1(CC1O)C#CC	CO[C@]1(C[C@H]1O)C#CC	
InChI=1S/C7H10O2/c1-3-4-7(9-2)5-6(7)8/h6,8H,5H2,1-2H3	InChI=1S/C7H10O2/c1-3-4-7(9-2)5-6(7)8/h6,8H,5H2,1-2H3/t6-,7+/m1/s1
