19
gdb 5692	3.1010205	1.3645128	1.1088911	1.28	76.86	-0.23729	0.07628	0.31357	1139.7817	0.155641	-422.442506	-422.434175	-422.43323	-422.475434	31.528	
C	 1.519075222	-0.0183308547	-0.0061105909	-0.24625
O	 0.1078004114	-0.1646711328	 0.045240068	-0.241408
C	-0.4442497972	 0.4877329854	 1.1433527255	 0.000734
C	-1.9047384503	 0.87604155	 1.0418759851	-0.429239
C	-0.8285178281	 1.9181913801	 1.0230671101	 0.437979
C	-0.475476991	 3.1924331241	 1.80352863	-0.054822
C	-1.3084657426	 4.016744976	 0.7897056873	-0.217384
C	-0.4287352796	 3.0016257948	 0.0158004835	-0.036438
O	 0.7045050115	 3.3607169607	 0.9119431546	-0.311981
H	 2.0050090584	-0.555734177	 0.8226756464	 0.104842
H	 1.8528245841	-0.4529038077	-0.9512381368	 0.122291
H	 1.812390758	 1.0377934102	 0.0474263795	 0.132971
H	-0.0852148572	 0.1324611078	 2.1123292577	 0.083581
H	-2.3953144471	 0.651371326	 0.0999237248	 0.129201
H	-2.5293606692	 0.7555451571	 1.9212811013	 0.117014
H	-0.3253757907	 3.3413722765	 2.872916856	 0.097173
H	-2.3910442254	 3.8718204707	 0.7766352561	 0.102345
H	-1.0055785642	 5.0594397556	 0.6860325101	 0.106917
H	-0.2262149929	 2.9203340271	-1.0515276784	 0.102476
108.2995	128.5086	156.427	208.5971	224.7845	313.5929	415.9778	442.856	564.5788	589.077	692.8845	747.1601	779.8583	814.6355	869.51	873.9663	916.2102	969.1855	1012.9349	1025.106	1030.1145	1064.9474	1069.6429	1107.253	1118.1594	1133.1827	1156.0119	1170.3306	1180.0138	1191.1187	1213.636	1230.0769	1252.7297	1263.8071	1356.2688	1423.7701	1472.3919	1481.7614	1486.5127	1511.1951	1521.8328	2986.5455	3053.865	3067.9618	3070.7451	3120.6231	3121.6664	3125.4923	3130.3917	3150.7727	3213.5989
COC1CC11C2CC1O2	CO[C@@H]1C[C@]21[C@@H]1C[C@H]2O1	
InChI=1S/C7H10O2/c1-8-6-3-7(6)4-2-5(7)9-4/h4-6H,2-3H2,1H3	InChI=1S/C7H10O2/c1-8-6-3-7(6)4-2-5(7)9-4/h4-6H,2-3H2,1H3/t4-,5+,6-,7-/m1/s1
