19
gdb 4775	2.6784135	1.0248387	0.7950302	1.6174	79.45	-0.25522	0.01598	0.2712	1448.75	0.152807	-422.486595	-422.476269	-422.475325	-422.522322	36.37	
C	 1.4166073466	-0.0991808478	-0.2412243029	-0.241041
O	 0.0276983673	-0.1414714439	 0.0104207109	-0.239587
C	-0.396413258	 0.6154975052	 1.130061078	 0.091857
C	-1.9152852113	 0.7205885931	 1.0575446518	-0.406103
C	 0.0361281074	-0.0469592196	 2.4286332629	 0.05365
O	-0.1461826288	 0.7180352574	 3.6161468558	-0.24334
C	 1.2014753015	 0.4233400278	 3.2098790566	-0.166138
C	 1.9689575666	-0.4646121076	 4.0401799852	 0.316551
C	 2.6340296179	-1.1981824382	 4.7215249604	-0.40596
H	 2.0047448135	-0.5811000207	 0.5519913076	 0.116981
H	 1.5868139869	-0.6368637016	-1.1770073062	 0.130809
H	 1.774375928	 0.9357663739	-0.3581343947	 0.103999
H	 0.0451552118	 1.6262308845	 1.0951868518	 0.069264
H	-2.2941955794	 1.2902299667	 1.9098229255	 0.135553
H	-2.2135163128	 1.2186676144	 0.1317886767	 0.124398
H	-2.3654772009	-0.2768744032	 1.0715992243	 0.126291
H	-0.2375756295	-1.0994958189	 2.5178414883	 0.110255
H	 1.7426769356	 1.2903662994	 2.8312157395	 0.118227
H	 3.2155856176	-1.8484359408	 5.3275026585	 0.204334
69.4102	75.1067	113.6538	142.6149	197.1441	221.9578	236.2937	264.6223	335.1289	347.7829	468.7846	499.7253	535.0152	566.1968	621.9096	673.237	839.1581	868.4117	906.0933	936.6633	995.1882	1072.6126	1079.9458	1129.6239	1143.1059	1156.3355	1174.0923	1183.4122	1234.555	1261.7007	1304.8207	1354.1285	1373.0643	1403.5972	1461.5255	1477.4992	1487.1946	1491.0007	1499.8284	1511.1143	2241.7217	2957.9859	2980.5642	3036.292	3047.1348	3105.535	3111.7372	3116.2833	3121.6226	3134.1944	3502.1642
COC(C)C1OC1C#C	CO[C@@H](C)[C@@H]1O[C@H]1C#C	
InChI=1S/C7H10O2/c1-4-6-7(9-6)5(2)8-3/h1,5-7H,2-3H3	InChI=1S/C7H10O2/c1-4-6-7(9-6)5(2)8-3/h1,5-7H,2-3H3/t5-,6-,7-/m0/s1
