19
gdb 842	3.7977516	1.0542989	0.9848425	3.2955	75.79	-0.25002	-0.02266	0.22736	1238.7939	0.157967	-422.565509	-422.557509	-422.556564	-422.598714	29.789	
O	 1.7246420412	 0.1689922441	 0.7544299419	-0.248295
C	 0.7240689936	 0.2494435302	 0.0912702044	 0.150731
C	 0.3276017627	 1.4250791734	-0.7670975237	-0.06359
C	-1.0516251525	 2.005891092	-0.3550281336	-0.252348
C	-1.5830089035	 2.7191388533	-1.6074659962	-0.07225
C	-0.8749234947	 4.0337047582	-1.9916965701	-0.078814
O	-0.0891152981	 3.3717119713	-3.0060927495	-0.295448
C	-0.7912945091	 2.1232681683	-2.8039031768	 0.128116
C	 0.114747166	 1.0282100127	-2.2487551291	-0.248502
H	-0.0179077959	-0.5872399025	 0.0679219642	 0.064568
H	 1.109837977	 2.1838506811	-0.6872927295	 0.107046
H	-1.728829735	 1.1848749405	-0.0857536192	 0.103932
H	-0.9802184407	 2.6646645332	 0.515399195	 0.115782
H	-2.6716669933	 2.7353169225	-1.6647117392	 0.080744
H	-1.5300884206	 4.800612272	-2.4238040325	 0.102803
H	-0.2479987613	 4.4959162027	-1.218549379	 0.103232
H	-1.3421187157	 1.8252623256	-3.7027141053	 0.075486
H	-0.4052065103	 0.0623968033	-2.3123752131	 0.100325
H	 1.0507349101	 0.9457540578	-2.8069858187	 0.126482
71.0802	95.9221	136.181	283.1675	310.2983	368.4385	370.7109	461.3723	612.1319	654.9258	798.767	850.9083	852.7146	872.277	894.6259	916.1938	942.6019	988.3995	1024.5341	1027.9753	1060.8104	1076.016	1103.5146	1130.3903	1153.7395	1165.5491	1200.3133	1241.0894	1265.9755	1290.9923	1296.1417	1323.3736	1326.0334	1342.0804	1364.2294	1375.739	1427.3711	1467.3542	1488.8455	1524.4765	1836.2651	2823.2688	3009.1632	3021.0111	3026.3915	3048.8367	3051.3999	3083.0318	3094.6719	3107.234	3108.2893
O=CC1CC2COC2C1	O=C[C@@H]1C[C@H]2CO[C@H]2C1	
InChI=1S/C7H10O2/c8-3-5-1-6-4-9-7(6)2-5/h3,5-7H,1-2,4H2	InChI=1S/C7H10O2/c8-3-5-1-6-4-9-7(6)2-5/h3,5-7H,1-2,4H2/t5-,6+,7+/m1/s1
