19
gdb 1194	3.0354194	0.9972955	0.8917284	1.4298	78.5	-0.25773	0.02312	0.28085000000000004	1382.5144	0.152108	-422.507684	-422.497001	-422.496056	-422.543764	38.041	
C	 5.3156843656	 1.4709582012	-0.2510959073	-0.454908
C	 4.3803301547	 1.0779208609	-1.3734816803	 0.395255
C	 5.0505780358	 0.8782012677	-2.7169148757	-0.452857
O	 3.1318823561	 1.8023398879	-1.4368250669	-0.291893
C	 3.0898689783	 0.4098960235	-1.1314396416	-0.006536
C	 2.5817758455	 0.0037102703	 0.2476509895	-0.089296
O	 3.1120874457	-1.2695877055	 0.6137546373	-0.415613
C	 1.1178672716	 0.0158467075	 0.2853182288	 0.292025
C	-0.0835167678	-0.0242991352	 0.2783026307	-0.438528
H	 6.0173482935	 0.6587194955	-0.0354171204	 0.131351
H	 5.8984273159	 2.3511956946	-0.5429281852	 0.122924
H	 4.7785275822	 1.7174133524	 0.6656626101	 0.129618
H	 5.7978520467	 0.0793311443	-2.6620339921	 0.123638
H	 4.3179855086	 0.6194093442	-3.4851576464	 0.127025
H	 5.5625264095	 1.7956142353	-3.0271408251	 0.125911
H	 2.6878301067	-0.2164714256	-1.9321742524	 0.084765
H	 2.963375613	 0.7102272525	 0.9899613719	 0.124456
H	 2.5737837754	-1.9436308833	 0.184698392	 0.289041
H	-1.1455971069	-0.0398971482	 0.288481073	 0.203621
34.6498	95.2481	138.6631	154.9182	175.6985	210.6705	231.6144	270.3616	349.8055	376.4688	385.9011	427.8548	502.4667	540.4102	595.491	638.9221	677.329	715.6504	834.5256	922.5304	937.2022	951.3979	1005.2335	1052.6733	1067.7479	1107.4199	1140.4197	1152.9848	1239.3586	1261.537	1293.3538	1352.9439	1401.3451	1409.6261	1421.0281	1463.0806	1472.7583	1486.3656	1500.6573	1520.3557	2233.7607	3034.5583	3042.2658	3068.2515	3082.3271	3097.7627	3103.55	3123.9313	3140.5318	3501.958	3811.5064
CC1(C)OC1C(O)C#C	CC1(C)O[C@@H]1[C@H](O)C#C	
InChI=1S/C7H10O2/c1-4-5(8)6-7(2,3)9-6/h1,5-6,8H,2-3H3	InChI=1S/C7H10O2/c1-4-5(8)6-7(2,3)9-6/h1,5-6,8H,2-3H3/t5-,6-/m1/s1
