19
gdb 5080	2.8140592	1.3368311	1.0756287	2.6388	77.12	-0.22867	-0.01038	0.21829	1193.664	0.154943	-422.532762	-422.523402	-422.522458	-422.567041	33.799	
C	 1.5407419111	 0.1769200049	 0.0508247566	-0.264168
O	 0.1314726497	-0.0300807338	 0.0121377349	-0.277201
C	-0.5301254642	 0.5355987777	 1.0680496773	 0.339481
C	-0.8920854789	 2.0209812788	 1.0930243517	-0.355776
C	-1.9982301564	 1.019989002	 1.148076911	-0.146653
C	-2.1370617257	 0.502341367	 2.5934919865	-0.112513
C	-3.1525373086	-0.6122390023	 2.8321170882	-0.408973
C	-0.6896038727	-0.0570464113	 2.4390557936	 0.341813
O	-0.063374217	-0.8666226818	 3.0655796661	-0.336156
H	 1.9799050379	-0.2727298388	 0.9486139142	 0.141616
H	 1.9522897771	-0.30737977	-0.8367370432	 0.131272
H	 1.7856169597	 1.2477190245	 0.0266756017	 0.111437
H	-0.6732120228	 2.6503494913	 1.9517863137	 0.118712
H	-0.725458518	 2.4900494017	 0.1281633924	 0.129372
H	-2.7483048511	 0.9173963882	 0.3749028613	 0.114505
H	-2.2505142086	 1.2976630644	 3.3388197668	 0.089787
H	-2.9871540292	-1.0697330769	 3.8112796385	 0.138068
H	-4.1754483574	-0.2244683058	 2.7995104413	 0.11879
H	-3.0611147951	-1.3988463398	 2.0759360073	 0.126588
70.5151	92.6359	170.9749	194.3113	210.4806	231.8823	246.8368	318.3539	416.9152	447.2901	522.3237	584.289	678.0944	779.936	806.0635	857.9013	892.3675	935.8664	957.6035	1000.6656	1006.0348	1055.9034	1077.5957	1084.6074	1100.6444	1146.2476	1179.836	1216.2428	1223.2753	1243.1542	1274.5874	1348.5849	1369.5876	1409.1588	1474.874	1486.7748	1493.5862	1494.7544	1500.3708	1507.6775	1867.9559	3004.9142	3037.842	3041.9036	3075.3154	3106.2857	3110.9834	3119.9072	3132.2059	3202.4813	3211.2703
COC12CC1C(C)C2=O	CO[C@@]12C[C@@H]1[C@@H](C)C2=O	
InChI=1S/C7H10O2/c1-4-5-3-7(5,9-2)6(4)8/h4-5H,3H2,1-2H3	InChI=1S/C7H10O2/c1-4-5-3-7(5,9-2)6(4)8/h4-5H,3H2,1-2H3/t4-,5-,7+/m1/s1
