19
gdb 6022	4.7538615	0.9452703	0.9273608	2.5669	77.	-0.23707	0.00163	0.2387	1349.2507	0.156166	-422.498271	-422.489921	-422.488977	-422.531912	31.25	
C	 0.1743905313	-0.4374323838	-0.6461872838	-0.385305
C	 1.0836638089	 0.0903767446	 0.4495765315	-0.046417
O	 1.4609203204	 1.417815699	 0.1166893447	-0.258683
C	 2.2330124664	 2.045530795	 1.079732643	 0.189278
C	 2.7209110955	 3.4658351351	 0.6397113936	-0.028195
C	 3.4988632902	 3.8840511274	 1.8922068001	-0.087434
C	 4.2475147314	 2.7969763286	 2.1131948795	-0.082536
C	 3.8108456498	 1.8870451463	 0.9648438354	-0.034743
O	 3.749418476	 2.8107360291	-0.1641052039	-0.27847
H	-0.1375857126	-1.4616357463	-0.4211410924	 0.115139
H	-0.7185872487	 0.187368854	-0.7365050718	 0.127836
H	 0.6935524514	-0.4344508972	-1.6084612531	 0.133303
H	 0.5676732708	 0.0807282288	 1.4238893596	 0.089499
H	 1.9778060657	-0.5449184202	 0.5493602682	 0.091914
H	 1.8017522361	 1.943459643	 2.085781198	 0.066517
H	 2.0914962761	 4.169764819	 0.0982810235	 0.085076
H	 3.4060765404	 4.8066912051	 2.4454406445	 0.111769
H	 4.9430923015	 2.566637854	 2.9067059989	 0.110224
H	 4.3223975992	 0.9475219685	 0.7619337948	 0.08123
63.6628	76.3469	131.9291	238.9374	304.4944	326.197	373.6209	523.0342	552.3924	642.1416	714.9967	749.5963	819.291	842.0895	868.3613	887.6174	903.9998	914.8746	922.3168	945.3162	964.8078	1026.5842	1057.9495	1135.0546	1139.4966	1151.9009	1163.3199	1186.6012	1202.0345	1229.165	1237.405	1296.8538	1303.2435	1308.3877	1366.3172	1404.0319	1440.0678	1483.0055	1499.8698	1527.7091	1604.8286	2965.1566	2996.4572	3007.1434	3046.5774	3120.8389	3125.124	3138.2057	3146.0128	3231.3778	3258.0265
CCOC1C2C=CC1O2	CCO[C@@H]1[C@H]2C=C[C@@H]1O2	
InChI=1S/C7H10O2/c1-2-8-7-5-3-4-6(7)9-5/h3-7H,2H2,1H3	InChI=1S/C7H10O2/c1-2-8-7-5-3-4-6(7)9-5/h3-7H,2H2,1H3/t5-,6+,7-
