19
gdb 3970	3.0306012	1.4318891	1.1552752	2.5514	78.45	-0.23404	0.02184	0.25588	1099.2919	0.158211	-422.537419	-422.529464	-422.52852	-422.569675	30.977	
O	 0.0500473808	 1.4133966339	 0.0844025028	-0.427431
C	 0.0559543037	 0.0051496451	-0.0131349388	 0.088789
C	 0.1791602552	-0.5283234914	-1.4908355779	-0.35848
C	-1.3315225603	-0.6006089172	-1.4913162432	 0.340538
C	-2.3449280508	-0.3181709765	-2.2945227055	-0.262805
C	-3.7058587614	-0.079818905	-1.6841481278	-0.095219
O	-3.7503435804	-0.2311276929	-0.2744847403	-0.259248
C	-2.6200024143	 0.290317509	 0.426148859	-0.114854
C	-1.4090057837	-0.5395127761	 0.0175607494	-0.064518
H	 0.9286823577	 1.7333715903	-0.1428715877	 0.285889
H	 0.7481950884	-0.440942376	 0.7130923963	 0.064945
H	 0.6635429625	 0.1360704942	-2.2130442978	 0.102962
H	 0.665805609	-1.5097945305	-1.523765752	 0.108288
H	-2.2345655162	-0.1493024059	-3.3625785785	 0.087065
H	-4.0416291015	 0.9339751422	-1.9713512386	 0.095698
H	-4.4531674698	-0.7804584247	-2.0774035806	 0.11501
H	-2.4495102648	 1.3472806632	 0.1837400952	 0.109506
H	-2.8697938746	 0.2090986487	 1.4873784699	 0.101966
H	-1.4360372798	-1.5271298605	 0.490876346	 0.081898
92.1871	194.692	244.2557	276.3904	288.0709	332.1797	403.1723	440.7214	518.929	525.2085	664.6211	766.1144	792.9931	837.0009	850.0968	878.4725	923.1018	968.1822	969.8765	1018.3068	1044.29	1076.1317	1091.8981	1127.2219	1149.651	1151.1928	1190.3239	1228.3598	1236.4985	1256.7182	1289.1335	1310.713	1312.644	1358.7626	1370.5949	1403.4209	1415.9701	1459.6091	1487.5548	1503.9731	1778.5605	2933.5728	3005.7866	3024.4432	3035.0295	3038.1398	3046.813	3090.5443	3094.2514	3161.1419	3818.0105
OC1CC2=CCOCC12	O[C@@H]1C[C]2[CH]COC[C@H]12	
InChI=1S/C7H10O2/c8-7-3-5-1-2-9-4-6(5)7/h1,6-8H,2-4H2	InChI=1S/C7H10O2/c8-7-3-5-1-2-9-4-6(5)7/h1,6-8H,2-4H2/t6-,7+/m0/s1
