19
gdb 1068	2.6571427	1.5488926	1.1669094	2.1927	76.44	-0.22847	-0.01343	0.21504	1106.0271	0.155085	-422.540674	-422.531706	-422.530761	-422.574348	33.961	
C	 2.818207601	-0.9440421258	-0.8380976339	-0.472649
C	 1.6006555119	-0.5846247027	-0.0042907665	 0.314736
O	 1.7047467996	-0.2778910872	 1.1659746559	-0.317667
C	 0.2697936524	-0.6481477485	-0.7048920737	 0.274559
O	 0.3457273799	-0.9607244024	-2.0772199883	-0.467668
C	-0.9518272111	 0.194080129	-0.3664245012	-0.118705
C	-1.1183351386	 0.4778571134	 1.131479895	-0.232828
C	-1.1173028661	-1.0640694375	 1.3990398697	-0.236649
C	-0.9652855764	-1.3058444889	-0.1061004271	-0.076956
H	 2.685811247	-1.9167359147	-1.3200130821	 0.150383
H	 2.959697016	-0.2169648599	-1.6459283953	 0.126449
H	 3.6982147383	-0.9467459621	-0.1940695007	 0.13505
H	 0.5090478338	-0.1465015344	-2.5651618665	 0.28645
H	-1.4127211123	 0.7447447773	-1.1798440242	 0.084257
H	-0.3333092903	 1.0592332159	 1.6131186583	 0.124898
H	-2.0909532963	 0.929286933	 1.342117996	 0.099932
H	-0.3226756157	-1.4461065823	 2.0404669596	 0.122948
H	-2.0822079437	-1.4216881691	 1.7655790325	 0.102608
H	-1.4195052893	-2.0968341132	-0.6905890576	 0.100851
42.4168	162.3759	194.1778	213.5995	282.6789	304.8929	338.4409	358.8852	403.032	428.406	587.0272	600.3156	635.3181	721.9659	777.3208	843.5371	857.7654	909.743	945.5415	962.0647	967.93	1011.0834	1024.4047	1049.6536	1091.5078	1104.0192	1149.5761	1178.7562	1218.7556	1242.2154	1249.0392	1279.3882	1307.5272	1332.8224	1371.8861	1385.842	1454.8117	1469.0871	1470.9354	1490.5439	1783.044	3041.9949	3069.8189	3077.9869	3106.6055	3130.187	3145.8562	3156.5922	3162.1689	3189.9367	3799.6533
CC(=O)C1(O)C2CCC12	CC(=O)[C@]1(O)[C@@H]2CC[C@H]12	
InChI=1S/C7H10O2/c1-4(8)7(9)5-2-3-6(5)7/h5-6,9H,2-3H2,1H3	InChI=1S/C7H10O2/c1-4(8)7(9)5-2-3-6(5)7/h5-6,9H,2-3H2,1H3/t5-,6+,7+
