19
gdb 1036	4.5525006	0.8279342	0.7323441	1.0961	81.75	-0.25414	0.04414	0.29828	1588.4891	0.156686	-422.526512	-422.517313	-422.516369	-422.562104	32.735	
C	 1.4779359138	-0.0077555158	-0.0218728998	-0.505688
C	 0.0235747488	-0.030247055	-0.0340821383	 0.221705
C	-1.1779257142	-0.0549088881	-0.0564290952	-0.037506
C	-2.6357378053	-0.0636106748	-0.0418606018	 0.014227
O	-3.0887370723	-1.4004354327	-0.0745991433	-0.247023
C	-4.5091794242	-1.4634736494	-0.0119952524	-0.071915
C	-5.1315375178	-0.6622530426	-1.1573332206	-0.20631
C	-4.5336611017	 0.7460900335	-1.1430501697	-0.071915
O	-3.1118238238	 0.6834197556	-1.1412545067	-0.247029
H	 1.8622631693	 0.401705625	 0.9185732391	 0.150173
H	 1.8879033111	-1.0165807601	-0.1397075783	 0.154289
H	 1.8683590853	 0.6083301577	-0.8390124116	 0.15422
H	-3.011773784	 0.4088187184	 0.8892406915	 0.073276
H	-4.7714006048	-2.5231444912	-0.060543247	 0.113145
H	-4.8579590138	-1.0692642327	 0.958318163	 0.088672
H	-4.8956873374	-1.1473164801	-2.1100173427	 0.117971
H	-6.2214496875	-0.6204453659	-1.0520821461	 0.097889
H	-4.8139783753	 1.3215600828	-2.0286438513	 0.113146
H	-4.8842071861	 1.2965853454	-0.2527538485	 0.088673
20.5233	82.3105	88.2141	205.5467	259.2188	305.787	328.3853	368.2091	424.9004	455.9604	536.353	538.4153	641.6205	840.9026	868.7593	899.0446	942.913	959.0738	991.8578	1012.4685	1052.7681	1054.7332	1066.8043	1131.0646	1171.3547	1195.2141	1237.7824	1260.2146	1303.9058	1368.0832	1370.1833	1405.6159	1408.9961	1414.466	1421.0452	1468.2335	1476.1751	1476.9164	1494.2467	1504.2712	2389.8527	2883.043	2956.5453	2963.873	3030.604	3043.656	3091.3463	3092.9465	3094.3374	3096.0372	3101.2504
CC#CC1OCCCO1	CC#CC1OCCCO1	
InChI=1S/C7H10O2/c1-2-4-7-8-5-3-6-9-7/h7H,3,5-6H2,1H3	InChI=1S/C7H10O2/c1-2-4-7-8-5-3-6-9-7/h7H,3,5-6H2,1H3
