19
gdb 3882	2.5426817	1.6326794	1.2394017	0.6648	74.32	-0.25673	0.07501	0.33174000000000003	1065.8714	0.156928	-422.534151	-422.526133	-422.525188	-422.566558	31.105	
C	 2.5495328362	 1.1008475846	-0.7944665918	-0.402963
C	 1.5232096665	 0.0708513741	-0.3048521818	-0.029802
C	 1.8721136122	-0.5057509902	 1.0979324066	-0.320849
C	 2.6969206862	-1.7599929808	 0.8175714313	 0.438536
C	 3.3457560184	-2.588523178	 1.8341520739	-0.256014
O	 4.1184594663	-1.7061468418	 1.0102598168	-0.281664
C	 2.2611687622	-2.2556715279	-0.5309653205	-0.046789
O	 0.8322686137	-2.2866166943	-0.6648553555	-0.270656
C	 1.5417424851	-1.162136829	-1.1994272694	 0.05706
H	 2.5389117618	 1.9907514839	-0.1580437272	 0.119543
H	 3.5624765941	 0.6852600951	-0.7728320969	 0.13599
H	 2.3361211119	 1.4203253269	-1.8202070618	 0.114416
H	 0.5264037255	 0.5250330993	-0.2986916606	 0.08123
H	 2.4346889863	 0.1986158857	 1.7151758086	 0.112908
H	 0.9603011433	-0.781089564	 1.6336007962	 0.120059
H	 3.2746367542	-2.3033717694	 2.8832456524	 0.115674
H	 3.5003003654	-3.6518033785	 1.6540808599	 0.115825
H	 2.8205916168	-3.0321231236	-1.0448006418	 0.101446
H	 1.5077346438	-1.0604265823	-2.2817677384	 0.09605
83.7385	168.6045	236.6518	285.0066	290.6161	340.8562	374.0202	440.0378	501.6117	557.2133	713.6437	776.7336	817.2306	838.6461	861.2867	876.7421	923.0563	926.0768	945.1945	991.9535	1011.8737	1054.9203	1085.8163	1113.4126	1127.2788	1142.2925	1161.784	1204.8244	1237.19	1251.0988	1273.7837	1301.5297	1333.2271	1353.597	1401.1973	1415.6235	1450.8206	1472.5795	1500.1722	1501.2452	1534.4956	3032.6108	3045.8856	3070.0271	3079.3291	3100.968	3109.527	3118.8307	3140.7763	3163.1664	3165.0717
CC1CC2(CO2)C2OC12	C[C@@H]1C[C@@]2(CO2)[C@H]2O[C@@H]12	
InChI=1S/C7H10O2/c1-4-2-7(3-8-7)6-5(4)9-6/h4-6H,2-3H2,1H3	InChI=1S/C7H10O2/c1-4-2-7(3-8-7)6-5(4)9-6/h4-6H,2-3H2,1H3/t4-,5+,6+,7-/m1/s1
