19
gdb 3153	2.6886818	1.1371072	0.8888066	1.6961	76.39	-0.24917	-0.02264	0.22653	1311.8647	0.155555	-422.533395	-422.524407	-422.523463	-422.568152	32.764	
O	-1.8326457992	 2.4746716987	-2.9785579177	-0.423151
C	-1.8830839095	 2.9370824016	-1.6507049574	 0.12093
C	-3.1642167886	 2.6085948491	-0.8719089559	-0.093775
C	-3.0390954473	 3.0871945068	 0.5494070116	-0.294171
C	-2.3661019175	 1.8048020741	 0.1594990231	-0.045877
C	-1.0548003108	 2.1081966523	-0.5876194069	-0.057503
C	-0.3440660124	 0.8779989254	-1.163180413	-0.28963
C	 0.3907323725	 0.1405905287	-0.0675879199	 0.152661
O	 0.1089186397	-0.9602562929	 0.331541696	-0.240849
H	-2.2198963838	 1.5930440689	-3.0096179661	 0.283623
H	-1.6233982102	 3.9993946979	-1.7071417277	 0.089005
H	-4.1255913997	 2.4048780046	-1.3302259114	 0.090094
H	-2.4462596734	 3.9704709629	 0.7790964515	 0.10913
H	-3.935109823	 2.9862864328	 1.1531515765	 0.118712
H	-2.6056648236	 0.8582071305	 0.6297368994	 0.102809
H	-0.3355960936	 2.7060539702	-0.0120265032	 0.071349
H	-1.0483587887	 0.1807730317	-1.6267750237	 0.104277
H	 0.3792495799	 1.2032565401	-1.9216141373	 0.127983
H	 1.2338389192	 0.7142713867	 0.3846593222	 0.074384
40.1399	79.7861	123.7898	173.8141	273.9889	285.1622	330.4808	407.4597	468.6593	492.6786	550.5079	754.8675	779.6853	802.2642	824.7078	885.6713	924.8941	946.0741	951.5909	999.7591	1033.0322	1053.0423	1062.0242	1082.3923	1096.4155	1119.0441	1135.5784	1190.6124	1211.3689	1220.1067	1240.2279	1272.4203	1291.6047	1310.7049	1344.5784	1375.3756	1426.6087	1433.5464	1461.2879	1492.3159	1831.0187	2855.4823	3011.3724	3032.3987	3055.1425	3095.3592	3103.9289	3172.0768	3181.9975	3201.5718	3803.693
OC1C2CC2C1CC=O	O[C@H]1[C@@H]2C[C@@H]2[C@H]1CC=O	
InChI=1S/C7H10O2/c8-2-1-4-5-3-6(5)7(4)9/h2,4-7,9H,1,3H2	InChI=1S/C7H10O2/c8-2-1-4-5-3-6(5)7(4)9/h2,4-7,9H,1,3H2/t4-,5-,6-,7-/m1/s1
