19
gdb 4997	3.4933405	1.2576633	1.1741341	2.3247	75.45	-0.23647	0.00026	0.23673000000000002	1132.2018	0.155685	-422.525373	-422.516805	-422.515861	-422.558231	33.268	
C	 3.1728028131	-5.0050262761	-1.2678243135	-0.509417
C	 2.7604057531	-3.5612109226	-1.2338453975	 0.367642
C	 3.2235874774	-2.5245054209	-0.1565264387	-0.311396
C	 1.8686602376	-1.9236622432	-0.6341775653	 0.346898
C	 0.9441938231	-1.0548890276	 0.1739864696	-0.180911
O	-0.3184188513	-0.9448419933	-0.4596125618	-0.419556
O	 1.3803711382	-3.3092069473	-0.7722004509	-0.364657
C	 2.1914981436	-1.5777190257	-2.1056206354	-0.11831
C	 2.8028786506	-2.6892259617	-2.5120797492	-0.125674
H	 3.0604087051	-5.4649622177	-0.2826303082	 0.129475
H	 2.5575350099	-5.5622936347	-1.9813589487	 0.133836
H	 4.2194927028	-5.0940374866	-1.5761209861	 0.124706
H	 3.1737872399	-2.9264436774	 0.8595260946	 0.101254
H	 4.1397184443	-1.9577479686	-0.3327632563	 0.097396
H	 0.8547508699	-1.4642707203	 1.1918647765	 0.095011
H	 1.3519103304	-0.0410507835	 0.2538909989	 0.110454
H	-0.5926572553	-1.8440187489	-0.6764376163	 0.296613
H	 1.9606425743	-0.6558111011	-2.6183302253	 0.117906
H	 3.2374262634	-2.958010633	-3.4644278167	 0.108726
81.7136	147.4152	190.8929	238.2817	280.637	347.3374	390.4641	419.4173	485.4811	545.0075	604.0374	623.4284	671.1377	707.0445	748.671	808.8521	833.8752	868.2533	898.0391	910.9176	1003.7359	1021.9851	1030.2929	1044.7012	1063.5991	1120.7392	1136.2491	1179.9777	1186.6557	1236.824	1238.5631	1328.7183	1348.0423	1377.4966	1415.5974	1441.152	1478.8918	1487.0892	1493.5939	1497.0321	1624.4429	2989.987	3040.4435	3056.2236	3070.2502	3109.7647	3121.163	3131.1158	3225.9728	3256.5002	3792.4448
CC12CC(CO)(O1)C=C2	C[C@]12C[C@](CO)(O1)C=C2	
InChI=1S/C7H10O2/c1-6-2-3-7(4-6,5-8)9-6/h2-3,8H,4-5H2,1H3	InChI=1S/C7H10O2/c1-6-2-3-7(4-6,5-8)9-6/h2-3,8H,4-5H2,1H3/t6-,7+/m0/s1
