19
gdb 2072	2.3817287	1.8484578	1.3122526	0.9654	74.34	-0.24815	0.07689	0.32504	1017.9831	0.157459	-422.538805	-422.53085	-422.529906	-422.570767	31.737	
O	-1.7996343473	-0.2468654047	 0.2094278681	-0.469652
C	-0.86756065	-0.5525363894	-0.7791686622	 0.336479
C	-0.8429245837	-1.9404002955	-1.3790435069	-0.360195
C	-1.2874277331	-0.7540595475	-2.2109898987	-0.081462
C	-0.2424100491	-0.107837239	-3.1159736088	-0.220637
C	 1.0027763701	 0.085770894	-2.2149892707	-0.339603
C	 0.4293102714	 0.2148945276	-0.8073831952	 0.416857
C	 0.6435951203	 1.3763238287	 0.0612800647	-0.256283
O	 1.3008667934	 0.124662084	 0.3221328584	-0.306611
H	-1.4981464187	-0.6626054434	 1.0255714708	 0.290377
H	 0.1010859332	-2.4337470319	-1.5866898872	 0.114974
H	-1.6335912301	-2.5982635473	-1.0356772966	 0.11599
H	-2.3354984313	-0.6933361122	-2.4800545616	 0.095997
H	-0.0206455459	-0.7055352422	-4.0060769175	 0.102656
H	-0.6145211187	 0.8633316601	-3.4609485769	 0.106858
H	 1.6591192892	-0.7899616949	-2.2547974966	 0.118976
H	 1.6056229598	 0.9499038031	-2.5023475289	 0.107809
H	 1.2960514672	 2.1819643517	-0.2739619818	 0.109031
H	-0.1240216968	 1.6579316289	 0.7782966377	 0.118438
110.2629	223.0657	230.8445	282.8826	329.6231	372.6754	399.0573	440.5681	475.2817	556.8804	625.365	644.6013	805.6654	811.5421	842.2752	869.4518	919.6694	930.3521	943.1987	958.7573	977.7253	1041.2469	1059.6034	1081.9268	1101.6553	1128.767	1135.6747	1166.732	1194.0173	1223.3933	1243.7774	1301.7396	1323.3559	1333.4905	1342.041	1408.2713	1427.6613	1482.8299	1491.0394	1508.73	1527.4151	3039.6192	3053.9509	3078.3905	3085.9302	3106.9303	3129.9353	3180.5313	3181.5163	3219.8944	3790.8642
OC12CC1CCC21CO1	O[C@@]12C[C@@H]1CC[C@]12CO1	
InChI=1S/C7H10O2/c8-7-3-5(7)1-2-6(7)4-9-6/h5,8H,1-4H2	InChI=1S/C7H10O2/c8-7-3-5(7)1-2-6(7)4-9-6/h5,8H,1-4H2/t5-,6+,7-/m0/s1
