19
gdb 3135	2.1499095	1.8362553	1.1212023	2.2374	77.25	-0.23326	0.00178	0.23504	1119.4726	0.155808	-422.556124	-422.547094	-422.54615	-422.589544	33.673	
C	 0.4694273226	-2.6157221941	 0.1110851117	-0.506932
C	-0.3439611899	-1.3612603933	 0.0461167611	 0.214969
C	 0.0519934554	-0.0999794469	-0.1882359986	 0.157711
C	 1.4151046836	 0.4200475779	-0.5115260738	-0.492944
C	-1.1315131931	 0.8734413878	-0.2044572172	 0.037167
O	-1.2543710861	 1.5610809515	-1.4413621212	-0.433105
C	-2.3332891811	-0.0268298339	 0.0828591287	-0.007398
O	-2.5556609266	-0.9595423499	-0.9852905119	-0.273717
C	-1.836760645	-1.395054381	 0.2056041927	-0.049862
H	 0.3300638465	-3.1270978463	 1.0720641517	 0.127692
H	 0.1614382054	-3.3248666198	-0.6677260666	 0.135814
H	 1.5375941965	-2.4225279675	-0.0100150065	 0.128294
H	 1.7695151227	 1.1061004814	 0.2692144136	 0.126322
H	 2.1558195846	-0.3747216305	-0.6248701601	 0.120628
H	 1.3783374594	 0.999575034	-1.4406624883	 0.144279
H	-1.0229593047	 1.6536480132	 0.5590218426	 0.086159
H	-1.5437679968	 0.890294653	-2.0748663652	 0.28853
H	-3.2254091035	 0.3536039237	 0.5713416198	 0.099704
H	-2.3394251398	-2.1712130392	 0.7755364076	 0.096689
106.5942	138.4535	160.2891	192.0499	223.8128	267.9091	275.7902	385.6499	471.8496	510.9949	525.8266	585.766	625.5952	701.979	772.091	826.6391	859.9001	902.4426	935.7227	985.7983	1036.1694	1049.321	1066.4819	1072.0912	1107.2514	1136.1974	1190.1716	1238.6611	1256.3453	1266.6104	1306.8915	1345.8732	1402.6297	1416.574	1426.2692	1432.9646	1473.9305	1479.9753	1486.4166	1492.3829	1727.9022	3019.1398	3021.2735	3038.3652	3064.0298	3075.7336	3118.2717	3123.7655	3153.4772	3165.6354	3759.0116
CC1=C(C)C(O)C2OC12	CC1=C(C)[C@@H](O)[C@H]2O[C@@H]12	
InChI=1S/C7H10O2/c1-3-4(2)6-7(9-6)5(3)8/h5-8H,1-2H3	InChI=1S/C7H10O2/c1-3-4(2)6-7(9-6)5(3)8/h5-8H,1-2H3/t5-,6+,7-/m1/s1
