19
gdb 1183	2.5313196	1.250171	1.0678457	2.4578	77.13	-0.25547	0.02278	0.27825	1205.6837	0.153617	-422.508708	-422.498558	-422.497613	-422.543363	37.652	
C	 2.4456567683	 0.6725955225	-2.3365403787	-0.478335
C	 3.0124511527	 1.0212781493	-0.9759856832	 0.298313
C	 3.3328501165	 2.4714157761	-0.6575545604	-0.34949
C	 4.4469445382	 1.4896783587	-0.8897726593	 0.072354
O	 5.2227935456	 1.1210584779	 0.2113462737	-0.427006
C	 2.582943525	 0.1322750034	 0.1916623677	-0.155699
O	 3.2907463318	-1.1192363106	 0.169761856	-0.433545
C	 1.1346146542	-0.0740833938	 0.2486312992	 0.3068
C	-0.0522556721	-0.2646183462	 0.2696858702	-0.428139
H	 2.6626364731	-0.3681255717	-2.6083259237	 0.10493
H	 1.359926632	 0.8069178994	-2.3632384499	 0.133849
H	 2.8848126199	 1.3064518185	-3.1123382307	 0.119435
H	 3.1293245464	 3.2199080262	-1.4156626269	 0.111474
H	 3.1914503847	 2.8086374649	 0.3635922806	 0.123678
H	 4.9952207044	 1.5615064758	-1.8298835202	 0.083961
H	 5.2068882986	 0.1557134553	 0.2527332305	 0.297021
H	 2.9133213031	 0.6019941776	 1.1218191533	 0.130742
H	 2.9182888917	-1.6568113937	-0.5377669666	 0.289049
H	-1.101006584	-0.4292985394	 0.3069248282	 0.200607
57.1945	131.5792	175.6349	191.5917	220.8666	239.3151	249.4859	299.9082	335.3391	408.5963	448.9329	497.4649	508.4657	568.203	608.1808	628.9075	672.0997	765.1418	822.3144	878.2017	915.8878	949.2471	993.7157	1026.1218	1045.7204	1060.8128	1114.3955	1128.5245	1179.0113	1238.6871	1263.3423	1304.1936	1345.6643	1359.8758	1412.4141	1419.9629	1430.5306	1482.8701	1492.4277	1500.8178	2232.6385	3022.9723	3081.5215	3086.1583	3091.0317	3110.9853	3133.9584	3222.595	3501.4619	3762.432	3811.5619
CC1(CC1O)C(O)C#C	C[C@@]1(C[C@H]1O)[C@H](O)C#C	
InChI=1S/C7H10O2/c1-3-5(8)7(2)4-6(7)9/h1,5-6,8-9H,4H2,2H3	InChI=1S/C7H10O2/c1-3-5(8)7(2)4-6(7)9/h1,5-6,8-9H,4H2,2H3/t5-,6-,7-/m1/s1
