19
gdb 5094	3.4124737	1.1682088	1.1385951	1.8115	75.7	-0.21072	0.07845	0.28917	1174.075	0.154684	-422.464357	-422.455559	-422.454614	-422.497465	33.834	
C	 1.4709978208	-0.1561043714	 0.1163935528	-0.256484
O	 0.0637743413	 0.0091085011	 0.0355317358	-0.27354
C	-0.4547747451	 0.7291709777	 1.0869843464	 0.4545
C	-0.7546051305	 0.1126251769	 2.4281947553	-0.372138
C	-1.8718170652	 0.7093513817	 1.5886042549	-0.230506
C	-1.8797763466	 2.2733328395	 1.5641197922	 0.399226
O	-2.946497584	 2.9704977918	 1.029028289	-0.454369
C	-0.8143234259	 2.9228802422	 2.4057052157	-0.371369
C	-0.4585017757	 2.2934149503	 1.0698742544	-0.188486
H	 1.7577273505	-0.7046356346	 1.0243087448	 0.11107
H	 1.7758147494	-0.7275558202	-0.7629566502	 0.12673
H	 1.9934743032	 0.8107918805	 0.1132406052	 0.113288
H	-0.7432311385	-0.9736500925	 2.3992974307	 0.117595
H	-0.4426336884	 0.5280084121	 3.380473692	 0.108812
H	-2.709596622	 0.1260315833	 1.2297942726	 0.103524
H	-3.5912576254	 3.1179564818	 1.7308972436	 0.284575
H	-0.8532739708	 4.0079124706	 2.3617016913	 0.116205
H	-0.4635416081	 2.5351405793	 3.356308407	 0.1093
H	-0.0360209789	 2.8627207998	 0.2524605964	 0.10207
88.0224	131.4201	181.0249	246.5729	280.3152	332.5093	362.5733	417.7371	424.8268	449.4445	472.2523	615.7896	645.0305	786.4888	826.9535	842.7938	888.0538	906.7508	915.7913	984.6677	990.5766	997.6083	1015.8538	1051.9099	1077.7664	1085.6504	1102.1787	1156.9135	1169.9319	1180.1745	1213.3741	1243.9872	1283.6486	1292.4516	1372.0264	1404.8414	1470.287	1486.7129	1494.2945	1506.0661	1510.2992	2993.6733	3047.7748	3114.7825	3123.2536	3128.281	3196.7567	3202.4417	3206.4016	3208.6231	3776.7515
COC12CC1C1(O)CC21	CO[C@]12C[C@H]1[C@@]1(O)C[C@@H]21	
InChI=1S/C7H10O2/c1-9-7-3-5(7)6(8)2-4(6)7/h4-5,8H,2-3H2,1H3	InChI=1S/C7H10O2/c1-9-7-3-5(7)6(8)2-4(6)7/h4-5,8H,2-3H2,1H3/t4-,5+,6-,7+/m1/s1
