19
gdb 2707	2.4655471	1.8418771	1.2639403	1.3872	74.54	-0.2308	0.06703	0.29783000000000004	1024.1617	0.15571	-422.516484	-422.507998	-422.507054	-422.548618	33.786	
C	 0.7079733786	-0.3823731886	-0.7541420629	-0.427782
C	 0.8465576746	 0.1377590292	 0.6713915446	-0.091176
C	 1.6307582457	 1.4481857225	 0.7756008036	 0.418251
O	 1.3552573435	 2.6395315066	 0.1373389291	-0.468127
C	 2.3105345632	 1.4785107372	 2.1388045709	-0.11303
C	 1.9550223397	 0.1787308082	 2.8600043727	-0.304332
C	 2.0390022256	-0.4776677036	 1.4559423055	 0.390418
O	 2.2560806459	-1.8303913703	 1.2699556369	-0.477209
C	 2.9574056273	 0.7462622579	 0.9741962797	-0.276581
H	 0.3530883046	-1.4163418027	-0.7593137754	 0.13019
H	-0.0081853933	 0.222437055	-1.3216538033	 0.108031
H	 1.6698615764	-0.3594460734	-1.2787552981	 0.11261
H	-0.1195826468	 0.0979357856	 1.1916641159	 0.062325
H	 1.4437552272	 2.4988185334	-0.8118505928	 0.287938
H	 2.6256955682	 2.4213361907	 2.565603879	 0.094445
H	 2.7783114098	-0.1458887925	 3.5070040602	 0.086347
H	 1.0042589213	 0.0990337057	 3.3998722854	 0.093912
H	 3.0064085066	-2.0972423669	 1.8114370198	 0.282413
H	 3.9306422019	 0.8412944259	 0.5152008391	 0.091356
177.7343	201.3203	227.0391	257.3067	292.2438	299.4767	351.0642	376.0694	455.5305	470.6342	516.1368	597.765	677.2901	734.4365	764.3466	814.6645	834.2452	908.7681	926.7206	939.4986	972.5216	987.051	1041.7225	1059.8111	1074.5784	1102.7361	1127.2717	1140.6429	1180.9509	1209.6768	1236.2046	1284.3539	1305.8758	1315.0425	1359.299	1403.788	1410.7295	1443.2714	1493.8058	1498.6176	1502.9558	3016.2045	3024.8883	3028.7634	3076.8724	3092.0205	3113.2724	3206.7467	3224.9473	3794.9961	3809.5074
CC1C2(O)C3CC1(O)C23	C[C@@H]1[C@@]2(O)[C@H]3C[C@]1(O)[C@@H]23	
InChI=1S/C7H10O2/c1-3-6(8)2-4-5(6)7(3,4)9/h3-5,8-9H,2H2,1H3	InChI=1S/C7H10O2/c1-3-6(8)2-4-5(6)7(3,4)9/h3-5,8-9H,2H2,1H3/t3-,4-,5-,6+,7+/m0/s1
