19
gdb 5365	3.5219931	1.0778518	1.0138838	0.9189	76.7	-0.24102	0.00198	0.24300000000000002	1241.1692	0.158238	-422.547664	-422.539424	-422.53848	-422.581078	30.774	
O	 0.9647497801	-0.8886642308	 0.5144892168	-0.412238
C	 0.708042955	 0.51094843	 0.6114070105	-0.164248
C	-0.7493694383	 0.8041267037	 0.8125328193	 0.291889
C	-1.2921061261	 1.4687041153	 1.8379643804	-0.20227
C	-2.7901464118	 1.5357132975	 1.7444249042	 0.096893
O	-3.4736733959	 0.59427517	 2.6187215442	-0.295201
C	-3.7203917539	-0.3014834214	 1.5130763556	-0.08007
C	-3.1273191494	 0.6906390026	 0.4873155065	-0.079509
C	-1.7919941807	 0.3204362535	-0.1802057046	-0.321619
H	 0.680992918	-1.2872078767	 1.3442422752	 0.284473
H	 1.3035057813	 0.9764546079	 1.410409856	 0.095162
H	 1.0539654845	 0.9289521217	-0.3418994553	 0.115
H	-0.7356111533	 1.898785805	 2.6642499507	 0.095451
H	-3.2088869631	 2.5416595894	 1.8605464569	 0.076227
H	-3.1684725198	-1.2464097115	 1.612703341	 0.0933
H	-4.7884782567	-0.5247996863	 1.4076935699	 0.102563
H	-3.8608685074	 1.1097242845	-0.2011621396	 0.079815
H	-1.6922891387	-0.7541284424	-0.3727867322	 0.117728
H	-1.6643502338	 0.8163178281	-1.1518782953	 0.106653
67.092	89.9897	149.621	233.8794	304.0083	361.297	394.9452	430.3217	532.8362	642.8592	679.9002	802.0763	855.9244	861.1985	871.053	897.3479	936.5197	965.7262	974.5152	1010.5729	1022.6246	1053.3522	1075.3752	1084.3573	1155.0084	1158.6913	1183.763	1202.9602	1238.2656	1269.3295	1286.6793	1319.2171	1332.8923	1343.4576	1362.6021	1382.7844	1415.8753	1486.0066	1497.5265	1519.5761	1704.3154	2996.3729	3002.1651	3017.9319	3042.3771	3052.2144	3053.9413	3058.8172	3111.7406	3187.9782	3807.652
OCC1=CC2OCC2C1	OCC1=C[C@@H]2OC[C@@H]2C1	
InChI=1S/C7H10O2/c8-3-5-1-6-4-9-7(6)2-5/h2,6-8H,1,3-4H2	InChI=1S/C7H10O2/c8-3-5-1-6-4-9-7(6)2-5/h2,6-8H,1,3-4H2/t6-,7-/m0/s1
