19
gdb 5910	1.934873	0.7889226	0.5927897	3.0251	83.99	-0.26615	-0.06168	0.20446999999999999	1847.2265	0.153702	-422.532891	-422.521822	-422.520878	-422.571489	36.825	
C	-3.0809154439	 0.9928739304	 1.0804504381	-0.392316
C	-2.540610536	-0.0101075987	 0.0371976648	-0.16025
C	-3.098419232	-1.4312009284	 0.2768794426	-0.19298
C	-2.7218587041	-2.4329577355	-0.8170257942	-0.071966
O	-3.3083499073	-3.7063699422	-0.6062736975	-0.415432
C	-1.0799697838	 0.0048640905	 0.038367606	 0.157858
C	 0.1285454113	 0.0089474001	 0.0767380875	-0.036514
C	 1.567506045	 0.0439441324	 0.0941447915	 0.02266
O	 2.2672016919	-0.761476019	 0.6655159365	-0.23081
H	-2.7817819509	 0.6977394994	 2.0901915661	 0.134673
H	-2.7004700097	 1.9997713365	 0.8918701337	 0.13074
H	-4.1734687701	 1.0191627058	 1.0369485789	 0.125082
H	-2.8761325822	 0.3252584327	-0.9549673379	 0.116579
H	-2.738733418	-1.7947664189	 1.2482300724	 0.102091
H	-4.1907219223	-1.3727883031	 0.338399958	 0.110315
H	-3.1045013791	-2.0870942884	-1.7844202247	 0.11028
H	-1.6278118784	-2.5013511461	-0.9066781732	 0.10754
H	-2.886188058	-4.1021488556	 0.1627912731	 0.284573
H	 2.0077143177	 0.8901525581	-0.4720400418	 0.097876
19.2557	56.7742	82.5708	114.6159	127.0895	174.9144	227.5123	241.2466	281.3872	300.3839	372.2516	382.0039	507.1302	576.0048	607.4291	765.6037	804.8901	911.4056	981.3859	988.8825	1022.4885	1071.4982	1078.379	1087.6583	1109.1506	1173.8386	1182.6018	1284.6543	1310.7008	1335.4602	1358.7856	1399.7077	1410.0368	1423.1912	1423.9428	1481.2528	1492.5906	1500.1862	1512.5439	1765.5991	2321.4803	2916.6416	3000.1207	3002.5995	3026.6139	3045.0823	3057.9844	3084.4137	3121.2853	3126.206	3817.6328
CC(CCO)C#CC=O	C[C@H](CCO)C#CC=O	
InChI=1S/C7H10O2/c1-7(4-6-9)3-2-5-8/h5,7,9H,4,6H2,1H3	InChI=1S/C7H10O2/c1-7(4-6-9)3-2-5-8/h5,7,9H,4,6H2,1H3/t7-/m0/s1
