19
gdb 5929	2.0184294	1.2952699	0.8913081	1.5777	79.17	-0.25851	0.02078	0.27929000000000004	1354.4066	0.152582	-422.489319	-422.478924	-422.477979	-422.525177	36.612	
C	 1.497894357	-0.0551007806	 0.1170603106	-0.222131
O	 0.0899835972	-0.0346984338	 0.0901912865	-0.239015
C	-0.468263112	 0.6570394445	 1.1857726153	-0.1272
C	-1.977298573	 0.5766179513	 1.0800444347	 0.380172
C	-2.5573845798	-0.8154637282	 0.9984407581	-0.463335
O	-2.6586303928	 1.4890858339	 1.9440576091	-0.289178
C	-2.7393904817	 1.7220904266	 0.5235159321	-0.220709
C	-2.1233138956	 2.9135088153	 0.0056660934	 0.348378
C	-1.6425042725	 3.9152525795	-0.4534219819	-0.422329
H	 1.8806808347	-0.5517344103	 1.022773438	 0.105357
H	 1.8331200041	-0.6123085023	-0.7608624025	 0.128607
H	 1.9211903954	 0.9604885099	 0.0778406984	 0.109463
H	-0.1529133434	 0.1963201164	 2.138587468	 0.091495
H	-0.1495277191	 1.708594008	 1.2010153066	 0.109724
H	-2.3000089183	-1.3813590422	 1.9006360879	 0.125622
H	-3.6462346113	-0.7808112785	 0.9155756708	 0.124369
H	-2.1428968207	-1.3444912017	 0.1371512732	 0.1462
H	-3.7190884775	 1.4991360911	 0.1010032314	 0.112667
H	-1.2125100708	 4.7994301212	-0.8551667797	 0.20184
47.5881	86.6649	134.2425	151.1889	185.8318	189.1665	225.8143	309.2508	337.7728	358.0217	425.2379	463.6485	549.6408	564.8167	622.9113	669.5856	759.9247	824.1942	914.874	969.671	992.0105	1021.4936	1057.4188	1085.5647	1127.5242	1160.304	1184.4899	1226.7112	1237.3922	1283.1902	1333.5086	1405.0904	1415.3769	1446.8961	1478.9132	1479.6574	1484.5505	1499.7627	1504.2123	1522.1253	2238.8621	2953.4508	2973.6683	3018.3362	3027.8115	3042.3683	3108.404	3112.2013	3116.6285	3138.3653	3501.8737
COCC1(C)OC1C#C	COC[C@@]1(C)O[C@H]1C#C	
InChI=1S/C7H10O2/c1-4-6-7(2,9-6)5-8-3/h1,6H,5H2,2-3H3	InChI=1S/C7H10O2/c1-4-6-7(2,9-6)5-8-3/h1,6H,5H2,2-3H3/t6-,7+/m0/s1
