19
gdb 3615	3.5845656	0.9921513	0.837977	4.0897	76.96	-0.23924	-0.02135	0.21789	1397.3471	0.155157	-422.538509	-422.529289	-422.528344	-422.573422	32.861	
C	-0.9800778784	-2.402930845	 0.9720696253	-0.407878
C	-0.9628643557	-1.1359824748	 0.1300356166	-0.083355
C	-2.0907411382	-0.062868594	 0.2704224628	-0.280438
C	-1.0254606653	 1.0825491313	 0.2422352754	-0.118999
C	-1.1335546692	 2.2273152307	 1.2097243001	 0.078404
C	-1.837294224	 3.471205761	 0.8644411423	-0.183414
O	-0.4118239663	 3.4164985013	 0.8891029341	-0.22718
C	 0.0224521718	-0.0203603733	 0.5179031936	 0.375119
O	 1.1047842806	-0.0197761274	 1.0280531995	-0.297227
H	-1.7791004855	-3.0799984155	 0.6543612134	 0.120361
H	-0.0274681842	-2.9336670946	 0.8850163476	 0.137607
H	-1.1337257365	-2.1683325437	 2.0303892172	 0.121421
H	-0.8153879544	-1.3794871998	-0.9302796829	 0.104836
H	-2.8505888392	-0.0371461125	-0.5112432964	 0.111238
H	-2.5842241983	-0.1280175023	 1.244980194	 0.112575
H	-0.893549358	 1.4768574207	-0.7715926461	 0.109469
H	-1.080975014	 1.950098876	 2.2638205818	 0.098892
H	-2.2853802486	 3.5774758702	-0.1230415438	 0.111284
H	-2.2990361967	 4.0676665018	 1.6500336653	 0.117287
54.4828	65.5205	128.7709	175.3999	201.6234	244.4543	304.402	342.9531	400.8243	558.2004	571.3937	684.3768	771.0831	812.5194	864.8356	872.9847	924.281	937.5054	957.2408	984.1076	1034.8284	1073.6158	1100.679	1128.0834	1141.2945	1154.8691	1165.8973	1187.9262	1225.0484	1236.2496	1251.6454	1286.3683	1301.1595	1343.6024	1408.614	1444.9101	1488.9259	1493.6968	1495.3429	1528.5223	1884.5199	3028.9473	3037.261	3055.1894	3063.0419	3080.6776	3099.4612	3105.9954	3113.9184	3130.1739	3167.5192
CC1CC(C2CO2)C1=O	C[C@H]1C[C@@H]([C@@H]2CO2)C1=O	
InChI=1S/C7H10O2/c1-4-2-5(7(4)8)6-3-9-6/h4-6H,2-3H2,1H3	InChI=1S/C7H10O2/c1-4-2-5(7(4)8)6-3-9-6/h4-6H,2-3H2,1H3/t4-,5-,6-/m0/s1
