19
gdb 1538	3.4407006	1.2580554	1.1687061	4.2052	74.9	-0.27057	0.00923	0.2798	1127.9114	0.156317	-422.57801	-422.569508	-422.568564	-422.61086	32.351	
C	-2.4074648514	 0.7151171732	-2.5102485299	-0.447269
C	-2.5866546789	-0.2599477932	-1.3526303469	 0.302626
C	-4.0457476999	-0.6949571034	-1.1983571788	-0.443131
C	-1.6086234138	-1.4897816584	-1.3151235843	-0.296942
C	-1.1458069053	-1.084705479	 0.1220350651	-0.227697
C	-2.0158354949	 0.1903477334	 0.022968605	 0.080548
O	-0.8049084691	 1.0073038656	-0.0751606019	-0.257871
C	 0.0116858401	-0.0954752103	 0.0840648861	 0.450735
O	 1.1983047389	-0.111772711	 0.1393089471	-0.324406
H	-2.6673905743	 0.2321463803	-3.4587159321	 0.115996
H	-3.0559742811	 1.5903777289	-2.3920638476	 0.11806
H	-1.3763017601	 1.0696855825	-2.5770999532	 0.135231
H	-4.1794076879	-1.3683364774	-0.3440483408	 0.115651
H	-4.698321018	 0.1720874724	-1.047325999	 0.12062
H	-4.3873690185	-1.2235189548	-2.094439645	 0.122717
H	-2.1174613494	-2.4549694457	-1.3491609707	 0.113925
H	-0.8130137426	-1.4900081085	-2.0631187913	 0.121638
H	-1.1674847418	-1.8220967104	 0.9206400096	 0.108439
H	-2.6834978619	 0.5768845658	 0.7929375885	 0.091131
82.2062	172.4089	210.5855	225.9402	258.8814	310.1196	358.3199	365.3301	450.8411	495.8718	604.2002	707.9853	773.0927	800.4009	853.8084	877.8668	899.4189	934.1809	943.8608	963.2889	989.7531	994.7944	1035.6344	1078.5761	1110.4306	1167.8586	1212.7096	1219.356	1234.1267	1242.3708	1279.2527	1303.0902	1325.9311	1400.9657	1421.1501	1481.8029	1486.3281	1486.6139	1501.0188	1507.8775	1935.6446	3023.4317	3031.9862	3071.5128	3090.7765	3092.8696	3100.1941	3117.3021	3123.0815	3125.4243	3151.2591
CC1(C)CC2C1OC2=O	CC1(C)C[C@@H]2[C@H]1OC2=O	
InChI=1S/C7H10O2/c1-7(2)3-4-5(7)9-6(4)8/h4-5H,3H2,1-2H3	InChI=1S/C7H10O2/c1-7(2)3-4-5(7)9-6(4)8/h4-5H,3H2,1-2H3/t4-,5-/m1/s1
