19
gdb 903	3.9612091	1.0102193	0.9074076	3.0145	75.42	-0.24885	-0.02455	0.2243	1309.1895	0.156446	-422.569141	-422.560573	-422.559629	-422.603231	31.456	
O	 0.4728833815	-1.0124716212	 0.1106707548	-0.24027
C	 0.4582850448	 0.1791254755	-0.0588589779	 0.159777
C	-0.2714370238	 0.8796108114	-1.1913435343	-0.374201
C	-1.1322619529	 2.0156924498	-0.688508961	 0.400033
C	-2.3747220135	 1.745149745	 0.1486541404	-0.277914
C	-3.0700293527	 3.1239212944	 0.2516196786	-0.21494
C	-2.6552597041	 3.8929135651	-1.0276258382	-0.241511
C	-1.3060647557	 3.3020907517	-1.3789666265	-0.008681
O	-0.41817096	 3.1911811324	-0.2532111956	-0.304057
H	 1.0041582527	 0.8683573008	 0.6230288096	 0.096055
H	 0.4920020865	 1.2902876693	-1.8649336446	 0.128734
H	-0.862251381	 0.1393305319	-1.7390423233	 0.121921
H	-3.0009373252	 1.0160013726	-0.3804594411	 0.107895
H	-2.1397232261	 1.3186925453	 1.1292386678	 0.113834
H	-4.1538658927	 3.0385105305	 0.3558254251	 0.101706
H	-2.6949567638	 3.6535105346	 1.1294506109	 0.123025
H	-3.3484918369	 3.7038451942	-1.8568078316	 0.105181
H	-2.6165856376	 4.9754037863	-0.8728194203	 0.112693
H	-0.8243516293	 3.5239483903	-2.3288027926	 0.090719
52.3103	67.9616	147.384	215.2337	270.2985	303.5976	389.7149	445.9111	477.4156	617.0868	657.4878	696.0742	809.2181	819.6532	871.6461	890.0745	895.8547	943.1494	949.8665	1016.1276	1026.1244	1037.2019	1067.4503	1128.1983	1154.0697	1183.6081	1207.8858	1250.789	1260.2241	1279.6776	1320.8781	1326.4262	1337.9285	1355.4332	1422.7547	1442.2574	1455.7793	1478.3557	1485.8063	1499.6631	1834.1593	2891.8835	3029.7379	3034.4327	3036.1016	3073.8726	3081.9142	3086.9502	3100.5416	3123.9368	3139.2873
O=CCC12CCCC1O2	O=CC[C@]12CCC[C@H]1O2	
InChI=1S/C7H10O2/c8-5-4-7-3-1-2-6(7)9-7/h5-6H,1-4H2	InChI=1S/C7H10O2/c8-5-4-7-3-1-2-6(7)9-7/h5-6H,1-4H2/t6-,7-/m1/s1
