19
gdb 4945	2.458778	1.5932869	1.1746187	1.0875	74.9	-0.2267	0.06318	0.28988	1108.6054	0.154532	-422.458084	-422.449253	-422.448309	-422.491297	33.115	
C	 1.4793597211	 0.0788642764	 0.0287475564	-0.259906
O	 0.0635115621	-0.0529452718	 0.0462372909	-0.276164
C	-0.5246535921	 0.6037511668	 1.101709759	 0.39171
C	-0.8738384866	 2.0736043809	 1.1215979695	-0.081305
C	-0.7904648281	 2.8276955836	-0.1892817132	-0.430734
C	-1.9714660568	 1.0210349541	 1.2281737138	-0.214789
C	-2.0068711648	 0.3622313354	 2.6422785067	 0.016135
O	-1.0029012549	 0.9557866241	 3.4860983856	-0.238407
C	-0.6108557699	-0.0435619482	 2.5372518868	-0.060823
H	 1.9333100444	-0.3242999138	 0.9445438001	 0.113935
H	 1.8401199365	-0.4936314272	-0.8283154974	 0.129
H	 1.7835070034	 1.1277470187	-0.0790852238	 0.118543
H	-0.6434510946	 2.6501132349	 2.0106606803	 0.108345
H	-0.9537637545	 2.165620993	-1.0443226815	 0.12779
H	-1.540050851	 3.6251076442	-0.225628412	 0.119955
H	 0.1933520297	 3.2932965428	-0.3112182457	 0.11795
H	-2.7658999326	 0.9356157056	 0.4986986415	 0.099359
H	-2.856308972	-0.1000050433	 3.1300429988	 0.11037
H	-0.0789313392	-0.9176782061	 2.8946502341	 0.109037
103.6449	157.5843	166.7205	197.5375	231.9414	245.3604	329.061	372.2737	441.6659	462.4513	604.2467	670.1233	750.8218	790.8221	826.0528	849.1558	890.083	923.9054	971.2727	997.4605	999.7685	1035.3048	1054.6018	1063.7447	1120.5043	1135.5866	1164.7858	1179.5951	1194.8201	1220.6895	1235.4917	1254.9502	1330.9747	1366.9172	1412.3294	1428.0054	1485.793	1487.3013	1496.1245	1500.1211	1506.578	3000.9301	3033.4872	3058.7699	3092.6189	3111.4304	3126.3504	3172.6519	3180.3257	3195.8468	3208.0959
COC12C(C)C1C1OC21	CO[C@@]12[C@@H](C)[C@@H]1[C@@H]1O[C@H]21	
InChI=1S/C7H10O2/c1-3-4-5-6(9-5)7(3,4)8-2/h3-6H,1-2H3	InChI=1S/C7H10O2/c1-3-4-5-6(9-5)7(3,4)8-2/h3-6H,1-2H3/t3-,4+,5-,6-,7-/m0/s1
