19
gdb 4598	3.3892869	0.5951173	0.5315012	4.0585	82.71	-0.24328	-0.02362	0.21966	2069.9625	0.152977	-422.536107	-422.524949	-422.524004	-422.575691	37.198	
C	 0.0549779623	-0.172074013	 0.346828846	-0.366106
C	 1.3923238564	 0.0237474616	-0.3901785698	-0.318511
C	 1.9551704052	 1.3591239695	-0.220134555	 0.132416
C	 2.4100341457	 2.4669661407	-0.083515429	 0.00479
C	 2.9560945083	 3.8055783112	 0.1353938309	-0.075902
O	 4.0796281079	 3.7938934076	 1.0164682736	-0.417464
C	 1.8630910234	 4.7755372257	 0.6451908184	-0.275805
C	 2.3756510487	 6.1932305273	 0.8016986284	 0.147226
O	 1.760656166	 7.1728354291	 0.4641921021	-0.242717
H	 0.17645244	-0.0166947074	 1.4222669339	 0.127148
H	-0.6953399637	 0.5364471653	-0.0140220023	 0.131274
H	-0.3225323248	-1.1859497621	 0.1857895515	 0.119296
H	 2.1196574844	-0.719593696	-0.0395843252	 0.134757
H	 1.2557698499	-0.1734744559	-1.461079106	 0.136495
H	 3.3517727361	 4.1933065004	-0.8120187792	 0.126585
H	 3.8671454075	 3.1997620542	 1.7448745688	 0.285943
H	 0.9941422597	 4.7793532546	-0.0179707344	 0.131169
H	 1.5319107877	 4.4218696124	 1.6318971242	 0.121684
H	 3.3808349191	 6.2707502847	 1.2670875732	 0.097722
9.0326	55.6291	64.4593	74.5175	138.6756	180.1616	226.0118	262.2251	279.3812	353.1849	364.9115	419.0368	512.6556	555.7554	565.3772	757.5552	783.2564	807.0154	885.4657	966.8178	1029.8769	1069.2416	1079.4944	1093.1545	1102.9442	1160.7944	1201.7807	1262.145	1285.1389	1291.6851	1349.5915	1350.3399	1409.6837	1413.3342	1422.1733	1448.6335	1471.5275	1495.4307	1505.3033	1829.1921	2359.5582	2917.7236	3017.8747	3023.4765	3034.6346	3046.2194	3051.388	3109.2834	3120.4896	3124.8919	3805.7091
CCC#CC(O)CC=O	CCC#C[C@H](O)CC=O	
InChI=1S/C7H10O2/c1-2-3-4-7(9)5-6-8/h6-7,9H,2,5H2,1H3	InChI=1S/C7H10O2/c1-2-3-4-7(9)5-6-8/h6-7,9H,2,5H2,1H3/t7-/m0/s1
