19
gdb 749	2.3775494	1.6801821	1.1881626	3.9392	74.84	-0.24092	-0.01424	0.22668	1077.9867	0.158431	-422.569449	-422.561436	-422.560492	-422.602343	30.424	
O	-0.0290801694	 1.8406075189	-3.2943630773	-0.299033
C	-0.0929730973	 0.8080267537	-2.6695983222	 0.389313
C	-1.4217640291	 0.1100762082	-2.4303925209	-0.286858
C	-1.9303525668	 0.2646923605	-0.9831610977	-0.206897
C	-1.2300811861	-0.6158737488	 0.0546858912	-0.240537
C	 0.2260429638	-0.3117719065	 0.3421707305	 0.063546
O	 0.6912741279	 1.0378093894	 0.1981845463	-0.249824
C	 1.2854372949	 0.0237931694	-0.6219748421	 0.056335
C	 1.1763661895	 0.1538293712	-2.12835037	-0.342529
H	-2.1384502949	 0.5596981709	-3.121973677	 0.12222
H	-1.330953686	-0.9571217282	-2.6728221347	 0.100343
H	-1.8540332686	 1.3144466317	-0.6824343088	 0.131856
H	-2.9950464203	 0.0094727848	-0.9732790308	 0.10546
H	-1.7725432894	-0.5229426547	 1.0038519525	 0.112686
H	-1.3079402062	-1.6744629599	-0.2312227588	 0.105275
H	 0.5789524344	-0.7873056858	 1.261059549	 0.090255
H	 2.298722509	-0.2415031862	-0.310677907	 0.096274
H	 2.0145238713	 0.7556756786	-2.4909771741	 0.133099
H	 1.2756578732	-0.8491674971	-2.5676939081	 0.119018
75.3586	85.7453	244.7423	250.9089	320.052	371.1851	405.5156	500.8667	517.2917	598.6793	660.9038	754.249	765.8389	825.8911	852.0062	894.9403	927.2425	937.4255	967.9952	1023.9897	1065.9302	1100.5036	1107.8059	1144.6792	1172.119	1207.2826	1230.1195	1268.9119	1285.6039	1311.6809	1343.134	1356.3417	1384.6423	1395.3734	1414.1504	1460.0186	1473.2987	1477.0517	1487.0851	1503.6287	1812.7259	3012.4235	3015.6735	3025.0459	3042.483	3053.8374	3067.6176	3080.6855	3092.99	3094.732	3105.1592
O=C1CCCC2OC2C1	O=C1CCC[C@@H]2O[C@@H]2C1	
InChI=1S/C7H10O2/c8-5-2-1-3-6-7(4-5)9-6/h6-7H,1-4H2	InChI=1S/C7H10O2/c8-5-2-1-3-6-7(4-5)9-6/h6-7H,1-4H2/t6-,7+/m0/s1
