19
gdb 3243	2.5455756	2.12185	1.6522212	2.2173	72.87	-0.25068	0.0906	0.34128000000000003	890.5155	0.161115	-422.556625	-422.550131	-422.549187	-422.587032	27.657	
O	 0.5762449177	 0.5907196058	 0.6665472875	-0.465016
C	-0.6105919655	-0.087209028	 0.9934853226	 0.159421
C	-1.7650680912	 0.0143889009	-0.0341486812	-0.078436
C	-2.8540074386	-0.7916476969	 0.7245417347	-0.249011
C	-2.8329969215	 0.4262799754	 1.6797057254	-0.044212
C	-2.5306705913	 1.310074085	 0.4322841907	-0.030526
C	-1.7103415166	 2.4842435809	 0.9442718945	-0.127149
O	-1.0834120151	 1.9739620022	 2.1453732397	-0.293876
C	-1.3816829516	 0.5676361735	 2.188104376	 0.050122
H	 0.5760244705	 1.3940630635	 1.2071933576	 0.291238
H	-0.3638005179	-1.1388559529	 1.1822429773	 0.07508
H	-1.5146240649	-0.1714440371	-1.0778755254	 0.070024
H	-3.7973313433	-0.858163564	 0.1782471413	 0.102938
H	-2.5827350146	-1.7765515623	 1.1162855145	 0.094997
H	-3.6325172931	 0.6542709795	 2.3840267188	 0.070873
H	-3.3879406684	 1.5668106956	-0.1899750182	 0.077091
H	-0.9429367728	 2.819433645	 0.2372964967	 0.109728
H	-2.3382401883	 3.3405718345	 1.216854667	 0.107345
H	-1.1388298035	 0.2089680395	 3.1878071706	 0.079369
194.2664	299.8268	324.6555	411.5018	445.6395	517.6965	541.1426	622.8662	692.1398	783.8692	793.2701	830.9324	840.3776	897.632	899.8573	921.7989	954.0382	965.1914	989.5069	1014.7928	1042.3675	1058.5259	1081.0931	1088.358	1111.6784	1146.5556	1175.7192	1188.8095	1228.3193	1235.3873	1243.4926	1271.9235	1285.5098	1306.1963	1312.5294	1333.0675	1367.5925	1389.7953	1435.2908	1511.128	1516.7556	3026.2767	3029.7527	3055.1039	3066.4645	3113.7829	3114.8502	3119.5331	3126.3777	3131.9121	3713.9464
OC1C2CC3C2COC13	O[C@@H]1[C@H]2C[C@@H]3[C@H]2CO[C@H]13	
InChI=1S/C7H10O2/c8-6-3-1-4-5(3)2-9-7(4)6/h3-8H,1-2H2	InChI=1S/C7H10O2/c8-6-3-1-4-5(3)2-9-7(4)6/h3-8H,1-2H2/t3-,4+,5-,6+,7-/m0/s1
