19
gdb 5859	3.8564041	0.5581399	0.5039745	2.2961	83.67	-0.251	-0.04616	0.20484	2162.7514	0.153745	-422.542098	-422.530946	-422.530002	-422.581347	36.868	
C	 1.0696056047	-0.6898214404	-0.777670857	-0.386292
C	 0.5665864762	 0.5547362928	-0.029100397	-0.275452
C	 1.638668628	 1.6216507029	 0.1291701063	 0.241246
O	 1.5384288723	 2.7307934343	-0.3533399761	-0.286787
C	 2.8063851107	 1.2352842061	 0.9008461081	 0.073533
C	 3.775053047	 0.9172002323	 1.548589296	 0.016233
C	 4.9587947392	 0.5772750392	 2.320877479	-0.334206
C	 5.9804649567	 1.7195683472	 2.3807245081	-0.064576
O	 7.0672096082	 1.247672091	 3.1557699535	-0.413924
H	 1.9156620084	-1.1476095735	-0.2575804734	 0.131668
H	 0.2734125338	-1.4353942726	-0.8540642106	 0.12365
H	 1.3918498181	-0.4340951184	-1.7916517396	 0.130406
H	-0.2718850689	 1.0200960354	-0.5540616913	 0.121877
H	 0.2257664172	 0.2639989388	 0.9728915721	 0.119557
H	 4.6737219255	 0.3057975953	 3.3448805523	 0.14903
H	 5.4454325369	-0.3082495937	 1.8936935606	 0.148575
H	 6.2889379327	 1.9868265199	 1.3594763192	 0.106217
H	 5.5098151412	 2.6067220837	 2.828972377	 0.106535
H	 7.7265552719	 1.9453206098	 3.2104071326	 0.292711
19.3594	38.4202	63.2342	79.8467	139.3267	160.3327	222.9737	241.3203	267.1142	330.7413	408.1157	427.9528	475.2995	604.2723	674.2863	718.5169	786.9217	811.935	932.2566	995.2181	1026.0843	1078.9562	1082.8491	1084.1187	1089.6554	1219.3742	1230.7732	1240.2284	1288.4884	1302.7596	1327.9498	1331.3391	1408.3721	1455.9701	1465.7829	1467.9041	1498.4579	1505.9896	1528.6593	1760.8793	2329.6063	2989.4388	3021.3899	3031.8273	3032.4307	3044.1567	3069.886	3098.4675	3116.4701	3123.9646	3836.2888
CCC(=O)C#CCCO	CCC(=O)C#CCCO	
InChI=1S/C7H10O2/c1-2-7(9)5-3-4-6-8/h8H,2,4,6H2,1H3	InChI=1S/C7H10O2/c1-2-7(9)5-3-4-6-8/h8H,2,4,6H2,1H3
