19
gdb 2994	2.4945521	1.2538586	1.206341	2.3685	76.12	-0.23419	-0.02049	0.2137	1174.2212	0.154823	-422.53652	-422.52725	-422.526306	-422.570495	34.016	
C	 0.1850586206	-1.0978239433	-3.4223897399	-0.502133
C	-0.1343322527	-0.7457135507	-1.9993127875	 0.303248
C	-1.046241166	 0.3899616721	-1.6125773471	 0.048829
O	-1.7844341118	 0.8960890554	-2.687849861	-0.434057
C	-1.3910838995	-1.001253648	-1.1451042642	-0.151183
C	-0.540228578	-1.3730774046	 0.072265188	-0.265833
C	 0.744970207	-1.1216909641	-0.7710953396	-0.149862
C	 1.7052639817	-0.0501890397	-0.3339262742	 0.149601
O	 1.5743713352	 0.6395960283	 0.6476290942	-0.252721
H	 0.3592151637	-2.1737764012	-3.5363118838	 0.113684
H	-0.6382988824	-0.8062729272	-4.0778408141	 0.144837
H	 1.0853854162	-0.5760860732	-3.768638009	 0.12025
H	-0.7208693849	 1.1407454888	-0.8891085741	 0.099894
H	-2.657526759	 1.135240958	-2.3603876664	 0.290951
H	-2.3206213883	-1.4680722533	-1.4504399141	 0.087981
H	-0.6481422683	-0.7356872718	 0.9538350557	 0.120659
H	-0.6387033556	-2.41837961	 0.3704327054	 0.10849
H	 1.3075852698	-2.039143463	-0.9774267942	 0.092991
H	 2.567002592	 0.1040754073	-1.025202024	 0.074377
66.8634	128.245	183.1289	191.449	245.8976	263.2482	287.3285	296.1123	355.2674	423.7723	524.3037	627.5735	661.557	698.6783	795.0576	839.4229	916.7885	935.783	959.7016	990.1124	1019.5427	1056.5182	1090.181	1095.8183	1109.0627	1135.3291	1174.3731	1191.0057	1216.8552	1248.2288	1267.1983	1300.6019	1338.7294	1362.711	1412.6008	1423.9596	1456.7667	1488.4799	1491.3555	1497.7168	1816.2501	2854.8725	3025.0737	3047.0795	3066.2876	3073.4964	3078.6865	3120.4002	3129.1887	3177.603	3810.1761	66.8657	128.2453	183.1314	191.4498	245.8974	263.248	287.3283	296.1116	355.2674	423.7721	524.3038	627.5735	661.557	698.6779	795.0575	839.4224	916.7888	935.7834	959.702	990.1123	1019.5429	1056.5184	1090.1811	1095.8182	1109.0627	1135.3289	1174.3734	1191.0056	1216.8554	1248.2289	1267.1988	1300.6023	1338.7293	1362.7112	1412.6003	1423.959	1456.7667	1488.48	1491.3549	1497.7159	1816.2505	2854.8725	3025.0736	3047.0795	3066.2875	3073.4964	3078.6865	3120.4001	3129.1888	3177.6031	3810.1757
CC12C(O)C1CC2C=O	C[C@@]12[C@@H](O)[C@@H]1C[C@@H]2C=O	
InChI=1S/C7H10O2/c1-7-4(3-8)2-5(7)6(7)9/h3-6,9H,2H2,1H3	InChI=1S/C7H10O2/c1-7-4(3-8)2-5(7)6(7)9/h3-6,9H,2H2,1H3/t4-,5+,6+,7+/m1/s1
