19
gdb 2940	3.4899456	1.1678248	1.0067118	2.1624	78.06	-0.21124	0.02275	0.23399	1228.8058	0.155839	-422.558671	-422.54986	-422.548916	-422.591414	34.26	
C	 1.3318917533	 0.8493547255	 0.2287026457	-0.487478
C	-0.0500413209	 0.2793685376	 0.2677901475	 0.307519
C	-1.2055488985	 0.9407321952	 0.1107915718	-0.17748
C	-2.3911403618	 0.0564941086	 0.2642778938	-0.227983
C	-2.5389971431	-0.5867172628	 1.6464958882	 0.005777
O	-3.7600014686	-1.1976440022	 1.9685025866	-0.438374
C	-1.8052934704	-1.3280861466	 0.5666360158	 0.433041
O	-2.3432377572	-2.5182533505	 0.1015048238	-0.481365
C	-0.2916660122	-1.202987219	 0.4945075573	-0.378048
H	 1.8558066101	 0.7018954036	 1.1818362661	 0.124502
H	 1.9418128082	 0.3549707497	-0.538670125	 0.125352
H	 1.3181931047	 1.9215857888	 0.0140949716	 0.122079
H	-1.2819397256	 2.00755862	-0.0733864551	 0.086161
H	-3.289553628	 0.1822428792	-0.3320582657	 0.086412
H	-2.0042888734	-0.1429097428	 2.4871225659	 0.08738
H	-4.4433494496	-0.521104935	 2.0135562286	 0.295096
H	-3.1808629074	-2.6354970322	 0.5711072103	 0.290523
H	 0.1978277029	-1.5727551724	 1.4044516372	 0.108839
H	 0.0969314177	-1.808161165	-0.3364409243	 0.118049
122.8058	182.7309	224.926	251.694	278.3175	306.4754	330.5304	391.6266	426.0366	433.1101	460.7197	481.1472	658.5738	688.9541	743.3489	814.2913	851.251	891.5237	939.6225	964.9641	992.436	1010.2619	1044.3893	1065.5608	1071.4414	1123.1231	1163.2338	1187.1108	1197.3137	1244.6638	1267.9379	1279.9621	1325.6736	1352.4503	1413.1869	1416.9538	1445.4639	1476.0194	1478.8317	1489.8954	1699.2669	3012.4906	3017.149	3046.9943	3059.0769	3090.0253	3108.0585	3159.2599	3180.3468	3746.5586	3811.0848
CC1=CC2C(O)C2(O)C1	CC1=C[C@@H]2[C@@H](O)[C@]2(O)C1	
InChI=1S/C7H10O2/c1-4-2-5-6(8)7(5,9)3-4/h2,5-6,8-9H,3H2,1H3	InChI=1S/C7H10O2/c1-4-2-5-6(8)7(5,9)3-4/h2,5-6,8-9H,3H2,1H3/t5-,6-,7+/m1/s1
