19
gdb 2040	2.0933647	1.5837016	1.5082672	1.5422	75.26	-0.23933	-0.02265	0.21667999999999998	1038.9361	0.154579	-422.541513	-422.532352	-422.531408	-422.575039	34.329	
C	-0.0156103076	-0.0943363045	-0.1440012814	-0.448968
C	 1.5102379721	-0.0531977106	-0.0031925058	 0.141963
C	 2.2369696711	-0.1140324871	-1.4032773697	-0.295208
C	 2.6958131743	 1.3362709379	-1.2006779729	-0.103157
C	 3.5555277183	 1.4168931458	 0.0408022543	-0.346483
C	 2.0622420377	 1.3709311745	 0.1825848769	 0.384447
O	 1.3357659726	 2.3955930226	 0.7585185506	-0.462227
C	 1.931034846	-1.0787127733	 1.021744831	 0.105921
O	 2.3847868004	-0.8175250848	 2.1083184199	-0.260797
H	-0.503447012	 0.183423237	 0.7947441796	 0.131582
H	-0.3421303364	 0.6133611973	-0.9114259094	 0.133277
H	-0.3555010743	-1.095490008	-0.4309356903	 0.116699
H	 3.042374884	-0.849950525	-1.5003551108	 0.101781
H	 1.5300337219	-0.2541095329	-2.22375695	 0.109018
H	 2.7190625863	 2.1009619383	-1.9662854976	 0.097333
H	 4.1888253624	 0.5863034437	 0.3415140662	 0.112904
H	 3.9741846878	 2.399702422	 0.2328778144	 0.116061
H	 1.5462121275	 2.4107937277	 1.699398193	 0.294034
H	 1.7749151378	-2.1392289305	 0.7082716219	 0.071819
76.9588	141.7377	156.3208	222.9607	241.055	306.8572	317.3465	355.9422	400.1058	427.1296	483.6554	519.1803	645.5627	718.179	807.7535	854.8402	887.1977	903.6509	932.8782	949.15	984.8923	1006.6137	1021.3155	1027.2285	1079.712	1145.5362	1146.8377	1182.2985	1229.158	1233.658	1254.946	1308.0831	1318.6933	1400.6642	1404.3655	1420.6432	1481.8462	1486.489	1497.5674	1507.486	1818.0671	2840.3707	3033.9861	3043.4005	3105.9275	3107.1749	3113.1811	3116.8056	3195.8611	3207.1362	3789.1166
CC1(CC2CC12O)C=O	C[C@]1(C[C@@H]2C[C@]12O)C=O	
InChI=1S/C7H10O2/c1-6(4-8)2-5-3-7(5,6)9/h4-5,9H,2-3H2,1H3	InChI=1S/C7H10O2/c1-6(4-8)2-5-3-7(5,6)9/h4-5,9H,2-3H2,1H3/t5-,6+,7-/m1/s1
