19
gdb 1644	3.7009346	1.1253205	1.0811075	1.3362	74.8	-0.24944	0.06466	0.3141	1185.2415	0.155817	-422.498678	-422.490297	-422.489353	-422.531667	32.364	
O	 1.3058377796	-2.6081647828	 0.8132669649	-0.467544
C	 0.116801827	-2.3322603724	 0.1101212703	 0.393265
C	-0.3941905521	-3.4938597252	-0.6854682889	-0.299843
C	-1.1313592416	-3.0517931628	 0.5648368697	-0.33033
C	 0.0123133206	-0.9314638035	-0.4442935899	-0.062415
C	 1.3143999302	-0.4108692051	-1.1628438755	-0.279219
C	 1.4108357767	 0.6893063651	-0.0984692967	 0.038737
O	 0.1896773663	 1.4377980848	-0.1422130736	-0.24895
C	 0.2000263348	 0.2060427995	 0.5847934247	-0.006423
H	 1.2786629886	-2.1262903444	 1.6471291188	 0.283163
H	-0.8476283452	-3.3011253506	-1.6513445916	 0.115995
H	 0.1824797963	-4.4091570358	-0.6231238137	 0.124681
H	-2.090577474	-2.5570134552	 0.4548189691	 0.114326
H	-1.0399534152	-3.6846587344	 1.4404135393	 0.114947
H	-0.9113889749	-0.8274485002	-1.020294967	 0.079953
H	 2.1214463928	-1.1416836976	-1.0887846537	 0.12617
H	 1.2089115102	-0.0585248943	-2.1910802786	 0.10516
H	 2.2868664319	 1.1992887088	 0.2853530943	 0.101858
H	-0.1034704822	 0.2467097162	 1.6265030981	 0.096469
77.1177	120.1533	177.3629	290.7855	296.6738	314.6215	361.6541	447.467	479.2709	522.462	732.7644	766.5333	779.1544	842.8533	849.0536	878.1538	898.7484	929.5447	936.9328	954.3899	980.5104	992.1299	1015.6703	1039.4344	1052.636	1071.423	1078.5816	1160.0691	1188.9365	1207.9054	1229.3126	1234.8847	1244.5034	1276.2247	1295.9432	1322.5203	1386.5474	1404.5506	1451.6249	1463.8465	1498.2912	3070.3215	3076.7048	3131.3709	3140.2175	3140.8552	3159.8539	3188.3355	3217.9593	3234.051	3798.1471
OC1(CC1)C1CC2OC12	OC1(CC1)[C@@H]1C[C@H]2O[C@@H]12	
InChI=1S/C7H10O2/c8-7(1-2-7)4-3-5-6(4)9-5/h4-6,8H,1-3H2	InChI=1S/C7H10O2/c8-7(1-2-7)4-3-5-6(4)9-5/h4-6,8H,1-3H2/t4-,5-,6+/m1/s1
