19
gdb 758	2.3424147	1.599087	1.0851562	1.9102	76.77	-0.23375	-0.02826	0.20549	1131.906	0.157548	-422.56058	-422.552	-422.551056	-422.594628	31.66	
O	-1.6266325669	-3.3339843141	-1.4852633323	-0.302181
C	-0.6192630738	-2.681326324	-1.3367046933	 0.334822
C	 0.2467869843	-2.2652085291	-2.5201479015	-0.271889
C	-0.2336093015	-0.9335332136	-3.1792236606	-0.266366
C	 0.4428130769	 0.3274548067	-2.69040031	-0.037242
C	 0.4853709814	 0.7873167448	-1.4394677704	-0.054147
C	-0.1342199782	 0.1021231757	-0.2476163973	-0.133759
O	 0.5926179348	-1.0834285799	 0.1058401726	-0.239335
C	-0.1715356122	-2.2619116588	 0.0690244095	-0.175796
H	 1.2935998377	-2.1701506882	-2.2219505876	 0.121658
H	 0.1512618473	-3.069626057	-3.254299658	 0.122914
H	-0.0631272848	-1.0167370945	-4.2556079187	 0.113333
H	-1.3230283903	-0.8584514995	-3.0604741793	 0.129
H	 0.9531741792	 0.9068125763	-3.4568786356	 0.095174
H	 1.0243775799	 1.709890229	-1.2416755642	 0.093648
H	-0.1286640992	 0.769342828	 0.6219793948	 0.109183
H	-1.1841044941	-0.1509041572	-0.4526663484	 0.111162
H	 0.471597411	-3.0617318402	 0.4595064122	 0.131945
H	-1.0637770815	-2.2132093544	 0.7096084281	 0.117875
33.1216	107.0582	170.9377	213.0236	226.6532	366.1981	408.1144	470.1822	482.3236	492.2964	600.9136	675.2938	727.7876	740.5076	846.1664	902.3577	946.8571	954.3078	979.0896	996.8363	1012.4083	1056.6173	1087.1912	1139.9718	1159.3959	1216.3276	1255.6296	1276.7256	1279.1702	1302.0123	1332.4806	1358.0972	1366.7557	1396.3354	1426.5143	1463.9357	1468.1194	1490.1759	1506.4851	1722.0877	1807.7211	2997.7433	3006.9133	3021.246	3053.4078	3056.8928	3060.185	3085.1405	3122.2308	3142.266	3170.1595
O=C1CCC=CCOC1	O=C1CCC=CCOC1	
InChI=1S/C7H10O2/c8-7-4-2-1-3-5-9-6-7/h1,3H,2,4-6H2/b3-1-	InChI=1S/C7H10O2/c8-7-4-2-1-3-5-9-6-7/h1,3H,2,4-6H2/b3-1-
