19
gdb 6064	6.6616596	0.4239383	0.4187247	2.7842	84.23	-0.24845	-0.02952	0.21893	2587.4404	0.152613	-422.51877	-422.50769	-422.506746	-422.55806	36.124	
C	 0.6422264808	-0.3653383632	-1.0086124377	-0.386842
C	 1.2181529067	 0.1131808332	 0.3125125583	-0.018026
O	 1.4240333172	 1.5112797838	 0.2300184966	-0.241166
C	 1.9607250106	 2.0482344926	 1.4216622586	-0.205341
C	 2.1535769877	 3.4858186609	 1.2831495864	 0.012634
C	 2.3033348295	 4.676324824	 1.191415297	 0.120375
C	 2.5443661878	 6.1055456672	 1.0673819399	-0.417244
C	 4.0225851118	 6.4322564239	 0.8398556452	 0.170105
O	 4.5741293596	 7.3851593942	 1.3180707066	-0.229771
H	 0.471093764	-1.4455173717	-0.9799316568	 0.116372
H	-0.3092482249	 0.1326809417	-1.2145966987	 0.129984
H	 1.3300995436	-0.1433611837	-1.8291767192	 0.129777
H	 0.5314592157	-0.1211593577	 1.143955336	 0.087532
H	 2.1712880598	-0.3988530924	 0.5297377524	 0.087437
H	 1.2893014713	 1.8456893359	 2.2747093058	 0.11698
H	 2.924238376	 1.565841568	 1.6635934863	 0.115862
H	 1.9968061964	 6.5011904509	 0.1979049579	 0.160098
H	 2.1985266007	 6.6669642945	 1.9414706604	 0.155332
H	 4.5504378356	 5.7146007379	 0.1751541952	 0.095903
17.3595	47.0785	67.5537	81.2189	108.7639	130.1767	227.8563	242.2727	284.1679	332.692	395.0331	460.8143	493.7035	540.6409	724.7791	822.4782	833.7675	908.912	1024.3352	1032.4599	1036.1182	1042.972	1131.352	1147.7472	1177.5385	1188.431	1212.4624	1255.0782	1291.8151	1294.5959	1378.7188	1405.6821	1414.3786	1437.801	1448.5649	1483.0292	1496.1822	1501.2487	1531.5866	1841.408	2374.7227	2903.0121	2942.8428	2955.1648	2961.1077	2976.9823	3003.4962	3046.513	3080.1317	3120.9534	3124.3633
CCOCC#CCC=O	CCOCC#CCC=O	
InChI=1S/C7H10O2/c1-2-9-7-5-3-4-6-8/h6H,2,4,7H2,1H3	InChI=1S/C7H10O2/c1-2-9-7-5-3-4-6-8/h6H,2,4,7H2,1H3
