19
gdb 3713	3.65893	1.2763634	1.2197777	3.2144	74.7	-0.2399	0.08384	0.32374	1102.7735	0.157231	-422.520397	-422.512655	-422.511711	-422.552444	30.411	
C	 0.1366599137	 0.4247349889	 0.0559248441	-0.419568
C	 1.0187554666	-0.794281951	-0.0254549084	-0.0481
O	 2.2125972534	-0.7908570783	 0.7798968914	-0.306884
C	 2.3514018659	-0.7843533009	-0.6335759759	 0.494771
C	 3.0658800018	 0.375128743	-1.3558752452	-0.324091
C	 3.9434375342	-0.5143046532	-2.2666089435	 0.070603
C	 2.9586041453	-1.5719572068	-2.8174817273	-0.236675
C	 3.0357194028	-1.9627413844	-1.3230698316	-0.01769
O	 4.432917486	-1.5226406701	-1.3253522749	-0.29504
H	-0.4357611768	 0.4206784104	 0.9892836122	 0.131805
H	 0.7299388846	 1.341523014	 0.0231133474	 0.129249
H	-0.5779471465	 0.4380731545	-0.7745806822	 0.120322
H	 0.485469315	-1.7478415831	-0.0005757751	 0.085576
H	 2.394347511	 1.0393027869	-1.9071790352	 0.103926
H	 3.6686111001	 0.9633008853	-0.6609966496	 0.12723
H	 4.7242035763	-0.0466497728	-2.8653322171	 0.084966
H	 2.0029461907	-1.2492962432	-3.2399161406	 0.096115
H	 3.4563155578	-2.3038833662	-3.4537629673	 0.116001
H	 2.871649228	-2.9652374227	-0.9305008511	 0.087481
113.9162	163.8934	199.2771	240.7562	366.5723	403.3031	449.6908	490.7935	541.7334	597.2287	765.3663	794.201	827.1405	843.9488	873.5623	897.8207	908.4147	947.03	977.5566	999.3443	1018.9808	1027.7372	1058.4808	1092.3791	1122.672	1150.937	1170.1941	1196.4843	1206.4243	1223.8337	1249.3276	1275.6792	1302.2519	1311.3298	1363.9937	1409.294	1469.1272	1476.3473	1487.0063	1492.5033	1527.0401	3036.605	3061.7598	3065.9992	3075.843	3099.2595	3122.9247	3129.1925	3129.2567	3138.0042	3146.6526
CC1OC11CC2CC1O2	C[C@@H]1O[C@@]21C[C@@H]1C[C@H]2O1	
InChI=1S/C7H10O2/c1-4-7(9-4)3-5-2-6(7)8-5/h4-6H,2-3H2,1H3	InChI=1S/C7H10O2/c1-4-7(9-4)3-5-2-6(7)8-5/h4-6H,2-3H2,1H3/t4-,5-,6+,7+/m0/s1
