19
gdb 4529	2.2993364	1.6784438	1.0127796	2.7864	79.56	-0.23149	-0.05084	0.18065	1186.4502	0.155894	-422.588899	-422.57978	-422.578836	-422.622723	33.387	
C	-3.606124183	 1.040814462	-0.6981429469	-0.39907
C	-2.5331041754	 0.2966471969	 0.0786533672	 0.015344
O	-2.4014197816	-1.0033071971	-0.4801742878	-0.253284
C	-1.4546304825	-1.8047221178	 0.1866632434	-0.130994
C	-0.1257589782	-1.1292272931	 0.3481327794	-0.156124
C	 0.0280813365	 0.1983887722	 0.2415315466	 0.211943
C	 1.3446212879	 0.9146972065	 0.3401496332	-0.476844
C	-1.186728089	 1.0375512021	 0.0779220952	 0.304749
O	-1.128446329	 2.2502355547	 0.0227976226	-0.325912
H	-3.6861764777	 2.0641511607	-0.328635248	 0.141093
H	-3.3445268924	 1.0749975882	-1.7593927576	 0.129199
H	-4.5683568373	 0.5348220092	-0.5913927588	 0.119074
H	-2.8369595014	 0.2121094275	 1.1410030343	 0.085623
H	-1.8328805514	-2.1197693222	 1.1796356768	 0.104678
H	-1.3457337756	-2.7174302018	-0.4101359001	 0.125696
H	 0.7272263378	-1.7711543324	 0.561739397	 0.104433
H	 1.3246268385	 1.6569591639	 1.1443284582	 0.141932
H	 2.1639630798	 0.2143583798	 0.5202352732	 0.11539
H	 1.5526840338	 1.4686110206	-0.5812353979	 0.143077
63.0527	142.2909	177.3746	198.5023	246.0304	265.8545	308.2809	326.3645	414.9374	450.3468	478.5086	536.9982	649.0487	752.4034	789.9728	851.8892	868.898	904.9911	1016.6171	1031.1237	1040.8038	1067.5705	1080.6998	1110.9872	1171.5027	1180.3806	1240.1238	1268.7157	1334.669	1348.5606	1383.1783	1398.8698	1403.7057	1414.9449	1470.6419	1478.2827	1482.1975	1485.9495	1496.8964	1711.1512	1772.1194	2909.0822	2911.8885	3041.0552	3056.7521	3058.9606	3098.3288	3124.5712	3129.2285	3145.9508	3152.1299
CC1OCC=C(C)C1=O	C[C@H]1OCC=C(C)C1=O	
InChI=1S/C7H10O2/c1-5-3-4-9-6(2)7(5)8/h3,6H,4H2,1-2H3	InChI=1S/C7H10O2/c1-5-3-4-9-6(2)7(5)8/h3,6H,4H2,1-2H3/t6-/m1/s1
