19
gdb 1785	3.3592121	1.2433027	1.0872854	1.6901	75.93	-0.24841	-0.0245	0.22391	1130.1145	0.157156	-422.570294	-422.562082	-422.561138	-422.60298	31.916	
O	 0.5811857654	 4.5394922741	-1.6177990669	-0.482286
C	 0.7869295382	 3.1895428705	-1.3649376213	 0.415055
C	 0.2630419911	 2.4506173151	-0.095391244	-0.330102
C	 1.292219825	 1.3853434085	-0.5522599706	 0.260647
C	 2.1885371887	 2.579501137	-1.0372977744	-0.334143
C	 0.6983729111	 0.895748267	-1.8994024436	-0.277088
C	 0.3013991375	 2.2787266706	-2.5036254184	-0.237535
C	 1.8678791806	 0.3735065239	 0.3779786869	 0.047275
O	 1.6350879225	 0.3089213463	 1.5602253915	-0.252951
H	 0.8564992794	 5.0424067943	-0.8445202507	 0.281652
H	 0.56354415	 2.9322182897	 0.8379697049	 0.105822
H	-0.7913342698	 2.1651534872	-0.0572224144	 0.099896
H	 2.6849630531	 3.0842927138	-0.2044850004	 0.103816
H	 2.8882547191	 2.4027945605	-1.858534969	 0.100656
H	 1.4345231958	 0.3600827876	-2.5057676111	 0.105118
H	-0.1610779545	 0.2370078495	-1.7490622039	 0.111166
H	 0.8110598301	 2.5030152998	-3.4440849913	 0.107032
H	-0.774560289	 2.3800773936	-2.6659158082	 0.108808
H	 2.5737807457	-0.344202779	-0.1041400749	 0.067163
69.1342	164.9652	235.4125	261.3553	314.7361	363.1849	394.4916	446.6151	458.6936	523.0018	596.5057	667.8298	725.0383	823.2059	836.4895	853.8568	924.8389	951.4317	962.2922	974.6822	1000.2784	1016.4558	1056.529	1117.1243	1125.8562	1149.7538	1171.4832	1193.2597	1210.4835	1229.7247	1242.4905	1262.3851	1323.7484	1349.9734	1395.5765	1426.8883	1481.5669	1494.3737	1499.49	1534.5277	1817.9706	2847.6962	3052.9358	3054.02	3062.0535	3068.2984	3095.0572	3114.6822	3120.7587	3126.3622	3815.8816	69.1325	164.9648	235.4128	261.3561	314.7364	363.1851	394.4918	446.6152	458.6937	523.0019	596.5056	667.8297	725.0378	823.2059	836.4893	853.8568	924.8386	951.4313	962.2922	974.6821	1000.2779	1016.4555	1056.5279	1117.1239	1125.8559	1149.7534	1171.4828	1193.2594	1210.4829	1229.7241	1242.4894	1262.3845	1323.7479	1349.9729	1395.5764	1426.8866	1481.5664	1494.3723	1499.4891	1534.527	1817.9685	2847.6955	3052.936	3054.0201	3062.0536	3068.2985	3095.0573	3114.6823	3120.7587	3126.3622	3815.8816
OC12CC(C1)(CC2)C=O	O[C@]12C[C@](C1)(CC2)C=O	
InChI=1S/C7H10O2/c8-5-6-1-2-7(9,3-6)4-6/h5,9H,1-4H2	InChI=1S/C7H10O2/c8-5-6-1-2-7(9,3-6)4-6/h5,9H,1-4H2/t6-,7+
