19
gdb 4719	2.5206592	1.2087465	0.8693507	1.4755	78.09	-0.24683	0.03046	0.27729	1349.096	0.15435	-422.482484	-422.472606	-422.471662	-422.51809	34.516	
C	 1.506565582	 0.0085719497	-0.0750588414	-0.23699
O	 0.1054233613	 0.1764669859	 0.007070368	-0.238227
C	-0.3367394646	 0.7801842774	 1.2104423854	-0.083041
C	 0.1138408793	 2.1694732265	 1.3492393369	 0.34272
C	 0.478356187	 3.3109035202	 1.4431136179	-0.460058
C	-1.8670508855	 0.6865725472	 1.181784914	 0.142937
C	-2.4651002805	-0.7281925856	 1.306691896	-0.294481
C	-3.1038823181	-0.1831808137	 2.6004367514	-0.063478
O	-2.4542786929	 1.0980303152	 2.4307149715	-0.29018
H	 1.8843201543	-0.625576469	 0.7418636513	 0.104556
H	 1.7108891939	-0.4819019208	-1.0292929149	 0.129097
H	 2.0330866686	 0.9712541566	-0.0425169939	 0.123817
H	 0.0244597232	 0.2035233136	 2.0796090437	 0.089909
H	 0.7952530376	 4.3203764043	 1.5367683945	 0.200046
H	-2.2401692422	 1.2800091773	 0.3385454246	 0.09223
H	-3.1572659198	-1.0181551377	 0.5161559466	 0.115097
H	-1.726456794	-1.5196819102	 1.4433102229	 0.11559
H	-4.1962456666	-0.0880375952	 2.5832960147	 0.105052
H	-2.8058391031	-0.6707601818	 3.5359895609	 0.105404
65.2103	75.0657	103.5256	124.4054	171.6171	191.2866	250.1293	326.8846	377.5379	435.6843	506.2683	592.8492	630.9238	673.6181	775.3105	831.4555	884.0813	938.7417	956.2686	984.8428	1026.3866	1055.0961	1089.3804	1129.708	1155.0424	1169.6886	1184.0847	1207.2076	1222.7278	1255.4677	1277.6951	1293.3385	1345.6766	1360.0471	1394.5484	1477.6025	1485.2198	1493.27	1510.7291	1532.2168	2231.5013	2953.3859	2985.0085	3019.9034	3038.3915	3050.123	3060.5202	3087.7982	3122.7519	3143.1075	3502.3952
COC(C#C)C1CCO1	CO[C@@H](C#C)[C@H]1CCO1	
InChI=1S/C7H10O2/c1-3-6(8-2)7-4-5-9-7/h1,6-7H,4-5H2,2H3	InChI=1S/C7H10O2/c1-3-6(8-2)7-4-5-9-7/h1,6-7H,4-5H2,2H3/t6-,7+/m0/s1
