19
gdb 1080	2.6476668	1.3510356	1.0878282	1.6594	75.43	-0.24484	-0.02193	0.22291	1183.0004	0.154501	-422.539405	-422.530028	-422.529084	-422.574106	33.938	
C	 0.9885335444	-0.6461997748	 4.2136551515	-0.479895
C	 0.3306287846	 0.3596581957	 3.2925725182	 0.33076
O	 0.2799424301	 1.5425053684	 3.5427337769	-0.304379
C	-0.2668411926	-0.1616937709	 1.9978590043	 0.268273
C	-1.3108526154	-1.2065097311	 2.1047058331	-0.217342
O	 0.0129620909	-1.5348927253	 1.6944397218	-0.263101
C	-0.2506682954	 0.8003771211	 0.8484530272	-0.060675
C	 0.8948183227	 0.7658174523	-0.1344787104	-0.262427
C	-0.4827256013	 0.3210481362	-0.5580414588	-0.284484
H	 1.2615903223	-0.1525507089	 5.1467454139	 0.139882
H	 0.3401307535	-1.5038809283	 4.4135913387	 0.141244
H	 1.8851815868	-1.0475315743	 3.7287637609	 0.155339
H	-1.6104790105	-1.5946995844	 3.0767547289	 0.120421
H	-2.0690912774	-1.2491406478	 1.3254380336	 0.128921
H	-0.6253329659	 1.7801698466	 1.1204022551	 0.111123
H	 1.2785278644	 1.7104682089	-0.5018997493	 0.117237
H	 1.6419815805	-0.0096480364	-0.0065933458	 0.122298
H	-1.0561422007	 0.9564853841	-1.2233826742	 0.112975
H	-0.6252838209	-0.7434470712	-0.7081840756	 0.123831
63.458	74.6015	111.0476	170.0653	200.1364	262.8475	297.4155	360.1389	458.3616	479.7502	561.6866	616.2486	650.7533	789.2659	811.3274	827.7376	873.7119	904.5674	931.2167	964.4679	980.6046	1045.9617	1063.2789	1090.8975	1098.4731	1115.5787	1133.4595	1140.5389	1168.6324	1200.6158	1224.0175	1281.4819	1359.8215	1385.7892	1414.9612	1452.7812	1460.6077	1468.642	1501.5647	1521.4859	1803.8621	3047.8712	3090.6891	3110.2818	3136.4916	3140.3848	3157.7251	3182.4359	3183.9048	3218.3321	3233.1133
CC(=O)C1(CO1)C1CC1	CC(=O)[C@@]1(CO1)C1CC1	
InChI=1S/C7H10O2/c1-5(8)7(4-9-7)6-2-3-6/h6H,2-4H2,1H3	InChI=1S/C7H10O2/c1-5(8)7(4-9-7)6-2-3-6/h6H,2-4H2,1H3/t7-/m0/s1
