19
gdb 748	2.4851752	1.7041762	1.1582351	3.1466	74.76	-0.25856	-0.00688	0.25168	1080.6462	0.158441	-422.576066	-422.568166	-422.567222	-422.608642	30.487	
O	 0.6369497652	 3.5245700795	-0.1996894641	-0.294781
C	 0.8922873666	 2.9833058656	 0.8355288452	 0.406516
C	 1.638149843	 3.5911411316	 2.0004188481	-0.287902
C	 3.0253374613	 2.9407280277	 2.2261219809	-0.206168
C	 2.9917446577	 1.4263880091	 2.503702386	-0.218157
C	 2.7256783186	 0.5739908458	 1.2689615122	-0.036675
C	 1.6600402297	-0.5073851215	 1.3082400094	-0.333781
C	 1.4214541997	 0.7473125599	 0.5340255803	 0.102914
O	 0.5083559094	 1.6705294695	 1.0897686856	-0.256311
H	 1.7480395907	 4.6624633428	 1.8170209402	 0.123143
H	 1.0286163534	 3.450278355	 2.9007720987	 0.125922
H	 3.6669056497	 3.1451830252	 1.3602450728	 0.11203
H	 3.4855886066	 3.4518781692	 3.0788609375	 0.105994
H	 3.9513969776	 1.1222703882	 2.9365789199	 0.103711
H	 2.2346782736	 1.221975488	 3.2689294875	 0.105955
H	 3.5969835778	 0.3805936322	 0.6490197996	 0.091632
H	 1.8128989703	-1.4265809638	 0.7539002292	 0.119074
H	 1.1085262099	-0.6199348205	 2.2352591318	 0.127298
H	 1.4027210391	 0.7150414566	-0.5520467408	 0.109586
67.965	142.8028	235.7906	269.3744	301.2452	368.5955	425.4273	472.7335	590.2014	606.6599	711.4971	753.7131	803.9198	818.3986	857.9152	878.315	898.7021	946.5251	981.1194	1036.1613	1053.6694	1063.2256	1089.0355	1106.3319	1133.0151	1147.0648	1172.0325	1214.301	1231.4151	1237.3769	1288.1151	1343.6273	1355.542	1380.5739	1382.354	1410.0402	1469.8074	1475.6927	1490.5883	1491.2824	1857.1732	3030.8443	3035.3307	3042.5729	3071.3579	3077.1758	3112.6047	3136.0689	3138.2029	3148.23	3226.3986
O=C1CCCC2CC2O1	O=C1CCC[C@H]2C[C@H]2O1	
InChI=1S/C7H10O2/c8-7-3-1-2-5-4-6(5)9-7/h5-6H,1-4H2	InChI=1S/C7H10O2/c8-7-3-1-2-5-4-6(5)9-7/h5-6H,1-4H2/t5-,6+/m0/s1
