19
gdb 3066	2.6592783	1.5297272	1.2014738	1.2658	76.42	-0.23016	0.00884	0.239	1095.915	0.157646	-422.551695	-422.543663	-422.542719	-422.583782	31.583	
C	 1.3541758619	 0.7046474616	-0.2358264894	-0.504021
C	-0.0362251908	 0.2336836172	 0.0633720567	 0.366349
C	-1.1108086064	 1.0157365708	 0.1968377788	-0.177121
C	-2.452129067	 0.394715181	 0.5259688143	-0.26904
C	-2.2674991244	-1.1173478039	 0.6866026298	 0.030965
O	-1.5159297501	-1.6296859895	-0.4618382588	-0.317804
C	-0.2950416626	-1.2493077639	 0.25692603	-0.079411
C	-1.0606857744	-1.4885499317	 1.5855822543	 0.184436
O	-1.0736912381	-2.8201587315	 2.0291373705	-0.457353
H	 2.0563303069	 0.4035243243	 0.5526435469	 0.127976
H	 1.7285001929	 0.2652084843	-1.1693623247	 0.130629
H	 1.3979224498	 1.7932078602	-0.328376113	 0.124258
H	-1.0533240016	 2.092266889	 0.0586612454	 0.087057
H	-2.8675079483	 0.8198148902	 1.4500896808	 0.109359
H	-3.1841729722	 0.6037265766	-0.2658641422	 0.11611
H	-3.2014370407	-1.6635247492	 0.8487958584	 0.076678
H	 0.5500658395	-1.8985143324	 0.0132478711	 0.072557
H	-0.818358638	-0.8581619708	 2.4428914977	 0.090974
H	-1.2965666063	-3.3651774223	 1.2638562334	 0.287402
147.0433	182.491	214.3487	263.0378	303.6305	358.4931	383.4267	463.7865	485.7881	492.082	574.603	685.8581	806.3784	851.3662	867.3974	906.0549	921.4241	933.7674	938.2697	988.3508	1003.6948	1057.8106	1066.3294	1072.4865	1106.6784	1157.5819	1176.9983	1210.195	1225.3979	1262.8805	1274.9195	1325.525	1343.2076	1359.6114	1365.8658	1415.2346	1434.3908	1471.7766	1478.0413	1489.3833	1727.8674	3009.9519	3014.3928	3037.8363	3060.4121	3071.7433	3082.2062	3104.0616	3110.6031	3160.4688	3778.6826
CC1=CCC2OC1C2O	CC1=CC[C@H]2O[C@@H]1[C@@H]2O	
InChI=1S/C7H10O2/c1-4-2-3-5-6(8)7(4)9-5/h2,5-8H,3H2,1H3	InChI=1S/C7H10O2/c1-4-2-3-5-6(8)7(4)9-5/h2,5-8H,3H2,1H3/t5-,6-,7+/m1/s1
