19
gdb 1782	3.6010471	1.2211118	1.0977711	1.8113	76.62	-0.24778	-0.0303	0.21748	1152.3307	0.156242	-422.555792	-422.547425	-422.546481	-422.588698	31.871	
C	 0.6658873873	 0.7617748113	-1.9806140654	-0.489531
C	 1.9551374995	 0.382808264	-1.3104150688	 0.429036
C	 3.1798090637	-0.2546101248	-2.0238910198	-0.301506
C	 3.6203950256	-0.4842421977	-0.5515810991	 0.19301
C	 2.0977188463	-0.7284843048	-0.2332284587	-0.310261
C	 3.7362374948	 0.9766008696	-0.0688370484	-0.121335
O	 2.5381657042	 1.527426846	-0.6446430585	-0.305201
C	 4.6581185808	-1.4673398721	-0.1325884307	 0.038863
O	 5.3048083049	-2.1483332989	-0.8898508171	-0.245939
H	-0.0470436635	 1.1522344201	-1.2479995834	 0.130485
H	 0.8410970733	 1.5375939798	-2.732151796	 0.132765
H	 0.2203859288	-0.1061600557	-2.4741046798	 0.121147
H	 2.9543774761	-1.1886216173	-2.5395090075	 0.114242
H	 3.7908616775	 0.4015208846	-2.6472957414	 0.10655
H	 1.7577903062	-1.7099137608	-0.5675899665	 0.11382
H	 1.7358107928	-0.500649875	 0.7720683385	 0.10621
H	 3.7222062254	 1.0795165586	 1.0230383271	 0.104448
H	 4.6209731017	 1.4867377354	-0.4667550867	 0.111869
H	 4.7945818247	-1.5528705322	 0.9714500022	 0.071326
70.6415	156.1686	206.4092	225.3169	274.8691	330.4523	375.0539	448.7638	482.3398	516.4114	615.2199	670.3851	720.6623	814.5433	865.1442	889.6115	902.4752	948.1383	972.0477	998.6761	1010.7618	1024.2522	1046.9732	1114.0823	1147.8555	1173.7914	1183.0578	1195.048	1209.4141	1215.9062	1285.3772	1336.5199	1371.3517	1418.2637	1428.7407	1472.7522	1480.342	1492.1897	1506.4271	1532.4107	1818.273	2852.0554	3021.187	3042.6518	3064.3352	3068.9942	3078.5489	3113.094	3121.8426	3140.0097	3148.4636
CC12CC(C1)(CO2)C=O	C[C@]12C[C@](C1)(CO2)C=O	
InChI=1S/C7H10O2/c1-6-2-7(3-6,4-8)5-9-6/h4H,2-3,5H2,1H3	InChI=1S/C7H10O2/c1-6-2-7(3-6,4-8)5-9-6/h4H,2-3,5H2,1H3/t6-,7+
