19
gdb 2109	2.3528358	1.6474596	1.4310882	0.9665	75.76	-0.21988	0.06383	0.28371	1042.4908	0.154747	-422.505346	-422.496463	-422.495519	-422.538137	34.058	
C	 4.35522234	-1.7758918238	 0.8200808797	-0.51322
C	 3.266628663	-0.8449011938	 0.4105572614	 0.376506
O	 2.0576774587	-1.3649933041	-0.1425847687	-0.352893
C	 1.4741943214	-0.0317044169	-0.0214478112	 0.336293
C	-0.0126585689	-0.0206152743	 0.1437520781	-0.505579
C	 2.2420142985	 0.7771574248	-1.1045224951	-0.263858
C	 3.4701750165	 0.5712576561	-0.2241700961	-0.201114
C	 2.6326651127	 0.3627721172	 1.0177712669	 0.211686
O	 2.6872328755	 1.0189470439	 2.2190833903	-0.444622
H	 3.9882083831	-2.5190063897	 1.535912703	 0.125449
H	 4.7632535088	-2.3095747832	-0.0449156887	 0.134417
H	 5.1698097244	-1.2173848581	 1.2906165373	 0.130534
H	-0.3153631101	-0.6100005819	 1.0145643651	 0.122699
H	-0.3763223479	 1.0032853106	 0.2707470501	 0.127051
H	-0.495701468	-0.4498096921	-0.7411792198	 0.13347
H	 2.2310487397	 0.3497945818	-2.1121775468	 0.096153
H	 1.9324929531	 1.8257488654	-1.1257119878	 0.102662
H	 4.4530752086	 1.0198922288	-0.2952495195	 0.09105
H	 2.3575989808	 0.4281607694	 2.9064141918	 0.293317
168.2034	173.2126	182.4523	186.1811	203.7028	294.8924	345.811	367.0883	392.3567	506.1408	583.6137	589.9121	634.1955	661.0763	743.8207	806.4798	862.07	877.6403	907.8353	944.048	964.115	995.1093	1024.4477	1098.9108	1105.9953	1128.8281	1139.5993	1206.1509	1228.9192	1240.3224	1280.3511	1320.3499	1374.0677	1410.7695	1422.0839	1471.3691	1476.0858	1481.2569	1488.7402	1493.3223	1520.1582	3032.7601	3034.7297	3046.3185	3094.9609	3102.2869	3107.8963	3113.6606	3116.3408	3199.8829	3781.9685
CC12OC3(C)CC1C23O	C[C@]12O[C@]3(C)C[C@H]1[C@]23O	
InChI=1S/C7H10O2/c1-5-3-4-6(2,9-5)7(4,5)8/h4,8H,3H2,1-2H3	InChI=1S/C7H10O2/c1-5-3-4-6(2,9-5)7(4,5)8/h4,8H,3H2,1-2H3/t4-,5-,6+,7-/m1/s1
