19
gdb 3198	3.8175808	1.35141	1.193554	2.2623	74.51	-0.24054	0.0673	0.30784	1061.8989	0.157392	-422.524705	-422.516967	-422.516022	-422.556263	31.444	
O	 0.2056574249	-0.1126703023	 0.5397073872	-0.443916
C	-0.9191737037	 0.7383165639	 0.6604367274	 0.13874
C	-2.1900201138	-0.026690063	 1.1168048596	-0.079019
C	-3.399679515	 0.9031856247	 1.3906912935	-0.314385
C	-3.6268241091	 1.0591013647	-0.1314429913	 0.429365
O	-4.9252758081	 1.2006624258	-0.6168536865	-0.483028
C	-2.6198963854	 2.0093794221	-0.803295108	-0.283374
C	-1.5281060766	 0.9127578056	-0.7459242772	-0.037941
C	-2.6275810551	-0.1505443198	-0.3865155748	-0.124153
H	 0.4346894259	-0.4274369045	 1.4206105721	 0.279018
H	-0.6656407102	 1.6559029762	 1.2147043483	 0.05383
H	-2.0325642866	-0.8701786604	 1.7912852641	 0.059201
H	-4.2214519336	 0.327374666	 1.8338326009	 0.088225
H	-3.2459362316	 1.808365603	 1.9885300861	 0.09454
H	-5.4979123259	 0.5875081293	-0.1437260546	 0.274649
H	-2.934789311	 2.1803575732	-1.8361878032	 0.114093
H	-2.420693937	 2.9735926192	-0.3240002584	 0.090762
H	-0.8264837275	 0.8322664189	-1.5748204294	 0.078071
H	-2.8456517107	-1.0667886528	-0.9286976158	 0.065324
150.4006	248.7565	288.5204	302.9339	322.7318	343.1199	379.6111	433.9883	444.9743	625.823	636.7478	750.164	833.4146	852.806	869.6341	878.1215	910.5722	933.5092	957.3147	971.2112	998.4634	1045.3973	1062.0254	1089.3512	1099.9259	1109.8577	1126.6058	1165.972	1185.2431	1212.5952	1226.0385	1235.415	1248.0812	1267.4872	1286.1211	1325.5754	1336.7681	1388.7206	1418.7194	1471.7301	1488.7059	2968.8653	3022.0605	3044.3178	3074.8481	3088.181	3105.6809	3121.6352	3152.306	3803.7925	3805.7111
OC1C2CC3(O)CC1C23	O[C@@H]1[C@H]2C[C@@]3(O)C[C@@H]1[C@@H]23	
InChI=1S/C7H10O2/c8-6-3-1-7(9)2-4(6)5(3)7/h3-6,8-9H,1-2H2	InChI=1S/C7H10O2/c8-6-3-1-7(9)2-4(6)5(3)7/h3-6,8-9H,1-2H2/t3-,4+,5+,6+,7+
