19
gdb 2233	2.3654129	2.1590999	1.6824249	1.1294	73.	-0.22855	0.0639	0.29245	896.9723	0.159655	-422.560495	-422.553481	-422.552537	-422.591375	29.017	
O	 0.1509587394	 0.1913787765	 0.864768768	-0.496355
C	-0.7226130785	 1.2589128786	 0.6821964771	 0.413339
C	-2.0182258561	 1.0375141216	-0.1102025008	-0.291278
C	-2.4412787236	 2.3729765774	 0.5640849505	-0.081598
C	-1.4748464089	 3.368158919	-0.1114092747	-0.21333
C	-0.1409997967	 2.6527525891	 0.2599503689	-0.119661
C	 0.2924399283	 3.2110180215	 1.6188388852	-0.097505
O	-0.8173106544	 2.8984188776	 2.4790114656	-0.284766
C	-1.5773522927	 1.914596414	 1.7985596219	 0.073583
H	 0.8687243258	 0.469516011	 1.4438719276	 0.283549
H	-1.9685349426	 1.0115291566	-1.2012703185	 0.097801
H	-2.5663487025	 0.1698019315	 0.2642772795	 0.106788
H	-3.487830725	 2.6553375095	 0.6615798257	 0.068003
H	-1.6439024522	 3.4260075935	-1.1901277435	 0.097463
H	-1.5297832307	 4.3791134927	 0.3017493796	 0.102233
H	 0.6353652403	 2.6357946549	-0.5055075379	 0.071703
H	 1.2151110228	 2.7414440093	 2.0014278941	 0.076439
H	 0.446318053	 4.2951234453	 1.6131393366	 0.108214
H	-2.0771592157	 1.2557205005	 2.5080975653	 0.085377
179.5588	248.3536	263.0902	307.1324	430.7192	450.354	462.7707	566.2307	643.5041	722.3272	750.7516	820.0864	833.3561	859.8404	895.8483	922.4533	934.1649	965.9606	987.4824	1004.8348	1035.1899	1044.01	1074.3701	1081.7749	1113.2271	1136.7761	1176.7956	1192.4852	1196.6254	1217.5523	1235.94	1255.1206	1293.4712	1305.0872	1327.1923	1338.0935	1383.4343	1389.9543	1491.6887	1513.7182	1529.2963	2949.0274	3054.0695	3064.6879	3065.0039	3099.5084	3113.5766	3122.605	3125.9847	3136.2249	3807.6737
OC12CC3CC1COC23	O[C@]12C[C@@H]3C[C@H]1CO[C@H]23	
InChI=1S/C7H10O2/c8-7-2-4-1-5(7)3-9-6(4)7/h4-6,8H,1-3H2	InChI=1S/C7H10O2/c8-7-2-4-1-5(7)3-9-6(4)7/h4-6,8H,1-3H2/t4-,5-,6-,7+/m0/s1
