19
gdb 3862	2.7303047	1.343679	1.0953404	2.4259	77.26	-0.23774	-0.02007	0.21767	1178.9169	0.154271	-422.542097	-422.532832	-422.531888	-422.576382	33.88	
C	 1.2721849201	-0.3956327844	-1.3369657958	-0.401234
C	 1.0386653603	 0.0981073794	 0.0748549829	 0.124021
O	 2.0338179783	-0.4459797923	 1.002467329	-0.339435
C	 2.5528326891	 0.8631374882	 1.2434411846	 0.351886
C	 1.5093355149	 1.763129884	 1.8514846605	-0.337959
C	 1.4898934084	 1.5298909161	 0.3706033984	-0.162493
C	 4.0143440842	 1.1123563592	 1.3172557638	 0.290381
C	 4.905739446	-0.1032757967	 1.1893200351	-0.483036
O	 4.4385516062	 2.239563493	 1.4675881617	-0.322892
H	 1.1691674895	-1.4837832159	-1.3789886069	 0.131636
H	 0.5380380178	 0.0465005512	-2.0195434732	 0.121166
H	 2.2746829942	-0.1271967951	-1.6836098349	 0.123938
H	 0.025997764	-0.1509872021	 0.4162788778	 0.086321
H	 0.7577749448	 1.3084361958	 2.4906412415	 0.120489
H	 1.8864342861	 2.7314697431	 2.1605674283	 0.147001
H	 1.6243824314	 2.3163045181	-0.3602259962	 0.116765
H	 5.9502594678	 0.2003221919	 1.262553706	 0.136975
H	 4.6649864002	-0.8297062628	 1.9735005553	 0.150227
H	 4.7199630266	-0.6110799406	 0.2374925219	 0.146243
62.8087	102.0008	116.6346	181.4444	249.6619	272.0414	297.7652	356.7967	443.9251	472.7955	524.8918	581.807	635.9495	770.7832	819.9042	843.7194	878.9857	925.6778	944.5308	974.329	995.1745	1016.5749	1051.4224	1057.253	1078.4145	1101.7331	1148.9229	1159.4314	1205.1301	1283.6291	1300.8902	1369.9405	1385.1854	1396.4063	1407.8288	1454.1859	1465.1409	1466.3529	1485.7106	1491.929	1787.2212	3027.4135	3036.3055	3043.0111	3103.8182	3108.2079	3119.8066	3122.8131	3158.8442	3205.3211	3230.0653
CC1OC2(CC12)C(C)=O	C[C@H]1O[C@@]2(C[C@H]12)C(=O)C	
InChI=1S/C7H10O2/c1-4-6-3-7(6,9-4)5(2)8/h4,6H,3H2,1-2H3	InChI=1S/C7H10O2/c1-4-6-3-7(6,9-4)5(2)8/h4,6H,3H2,1-2H3/t4-,6-,7+/m1/s1
