19
gdb 2217	2.1318223	2.0603224	1.728887	0.2655	74.26	-0.23879	0.08436	0.32315	942.0129	0.156501	-422.530262	-422.522387	-422.521443	-422.562005	31.226	
C	 0.3406117492	-0.3325519186	 0.1094448463	-0.524032
C	 1.2733710332	 0.7855158324	 0.4522493946	 0.37817
O	 2.0284639947	 0.6682943176	 1.6643079815	-0.330625
C	 2.3501198417	 2.0786432688	 1.4817868202	-0.004768
C	 3.3113523944	 2.0188436278	 0.2830842164	-0.216211
C	 2.2013928312	 1.4993100469	-0.6456277078	-0.004771
O	 1.2878962824	 2.6354953965	-0.6671407398	-0.330624
C	 0.9718174948	 2.2805120994	 0.6845530055	 0.37817
C	-0.2266883582	 2.9254976727	 1.3052038911	-0.524032
H	-0.3566246906	-0.5251393482	 0.9301466147	 0.130932
H	-0.2323577949	-0.0774443427	-0.787039381	 0.135793
H	 0.8975936536	-1.2542201017	-0.0894170955	 0.133005
H	 2.619217449	 2.5947845367	 2.4015679245	 0.080752
H	 3.6896926436	 2.9827985268	-0.0625470302	 0.10888
H	 4.1285168902	 1.3202502403	 0.4728757041	 0.10888
H	 2.4270434625	 1.0929877978	-1.6299023518	 0.080752
H	-0.4032185785	 2.5037855301	 2.2992142169	 0.135795
H	-0.0739225899	 4.004627427	 1.4119191103	 0.133
H	-1.1180524982	 2.7657470904	 0.6914220499	 0.130935
177.5072	193.4758	202.4959	247.9093	269.84	302.381	477.9285	524.301	524.4022	632.5361	651.3295	715.1073	775.7923	793.8907	856.9549	866.3645	896.1815	921.8557	930.5498	944.7948	976.0108	998.7263	1097.5214	1108.6748	1123.2685	1130.696	1148.6057	1176.1507	1229.5156	1257.35	1279.6789	1308.0562	1322.5758	1378.993	1410.1021	1424.5428	1461.9232	1478.0896	1478.9972	1491.936	1496.7891	3037.8061	3039.0128	3077.6882	3106.2252	3107.4075	3117.7741	3118.9652	3139.3661	3142.3306	3143.3386
CC12OC3CC1OC23C	C[C@@]12O[C@H]3C[C@@H]1O[C@@]23C	
InChI=1S/C7H10O2/c1-6-4-3-5(8-6)7(6,2)9-4/h4-5H,3H2,1-2H3	InChI=1S/C7H10O2/c1-6-4-3-5(8-6)7(6,2)9-4/h4-5H,3H2,1-2H3/t4-,5-,6+,7+/m0/s1
