19
gdb 6015	4.6159563	0.8079759	0.7298909	2.8474	78.78	-0.23763	-0.00931	0.22832	1571.5269	0.155026	-422.532059	-422.522991	-422.522047	-422.566619	32.919	
C	 1.0186410004	 0.423702203	-2.6970306642	-0.386822
C	 0.5469196099	 0.6327608874	-1.2696369278	-0.045687
O	 1.3995753319	 1.5943908988	-0.6541331954	-0.256291
C	 1.0961521369	 1.8409155316	 0.6714754996	 0.125867
C	 1.5603519827	 3.1361862287	 1.1991577654	-0.105626
C	 1.2801556491	 3.208330015	 2.7079981876	-0.371911
C	-0.2331046784	 3.0797603488	 2.3664211801	 0.409801
O	-1.2288436153	 3.1993173342	 3.023112622	-0.316014
C	 0.0400047692	 2.9476925564	 0.9050352153	-0.211947
H	 0.3859523585	-0.3134349528	-3.1998993073	 0.120604
H	 0.972799455	 1.3609807783	-3.2586312447	 0.129608
H	 2.0513281154	 0.0643029919	-2.7126856528	 0.130295
H	-0.4941793259	 0.9876000074	-1.2460867017	 0.099555
H	 0.5840236742	-0.3108419923	-0.7031450654	 0.096232
H	 1.0883555605	 0.952619579	 1.3084831878	 0.095686
H	 2.2480595499	 3.7616322895	 0.6467545326	 0.116
H	 1.727262869	 2.433370814	 3.3382688375	 0.120906
H	 1.4827981786	 4.1896174809	 3.1459374746	 0.137304
H	-0.5660917616	 3.2783659701	 0.0711302469	 0.112438
58.4743	91.4666	111.372	159.7931	241.2599	291.4098	307.8037	396.7249	468.576	508.6708	558.6261	642.2564	789.7313	813.6836	821.1352	868.495	873.9542	921.0018	980.8137	989.0573	1000.6208	1045.366	1074.9527	1111.3477	1125.147	1137.8934	1167.5144	1186.5277	1199.9516	1217.8127	1254.7625	1296.1346	1307.1838	1386.2259	1408.6417	1449.76	1460.7634	1483.7402	1499.3088	1527.2637	1878.6511	2981.0211	3014.6055	3047.016	3055.0488	3063.6262	3113.4064	3122.4834	3123.968	3203.0666	3218.5209
CCOC1C2CC(=O)C12	CCO[C@H]1[C@@H]2CC(=O)[C@H]12	
InChI=1S/C7H10O2/c1-2-9-7-4-3-5(8)6(4)7/h4,6-7H,2-3H2,1H3	InChI=1S/C7H10O2/c1-2-9-7-4-3-5(8)6(4)7/h4,6-7H,2-3H2,1H3/t4-,6-,7+/m1/s1
