19
gdb 4900	2.4387573	1.1665275	0.9346916	2.3539	77.89	-0.25192	0.04895	0.30086999999999997	1297.2854	0.154264	-422.512232	-422.502342	-422.501398	-422.54675	36.658	
O	 1.2105194662	 0.7216998134	 0.0555011966	-0.410891
C	-0.0727274884	 0.1748615191	 0.2681578459	-0.103401
C	-1.1933699151	 1.2304020153	 0.3373511324	 0.0718
C	-1.1741645894	 2.0327515083	 1.688787796	-0.307746
C	-2.2540135091	 1.0640782972	 2.2466612894	 0.139881
O	-3.3800219616	 1.618369292	 2.8831670039	-0.428703
C	-2.5464553457	 0.5912981224	 0.8098171643	-0.279944
C	-1.2454766978	 2.0238466183	-0.8773813363	 0.284556
C	-1.3167835462	 2.6831650779	-1.880619085	-0.441391
H	 1.3904460672	 1.3514537331	 0.76126127	 0.283408
H	-0.2597902775	-0.4914935921	-0.5798559826	 0.120158
H	-0.1045082129	-0.4374992703	 1.184379091	 0.08383
H	-0.2187383235	 2.1034135823	 2.2197631572	 0.084922
H	-1.5901358115	 3.0335854647	 1.5608708538	 0.123702
H	-1.8079452539	 0.2675978581	 2.8577741462	 0.070113
H	-3.1327164645	 1.870848397	 3.7784962922	 0.28325
H	-2.6744482316	-0.4799550299	 0.6358072715	 0.106385
H	-3.4024164495	 1.1320864793	 0.4030682574	 0.129254
H	-1.3680814952	 3.2635914038	-2.7681739241	 0.190816
77.791	111.5381	163.6303	169.8877	216.384	270.3315	275.5483	332.0925	358.4561	408.5923	457.2683	500.3661	546.6213	621.4214	626.0493	635.3642	730.4744	830.8886	889.5382	904.8552	940.8361	984.2132	1027.1035	1065.763	1071.0716	1092.505	1143.6891	1180.4747	1224.3712	1235.223	1249.9716	1271.3262	1300.8177	1324.4035	1382.4071	1417.2217	1430.5712	1465.3056	1490.9748	1501.6732	2232.5962	2968.8781	3001.2157	3043.6274	3069.8924	3079.8138	3125.4144	3136.9835	3503.2899	3812.1839	3816.3184
OCC1(CC(O)C1)C#C	OC[C@@]1(C[C@@H](O)C1)C#C	
InChI=1S/C7H10O2/c1-2-7(5-8)3-6(9)4-7/h1,6,8-9H,3-5H2	InChI=1S/C7H10O2/c1-2-7(5-8)3-6(9)4-7/h1,6,8-9H,3-5H2/t6-,7-
