19
gdb 3809	3.067105	1.3364595	1.0992151	2.3922	76.43	-0.24329	-0.02276	0.22053	1148.6242	0.155543	-422.556081	-422.547245	-422.546301	-422.589607	33.373	
C	-4.2178528793	 0.8175232505	 1.2066205232	-0.413005
C	-2.7939294063	 0.2840749161	 1.3165775142	 0.03402
C	-1.7057996024	 1.399288048	 1.3786705565	-0.300346
C	-1.2134595239	 1.0671105401	-0.0569294806	 0.330162
O	-1.2132916153	 2.1451967371	-0.9219100948	-0.471881
C	-2.1999417353	-0.22394777	-0.0162867114	-0.104914
C	-0.9547250086	-1.1431167362	 0.1440653958	-0.365218
C	-0.0779552069	 0.0713976848	-0.1996659688	 0.315851
O	 0.9778638701	 0.1905067029	-0.7632306521	-0.322667
H	-4.5228896915	 1.3160230645	 2.1331141637	 0.117142
H	-4.3023867497	 1.5455886154	 0.3919572089	 0.127302
H	-4.9286962758	 0.0080866204	 1.0076022701	 0.115332
H	-2.7336693962	-0.4508093904	 2.126334999	 0.06948
H	-2.1183944421	 2.4105358281	 1.4055816178	 0.125817
H	-0.9527603517	 1.3106804403	 2.1655353035	 0.108463
H	-0.5313053319	 1.983285888	-1.5873821616	 0.293904
H	-2.8714893573	-0.4753016226	-0.8371398624	 0.081676
H	-0.811086632	-1.5552213506	 1.1470198394	 0.124868
H	-0.8522324437	-1.9510758466	-0.5843316005	 0.134013
58.9802	105.4899	220.6348	249.3933	260.2646	328.6868	330.8269	386.0714	398.6012	480.5423	510.4767	649.6027	689.2745	758.9694	784.3356	845.126	878.9489	893.8252	952.5617	978.9887	1004.8518	1027.4864	1048.8125	1078.8413	1109.6272	1118.6433	1166.1094	1196.6244	1209.9263	1245.2463	1268.7268	1282.0339	1337.9894	1364.4622	1383.1762	1411.9311	1447.7586	1472.6007	1495.6495	1500.5809	1850.3298	3025.6227	3042.1906	3062.118	3064.5256	3096.0681	3097.0463	3111.7769	3121.0207	3123.4183	3760.4773
CC1CC2(O)C1CC2=O	C[C@@H]1C[C@]2(O)[C@H]1CC2=O	
InChI=1S/C7H10O2/c1-4-3-7(9)5(4)2-6(7)8/h4-5,9H,2-3H2,1H3	InChI=1S/C7H10O2/c1-4-3-7(9)5(4)2-6(7)8/h4-5,9H,2-3H2,1H3/t4-,5+,7+/m1/s1
