19
gdb 2843	3.035588	1.5603033	1.2384458	2.1197	74.44	-0.23072	0.08407	0.31479	1049.187	0.157363	-422.533899	-422.526022	-422.525078	-422.565738	31.288	
C	-3.2783939009	 0.4572526301	-2.3901551072	-0.475811
C	-1.8116669636	 0.1910830025	-2.2061219908	 0.469881
O	-1.3503996116	-0.901753501	-2.9863412025	-0.312053
C	 0.0230684579	-0.6503346586	-3.3063145771	-0.094183
C	 0.4724103391	 0.3601823624	-2.2561392139	-0.120751
C	-0.7857001231	 1.2616605687	-2.0786361849	-0.186308
C	-1.1672758694	 0.4119533897	-0.8454926545	-0.185936
C	 0.2290527759	-0.2075155452	-0.8164521774	 0.152811
O	 1.0758238424	 0.3351823707	 0.173982566	-0.443728
H	-3.6031461517	 1.2944471246	-1.7659692497	 0.119659
H	-3.4966929039	 0.6948319177	-3.4357632405	 0.126567
H	-3.8649183616	-0.4240857535	-2.112636002	 0.133261
H	 0.5688565632	-1.5984756682	-3.2539147326	 0.109033
H	 0.1100507498	-0.2471677289	-4.3266136111	 0.092866
H	 1.4499507752	 0.8141224104	-2.4161540183	 0.0771
H	-0.91361768	 2.3126037044	-2.3052780268	 0.087395
H	-1.7485217887	 0.6865866423	 0.029449298	 0.08342
H	 0.3024501021	-1.2940318629	-0.7037392111	 0.089459
H	 0.9589815789	 1.2925534849	 0.1655318562	 0.277318
152.5658	209.1128	216.4566	275.0698	305.9405	336.1034	387.9323	404.0667	531.7489	608.92	688.0888	745.7367	810.8473	848.9542	850.8139	875.4474	923.2306	929.7886	965.5683	984.5948	1006.8239	1048.2525	1056.9989	1066.3385	1097.4799	1115.4376	1146.589	1190.2126	1203.7825	1219.0546	1244.1455	1271.2624	1283.9493	1309.4395	1373.9331	1407.1656	1429.3208	1433.5267	1479.4029	1502.8463	1515.0076	2988.7826	3040.4081	3059.8617	3070.64	3107.72	3118.5889	3124.5399	3158.7587	3189.3548	3787.1066
CC12OCC3C1C2C3O	C[C@@]12OC[C@H]3[C@@H]1[C@@H]2[C@@H]3O	
InChI=1S/C7H10O2/c1-7-4-3(2-9-7)6(8)5(4)7/h3-6,8H,2H2,1H3	InChI=1S/C7H10O2/c1-7-4-3(2-9-7)6(8)5(4)7/h3-6,8H,2H2,1H3/t3-,4+,5+,6+,7+/m0/s1
