19
gdb 1115	3.2301058	0.8744773	0.8501777	0.8324	78.83	-0.24943	-0.03389	0.21554	1470.7495	0.153743	-422.59132	-422.581215	-422.580271	-422.627452	35.17	
C	-0.2240109142	 1.8809607514	-0.4982515616	-0.484851
C	 0.5368509602	 1.4929182478	 0.7530318139	 0.378029
O	 1.7482826702	 1.43422594	 0.7844469104	-0.323753
C	-0.2924644027	 1.1858482836	 1.9603879482	-0.114444
C	 0.265417454	 1.5441736041	 3.3098012645	-0.276336
C	 0.2404699449	 0.0972537348	 2.9019416023	-0.114441
C	-0.7778137303	-0.795111999	 3.5395492091	 0.37803
C	-0.3554343982	-2.2316192037	 3.7702882683	-0.484851
O	-1.8749713961	-0.3825525662	 3.8526615713	-0.323754
H	-0.8460984831	 2.7623007796	-0.3039161737	 0.144823
H	 0.4725983842	 2.0903646714	-1.3104384907	 0.142785
H	-0.9051403344	 1.0731985919	-0.7903027387	 0.143344
H	-1.3712217048	 1.2130598937	 1.8583158022	 0.111443
H	 1.2338702203	 2.0300984114	 3.3178383353	 0.140789
H	-0.4492607302	 1.8443017424	 4.0669321277	 0.14079
H	 1.186916657	-0.3397739857	 2.6050882707	 0.111444
H	-1.1641573938	-2.7883109801	 4.244443707	 0.142785
H	-0.0871851259	-2.7027467423	 2.817507735	 0.143341
H	 0.5403481128	-2.2651950953	 4.4011345988	 0.144827
45.363	64.2854	119.0318	142.0096	153.0875	171.3451	247.6673	310.9725	332.2015	396.7133	586.5671	591.7761	596.5768	610.6653	780.4019	802.2446	848.2975	912.7249	929.4139	951.6736	969.474	1048.6923	1055.1556	1069.9217	1096.2501	1133.1182	1143.7185	1188.0576	1188.8379	1226.0514	1342.0022	1377.7685	1383.2361	1422.4818	1454.3168	1462.8844	1464.8351	1473.726	1474.2474	1787.0781	1799.5007	3034.0962	3034.1204	3093.7534	3093.8245	3144.9895	3155.0477	3155.1503	3184.5799	3186.9805	3248.4188
CC(=O)C1CC1C(C)=O	CC(=O)[C@@H]1C[C@H]1C(=O)C	
InChI=1S/C7H10O2/c1-4(8)6-3-7(6)5(2)9/h6-7H,3H2,1-2H3	InChI=1S/C7H10O2/c1-4(8)6-3-7(6)5(2)9/h6-7H,3H2,1-2H3/t6-,7-/m0/s1
