19
gdb 4705	2.2534782	1.0725256	0.9162489	2.58	78.72	-0.24515	-0.0238	0.22135	1408.4717	0.152153	-422.523336	-422.512364	-422.51142	-422.560396	37.466	
C	 0.8851276407	-0.8179485084	 0.2695366418	-0.384951
C	 0.77962498	 0.5402074745	-0.4183573336	-0.275928
C	 1.9244646768	 1.4706466907	-0.0798353043	 0.365954
O	 2.8617147996	 1.1654906571	 0.613858465	-0.302308
C	 1.8415036319	 2.9081488264	-0.663681316	-0.131498
O	 1.3218083397	 2.8194153366	-1.9764133332	-0.235568
C	 1.3473928381	 4.0434635242	-2.6875332978	-0.237352
C	 1.0165853269	 3.7354658155	 0.2240357374	 0.33915
C	 0.3218864985	 4.3860949414	 0.9588719924	-0.481532
H	 0.8864927311	-0.7087628123	 1.3573052807	 0.130026
H	 0.0442505658	-1.4573340262	-0.0128248971	 0.110963
H	 1.8129884599	-1.3251515834	-0.0069035247	 0.131886
H	 0.7521221841	 0.4458703536	-1.510519639	 0.144704
H	-0.1534447002	 1.0588709461	-0.1611788931	 0.132987
H	 2.8701445208	 3.2990239003	-0.6734787431	 0.114732
H	 0.7299725913	 4.808035147	-2.1986434044	 0.125213
H	 2.3736768826	 4.4275502709	-2.7851301737	 0.112316
H	 0.9473976311	 3.8374600686	-3.6823704785	 0.133313
H	-0.2819179289	 4.9688846475	 1.6104728413	 0.207891
44.0563	61.2125	97.753	130.1759	155.5949	175.9836	200.1429	241.6943	264.6347	337.344	383.0246	442.1233	553.6766	594.8105	634.2922	675.711	681.9455	761.3162	812.4067	948.8925	989.4458	1000.5804	1081.7441	1095.4236	1124.3026	1164.7299	1183.5346	1220.0925	1264.395	1291.1963	1342.4628	1373.7823	1414.6018	1444.9023	1477.5134	1484.7378	1493.6271	1498.9803	1509.1768	1823.8119	2224.4792	2991.8261	2997.9316	3036.6574	3050.8889	3055.0408	3068.4508	3122.2166	3126.0326	3127.6236	3500.0398
CCC(=O)C(OC)C#C	CCC(=O)[C@@H](OC)C#C	
InChI=1S/C7H10O2/c1-4-6(8)7(5-2)9-3/h2,7H,4H2,1,3H3	InChI=1S/C7H10O2/c1-4-6(8)7(5-2)9-3/h2,7H,4H2,1,3H3/t7-/m0/s1
