19
gdb 3805	3.3651592	1.1618584	1.0400084	2.8112	78.43	-0.2361	-0.0334	0.2027	1216.8045	0.155649	-422.545257	-422.536604	-422.53566	-422.57816	33.06	
C	 2.2451084926	 1.6221680469	 0.275888437	-0.412523
C	 1.764123425	 0.1779124828	 0.2101261115	 0.019159
C	 2.4074148807	-0.669477303	-0.9464937891	-0.314016
C	 3.0343948899	-1.5658901756	 0.1119452172	 0.453826
O	 4.2507120161	-2.1557979647	-0.0624911548	-0.458229
C	 1.9157413588	-2.1892311953	 0.9848552594	-0.217364
C	 2.389776784	-3.2172606392	 1.9153922585	 0.131637
O	 3.5378834124	-3.3018771362	 2.3221915395	-0.313749
C	 2.4367400463	-0.7561969798	 1.2290837379	-0.135964
H	 1.8911659886	 2.1147673373	 1.1878946716	 0.118193
H	 3.3394880182	 1.6735873985	 0.2702893823	 0.124318
H	 1.8765934605	 2.1947451448	-0.5817252805	 0.119653
H	 0.668598534	 0.1448664853	 0.2342938156	 0.071937
H	 1.7381399469	-1.1507708241	-1.6650409213	 0.102576
H	 3.1666516946	-0.1001045412	-1.48844438	 0.120384
H	 4.4671029547	-2.599300335	 0.7774396841	 0.304899
H	 0.9036542871	-2.321361683	 0.6072351972	 0.087281
H	 1.6330453311	-3.9624537761	 2.2360677126	 0.093675
H	 2.8288138986	-0.4881876223	 2.2036861514	 0.104308
118.4644	142.8383	203.9168	224.6018	253.3742	317.6687	332.4414	401.1973	427.0621	446.7152	606.2481	642.6478	671.0743	726.0143	802.8196	870.1021	902.6951	930.6919	954.917	981.3286	1000.0539	1046.686	1061.3538	1078.9824	1094.4404	1112.4348	1157.5074	1182.2821	1216.8308	1240.4652	1271.5306	1341.2949	1361.1027	1399.1409	1414.6204	1426.1059	1451.1225	1489.7041	1495.4476	1500.8866	1754.0859	2920.1334	3028.356	3030.4127	3058.1772	3097.5147	3100.788	3115.0433	3123.3006	3181.6937	3625.7884
CC1CC2(O)C(C=O)C12	C[C@H]1C[C@]2(O)[C@@H](C=O)[C@H]12	
InChI=1S/C7H10O2/c1-4-2-7(9)5(3-8)6(4)7/h3-6,9H,2H2,1H3	InChI=1S/C7H10O2/c1-4-2-7(9)5(3-8)6(4)7/h3-6,9H,2H2,1H3/t4-,5-,6-,7-/m0/s1
