19
gdb 779	2.9545501	1.1400375	0.9204619	1.3381	76.19	-0.24824	-0.09236	0.15588	1292.7832	0.156866	-422.59214	-422.583143	-422.582199	-422.627427	31.838	
O	 0.1771656022	-1.3200245168	 0.2041418849	-0.220912
C	 0.0540253579	-0.125378864	 0.1364143869	 0.094491
C	-1.3007913853	 0.5939887793	 0.0173321266	 0.267309
O	-1.2773954585	 1.8006675072	-0.0755315163	-0.283879
C	-2.5393719053	-0.2663869963	 0.0530440753	-0.070839
C	-3.8366629285	 0.4562764513	-0.3992917403	-0.238005
C	-4.8239664136	 0.3427014109	 0.785363595	-0.196024
C	-4.3422540371	-0.8874346513	 1.569123979	-0.197538
C	-2.8129785222	-0.762990906	 1.5130407883	-0.224215
H	 0.911801355	 0.5804717454	 0.1418490028	 0.107421
H	-2.3352964517	-1.1483324355	-0.5621106412	 0.103863
H	-3.6300809017	 1.4952491166	-0.6639676585	 0.124399
H	-4.239942776	-0.0358706087	-1.289015578	 0.102131
H	-4.7487391054	 1.232622672	 1.4210241064	 0.105254
H	-5.8648788521	 0.2664382602	 0.4599722077	 0.097559
H	-4.724551353	-0.9275924121	 2.5932631265	 0.099296
H	-4.659004929	-1.8077631657	 1.0626281412	 0.101599
H	-2.4832128867	-0.0058261981	 2.2353698922	 0.107011
H	-2.277910639	-1.6877660183	 1.7359191916	 0.121078
39.8112	46.2162	122.7095	156.9447	216.3302	264.343	295.9009	495.6004	526.0529	558.7555	603.3452	672.5922	735.3369	836.1956	871.3755	907.6812	918.8747	927.3068	964.8948	1007.3725	1029.7128	1048.3831	1075.9394	1150.6034	1172.3571	1189.3747	1237.3568	1262.0299	1289.8363	1320.2115	1335.097	1341.6938	1349.9256	1363.5595	1378.4945	1487.4796	1490.9431	1493.0173	1511.9315	1796.023	1822.7944	2920.9827	3027.7683	3033.6871	3041.3494	3054.1552	3066.2045	3088.9913	3095.409	3115.5512	3117.9512
O=CC(=O)C1CCCC1	O=CC(=O)C1CCCC1	
InChI=1S/C7H10O2/c8-5-7(9)6-3-1-2-4-6/h5-6H,1-4H2	InChI=1S/C7H10O2/c8-5-7(9)6-3-1-2-4-6/h5-6H,1-4H2
