19
gdb 5544	2.7263669	1.1990987	0.9829317	2.738	76.53	-0.23732	-0.02308	0.21424	1287.9209	0.15431	-422.541267	-422.53177	-422.530826	-422.575799	34.1	
C	 1.6834737693	 1.106780347	 0.6520745951	-0.389474
C	 1.0709072856	-0.2352532172	 0.2381438769	-0.189213
C	 1.6712699253	-0.800087772	-1.0505530781	-0.154778
C	 1.1943140221	-0.2107692691	-2.3926040258	-0.047484
O	 1.8051844656	-0.9991092901	-3.4073251936	-0.275576
C	 0.554453658	-1.4775962767	-2.850973131	 0.274329
C	-0.5729990083	-1.8021565025	-3.77132324	-0.512942
C	 0.9541000999	-2.1086982514	-1.5168215803	 0.377267
O	 0.6427647057	-3.1152067431	-0.9506369577	-0.310222
H	 1.2340620798	 1.4724818906	 1.580308567	 0.119776
H	 2.7622284048	 1.0132410148	 0.8161001227	 0.122324
H	 1.5314649393	 1.8739226343	-0.1147396565	 0.116644
H	 1.2166953372	-0.9761798684	 1.0320510208	 0.123757
H	-0.0154756049	-0.1286184807	 0.1204010138	 0.098303
H	 2.761757586	-0.8662188125	-0.9870660349	 0.105955
H	 0.904764269	 0.8052228999	-2.6347613042	 0.117894
H	-1.5073826074	-1.902652519	-3.2111060806	 0.138393
H	-0.6909178788	-1.0187646979	-4.5244593478	 0.138027
H	-0.3863432183	-2.7499482361	-4.2862391958	 0.147019
76.1224	103.2084	140.4448	159.5287	197.2816	234.7964	264.5982	322.0399	348.9523	482.1938	522.4292	597.0512	699.5088	749.8581	772.6016	812.808	865.342	898.6254	940.2491	958.4044	1011.7336	1033.4618	1068.7344	1090.7914	1122.3319	1131.51	1197.9448	1229.3619	1243.3336	1277.0895	1336.4158	1376.7123	1396.9744	1414.1831	1445.832	1477.7573	1485.5721	1488.9761	1499.2098	1504.6698	1886.005	3023.8612	3033.8976	3043.1468	3062.7399	3072.5567	3102.8993	3106.9843	3110.2642	3125.7964	3191.172
CCC1C2OC2(C)C1=O	CC[C@@H]1[C@H]2O[C@@]2(C)C1=O	
InChI=1S/C7H10O2/c1-3-4-5(8)7(2)6(4)9-7/h4,6H,3H2,1-2H3	InChI=1S/C7H10O2/c1-3-4-5(8)7(2)6(4)9-7/h4,6H,3H2,1-2H3/t4-,6+,7-/m0/s1
