19
gdb 1532	2.6470429	1.3526114	1.2213216	1.2419	77.82	-0.24294	-0.02543	0.21750999999999998	1144.2636	0.15362	-422.548914	-422.539428	-422.538484	-422.582973	34.857	
C	-1.1901732552	 1.8951783035	-1.3488285707	-0.426212
C	-1.0537045352	 1.0788365983	-0.0719495455	 0.290123
C	-1.0652579214	 1.9213031605	 1.1951583921	-0.42622
O	-2.0596707318	 0.0065340497	-0.0115482897	-0.364529
C	-1.0711985526	-1.0203592824	-0.049611489	 0.335516
C	-1.1552120383	-2.3061510896	 0.7233021791	-0.328625
C	-1.2292637304	-2.3215486982	-0.7842012488	-0.328623
C	 0.0355238898	-0.017620427	-0.1141814685	 0.236916
O	 1.2300960732	-0.0431003163	-0.1726387542	-0.311233
H	-1.1976382627	 1.2477744146	-2.2294893679	 0.127886
H	-2.1248605448	 2.4647403754	-1.3314850007	 0.129135
H	-0.3560590546	 2.5975729311	-1.4395741882	 0.132876
H	-0.9857761461	 1.2920880003	 2.0853954569	 0.127885
H	-0.2269704151	 2.624567169	 1.1893537056	 0.132876
H	-1.9977191222	 2.4913344646	 1.25778552	 0.129134
H	-0.2517832285	-2.6579199991	 1.2101541868	 0.135496
H	-2.07587138	-2.4680103773	 1.2731550924	 0.136051
H	-0.3775507041	-2.684082497	-1.3499787527	 0.135495
H	-2.1992169701	-2.4936537899	-1.2377668469	 0.136052
66.3823	155.7659	183.0532	185.3606	197.5989	212.6789	277.251	317.2374	339.5355	446.9208	512.1769	563.8105	712.4371	718.8059	760.535	786.9012	853.8718	878.3174	928.6623	942.4349	946.8528	993.8154	1007.909	1011.1663	1058.4551	1066.9577	1149.2407	1194.2508	1214.452	1247.9803	1280.4724	1364.526	1393.1888	1410.0198	1444.3467	1471.4324	1478.8143	1479.6204	1494.1878	1501.9539	1906.8057	3037.8319	3041.7802	3110.723	3115.6442	3121.7818	3124.2721	3133.3223	3134.1843	3220.363	3234.5372
CC1(C)OC2(CC2)C1=O	CC1(C)OC2(CC2)C1=O	
InChI=1S/C7H10O2/c1-6(2)5(8)7(9-6)3-4-7/h3-4H2,1-2H3	InChI=1S/C7H10O2/c1-6(2)5(8)7(9-6)3-4-7/h3-4H2,1-2H3
