19
gdb 1190	2.4045567	1.1747496	0.8713075	2.3239	77.67	-0.24506	0.04692	0.29198	1342.5638	0.153525	-422.505439	-422.4952	-422.494256	-422.540523	37.598	
C	-1.556988776	-11.8518043387	 2.1527574494	-0.39712
C	-0.6272133636	-11.2774216147	 1.0665043929	-0.173547
C	-0.3706628966	-12.2574394293	 0.0054707014	 0.3295
C	-0.1317791169	-13.0542168441	-0.8641617554	-0.484165
C	 0.6893954567	-10.7757048229	 1.6522741729	-0.102605
C	 0.8729134652	-9.3036913957	 1.975671046	 0.052036
O	 1.6619593939	-8.9189892436	 3.0598629193	-0.425342
C	 1.5891633117	-9.8936636495	 0.8065889493	 0.075413
O	 1.1609100275	-9.5070985382	-0.4645628135	-0.427739
H	-1.7645832048	-11.0891002804	 2.9093469839	 0.114293
H	-2.505819565	-12.1813075837	 1.7214187143	 0.127327
H	-1.0923379071	-12.7103809815	 2.646656347	 0.126785
H	-1.1311561879	-10.4226756613	 0.5990882862	 0.118833
H	 0.0633121254	-13.7649490612	-1.6289316683	 0.19914
H	 1.2023932414	-11.4766235708	 2.3055876401	 0.093969
H	 0.0373011261	-8.6454691348	 1.7328172606	 0.095025
H	 1.1652993157	-9.0912635777	 3.8666807321	 0.286529
H	 2.6633551931	-10.0290241965	 0.927596299	 0.097507
H	 1.097865981	-10.3052732255	-1.0034159772	 0.294161
51.5597	100.7995	175.1958	183.4962	232.2153	244.3279	297.8889	306.0353	321.9492	364.3148	393.5292	463.0897	503.3127	534.4402	625.4439	643.0544	653.3498	796.6086	865.6967	902.9297	930.0055	990.5146	1025.8232	1079.5495	1083.5276	1100.3041	1137.2281	1171.1441	1180.9173	1217.4328	1262.5503	1289.0936	1321.9665	1325.3419	1365.0188	1385.4718	1406.2379	1489.5765	1491.213	1499.3262	2225.6633	3033.6401	3040.942	3094.3178	3112.3074	3114.8607	3121.1556	3149.0101	3501.3682	3777.696	3805.5047
CC(C#C)C1C(O)C1O	C[C@H](C#C)[C@@H]1[C@@H](O)[C@@H]1O	
InChI=1S/C7H10O2/c1-3-4(2)5-6(8)7(5)9/h1,4-9H,2H3	InChI=1S/C7H10O2/c1-3-4(2)5-6(8)7(5)9/h1,4-9H,2H3/t4-,6-,7-/m1/s1
