19
gdb 2519	2.6479745	1.6532987	1.1223293	3.3303	78.48	-0.24216	0.00662	0.24877999999999997	1108.1974	0.158091	-422.563741	-422.555538	-422.554594	-422.596722	30.398	
C	-0.1091130647	 1.4223439943	 0.2132499588	-0.49639
C	-0.0634195293	-0.0524032795	-0.0170031811	 0.164657
C	-1.0356385053	-0.8917248549	-0.3654139236	 0.107889
C	-2.5211451696	-0.9492025841	-0.2515334628	-0.340894
C	-2.6052145453	-2.1533665532	 0.7301099566	-0.061095
O	-1.499194662	-3.0180030943	 0.4258631087	-0.273022
C	-0.5343472436	-2.3075180938	-0.3348100805	 0.19867
O	 0.7570245721	-2.2415801552	 0.2345351207	-0.272677
C	 1.1794399174	-0.8768138125	 0.2516857483	-0.151713
H	 0.5545570789	 1.9529436221	-0.4810839254	 0.135718
H	-1.1183014379	 1.8193226183	 0.0768863385	 0.129647
H	 0.229938351	 1.6760297877	 1.2252922254	 0.131865
H	-2.9807795471	-0.0451993457	 0.1535620985	 0.112041
H	-3.0097575458	-1.194534224	-1.2018201313	 0.116792
H	-2.5325852928	-1.7962666834	 1.7665320577	 0.10248
H	-3.5260257484	-2.734633559	 0.6256706237	 0.108643
H	-0.4524086773	-2.8229623075	-1.3048996611	 0.070843
H	 1.9754797143	-0.7220251845	-0.4943925758	 0.10546
H	 1.6068147154	-0.6356946507	 1.2358687547	 0.111084
94.3609	130.4507	158.1822	176.6571	242.8961	320.5149	438.6081	447.0934	567.3895	643.8311	666.3151	714.5478	841.1079	870.4678	912.6244	937.6312	960.1626	972.7314	987.3533	1027.5464	1052.1494	1082.2675	1092.3651	1128.8018	1175.7702	1195.3334	1208.7455	1224.2851	1262.3493	1295.9481	1343.808	1364.4833	1395.455	1405.7336	1416.0563	1478.1518	1481.9971	1488.3437	1515.8435	1522.974	1778.5421	2969.5176	2976.2339	3008.7666	3011.7515	3021.5231	3037.5089	3067.9966	3082.6214	3111.2715	3114.9783
CC1=C2CCOC2OC1	C[C]1[C]2CCO[C@@H]2OC1	
InChI=1S/C7H10O2/c1-5-4-9-7-6(5)2-3-8-7/h7H,2-4H2,1H3	InChI=1S/C7H10O2/c1-5-4-9-7-6(5)2-3-8-7/h7H,2-4H2,1H3/t7-/m1/s1
