19
gdb 2352	2.6469823	1.7132673	1.4122948	2.7731	73.58	-0.24605	0.07749	0.32354	995.8585	0.157605	-422.544281	-422.536506	-422.535562	-422.576443	30.708	
O	 0.2396574576	 0.4250460852	-0.1511729618	-0.476536
C	-0.5312042856	 0.9576143818	 0.9008102265	 0.41179
C	-1.2890793358	-0.0756981547	 1.7904177265	-0.289246
C	-2.6135584745	 0.7005177428	 1.5433442716	-0.247138
C	-1.9059258816	 1.528355593	 0.4291927104	-0.06339
C	-1.8500443586	 3.0196211579	 0.634392707	 0.026089
O	-0.741990892	 3.6323896322	-0.0348543042	-0.256211
C	-0.6206226452	 3.3609106764	 1.3662814225	 0.059845
C	 0.1835085699	 2.1087604949	 1.6698641648	-0.325313
H	 1.0507408157	 0.0630412072	 0.2219894854	 0.274145
H	-1.2912627114	-1.0551293834	 1.3061323773	 0.107587
H	-0.9583575392	-0.1892975358	 2.8266289492	 0.090886
H	-3.4706456359	 0.1025564038	 1.2295004127	 0.10735
H	-2.9185373916	 1.3169082708	 2.3940637176	 0.099725
H	-2.1704157177	 1.2330833209	-0.5877710919	 0.090502
H	-2.7575844592	 3.6177290063	 0.6916026479	 0.091968
H	-0.5357890862	 4.2393222514	 2.002530464	 0.090438
H	 1.2163387004	 2.2130330726	 1.3214717886	 0.109492
H	 0.2088803008	 1.9303194868	 2.7510894761	 0.098016
71.4455	189.3871	233.1264	273.1064	375.6524	379.8383	408.5289	452.3777	602.1818	647.4806	686.4099	758.182	818.3596	833.6232	852.5538	877.9357	903.7908	949.2627	976.1378	982.484	1019.0552	1028.155	1044.2784	1082.0499	1143.5402	1151.0409	1159.6764	1205.7185	1221.4911	1241.5444	1251.1214	1270.6987	1288.2429	1294.7614	1306.3998	1348.9881	1376.8421	1436.2418	1465.5382	1477.0162	1496.1266	3035.0626	3052.393	3060.4141	3082.4112	3096.4134	3107.5732	3123.9395	3126.6421	3140.2089	3799.9398	71.4454	189.387	233.1249	273.1063	375.6524	379.8382	408.5289	452.3777	602.1818	647.4806	686.4099	758.182	818.3595	833.6231	852.5538	877.9356	903.7908	949.2626	976.1378	982.484	1019.0552	1028.155	1044.2785	1082.0499	1143.5403	1151.0408	1159.6763	1205.7184	1221.4911	1241.5444	1251.1215	1270.6988	1288.2429	1294.7613	1306.3999	1348.9881	1376.8421	1436.2418	1465.5379	1477.0161	1496.1267	3035.0626	3052.393	3060.4141	3082.4112	3096.4134	3107.5732	3123.9394	3126.6421	3140.2089	3799.9395
OC12CCC1C1OC1C2	O[C@]12CC[C@H]1[C@@H]1O[C@@H]1C2	
InChI=1S/C7H10O2/c8-7-2-1-4(7)6-5(3-7)9-6/h4-6,8H,1-3H2	InChI=1S/C7H10O2/c8-7-2-1-4(7)6-5(3-7)9-6/h4-6,8H,1-3H2/t4-,5+,6-,7-/m0/s1
