19
gdb 3905	2.7307952	1.3007365	1.0648394	3.1731	76.54	-0.24408	-0.02453	0.21955	1172.2068	0.156025	-422.542055	-422.533358	-422.532414	-422.575938	32.391	
O	-1.109591738	 0.4585036788	 1.4946767172	-0.430866
C	-1.8810508584	 0.0621115629	 0.383399898	 0.142548
C	-2.3865952064	 1.2950171764	-0.3981376502	-0.317096
C	-3.8530067825	 0.8099314643	-0.2797586649	 0.269539
C	-4.3187652676	-0.2620976148	-1.2986950213	-0.297081
C	-3.9420440924	-1.4023643741	-0.3065664727	-0.22595
C	-3.3510197698	-0.3683587984	 0.6768710854	-0.116796
C	-4.8737237382	 1.7829021944	 0.2075410913	 0.067666
O	-6.0435030802	 1.7716061303	-0.091500876	-0.25902
H	-0.8520986899	-0.3311352509	 1.9821812926	 0.283218
H	-1.343208059	-0.6760152535	-0.2299069606	 0.065773
H	-2.2088661072	 2.19523329	 0.1988610697	 0.120923
H	-2.0010330595	 1.4528781766	-1.4081849905	 0.10564
H	-5.3857437099	-0.1860920449	-1.5132185578	 0.133245
H	-3.7657670935	-0.2555018838	-2.2415272109	 0.099426
H	-4.8174603874	-1.9188965933	 0.0933553766	 0.112767
H	-3.235798891	-2.1554064245	-0.6703881412	 0.097169
H	-3.6157037064	-0.4188971519	 1.7341766235	 0.077894
H	-4.4764796928	 2.5382882063	 0.9260728917	 0.071004
46.3977	88.2358	198.2463	252.8833	297.4099	304.4221	313.654	365.5582	434.9834	500.1178	637.971	709.7461	754.0066	814.6229	839.9218	885.7506	894.9796	937.5858	962.8706	1003.9305	1007.9968	1050.9404	1062.1916	1094.0602	1150.579	1166.3843	1185.7532	1235.4683	1239.3109	1251.0304	1267.006	1269.1528	1280.1489	1314.6605	1328.9201	1419.6651	1430.4899	1466.6159	1474.7634	1490.3641	1808.038	2853.6331	2984.1013	3049.4778	3051.944	3066.4503	3097.4156	3107.4833	3112.7562	3132.8165	3808.6577
OC1CC2(CCC12)C=O	O[C@@H]1C[C@]2(CC[C@@H]12)C=O	
InChI=1S/C7H10O2/c8-4-7-2-1-5(7)6(9)3-7/h4-6,9H,1-3H2	InChI=1S/C7H10O2/c8-4-7-2-1-5(7)6(9)3-7/h4-6,9H,1-3H2/t5-,6+,7+/m0/s1
