19
gdb 1529	3.4378504	1.198403	1.0688961	3.0141	77.58	-0.2444	-0.03428	0.21012	1188.8045	0.153812	-422.5379	-422.528741	-422.527796	-422.571326	34.294	
C	-0.1867490193	-0.0387875658	-0.1122011204	-0.436547
C	 1.3231947811	 0.062649423	 0.0260365152	 0.386595
C	 1.8370859742	-0.616807508	 1.2873425409	-0.421444
O	 1.7729574509	 1.4683054011	 0.0147101689	-0.359249
C	 2.6928351563	 1.1934696378	-1.0344444344	 0.350091
C	 1.9967700144	 0.7568593632	-2.2945524491	-0.351663
C	 2.1982878589	-0.2479433504	-1.202838371	-0.182507
C	 4.0740977991	 1.6959049901	-0.9591299197	 0.065055
O	 4.9074280182	 1.5171637833	-1.8167335836	-0.272819
H	-0.6722582354	 0.4537589311	 0.7362198019	 0.130589
H	-0.5411532463	 0.43706125	-1.0289530871	 0.123507
H	-0.4986402503	-1.0880623047	-0.1222215879	 0.122372
H	 1.6039863561	-1.6869750212	 1.269612787	 0.118732
H	 2.9204842466	-0.5000715364	 1.3763674399	 0.122869
H	 1.3675901701	-0.1760724049	 2.1715990602	 0.128568
H	 1.0180228324	 1.1757415911	-2.5051419107	 0.125326
H	 2.6578350223	 0.638172327	-3.146409248	 0.14814
H	 2.7995969714	-1.1393506435	-1.3263849943	 0.116205
H	 4.2941875093	 2.2505906472	-0.0209602078	 0.086178
100.2502	151.4943	174.6187	195.2078	239.763	266.3389	305.0797	343.97	373.1952	463.5964	506.9033	528.5146	667.5755	712.9135	791.6632	834.2123	846.1398	932.816	943.5336	966.7046	987.392	994.7022	1007.8075	1055.5942	1067.8248	1078.1934	1137.9708	1208.0484	1226.6591	1252.4774	1320.568	1366.8425	1402.4029	1414.9922	1417.1294	1465.0484	1474.8989	1482.0959	1495.1385	1502.6685	1801.3186	2899.3289	3036.1655	3044.6233	3106.3162	3113.581	3121.8572	3128.7258	3132.1761	3200.6277	3228.3416
CC1(C)OC2(CC12)C=O	CC1(C)O[C@@]2(C[C@H]12)C=O	
InChI=1S/C7H10O2/c1-6(2)5-3-7(5,4-8)9-6/h4-5H,3H2,1-2H3	InChI=1S/C7H10O2/c1-6(2)5-3-7(5,4-8)9-6/h4-5H,3H2,1-2H3/t5-,7+/m1/s1
