19
gdb 2669	2.7553536	1.524676	1.2140746	0.3142	77.65	-0.23056	0.00912	0.23967999999999998	1074.6051	0.157845	-422.54319	-422.534835	-422.533891	-422.576075	31.917	
O	 0.1136707118	 1.3694717617	 0.001196709	-0.431384
C	 0.0738146524	-0.0355388927	 0.0477250675	 0.05841
C	 0.1477780626	-0.6570308387	-1.4184119937	 0.026462
O	 0.7429507808	 0.1374748822	-2.4123166685	-0.433428
C	-1.3580072285	-0.7241371549	-1.3392106277	 0.230741
C	-2.4540211326	-0.2715972212	-1.9417803416	-0.237266
C	-3.4948455999	 0.0939032448	-0.8866726842	-0.236748
C	-2.6396500149	 0.2941534897	 0.4091104416	-0.242086
C	-1.3930669229	-0.5785360909	 0.1623171588	-0.059798
H	 0.8968451413	 1.6043745777	-0.5123110281	 0.285019
H	 0.7959834244	-0.4383907842	 0.7705334688	 0.061995
H	 0.6624873047	-1.6223854141	-1.4214857621	 0.099625
H	 0.1365832153	 0.8713134973	-2.5690454575	 0.282793
H	-2.5937336344	-0.09410384	-3.0023449864	 0.096186
H	-4.0499210993	 0.998288182	-1.1589449236	 0.103038
H	-4.2442695089	-0.6998973976	-0.7580704803	 0.105841
H	-2.3363806331	 1.3422119673	 0.4853806394	 0.124931
H	-3.1843583356	 0.0325603916	 1.3202595461	 0.092331
H	-1.4026136131	-1.5211621501	 0.7202513825	 0.073339
94.1367	128.4259	163.504	236.3276	246.6987	282.3903	474.9206	505.047	542.1835	576.4947	605.9674	666.1468	793.8386	805.0569	821.8937	837.4249	871.8113	903.5822	940.2441	969.7878	1001.3477	1026.1183	1095.1962	1113.6452	1122.733	1144.9289	1178.9241	1212.5009	1230.4602	1239.238	1262.6293	1288.1225	1305.8728	1308.5778	1331.8221	1349.7617	1398.0882	1424.0351	1481.0915	1495.9063	1722.1901	3003.8032	3007.4388	3043.6663	3056.8559	3065.6379	3071.4912	3110.0748	3192.3893	3773.11	3789.0383
OC1C(O)C2=CCCC12	O[C@@H]1[C@H](O)[C]2[CH]CC[C@H]12	
InChI=1S/C7H10O2/c8-6-4-2-1-3-5(4)7(6)9/h2,5-9H,1,3H2	InChI=1S/C7H10O2/c8-6-4-2-1-3-5(4)7(6)9/h2,5-9H,1,3H2/t5-,6+,7-/m0/s1
