19
gdb 5506	2.970054	1.4302034	1.1680767	3.9371	74.86	-0.24382	-0.0188	0.22502	1094.1021	0.159063	-422.56826	-422.560554	-422.55961	-422.600384	30.252	
O	-0.142613632	-1.9292326417	 1.5894830324	-0.426408
C	 0.2580018222	-0.9649451902	 0.6392387344	-0.088027
C	-0.2558794525	 0.4292448977	 1.021749324	-0.109701
C	 0.0028884438	 1.6208932088	 0.0716961951	-0.050006
C	-1.0738891835	 1.4294627586	-1.0391359467	-0.239651
C	-2.0689119701	 1.722725039	 0.1406916633	-0.121844
C	-0.9571926538	 2.6934209319	 0.6650798217	-0.240342
C	-1.7959562309	 0.4957849306	 0.9881451715	 0.444528
O	-2.571760718	-0.3006696081	 1.4619134117	-0.366763
H	-1.0954224887	-1.8151882517	 1.7159991346	 0.296008
H	 1.3537960179	-0.9687548446	 0.6225552435	 0.106058
H	-0.0810437878	-1.2309721959	-0.3756241678	 0.085551
H	 0.0962866919	 0.6431580234	 2.0384815653	 0.10506
H	 1.0396479583	 1.853173192	-0.1697634054	 0.075582
H	-1.0742395183	 2.2435630245	-1.7669602187	 0.113405
H	-1.1466941864	 0.4680568147	-1.5527569602	 0.112402
H	-3.1069474835	 2.0106547013	-0.0092959279	 0.086336
H	-0.9468176104	 3.6290256666	 0.1020343378	 0.111353
H	-0.9110071981	 2.8950174831	 1.7389519514	 0.106459
114.9944	151.1799	189.4845	248.8579	372.2947	432.765	478.5289	512.3239	532.9116	616.0287	706.7258	768.0851	814.0235	832.1124	862.7624	887.1226	932.5729	987.8159	1003.6768	1015.2883	1027.8832	1053.7891	1084.8528	1087.7276	1099.2969	1126.1638	1173.2411	1198.9356	1224.8977	1230.2337	1239.8479	1262.1125	1294.5446	1300.3269	1345.5934	1385.9512	1458.5294	1489.9	1514.8915	1523.7145	1835.4415	2965.5068	3038.3916	3057.523	3058.9011	3067.3301	3118.7037	3122.6511	3127.0788	3149.8176	3731.6488
OCC1C2CC(C2)C1=O	OC[C@H]1[C@H]2C[C@H](C2)C1=O	
InChI=1S/C7H10O2/c8-3-6-4-1-5(2-4)7(6)9/h4-6,8H,1-3H2	InChI=1S/C7H10O2/c8-3-6-4-1-5(2-4)7(6)9/h4-6,8H,1-3H2/t4-,5+,6-/m0/s1
