19
gdb 1208	3.7435108	0.6800248	0.6764557	1.447	82.76	-0.25347	0.01719	0.27065999999999996	1757.2705	0.153136	-422.505544	-422.495037	-422.494092	-422.542916	37.045	
C	-4.4253767175	-0.4723383363	 0.9517854025	-0.383956
C	-3.2714850361	-1.4788655193	 0.8480094509	 0.163613
C	-3.3697109493	-2.3012410455	-0.4506929131	-0.399742
O	-3.4181646635	-2.3370833697	 1.985407192	-0.439614
C	-1.9737190365	-0.7848753495	 0.8999858417	 0.169356
C	-0.8918868572	-0.2541868749	 0.9392758488	-0.003362
C	 0.3895457857	 0.3907468598	 1.0285036931	-0.119387
C	 1.0214657188	 1.0314093128	-0.1425857132	-0.15918
O	 1.49379111	-0.2196637442	 0.3365935472	-0.214992
H	-4.3480693657	 0.0918187919	 1.8835391688	 0.13197
H	-4.4073035832	 0.2251750456	 0.1111862776	 0.120853
H	-5.3755133048	-1.013824208	 0.9480181316	 0.124083
H	-2.5535482572	-3.0279314672	-0.5079747502	 0.117951
H	-4.3213636306	-2.8398021941	-0.4639826011	 0.123627
H	-3.3100573437	-1.6563068333	-1.331939374	 0.122979
H	-2.643414847	-2.9088619651	 2.0210164376	 0.282399
H	 0.6522808858	 0.7752176826	 2.0134722052	 0.11907
H	 0.503414342	 1.0041949818	-1.0992891477	 0.12388
H	 1.6851508401	 1.8811640528	 0.0131029923	 0.120453
11.6792	78.9552	85.5309	189.8642	202.5294	215.5177	266.5463	296.7254	325.0956	360.2191	391.4326	495.2677	513.4983	564.5596	583.2479	660.7527	815.1474	838.8678	894.464	930.4077	956.12	982.6217	1017.1971	1075.9553	1112.1592	1125.0015	1156.3048	1167.0534	1192.9229	1245.712	1285.2495	1365.54	1391.4815	1403.9697	1411.878	1474.9828	1478.8684	1492.6827	1503.3199	1518.4274	2353.3687	3039.2191	3051.3514	3085.0552	3114.4757	3115.2627	3123.3299	3130.3544	3139.2039	3178.5724	3806.9523
CC(C)(O)C#CC1CO1	CC(C)(O)C#C[C@@H]1CO1	
InChI=1S/C7H10O2/c1-7(2,8)4-3-6-5-9-6/h6,8H,5H2,1-2H3	InChI=1S/C7H10O2/c1-7(2,8)4-3-6-5-9-6/h6,8H,5H2,1-2H3/t6-/m1/s1
