19
gdb 1959	3.3756498	1.3123677	1.2237573	1.3673	75.76	-0.23031	0.0704	0.30071	1094.979	0.156763	-422.529678	-422.521605	-422.520661	-422.561775	32.184	
O	-3.0669524019	 0.1535796432	-1.2555057224	-0.467182
C	-2.1029004162	-0.6380682163	-0.6376364357	 0.372407
C	-1.6698013968	-1.9514505436	-1.2322914759	-0.362301
C	-0.7207748028	-0.7637435047	-1.2183218735	-0.183209
C	 0.2104292451	-0.6777262898	-0.0471969287	 0.474265
C	 1.3149686303	 0.342505678	 0.0343445519	-0.337216
C	 1.6247269464	-1.1481628885	-0.0031764415	-0.335747
O	-0.5644647393	-0.9325808701	 1.1116265926	-0.296905
C	-1.8883508624	-0.4686877573	 0.861992775	-0.156606
H	-3.9178063277	-0.2897635216	-1.170037604	 0.286441
H	-1.4661473461	-2.7915275779	-0.575723165	 0.122726
H	-2.0993797484	-2.2010724949	-2.1962801329	 0.112338
H	-0.4640507425	-0.2773437795	-2.1507733678	 0.101048
H	 1.5416165794	 0.942875628	-0.8408124576	 0.111189
H	 1.4425243842	 0.8498125482	 0.9839547552	 0.120557
H	 2.0568638278	-1.5674041245	-0.9052962457	 0.11512
H	 1.9583395748	-1.6095952956	 0.9195931469	 0.123332
H	-2.5637815428	-1.0577665252	 1.4921100283	 0.098847
H	-2.0068935111	 0.5970001621	 1.1121569807	 0.100896
112.7477	192.2079	241.8331	280.2841	317.302	359.684	387.3612	413.2648	484.4116	559.3365	601.2343	726.4953	758.7178	767.7264	862.1639	886.9648	910.6284	931.5125	951.6243	955.877	1006.8851	1014.797	1046.5621	1064.3252	1067.2256	1073.45	1079.1588	1085.8708	1188.5889	1204.2806	1228.5082	1248.8642	1300.5102	1304.2973	1343.7265	1397.994	1418.3696	1449.5944	1477.9784	1502.2653	1516.9768	2987.8706	3064.2248	3127.0775	3129.1173	3134.9819	3197.9319	3215.4897	3222.3908	3229.5967	3800.4085
OC12CC1C1(CC1)OC2	O[C@@]12C[C@@H]1C1(CC1)OC2	
InChI=1S/C7H10O2/c8-6-3-5(6)7(1-2-7)9-4-6/h5,8H,1-4H2	InChI=1S/C7H10O2/c8-6-3-5(6)7(1-2-7)9-4-6/h5,8H,1-4H2/t5-,6+/m0/s1
