19
gdb 2411	2.1726765	1.9394125	1.3695588	3.6391	74.38	-0.22962	-0.027	0.20262	1015.7041	0.157052	-422.575748	-422.567427	-422.566483	-422.608536	31.458	
C	-0.4225275489	 2.3346095929	 1.0196155039	-0.467015
C	-0.8412663215	 1.2361030843	 0.0766544018	 0.336797
O	-0.8534444411	 1.65481897	-1.3240545963	-0.328531
C	-2.2440006393	 1.2895515496	-1.4690591154	-0.082806
C	-2.3089858848	 0.739600898	-0.0315893873	-0.122329
C	-2.2804397745	-0.7962924919	 0.1029764857	-0.24057
C	-0.849753795	-1.2190187895	-0.2853593791	-0.330005
C	 0.021231739	-0.0417239676	 0.1531276954	 0.385587
O	 1.1710811342	-0.0822507616	 0.5048886929	-0.315179
H	-0.5506551305	 2.0171731034	 2.0600259536	 0.120874
H	 0.6354044711	 2.5664144287	 0.8683990909	 0.147751
H	-1.0155557701	 3.2373287249	 0.8504571543	 0.118782
H	-2.8694838414	 2.1676910579	-1.6696928808	 0.106506
H	-2.3983372711	 0.555704044	-2.2707329849	 0.101118
H	-3.0447656668	 1.2139435143	 0.6186142239	 0.081825
H	-2.4771035587	-1.0745165601	 1.1443987546	 0.111479
H	-3.0495034185	-1.2767823208	-0.5089603347	 0.108195
H	-0.5090641354	-2.1523162184	 0.1656498613	 0.127148
H	-0.7476594667	-1.322602088	-1.3730361799	 0.140372
81.338	155.1267	192.8813	214.2374	264.4935	294.8471	370.3073	468.3449	503.2477	578.1372	638.0759	673.3625	788.92	813.884	855.136	884.1361	894.6098	955.538	972.884	1017.0236	1040.	1065.1257	1085.4721	1125.1983	1160.303	1163.2293	1184.885	1217.5201	1237.3387	1279.7427	1320.2569	1323.0204	1336.8925	1371.0551	1404.6142	1455.6855	1477.0938	1482.542	1496.3724	1525.3191	1847.6069	3010.8993	3040.0414	3040.3354	3043.8401	3053.2372	3088.3507	3105.1851	3111.4393	3123.6657	3126.6424
CC12OCC1CCC2=O	C[C@]12OC[C@H]1CCC2=O	
InChI=1S/C7H10O2/c1-7-5(4-9-7)2-3-6(7)8/h5H,2-4H2,1H3	InChI=1S/C7H10O2/c1-7-5(4-9-7)2-3-6(7)8/h5H,2-4H2,1H3/t5-,7+/m1/s1
