19
gdb 5963	3.9319577	1.0327329	0.9407386	1.5629	75.75	-0.22772	0.0621	0.28982	1316.4562	0.155178	-422.459699	-422.45105	-422.450106	-422.4936	32.046	
C	 1.4422154307	-0.1650369286	 0.35733712	-0.220281
O	 0.1583177667	-0.1815028969	 0.935459102	-0.237027
C	-0.6472142849	 0.8950133778	 0.5064373488	-0.192667
C	-2.006781178	 0.7272193613	 1.1000568745	 0.415587
O	-2.873571511	 1.8707120853	 1.123435954	-0.295346
C	-2.6202475644	 1.1613613031	 2.3505614768	-0.056401
C	-3.5079306703	-0.1215497831	 2.398881498	-0.083976
C	-4.3436467633	-0.2648671845	 1.1539507515	-0.291167
C	-2.8728203913	-0.5769520311	 1.0916349142	-0.125048
H	 1.9996102513	 0.7461452262	 0.6260359608	 0.106495
H	 1.9824320438	-1.0348126757	 0.7382948802	 0.129328
H	 1.3960095391	-0.226351535	-0.7415504789	 0.106524
H	-0.2298788001	 1.8658849872	 0.8186754626	 0.101571
H	-0.7188336043	 0.9071302719	-0.5960302432	 0.09479
H	-2.2369279128	 1.7336343612	 3.1869508987	 0.106166
H	-3.6699301919	-0.6979522104	 3.2994077113	 0.094218
H	-4.9923649764	-1.1350909365	 1.143020003	 0.110714
H	-4.7387363987	 0.613283857	 0.6591040621	 0.134509
H	-2.4656746143	-1.5488509593	 0.8513917137	 0.102008
67.225	82.1801	115.6933	222.3344	258.8785	329.7284	362.6239	412.118	496.7471	594.4982	657.3162	733.5766	756.7989	813.908	846.1315	882.7299	917.2994	933.4339	985.6817	992.9083	1014.0225	1049.2553	1055.4057	1066.0723	1101.5976	1146.5228	1169.1411	1172.714	1190.5452	1226.431	1238.2719	1269.3893	1283.4281	1308.841	1397.6754	1459.1867	1478.0682	1485.3636	1497.5881	1504.9157	1520.9854	2944.1348	2971.6838	2992.1387	3015.893	3117.3128	3139.4863	3188.2871	3207.2022	3218.9438	3232.1724
COCC12OC1C1CC21	COC[C@]12O[C@H]1[C@H]1C[C@@H]21	
InChI=1S/C7H10O2/c1-8-3-7-5-2-4(5)6(7)9-7/h4-6H,2-3H2,1H3	InChI=1S/C7H10O2/c1-8-3-7-5-2-4(5)6(7)9-7/h4-6H,2-3H2,1H3/t4-,5+,6-,7+/m0/s1
