19
gdb 3731	3.2903682	1.1215219	0.9555466	3.8645	75.64	-0.2332	-0.01184	0.22136	1251.771	0.156299	-422.574662	-422.56603	-422.565086	-422.608149	32.818	
O	-3.0190271919	-2.9704190969	 0.930626498	-0.419281
C	-3.0116077808	-1.6795320873	 1.4688313824	 0.03645
C	-1.8918744034	-1.2535811985	 2.3919125562	-0.380036
C	-1.9571281378	-0.7561750592	 0.9575348524	 0.339012
C	-2.2375445719	 0.717266595	 0.6537288701	-0.30362
C	-0.8712888893	 1.2656861395	 0.2109928293	-0.315056
C	-0.1506183881	 0.0671203746	-0.4207135019	 0.399372
O	 0.8475569766	 0.1197262613	-1.0905401557	-0.313232
C	-0.9164208944	-1.2111069639	-0.0538974129	-0.386281
H	-3.2761128641	-3.5839154131	 1.6268892699	 0.289758
H	-4.0005378595	-1.2571396699	 1.6550957666	 0.083553
H	-2.1218203069	-0.5640940171	 3.1985632089	 0.109635
H	-1.1379231666	-1.9985167498	 2.6260081667	 0.115423
H	-2.9586433687	 0.7958774863	-0.1699096631	 0.109745
H	-2.6608009247	 1.2508750356	 1.5086590509	 0.102995
H	-0.9077881175	 2.1119524081	-0.4784155505	 0.126663
H	-0.2733193313	 1.5785712944	 1.0769924277	 0.132556
H	-1.3889930542	-1.5966457927	-0.9673200378	 0.140972
H	-0.2353908356	-1.9888329365	 0.2966286929	 0.131373
62.7323	116.9193	156.0685	243.337	290.2888	359.8306	387.0672	452.4734	466.3766	477.1102	565.3348	595.1412	727.3598	744.5205	809.3828	842.2201	885.2599	919.9128	945.0963	980.0639	1004.3505	1020.2821	1043.2681	1083.8966	1135.1018	1157.0039	1169.5952	1190.9848	1210.0649	1246.9523	1258.5579	1288.2688	1305.314	1321.7754	1362.4799	1427.6512	1447.9387	1450.2169	1493.9078	1499.2552	1847.8727	3027.0088	3033.6702	3036.6697	3082.9419	3091.7535	3112.1555	3112.8562	3119.5097	3210.3509	3805.6079
OC1CC11CCC(=O)C1	O[C@H]1C[C@@]21CCC(=O)C2	
InChI=1S/C7H10O2/c8-5-1-2-7(3-5)4-6(7)9/h6,9H,1-4H2	InChI=1S/C7H10O2/c8-5-1-2-7(3-5)4-6(7)9/h6,9H,1-4H2/t6-,7+/m0/s1
