19
gdb 3064	2.5696031	1.5654854	1.2257564	1.808	74.81	-0.23562	-0.01029	0.22533	1064.1535	0.158547	-422.579958	-422.572057	-422.571112	-422.612233	30.923	
O	-2.7508320984	-2.4491203483	 1.2648493833	-0.450142
C	-2.0989309194	-1.2122697094	 1.0832317792	 0.153108
C	-2.8198225999	-0.3997198288	-0.0149283515	-0.020973
C	-1.9287768081	-1.1407345368	-1.0527265153	-0.249527
C	-0.8799556417	-1.2907550434	 0.0913318619	-0.159658
C	-0.0859052259	-0.0135127144	 0.2644093506	 0.402121
O	 1.0702465836	 0.0073548884	 0.6151261283	-0.330254
C	-0.8830254737	 1.26205339	-0.0313435883	-0.313847
C	-2.4186185252	 1.0791379053	 0.0897162601	-0.23579
H	-2.1773823488	-3.0170873985	 1.7902087883	 0.285956
H	-1.9221515808	-0.7121494381	 2.0463758315	 0.068738
H	-3.9025734361	-0.5298599808	-0.0696378106	 0.077582
H	-2.3467416934	-2.1111641601	-1.3188874991	 0.122815
H	-1.6305738893	-0.6070238612	-1.9587342395	 0.096866
H	-0.2301956754	-2.166055487	 0.1409236209	 0.075669
H	-0.5001109767	 2.0640203352	 0.6037520149	 0.127463
H	-0.6184968726	 1.5415980971	-1.0591902574	 0.135354
H	-2.770030097	 1.4766938241	 1.0487226852	 0.108712
H	-2.9236806711	 1.6559142866	-0.6913475525	 0.105806
86.9453	164.0915	249.1052	297.4095	325.1496	365.058	429.8629	445.2326	487.777	543.9287	637.3891	748.8857	794.8516	842.3264	886.9059	895.5052	921.2989	931.3516	949.452	1030.311	1044.7884	1079.6398	1087.6102	1116.1908	1125.7639	1167.6902	1203.8925	1216.9395	1239.894	1245.0975	1273.6662	1291.5622	1312.6741	1324.9743	1340.467	1364.1628	1428.0162	1454.7197	1490.8275	1502.7713	1815.9149	2991.4259	3034.2955	3038.5327	3069.4748	3077.6449	3091.8287	3102.7863	3108.2555	3141.0572	3809.9167
OC1C2CC1C(=O)CC2	O[C@@H]1[C@@H]2C[C@H]1C(=O)CC2	
InChI=1S/C7H10O2/c8-6-2-1-4-3-5(6)7(4)9/h4-5,7,9H,1-3H2	InChI=1S/C7H10O2/c8-6-2-1-4-3-5(6)7(4)9/h4-5,7,9H,1-3H2/t4-,5-,7+/m0/s1
