19
gdb 611	3.2404911	1.5322219	1.1734363	2.2026	76.33	-0.24302	0.01385	0.25687	1061.431	0.159824	-422.56363	-422.556223	-422.555279	-422.595631	28.722	
C	 1.6657624177	 0.7840619435	 0.0774026959	-0.092024
O	 0.3824600699	 0.4508214566	 0.6066466562	-0.257939
C	-0.5965610251	 0.7501651678	-0.3757307739	-0.086038
C	 0.0897641254	 0.4122221176	-1.713302592	-0.055386
C	-0.5092805325	 0.992805968	-2.9606941909	-0.094086
C	 0.0781908616	 1.991890197	-3.6145818154	-0.071274
C	 1.3387547194	 2.6322786442	-3.1027919673	-0.122796
O	 1.6026196922	 2.3291965661	-1.7464892642	-0.266682
C	 1.5112877742	 0.9421309938	-1.4448531791	 0.069925
H	 2.0345850708	 1.7297562222	 0.4950009663	 0.111016
H	 2.3604100799	-0.0177605564	 0.3479037787	 0.103115
H	-1.4833613142	 0.146795041	-0.1640524867	 0.105472
H	-0.8759444319	 1.8146493361	-0.3564434176	 0.097495
H	 0.1344017468	-0.6815909461	-1.7965726376	 0.085193
H	-1.4320924456	 0.554137511	-3.3312334864	 0.093041
H	-0.3294332213	 2.3803434665	-4.5438532276	 0.095441
H	 2.1953220358	 2.3457780021	-3.7416364736	 0.098062
H	 1.2613252684	 3.7244266567	-3.1536371585	 0.119658
H	 2.2745031385	 0.3872393021	-2.0095749363	 0.067807
82.2598	182.3551	205.3321	275.3892	350.6641	448.8319	472.711	543.8518	624.148	715.0771	737.5995	821.6136	846.3316	885.793	924.9299	944.2544	994.8252	996.5547	1019.68	1041.2432	1063.6707	1083.3502	1106.2913	1121.1598	1132.1818	1205.963	1230.7288	1247.3824	1266.8624	1288.1708	1304.6157	1330.4525	1354.4261	1371.9654	1396.245	1409.2428	1417.7237	1485.9102	1505.095	1519.2731	1722.573	2931.1526	2989.7752	2994.5127	3023.4205	3025.3219	3056.5169	3075.062	3092.6851	3152.3195	3176.5307
C1OCC2C=CCOC12	C1OC[C@H]2C=CCO[C@@H]12	
InChI=1S/C7H10O2/c1-2-6-4-8-5-7(6)9-3-1/h1-2,6-7H,3-5H2	InChI=1S/C7H10O2/c1-2-6-4-8-5-7(6)9-3-1/h1-2,6-7H,3-5H2/t6-,7+/m1/s1
