19
gdb 1391	2.4358746	0.7667977	0.6089317	3.5846	78.76	-0.24588	-0.01619	0.22968999999999998	1767.4928	0.152896	-422.536845	-422.526195	-422.525251	-422.573848	36.993	
O	 4.5751368589	 0.5215359307	-1.1993874226	-0.424949
C	 3.1584249339	 0.638702749	-1.1858837617	 0.103701
C	 2.6493133164	 0.014826683	-2.4833254677	-0.190301
C	 3.1444270039	 0.7647016259	-3.7303779028	-0.276002
C	 2.819573357	 0.023526188	-5.0045150313	 0.157056
O	 2.2374240826	 0.4882889709	-5.9504776531	-0.240135
C	 2.5837468694	-0.0650581828	 0.067838643	-0.374689
C	 1.1433111508	 0.091819359	 0.2137126143	 0.298748
C	-0.0448587306	 0.2474277541	 0.3094950558	-0.445716
H	 4.9351263527	 1.0677527151	-0.4938134922	 0.287795
H	 2.8582134064	 1.6974560673	-1.1549631253	 0.083862
H	 2.9938965385	-1.0273442019	-2.5159750451	 0.108436
H	 1.5554660779	-0.0049383696	-2.4588645966	 0.12868
H	 2.7220788148	 1.7720520566	-3.7933861785	 0.116846
H	 4.2372667445	 0.8512452946	-3.66366158	 0.138514
H	 3.1726503787	-1.0357362261	-5.0160478566	 0.068801
H	 2.853514236	-1.1274785044	 0.0224616461	 0.138706
H	 3.0870871112	 0.3431432622	 0.9544763443	 0.119951
H	-1.095094553	 0.373864128	 0.4027779999	 0.200696
46.9172	66.3738	95.2411	104.6953	146.1563	183.0942	283.7773	297.4311	348.0414	356.1299	424.4681	454.3991	523.7435	561.3665	632.8507	654.9836	765.6732	826.2395	875.1987	972.2236	976.5662	1012.1638	1035.5416	1069.7597	1101.3024	1123.6828	1188.26	1197.7106	1261.4954	1290.0466	1303.7893	1328.2715	1362.9379	1389.4118	1430.5278	1438.5001	1464.7714	1470.9484	1483.8337	1836.2325	2237.8666	2844.9756	2985.1181	3017.321	3026.5539	3032.1165	3058.493	3086.9399	3104.4354	3505.3439	3824.2361
OC(CCC=O)CC#C	O[C@@H](CCC=O)CC#C	
InChI=1S/C7H10O2/c1-2-4-7(9)5-3-6-8/h1,6-7,9H,3-5H2	InChI=1S/C7H10O2/c1-2-4-7(9)5-3-6-8/h1,6-7,9H,3-5H2/t7-/m1/s1
