19
gdb 642	4.2144154	0.9598926	0.8941725	3.7759	76.98	-0.23466	-0.01597	0.21869	1361.2497	0.156528	-422.532745	-422.523818	-422.522874	-422.568169	31.506	
O	 0.9742842687	-1.1780997775	-1.1277470913	-0.324568
C	 1.2322884183	-0.1151258478	-0.6081697566	 0.353535
C	 1.1327292527	 0.1059834111	 0.8640911509	-0.111932
C	-0.0009476573	-0.6058977311	 1.5927859151	-0.245777
C	 1.3970129625	-1.0869483012	 1.7699913988	-0.250556
C	 1.7146298348	 1.0871087673	-1.4123265513	 0.036077
C	 3.2617867893	 1.251126604	-1.4485699848	-0.292121
C	 3.0901543398	 0.9657558505	-2.9553059451	-0.05953
O	 1.6544850861	 0.9012495743	-2.827796348	-0.265258
H	 1.4173352846	 1.08752221	 1.2283808047	 0.086679
H	-0.4806880282	-0.0689566266	 2.4028176107	 0.11936
H	-0.6578094884	-1.197440317	 0.9655305253	 0.141747
H	 1.9049747936	-0.8932918938	 2.7076730123	 0.117976
H	 1.6763092021	-2.0026791059	 1.2615264447	 0.139839
H	 1.1625469003	 1.9820086425	-1.09110956	 0.091926
H	 3.6209128158	 2.2501831127	-1.2000212064	 0.118052
H	 3.8280115651	 0.5095953807	-0.8829844149	 0.122337
H	 3.4039403365	 1.7680222733	-3.6328149474	 0.106375
H	 3.509330274	 0.0148370146	-3.3035069464	 0.115838
35.5896	53.9877	76.4899	166.6003	224.5645	271.3996	309.1464	360.5252	641.7992	720.1701	764.2166	798.7378	809.4178	830.7988	833.2729	890.6281	897.6686	951.4074	960.749	1028.2008	1043.8781	1069.4646	1081.4517	1098.2748	1109.4627	1128.3405	1135.7928	1163.2218	1210.2105	1212.052	1222.8362	1251.0062	1257.4921	1340.9974	1366.0037	1408.7034	1453.8834	1485.3625	1490.6095	1528.8435	1799.7468	3001.347	3026.5927	3068.9683	3084.4406	3140.7423	3141.6765	3142.4679	3164.6741	3228.7333	3243.1655
O=C(C1CC1)C1CCO1	O=C(C1CC1)[C@H]1CCO1	
InChI=1S/C7H10O2/c8-7(5-1-2-5)6-3-4-9-6/h5-6H,1-4H2	InChI=1S/C7H10O2/c8-7(5-1-2-5)6-3-4-9-6/h5-6H,1-4H2/t6-/m1/s1
