19
gdb 4243	3.3680597	1.6077155	1.420973	1.2832	73.12	-0.23111	0.08157	0.31268	976.1206	0.15943	-422.546343	-422.539459	-422.538515	-422.577328	28.302	
C	 0.3567940066	-0.4113310984	-0.3926177327	-0.401747
C	 0.845729943	 0.8271628257	 0.344314481	 0.108334
O	 2.2747653189	 0.9570876321	 0.1514723645	-0.290328
C	 2.8282700558	 1.307626205	 1.4154588905	 0.077893
C	 2.2337629911	 2.6616232939	 1.8938599129	-0.237307
C	 1.0754380288	 2.0349774917	 2.6956666495	 0.046736
O	 1.8268853366	 1.1825809379	 3.6162466374	-0.301923
C	 2.0816753594	 0.385914806	 2.4370505508	 0.072203
C	 0.6986975011	 0.7616044396	 1.862682027	-0.063029
H	 0.7763792621	-1.3195427101	 0.0511344005	 0.119185
H	-0.7355832629	-0.4765719489	-0.357999624	 0.11363
H	 0.6669250308	-0.3694807331	-1.4404093712	 0.128986
H	 0.3483841511	 1.7173180928	-0.0698424482	 0.07505
H	 3.9124925048	 1.2355689484	 1.3506227008	 0.081977
H	 2.8900095169	 3.2214327783	 2.5631449989	 0.110255
H	 1.9429867347	 3.2904475398	 1.0493339776	 0.108066
H	 0.339210014	 2.6751949718	 3.1808385044	 0.080539
H	 2.4449806098	-0.6228506927	 2.6237223957	 0.086227
H	-0.1529085726	 0.2098623305	 2.2566497144	 0.085252
140.9452	228.6466	270.446	345.1773	425.3688	496.6289	524.3215	585.8232	688.7037	767.1406	809.9592	838.2561	850.993	877.4921	904.3709	915.1685	943.2431	952.168	973.8025	1008.443	1031.164	1042.7456	1065.9137	1103.0748	1127.36	1155.4842	1166.1315	1187.4765	1209.102	1236.9431	1280.2104	1286.6271	1301.6967	1320.648	1333.6258	1362.0019	1396.0121	1408.5286	1474.7116	1486.2955	1496.3438	2982.9269	3037.9686	3073.3861	3110.8855	3118.7976	3124.6832	3128.6071	3135.1265	3138.5449	3148.5522
CC1OC2CC3OC2C13	C[C@@H]1O[C@H]2C[C@@H]3O[C@H]2[C@H]13	
InChI=1S/C7H10O2/c1-3-6-4-2-5(8-3)7(6)9-4/h3-7H,2H2,1H3	InChI=1S/C7H10O2/c1-3-6-4-2-5(8-3)7(6)9-4/h3-7H,2H2,1H3/t3-,4-,5-,6+,7+/m0/s1
