19
gdb 3362	2.8439678	1.4157491	1.2031487	2.1578	75.64	-0.24852	-0.02546	0.22305999999999998	1085.64	0.157815	-422.563685	-422.555477	-422.554533	-422.596528	31.15	
O	-1.7761095491	-2.0174570439	-0.4423986589	-0.44093
C	-0.590193742	-1.2612561205	-0.4365845429	 0.144403
C	 0.366776839	-1.5150046054	-1.626006081	-0.053776
C	-0.5637138928	-1.3038790178	-2.8379570505	-0.222977
C	-1.3096114781	-0.0099794776	-2.3636204355	-0.212861
C	-0.6158971667	 0.1932034776	-1.0035384511	-0.093685
C	 0.8942093586	-0.0667270203	-1.3914235256	-0.082702
C	 1.8954566572	 0.1717139903	-0.2984503733	 0.116294
O	 2.2318344684	-0.619316634	 0.5501500194	-0.250846
H	-2.211446648	-1.9096164721	 0.4077803591	 0.286579
H	-0.0670603566	-1.3295163453	 0.5185901926	 0.100285
H	 1.0455237823	-2.3666525289	-1.6341889193	 0.07488
H	-0.002838366	-1.1544327499	-3.7645976494	 0.09345
H	-1.243949567	-2.1456311195	-2.977134911	 0.118701
H	-1.1630273919	 0.8405034403	-3.0347013651	 0.093513
H	-2.3817560765	-0.1760156827	-2.2411319543	 0.109806
H	-0.9092957404	 1.0537294728	-0.4004291799	 0.064019
H	 1.2168386201	 0.4843407139	-2.281924823	 0.080371
H	 2.3396325295	 1.194543963	-0.3173117602	 0.075475
68.7114	174.0493	219.987	228.1128	265.0088	274.4288	354.344	389.7662	577.5699	697.7225	706.9062	770.562	802.2238	840.3404	865.8032	896.7596	905.9753	963.2196	985.5752	988.0708	1016.2993	1037.9377	1058.4781	1118.8456	1136.2474	1149.9107	1170.5026	1196.6192	1202.4682	1259.0707	1268.0437	1271.1493	1287.494	1317.77	1325.4809	1376.3651	1430.1732	1452.4722	1481.8392	1505.9368	1812.7968	2856.4368	3046.4359	3060.663	3069.5919	3100.9145	3108.4216	3110.1143	3126.5317	3131.5767	3837.6102
OC1C2CCC1C2C=O	O[C@H]1[C@H]2CC[C@@H]1[C@H]2C=O	
InChI=1S/C7H10O2/c8-3-6-4-1-2-5(6)7(4)9/h3-7,9H,1-2H2	InChI=1S/C7H10O2/c8-3-6-4-1-2-5(6)7(4)9/h3-7,9H,1-2H2/t4-,5+,6-,7-
