19
gdb 3318	2.5097117	1.7704614	1.3701475	2.3371	73.83	-0.23518	-0.02256	0.21262	997.4578	0.159628	-422.602484	-422.594892	-422.593948	-422.634423	30.029	
O	-0.8004151964	 1.90408823	 1.2754210503	-0.451689
C	-1.0384370601	 1.1650924557	 0.089978253	 0.058132
C	-2.4101031472	 0.4738122094	 0.1326633299	-0.028469
C	-2.6669792592	-0.1323566687	-1.2659456497	-0.22437
C	-1.6672397552	-1.3323543109	-1.3280862214	-0.22685
C	-0.9599353306	-1.2912505299	 0.0578549386	-0.120676
C	-2.1041196458	-0.7876508032	 0.9756398702	-0.240349
C	-0.0772645142	-0.0548102982	 0.0577410637	 0.398254
O	 1.1226872255	 0.0275809664	 0.1370685844	-0.349048
H	 0.1585562359	 1.9730652571	 1.3676341828	 0.292632
H	-0.9111026067	 1.7969531613	-0.8022773028	 0.07937
H	-3.2027409577	 1.1242576694	 0.5034680851	 0.077992
H	-3.7008842237	-0.4763296308	-1.3517494961	 0.105131
H	-2.4996287561	 0.5928564018	-2.0677100284	 0.10358
H	-2.1919283171	-2.2851621859	-1.4387062507	 0.110835
H	-0.9590360452	-1.2556478797	-2.1573464289	 0.114173
H	-0.4330163862	-2.2032259158	 0.3351250308	 0.081843
H	-2.9413487369	-1.4897029075	 1.0232534529	 0.100189
H	-1.7751411531	-0.5482348307	 1.9894768565	 0.119321
84.5126	203.2195	246.4238	257.3501	393.0272	400.3447	422.2283	490.222	556.7271	682.3118	749.0907	772.0248	819.5792	842.5897	886.5476	889.6237	912.3673	944.2515	950.0326	969.6489	1031.9376	1039.5164	1090.1213	1105.0401	1139.7525	1160.9694	1194.9503	1205.0175	1229.1897	1251.9122	1284.5748	1303.6945	1315.6028	1327.2693	1339.0343	1355.4186	1410.8424	1493.0142	1493.32	1516.4381	1846.5136	2984.5561	3053.9936	3061.9205	3064.0673	3089.6047	3109.322	3114.5539	3118.9798	3130.6569	3772.7195
OC1C2CCC(C2)C1=O	O[C@@H]1[C@H]2CC[C@H](C2)C1=O	
InChI=1S/C7H10O2/c8-6-4-1-2-5(3-4)7(6)9/h4-6,8H,1-3H2	InChI=1S/C7H10O2/c8-6-4-1-2-5(3-4)7(6)9/h4-6,8H,1-3H2/t4-,5+,6+/m0/s1
