19
gdb 470	3.7870024	1.1583495	1.001985	2.3747	75.07	-0.24997	0.09035	0.34032	1218.3669	0.157586	-422.522127	-422.514204	-422.51326	-422.555116	30.024	
C	-2.510243863	-0.9405013286	-2.4525429129	-0.269603
C	-2.8103194573	-1.0996962009	-0.9845405357	-0.272046
C	-1.3948149987	-1.2512490014	-1.4911443346	 0.014621
C	-0.3702007174	-0.1893145201	-1.1616685696	 0.068379
O	 0.6555905604	-0.0844615096	-2.1596854723	-0.270561
C	 1.8358830324	-0.7633572776	-1.743171213	-0.110055
C	 1.7423096386	-0.8623591258	-0.2382106834	 0.021607
O	 1.4577246708	 0.3956584863	 0.3812047723	-0.256841
C	 0.3711340422	-0.499199658	 0.1258435318	 0.01969
H	-2.8316287053	-1.7211366758	-3.1324957318	 0.114026
H	-2.5449113514	 0.0584429733	-2.8743257935	 0.12056
H	-3.0528462803	-0.2068329734	-0.4169057239	 0.114697
H	-3.3353895086	-1.9888541743	-0.6544850704	 0.113748
H	-0.9980430888	-2.2630427323	-1.5204710473	 0.080902
H	-0.860576192	 0.7922090967	-1.117752057	 0.089732
H	 1.9040389585	-1.7733957502	-2.1787508686	 0.09441
H	 2.6976341944	-0.1800406154	-2.0854438265	 0.118578
H	 2.3603652972	-1.5554016448	 0.3257844536	 0.102602
H	-0.1553742017	-0.8886837683	 0.9923328928	 0.105552
70.2605	104.5604	155.717	255.3861	311.3847	369.6534	439.9088	458.9088	728.3528	759.4786	778.0444	826.5817	841.3754	871.3642	880.1533	913.9242	931.3374	955.2957	965.3061	1000.5203	1033.652	1058.6882	1079.3198	1085.8319	1104.575	1121.1941	1134.012	1178.6055	1197.0973	1224.1191	1225.5102	1247.9654	1285.8918	1321.1021	1330.5006	1374.4355	1421.4676	1444.6724	1471.0959	1505.691	1509.4584	2977.3114	3024.1445	3065.5101	3130.4972	3134.7267	3138.9054	3153.0129	3166.2657	3209.6049	3224.8898
C1CC1C1OCC2OC12	C1CC1[C@@H]1OC[C@H]2O[C@@H]12	
InChI=1S/C7H10O2/c1-2-4(1)6-7-5(9-7)3-8-6/h4-7H,1-3H2	InChI=1S/C7H10O2/c1-2-4(1)6-7-5(9-7)3-8-6/h4-7H,1-3H2/t5-,6+,7-/m1/s1
