19
gdb 3226	2.3700248	2.0467067	1.5310982	1.7009	72.93	-0.23193	0.0931	0.32503	944.7693	0.158892	-422.568319	-422.56085	-422.559906	-422.599672	30.279	
C	 1.8355395595	-2.3059353668	-0.6193262945	-0.508771
C	 0.817203086	-1.3911620947	-1.2377437104	 0.264538
C	-0.1767811128	-1.7861051663	-2.3341345448	-0.164145
C	-1.4250373556	-0.9264334002	-2.155835165	-0.238832
C	-0.6740841073	 0.3058461634	-1.6219053964	-0.001047
O	 0.3635283696	 0.5213346923	-2.6013633954	-0.278295
C	 0.9219640032	-0.7875097272	-2.6197310127	 0.034435
C	 0.1407772223	-0.2695346434	-0.438634389	 0.114727
O	 1.0504558509	 0.6471166458	 0.1257655582	-0.452943
H	 1.3756190169	-2.9845793849	 0.1084057466	 0.118665
H	 2.3354331653	-2.9214483358	-1.374342718	 0.113916
H	 2.5993754986	-1.7219712345	-0.0957190823	 0.133043
H	-0.1909252274	-2.774303841	-2.7752314761	 0.089611
H	-1.9432218097	-0.7233753362	-3.0973047032	 0.109464
H	-2.13793931	-1.3261738145	-1.4291228094	 0.105115
H	-1.2212864151	 1.2303779139	-1.4520356081	 0.085374
H	 1.7408881121	-0.9201840029	-3.3127416692	 0.103075
H	-0.4937824193	-0.6341148939	 0.3741264999	 0.085466
H	 1.4751779829	 1.088637687	-0.6215603403	 0.286604
186.5307	197.6521	227.7983	259.2786	359.7119	417.8782	457.0228	530.3887	566.7487	622.8659	700.8808	769.5283	817.1482	867.097	879.3896	894.9329	911.999	931.358	956.8741	994.5608	1008.1302	1033.3699	1053.0936	1071.4351	1103.4797	1114.2117	1158.8691	1173.4064	1220.443	1240.3068	1271.0893	1275.7413	1294.5299	1309.6158	1336.934	1412.8387	1431.2051	1436.2485	1488.439	1490.6705	1502.6886	3026.4236	3057.3108	3079.1302	3086.9657	3102.2824	3107.1873	3155.0643	3198.9623	3220.5477	3768.4702
CC12C3CC(OC13)C2O	C[C@]12[C@H]3C[C@H](O[C@@H]13)[C@@H]2O	
InChI=1S/C7H10O2/c1-7-3-2-4(5(7)8)9-6(3)7/h3-6,8H,2H2,1H3	InChI=1S/C7H10O2/c1-7-3-2-4(5(7)8)9-6(3)7/h3-6,8H,2H2,1H3/t3-,4-,5-,6+,7+/m0/s1
