19
gdb 1131	3.1217347	1.2508375	1.1602972	3.8316	75.21	-0.23339	-0.01139	0.22199999999999998	1137.5702	0.156604	-422.534867	-422.526397	-422.525452	-422.568608	31.35	
C	 4.5310414991	 2.4720874961	-3.3546851743	-0.498558
C	 3.8654787526	 1.8789384772	-4.5791683562	 0.381947
O	 3.707602549	 2.5194668856	-5.5954332267	-0.309405
C	 3.4241767254	 0.4225698974	-4.5262535817	-0.089846
C	 2.8475702616	-0.2542394675	-3.2379489266	-0.279949
C	 3.8073467536	-1.4642790632	-3.4294763502	-0.075749
C	 5.1412863603	-1.317800244	-2.6880976971	-0.079276
O	 5.664401327	-0.4481921227	-3.7255911365	-0.287376
C	 4.5187577128	-0.6870905261	-4.5715934506	 0.099759
H	 5.379484314	 1.8439523887	-3.0652109265	 0.163418
H	 4.8598150079	 3.4879149054	-3.5770264923	 0.135807
H	 3.8361206535	 2.494109968	-2.5075109509	 0.131349
H	 2.75323821	 0.2711665715	-5.3759647812	 0.098513
H	 3.0158142081	 0.2916241402	-2.3061835586	 0.107561
H	 1.7841080345	-0.4887859514	-3.3085588977	 0.114627
H	 3.3683694089	-2.4546982032	-3.5334162854	 0.084485
H	 5.1157823966	-0.8284653349	-1.7068256715	 0.104875
H	 5.7325552819	-2.2394997382	-2.6169431456	 0.107482
H	 4.8079893332	-1.076351479	-5.5507751905	 0.090336
48.3845	91.3903	166.9529	204.3942	259.7708	342.167	374.6437	429.4087	508.9549	605.0083	683.951	740.2725	782.4999	832.9957	873.6291	905.7763	929.887	965.6148	992.7652	996.9196	1021.6044	1049.4938	1075.0895	1091.6564	1148.5204	1161.8487	1186.5336	1220.701	1239.2266	1257.2751	1269.6028	1299.8427	1317.9044	1327.8818	1362.7934	1380.0729	1470.3143	1478.9244	1487.7183	1525.3769	1796.5989	3012.765	3039.6688	3059.8906	3069.7458	3073.8099	3084.9848	3106.7253	3120.2527	3133.2918	3154.0796
CC(=O)C1CC2COC12	CC(=O)[C@@H]1C[C@@H]2CO[C@H]12	
InChI=1S/C7H10O2/c1-4(8)6-2-5-3-9-7(5)6/h5-7H,2-3H2,1H3	InChI=1S/C7H10O2/c1-4(8)6-2-5-3-9-7(5)6/h5-7H,2-3H2,1H3/t5-,6+,7+/m1/s1
