19
gdb 3654	2.1986008	1.4704058	1.0165428	2.2975	76.65	-0.25336	-0.03603	0.21732999999999997	1223.6474	0.154322	-422.534083	-422.524666	-422.523722	-422.568605	34.002	
C	 0.1035975225	 2.435327844	 3.9052829561	-0.430859
C	 0.0804903977	 1.688109783	 2.5953499726	 0.043345
O	-0.4094447536	 2.3663549922	 1.4418943185	-0.284771
C	 0.9621250151	 1.9353333191	 1.4197082938	 0.235697
C	 1.9509754744	 3.0635526413	 1.4984030858	 0.118783
O	 3.1056067607	 2.963861671	 1.1696911082	-0.25329
C	 1.3133783555	 0.8312572054	 0.4690323437	-0.067832
C	 0.8325503674	 0.8997015458	-0.9601670664	-0.26136
C	 0.2619488258	-0.1289174916	-0.0168136428	-0.282963
H	 0.7733181142	 1.9352621201	 4.6125564939	 0.134703
H	 0.4282445422	 3.4703650998	 3.7892558791	 0.132487
H	-0.8997349567	 2.4417859165	 4.3437461354	 0.136388
H	-0.2716503846	 0.6573632345	 2.668610933	 0.102274
H	 1.5255188812	 4.0166304218	 1.8783650111	 0.088958
H	 2.3165150201	 0.4485614139	 0.6213517756	 0.107273
H	 0.1876421969	 1.7282072771	-1.2311022425	 0.124924
H	 1.5116980252	 0.5777972707	-1.7409022763	 0.11754
H	-0.7563667123	 0.0315481206	 0.319295962	 0.125629
H	 0.5422890084	-1.1683065452	-0.1443757408	 0.113074
65.6107	102.2487	152.7541	168.7431	176.9802	244.5392	279.4017	308.7565	446.544	466.5194	505.4332	604.6099	689.4744	782.0046	800.0398	824.128	869.0882	919.2464	947.6885	980.3553	1016.5664	1062.3187	1064.5596	1090.3128	1102.7326	1130.0447	1132.4167	1172.1834	1199.4284	1221.744	1245.3731	1321.3824	1401.2493	1407.8472	1412.9505	1455.0777	1459.6842	1485.6536	1500.4494	1505.3589	1821.853	2908.068	3044.069	3093.2112	3104.8349	3136.8003	3141.1772	3143.0284	3175.4855	3219.155	3233.8138
CC1OC1(C=O)C1CC1	C[C@H]1O[C@]1(C=O)C1CC1	
InChI=1S/C7H10O2/c1-5-7(4-8,9-5)6-2-3-6/h4-6H,2-3H2,1H3	InChI=1S/C7H10O2/c1-5-7(4-8,9-5)6-2-3-6/h4-6H,2-3H2,1H3/t5-,7+/m1/s1
