19
gdb 562	3.5955039	1.4590062	1.195044	1.8132	73.57	-0.24309	0.06291	0.306	1048.6737	0.159448	-422.528907	-422.52163	-422.520686	-422.561637	27.704	
C	 1.3387152884	 0.0858355698	-0.201792107	-0.091758
O	 0.0329391797	-0.1121587917	 0.3741631913	-0.29203
C	-0.4745147308	 1.1050046173	-0.2275961652	 0.129301
C	-0.8984041421	 2.1442344914	 0.8200643804	-0.258038
C	 0.2701478541	 3.1311128226	 0.9533037911	 0.129306
O	 0.0664656531	 4.3379617597	 0.1766767265	-0.292038
C	 1.2109176205	 4.0592916491	-0.6531141483	-0.091746
C	 1.4306723363	 2.6869043497	 0.0131397446	-0.085513
C	 0.9426654312	 1.4641033024	-0.7667491411	-0.08547
H	 2.1317083532	 0.0816875205	 0.5575625439	 0.097664
H	 1.5695950713	-0.6743646844	-0.9592235799	 0.09912
H	-1.253440305	 0.8791594501	-0.9639263913	 0.076253
H	-1.7928833048	 2.6966908842	 0.5181367521	 0.116287
H	-1.1148586904	 1.628270343	 1.7599544821	 0.116285
H	 0.5246746596	 3.3746410504	 1.9905265357	 0.076243
H	 0.9553700588	 4.0456923293	-1.7208119349	 0.097671
H	 2.0181264312	 4.7853412085	-0.4912948194	 0.099111
H	 2.4135586494	 2.5374042522	 0.4640611344	 0.079674
H	 1.0556596165	 1.5774079357	-1.846628955	 0.079678
48.3016	73.87	251.1939	310.073	370.4734	427.8428	613.3183	683.7022	787.6238	797.3346	820.1098	842.8328	874.5781	897.1561	915.2521	981.4704	994.3173	1006.2098	1024.3276	1035.7852	1058.3336	1078.4702	1095.0706	1136.3449	1155.9753	1164.7955	1192.5665	1207.504	1212.4053	1240.3442	1285.2245	1295.4106	1313.5915	1340.0259	1340.9419	1366.2151	1366.8665	1371.6565	1460.0178	1525.4792	1526.1782	3003.5157	3004.1404	3041.9976	3042.9529	3043.725	3045.1199	3063.3433	3090.7424	3091.2986	3110.6704
C1OC2CC3OCC3C12	C1O[C@H]2C[C@@H]3OC[C@@H]3[C@@H]12	
InChI=1S/C7H10O2/c1-6-4(2-8-6)5-3-9-7(1)5/h4-7H,1-3H2	InChI=1S/C7H10O2/c1-6-4(2-8-6)5-3-9-7(1)5/h4-7H,1-3H2/t4-,5-,6+,7+/m1/s1
