19
gdb 1559	2.4014162	1.7040861	1.377805	1.91	75.19	-0.23941	-0.02096	0.21845	1030.5942	0.155321	-422.571534	-422.562735	-422.561791	-422.604714	33.347	
C	-0.5497173579	 2.1380588793	 1.25494803	-0.411228
C	-0.8780083965	 1.2386383308	 0.0612367468	 0.239715
C	-0.7507120422	 1.9957618881	-1.2649798192	-0.400255
O	-2.220106566	 0.729252306	 0.1765386391	-0.302416
C	-2.2285741619	-0.6756042897	 0.1855876626	 0.093213
C	-1.6664337068	-1.3413613039	 1.3937421614	-0.321745
C	-0.8208417863	-1.2137538224	 0.1170607737	-0.184097
C	 0.0423375669	-0.0026561764	 0.0176622471	 0.376808
O	 1.2359193636	 0.0419060266	-0.1492388782	-0.342934
H	-0.6824221236	 1.6080916077	 2.2018909604	 0.119655
H	 0.4887176063	 2.4737033699	 1.1886854317	 0.138333
H	-1.2062685903	 3.0127906148	 1.2587477567	 0.125191
H	-1.0217437889	 1.3509303837	-2.1057953086	 0.120299
H	-1.4193844299	 2.8611873618	-1.2651003359	 0.122921
H	 0.2795556543	 2.3339252868	-1.4039361456	 0.136229
H	-3.0560996541	-1.1051511328	-0.367826541	 0.110142
H	-1.4175167986	-0.7320344333	 2.2549240653	 0.133446
H	-1.9911026923	-2.3499364276	 1.625088695	 0.128927
H	-0.517182796	-2.1112154992	-0.4056244513	 0.117796
65.9913	179.4276	197.1788	210.7704	234.3835	290.8471	325.3784	380.616	444.0547	487.8098	596.7707	630.5431	689.8085	762.5595	787.9105	817.9162	884.2381	923.8088	937.5817	963.679	1002.4115	1002.891	1014.9744	1039.5851	1094.551	1132.4977	1157.5106	1183.1201	1190.0111	1209.8028	1277.1611	1320.7898	1369.9472	1387.022	1408.1852	1471.7899	1476.2002	1480.284	1495.54	1503.2605	1832.8478	3041.5879	3045.6373	3116.9928	3119.4521	3125.5683	3131.4274	3138.0111	3175.0819	3202.8315	3229.7481
CC1(C)OC2CC2C1=O	CC1(C)O[C@@H]2C[C@@H]2C1=O	
InChI=1S/C7H10O2/c1-7(2)6(8)4-3-5(4)9-7/h4-5H,3H2,1-2H3	InChI=1S/C7H10O2/c1-7(2)6(8)4-3-5(4)9-7/h4-5H,3H2,1-2H3/t4-,5+/m0/s1
