19
gdb 5347	2.7294613	1.4737433	1.1916405	2.1067	76.24	-0.23051	-0.00523	0.22527999999999998	1096.538	0.156327	-422.520303	-422.511751	-422.510807	-422.5533	32.762	
C	 2.3958452677	-0.8279114651	-0.9127927594	-0.517877
C	 2.2147875229	-0.5583716939	 0.5534181661	 0.316326
C	 3.0833233471	 0.4304392959	 1.3991911905	-0.25289
C	 2.5643450704	-0.5674478403	 2.4725516425	 0.025558
O	 2.6821309469	-1.6219643249	 1.4642278632	-0.316836
C	 1.0520684704	-0.2817810555	 2.4523532561	-0.225979
C	 0.7997216634	-0.2789898623	 1.1404069855	 0.309256
C	-0.4475340483	-0.0489627256	 0.3597973859	-0.203876
O	-0.330918094	 1.0688245661	-0.5242614645	-0.411814
H	 1.8673807696	-1.7438328383	-1.1975896352	 0.130229
H	 1.9812244534	-0.00121615	-1.4957785856	 0.142036
H	 3.4531817591	-0.9536945629	-1.1593591972	 0.123513
H	 4.1517805564	 0.3179457299	 1.1982091957	 0.104427
H	 2.7840016542	 1.4792848299	 1.4622584477	 0.086585
H	 3.0731063617	-0.7757180049	 3.4123944404	 0.079435
H	 0.3941848542	-0.1321706771	 3.2968765801	 0.109018
H	-0.6614617491	-0.9026249359	-0.2941554496	 0.121379
H	-1.3046746251	 0.0645566773	 1.0398845663	 0.099356
H	-0.1224540808	 1.8374337874	 0.0175638814	 0.282153
85.8053	129.1649	189.8021	214.5097	277.8912	339.7982	354.8899	427.3187	490.4397	540.3282	633.4861	656.5276	689.1657	762.8589	806.7434	824.6685	857.2673	899.6952	911.0792	954.943	973.1487	1029.7623	1035.2059	1055.8036	1108.2621	1152.9804	1172.362	1188.6678	1221.3525	1237.776	1261.1078	1295.5348	1329.2137	1364.5542	1411.0222	1414.6097	1481.9889	1485.437	1489.8748	1499.9758	1683.9774	2995.3946	3042.543	3055.6288	3056.7906	3111.1988	3127.6067	3131.2835	3137.6365	3231.859	3807.5056
CC12CC(O1)C=C2CO	C[C@]12C[C@H](O1)C=C2CO	
InChI=1S/C7H10O2/c1-7-3-6(9-7)2-5(7)4-8/h2,6,8H,3-4H2,1H3	InChI=1S/C7H10O2/c1-7-3-6(9-7)2-5(7)4-8/h2,6,8H,3-4H2,1H3/t6-,7-/m1/s1
