19
gdb 4119	2.9705541	1.5396388	1.3666463	2.3427	74.39	-0.2372	0.00871	0.24591	1005.25	0.159521	-422.574146	-422.566809	-422.565864	-422.605439	29.976	
O	 0.295889047	 1.1092521843	 0.2946499638	-0.438185
C	-0.9520108087	 0.6434497632	 0.7983357816	 0.125208
C	-1.5252186266	-0.3193392695	-0.2571046327	-0.203964
C	-2.6348495966	-1.2051818053	 0.352766815	 0.014681
O	-2.0479639082	-1.9256041757	 1.4406736613	-0.249274
C	-2.0014148336	-0.9519606067	 2.4859921171	 0.025258
C	-0.7969606163	-0.0302039818	 2.1826564245	-0.241096
C	-3.3263562161	-0.2179238227	 2.3148503843	-0.083164
C	-3.702789394	-0.3695465557	 1.0485122022	-0.079478
H	 0.6283391756	 1.7794215389	 0.9006768564	 0.276976
H	-1.6445182281	 1.489883316	 0.903156898	 0.069272
H	-1.886822627	 0.248586157	-1.121091706	 0.097219
H	-0.720557526	-0.9754298782	-0.6040504799	 0.118372
H	-3.01779843	-1.9259638316	-0.374595908	 0.081899
H	-1.8829184101	-1.471075007	 3.4410471231	 0.081004
H	-0.6710075097	 0.7320108683	 2.9627158268	 0.082023
H	 0.1057960976	-0.6496137301	 2.1699124705	 0.115198
H	-3.8012295413	 0.3761040631	 3.0848112783	 0.103413
H	-4.5542703277	 0.0738207937	 0.5489619434	 0.104639
149.2731	248.4085	277.0283	335.0258	348.3094	409.7242	414.1674	470.8523	626.5091	630.2215	724.5466	782.0949	823.7548	848.3005	851.3908	890.9265	896.5956	940.9404	964.9795	969.2634	1008.4691	1059.1576	1065.9261	1087.1257	1095.788	1137.4629	1161.9135	1217.5181	1255.0673	1274.3326	1289.3754	1299.9867	1327.0154	1349.5204	1356.4128	1370.611	1394.966	1436.7139	1473.1122	1486.0337	1663.2071	2996.4559	3022.8328	3045.2994	3072.3013	3077.7955	3084.6788	3095.2272	3208.0424	3233.6359	3810.6133
OC1CC2OC(C1)C=C2	O[C@H]1C[C@H]2O[C@@H](C1)C=C2	
InChI=1S/C7H10O2/c8-5-3-6-1-2-7(4-5)9-6/h1-2,5-8H,3-4H2	InChI=1S/C7H10O2/c8-5-3-6-1-2-7(4-5)9-6/h1-2,5-8H,3-4H2/t5-,6-,7+
