19
gdb 4115	2.8270607	1.3255844	1.3200263	2.3011	74.5	-0.24768	-0.02071	0.22697	1090.3775	0.157863	-422.565314	-422.557349	-422.556404	-422.59775	30.762	
C	-1.7527670983	-0.0134814339	 3.6856073403	-0.413264
C	-1.9260760182	-0.0207477869	 2.1659617472	 0.067137
C	-1.4022578785	 1.2839139601	 1.5089378338	-0.250247
C	-1.1720881065	 1.0387999695	 0.0038533441	-0.045285
O	-2.0554241652	-0.0274505552	-0.460036066	-0.292615
C	-1.1009271724	-1.0296757764	 0.0056246785	-0.045286
C	-1.3137926233	-1.2874478543	 1.5111438875	-0.250248
C	-0.0150938118	 0.0430068842	-0.1513984801	 0.428536
O	 1.1582607688	 0.0831972522	-0.3599212711	-0.305356
H	-2.1845980043	-0.9130610614	 4.1367718607	 0.115999
H	-0.6931203749	 0.0232263846	 3.9634791244	 0.117893
H	-2.2454509443	 0.8550502473	 4.1352583347	 0.115999
H	-2.9964267021	-0.0577633226	 1.9421079653	 0.097176
H	-2.1266702367	 2.0901112609	 1.6638400597	 0.111434
H	-0.4593931765	 1.6121065155	 1.9654924573	 0.114912
H	-1.2162634056	 1.9322757857	-0.6225240152	 0.103433
H	-1.0835617038	-1.925150556	-0.6192131105	 0.103433
H	-1.9810946807	-2.1412581879	 1.6674701448	 0.111434
H	-0.3506283356	-1.5492813655	 1.9682036348	 0.114912
81.9415	169.2369	216.4016	255.7879	301.7475	396.4935	415.8092	449.7049	501.6431	529.9466	701.3142	758.2195	781.8039	859.5504	865.2691	880.2402	930.1912	937.9668	998.5977	999.623	1030.9434	1053.5394	1089.9156	1102.9678	1118.7434	1159.9639	1225.2539	1251.2753	1258.5543	1277.967	1313.0515	1322.2693	1329.8833	1379.9838	1383.4462	1416.1815	1485.6219	1492.7437	1499.4811	1500.317	1920.9067	3024.9532	3026.5357	3030.0337	3050.1359	3072.6739	3077.5147	3096.8159	3097.2183	3099.3484	3100.6904
CC1CC2OC(C1)C2=O	C[C@H]1C[C@@H]2O[C@H](C1)C2=O	
InChI=1S/C7H10O2/c1-4-2-5-7(8)6(3-4)9-5/h4-6H,2-3H2,1H3	InChI=1S/C7H10O2/c1-4-2-5-7(8)6(3-4)9-5/h4-6H,2-3H2,1H3/t4-,5-,6+
