19
gdb 887	3.1382271	1.213826	0.9393143	3.131	77.93	-0.24099	-0.02807	0.21292	1249.1643	0.156862	-422.561862	-422.553325	-422.552381	-422.595341	31.621	
O	 0.9678265976	-0.8618916875	-0.2620457886	-0.243621
C	 0.2740679381	 0.0756730854	 0.0263207332	 0.142354
C	 0.2920720349	 1.4223131094	-0.7031771225	-0.036827
O	-0.9270446102	 2.0590908549	-0.3832819524	-0.254359
C	-0.909180079	 3.4776596386	-0.4007680251	-0.067549
C	-0.3601173434	 4.0835688009	-1.697744979	-0.226929
C	-0.7568701493	 3.2981806342	-2.9590046155	-0.23916
C	 0.028263504	 2.0197750289	-3.1444091413	-0.072605
C	 0.5207853302	 1.2393641488	-2.1846396536	-0.04533
H	-0.4417746384	 0.057526631	 0.8763618368	 0.097491
H	 1.1424205662	 1.9682646023	-0.2464413691	 0.104155
H	-1.9570435377	 3.7635892244	-0.2627637017	 0.111699
H	-0.3422239705	 3.8629151453	 0.4625652811	 0.090864
H	-0.7220269982	 5.1165056215	-1.7634816772	 0.100677
H	 0.7335504237	 4.1427818597	-1.6552621199	 0.108893
H	-1.8347285501	 3.0832130474	-2.9471969143	 0.119242
H	-0.5913907155	 3.9319930036	-3.8374954465	 0.103742
H	 0.2225343857	 1.7320967668	-4.1755347924	 0.093612
H	 1.1054325518	 0.3586906247	-2.4348328119	 0.113648
78.3928	94.5688	182.7811	223.5098	254.9292	319.4413	344.9312	366.4423	515.8416	586.6899	597.5439	700.7438	747.2697	786.0798	825.7174	888.9452	921.6765	962.4682	996.6286	1019.9802	1049.8206	1056.9875	1085.3949	1115.5656	1168.9709	1221.8932	1226.8398	1263.0137	1271.3941	1295.7332	1340.2977	1370.069	1379.4709	1395.4393	1411.4156	1419.2508	1475.6572	1485.5285	1503.7647	1727.2833	1841.0312	2900.0909	2909.1184	2972.5333	3013.0329	3032.7892	3058.6545	3061.1453	3083.1284	3144.9155	3179.8879
O=CC1OCCCC=C1	O=C[C@@H]1OCCCC=C1	
InChI=1S/C7H10O2/c8-6-7-4-2-1-3-5-9-7/h2,4,6-7H,1,3,5H2	InChI=1S/C7H10O2/c8-6-7-4-2-1-3-5-9-7/h2,4,6-7H,1,3,5H2/t7-/m1/s1
