19
gdb 1472	3.2320844	1.6845632	1.4328477	2.0746	74.21	-0.23691	0.07003	0.30694	964.44	0.157334	-422.522754	-422.515216	-422.514272	-422.554061	30.821	
C	-0.1514331524	-0.1044619719	 0.1552331786	-0.474292
C	 1.3552528693	-0.0674068058	-0.011931961	 0.431512
O	 2.0021673414	-1.0267415798	 0.8141505456	-0.483545
C	 1.9762505462	-0.1762885151	-1.4335994558	 0.031424
O	 1.2810641234	 0.8496882572	-2.1512303945	-0.271124
C	 1.8046670176	 1.9719322847	-1.4081577919	 0.066937
C	 3.3052053767	 1.9130223849	-1.7626236488	-0.246521
C	 3.2445413992	 0.6295395019	-0.9206520225	-0.06287
C	 2.1243783768	 1.2751472742	-0.0218433728	-0.14083
H	-0.4387352942	 0.242835108	 1.155707731	 0.100604
H	-0.6407250546	 0.5327615217	-0.5837402875	 0.136191
H	-0.5181132003	-1.1290482251	 0.0368013204	 0.122605
H	 1.8316602079	-0.7905003426	 1.7318802152	 0.278264
H	 2.0147373909	-1.110004193	-1.9924182128	 0.080158
H	 1.1739437438	 2.8504118767	-1.5335567525	 0.078872
H	 3.5584557466	 1.8657877258	-2.8247196231	 0.101503
H	 3.8892874057	 2.6851013509	-1.2541424513	 0.099483
H	 4.1002219306	 0.0830901506	-0.5379155892	 0.086957
H	 2.3125851954	 1.8903161267	 0.8579968129	 0.064674
198.7322	204.1526	231.183	278.944	339.4844	375.8081	470.293	514.0068	555.5729	606.7651	697.213	775.2358	816.2346	827.0283	856.7593	900.4601	922.4585	936.2207	950.1894	959.5929	994.5985	1031.4316	1040.4287	1071.8106	1094.8467	1113.5971	1149.5425	1163.1284	1176.1849	1196.614	1209.2974	1238.3295	1253.4075	1270.8801	1279.4203	1334.5327	1380.9184	1400.3648	1482.3387	1484.7295	1497.7352	3026.664	3057.4883	3091.9219	3117.3169	3119.4153	3135.2241	3136.4475	3138.2404	3174.9958	3806.7841
CC1(O)C2OC3CC2C13	C[C@@]1(O)[C@H]2O[C@@H]3C[C@H]2[C@H]13	
InChI=1S/C7H10O2/c1-7(8)5-3-2-4(5)9-6(3)7/h3-6,8H,2H2,1H3	InChI=1S/C7H10O2/c1-7(8)5-3-2-4(5)9-6(3)7/h3-6,8H,2H2,1H3/t3-,4+,5-,6-,7-/m0/s1
