19
gdb 3248	2.3954307	1.9684574	1.5197937	2.2001	73.79	-0.2421	0.06587	0.30797	953.1596	0.157586	-422.519854	-422.512258	-422.511314	-422.551378	30.577	
C	 1.5652560657	-0.7283422586	-3.1413288574	-0.509851
C	 0.6854691799	 0.1689688456	-2.3046353607	 0.289011
C	 0.8928315892	 1.7064362589	-2.3745185917	-0.295801
C	-0.6242671279	 1.9063841301	-2.1869707399	 0.104682
O	-1.0219825408	 1.7186602518	-0.7995623134	-0.320954
C	-1.0699536066	 0.2804985879	-0.977529616	 0.044659
C	 0.3622774309	-0.2751610389	-0.8323677928	 0.115643
O	 1.1227685172	 0.2232768994	 0.2297445426	-0.443392
C	-0.8712598669	 0.40427409	-2.5087457857	-0.14823
H	 2.5948867963	-0.7166555282	-2.7642054239	 0.129266
H	 1.2153841394	-1.7667172756	-3.1176187229	 0.114341
H	 1.5907784598	-0.4063429922	-4.1885286509	 0.112523
H	 1.5603109171	 2.1709830208	-1.6425033553	 0.103113
H	 1.1980354283	 2.0084404132	-3.3826472226	 0.101081
H	-1.125215614	 2.7663731745	-2.6344841509	 0.082084
H	-1.903594004	-0.1734045371	-0.4387377393	 0.07788
H	 0.36070607	-1.3702036469	-0.773719005	 0.080551
H	 0.791652212	 1.1198119896	 0.3824473181	 0.288258
H	-1.5039082654	-0.0057770943	-3.2906404222	 0.075134
157.4516	201.3666	241.2615	258.2188	293.1081	417.7557	464.1699	520.5238	581.5429	621.3225	690.1949	750.5161	805.0094	827.0543	843.5494	864.2233	905.697	945.0008	964.1896	983.4081	988.2944	1028.0382	1099.5595	1119.9308	1133.9516	1144.1954	1160.6363	1183.1719	1208.0037	1238.8039	1262.6605	1274.065	1279.4465	1291.2354	1329.526	1367.2292	1409.2604	1434.529	1472.5986	1490.1658	1491.72	3018.5116	3038.9545	3043.1226	3085.4953	3087.0538	3092.7959	3094.8833	3097.5894	3158.495	3737.5156
CC12CC3OC(C1O)C23	C[C@]12C[C@@H]3O[C@H]([C@@H]1O)[C@H]23	
InChI=1S/C7H10O2/c1-7-2-3-4(7)5(9-3)6(7)8/h3-6,8H,2H2,1H3	InChI=1S/C7H10O2/c1-7-2-3-4(7)5(9-3)6(7)8/h3-6,8H,2H2,1H3/t3-,4+,5-,6-,7+/m0/s1
