19
gdb 2889	3.2808969	1.5239352	1.2899088	2.2147	73.81	-0.24067	0.06899	0.30966	1026.4559	0.158104	-422.520445	-422.512936	-422.511992	-422.551909	30.25	
C	 1.386665269	 1.3005621884	-0.096917016	-0.42256
C	 1.1552940739	-0.2005647069	 0.0353208584	 0.035489
C	 1.7732507336	-1.0564325898	-1.1006770468	 0.042944
O	 3.185446598	-0.701159373	-1.0107897368	-0.290297
C	 3.1548330932	-1.4727551597	 0.1945195035	 0.115872
C	 2.0456928646	-2.407989523	-0.3361020964	-0.079611
C	 1.3494722019	-2.3678847289	 1.0302972583	 0.114939
O	 1.9631605193	-3.3379772323	 1.8579313867	-0.450812
C	 1.957638702	-0.9426075631	 1.1301586961	-0.152214
H	 1.0452783478	 1.8264497569	 0.8008129346	 0.108715
H	 2.4461188195	 1.5173820245	-0.2462007161	 0.138367
H	 0.8325452041	 1.7076109833	-0.9504121102	 0.109785
H	 0.0833779512	-0.4056056624	 0.1412054343	 0.069115
H	 1.3702080922	-0.9975572641	-2.1114082955	 0.077692
H	 4.1201810827	-1.7485150518	 0.609642394	 0.093764
H	 2.2260736226	-3.3199981156	-0.9012067759	 0.084136
H	 0.2536544042	-2.4398646932	 1.073919149	 0.061813
H	 1.7248095369	-3.1410918326	 2.7694246824	 0.283194
H	 2.1174812932	-0.4522241367	 2.0904002864	 0.059671
192.0471	215.0023	234.9607	239.3283	307.1085	361.3645	466.3909	499.2884	576.7877	700.0896	747.1226	812.5394	849.2475	851.9031	870.6315	881.8568	933.2823	952.9451	960.8353	1006.0528	1017.2175	1036.456	1068.8453	1084.8326	1116.8914	1126.3564	1166.1131	1167.645	1195.9301	1204.6201	1225.6572	1255.9789	1279.0236	1289.1844	1325.2674	1333.9543	1389.163	1403.801	1420.6592	1492.0102	1507.0856	2997.2125	3031.8746	3038.6972	3092.2898	3117.7459	3124.436	3134.9613	3144.81	3164.7732	3815.587
CC1C2OC3C2C(O)C13	C[C@H]1[C@H]2O[C@@H]3[C@H]2[C@@H](O)[C@H]13	
InChI=1S/C7H10O2/c1-2-3-5(8)4-6(2)9-7(3)4/h2-8H,1H3	InChI=1S/C7H10O2/c1-2-3-5(8)4-6(2)9-7(3)4/h2-8H,1H3/t2-,3+,4+,5+,6-,7+/m1/s1
