19
gdb 1174	4.5531762	0.598415	0.5825314	1.819	78.7	-0.26305	0.01385	0.2769	1868.9392	0.153535	-422.561465	-422.55073	-422.549786	-422.599277	36.375	
C	 2.7749128934	 0.3387172939	 0.701906107	-0.476716
C	 1.2974174594	 0.1605932334	 0.44958455	 0.426194
O	 0.4121172381	 0.5086165483	 1.1892715733	-0.353664
O	 1.0916022239	-0.4489512234	-0.7406299461	-0.242599
C	-0.2791379012	-0.6820445424	-1.1116187593	-0.07569
C	-0.794032392	-1.9972099712	-0.535909343	-0.191306
C	-2.23775127	-2.2834441362	-0.9957075513	-0.356897
C	-2.751805851	-3.5471536597	-0.4830872405	 0.291829
C	-3.1533318315	-4.5937172941	-0.0498672468	-0.431548
H	 2.9221726709	 0.8361900266	 1.6595644864	 0.148648
H	 3.2734248038	-0.6347382189	 0.7055924918	 0.150797
H	 3.2240070408	 0.9299167337	-0.1010453969	 0.150367
H	-0.8897028581	 0.1579372304	-0.7695137301	 0.130984
H	-0.2739907274	-0.7049694586	-2.2051223964	 0.112066
H	-0.1388250593	-2.8159695519	-0.850190934	 0.117756
H	-0.7622136774	-1.9494467548	 0.5560323573	 0.136075
H	-2.8940841146	-1.4648035219	-0.6724712416	 0.138271
H	-2.2809217894	-2.2922551105	-2.0932903731	 0.130068
H	-3.5187283386	-5.5154523928	 0.3295994333	 0.195366
42.9261	51.3412	75.8456	76.5613	105.2736	148.5088	279.539	301.8715	332.7625	345.9657	470.7847	532.1712	610.9996	618.6882	638.0892	655.2925	750.8731	830.8502	887.9157	950.3622	995.3901	1035.04	1062.1314	1064.0762	1075.9037	1121.6012	1233.4195	1257.0286	1278.2086	1313.7283	1334.8669	1371.9583	1392.5756	1426.4492	1469.0839	1474.8009	1475.7651	1484.1489	1503.3239	1823.6008	2241.2856	3012.9226	3042.8785	3053.6925	3057.3941	3062.5981	3099.6219	3122.2513	3122.7337	3169.6485	3507.7499	42.9268	51.342	75.846	76.5618	105.2735	148.5089	279.539	301.8715	332.7625	345.9651	470.7846	532.1709	610.9995	618.6879	638.089	655.2925	750.873	830.8502	887.9158	950.3622	995.3901	1035.04	1062.1315	1064.0762	1075.9038	1121.601	1233.4193	1257.0286	1278.2085	1313.7281	1334.8669	1371.9582	1392.5755	1426.4492	1469.0836	1474.8006	1475.7649	1484.1488	1503.3237	1823.6003	2241.2853	3012.9226	3042.8785	3053.6925	3057.3941	3062.5981	3099.6219	3122.2513	3122.7337	3169.6485	3507.7501
CC(=O)OCCCC#C	CC(=O)OCCCC#C	
InChI=1S/C7H10O2/c1-3-4-5-6-9-7(2)8/h1H,4-6H2,2H3	InChI=1S/C7H10O2/c1-3-4-5-6-9-7(2)8/h1H,4-6H2,2H3
