19
gdb 5624	2.4412857	1.6462207	1.1856601	2.4017	76.12	-0.24009	-0.00646	0.23363	1100.368	0.155329	-422.529949	-422.52101	-422.520066	-422.563813	32.904	
C	 1.4741063014	-0.175013233	 0.1012212133	-0.234943
O	 0.09204965	 0.0820152039	-0.002556955	-0.241883
C	-0.473813925	 0.7678436498	 1.0951867393	 0.040043
C	-1.9846309613	 0.7241124482	 0.9566467383	-0.113163
C	-2.5354306365	 1.9360533411	 0.9997987161	-0.082653
C	-1.4693416861	 2.977085117	 1.1316106871	-0.06548
O	-0.5594717573	 3.0008750403	 0.0072253044	-0.29057
C	-0.171344618	 2.2864120656	 1.1865484304	 0.380468
C	 1.0307693372	 2.8074133193	 1.9286811284	-0.497833
H	 1.7288847443	-0.6525065992	 1.0608859854	 0.100204
H	 1.7330205718	-0.8586338931	-0.7113129198	 0.129569
H	 2.0800335896	 0.7351554198	-0.0060929244	 0.114976
H	-0.1487810289	 0.2832510841	 2.0347738486	 0.065418
H	-2.4989392572	-0.2138965096	 0.7850365235	 0.111165
H	-3.5906073193	 2.1644326353	 0.913624608	 0.107489
H	-1.6490574095	 3.9395666104	 1.6026066201	 0.093689
H	 1.0833153086	 2.376133396	 2.9340576375	 0.121977
H	 1.9606652262	 2.5574056089	 1.4082216757	 0.131285
H	 0.98083473	 3.8956631252	 2.0194695931	 0.130242
50.2474	119.1145	168.0622	214.235	242.4285	272.9641	303.8058	358.9167	453.7409	513.9454	571.539	614.6861	713.8092	759.6446	824.2945	876.9969	898.4776	950.0065	966.4104	996.4577	1009.7449	1029.8168	1063.9882	1108.6557	1136.8982	1159.7891	1178.0442	1218.3895	1227.4324	1276.3779	1309.4545	1350.4429	1374.4786	1409.7151	1450.3078	1475.5826	1480.1698	1494.05	1496.8147	1510.7126	1677.43	2926.7934	2976.5259	3034.2659	3039.1285	3102.3776	3111.1419	3118.7397	3153.6362	3198.4434	3222.5826
COC1C=CC2OC12C	CO[C@@H]1C=C[C@@H]2O[C@]12C	
InChI=1S/C7H10O2/c1-7-5(8-2)3-4-6(7)9-7/h3-6H,1-2H3	InChI=1S/C7H10O2/c1-7-5(8-2)3-4-6(7)9-7/h3-6H,1-2H3/t5-,6+,7-/m1/s1
