19
gdb 4340	2.2435255	1.5062196	0.9961213	3.2228	77.33	-0.23485	-0.0176	0.21725	1191.6813	0.157449	-422.587094	-422.578461	-422.577517	-422.620385	32.688	
O	-1.9533914395	 2.9813495148	-1.2811893334	-0.420798
C	-1.5587984566	 1.6180776303	-1.3351887601	 0.122688
C	-2.787404405	 0.6869491616	-1.4173771954	-0.281014
C	-2.4578250518	-0.7084444053	-1.8868270403	-0.054369
C	-1.6653507468	-1.5618173575	-1.237686156	-0.062892
C	-0.9822770737	-1.2583445481	 0.0790410192	-0.343248
C	-0.0078373828	-0.0897874176	-0.0983319484	 0.381461
O	 1.1834706338	-0.2674612273	-0.1867153497	-0.29786
C	-0.6149599447	 1.3085625735	-0.1510591011	-0.310487
H	-2.457794932	 3.1136786006	-0.4702975534	 0.278014
H	-0.9934972081	 1.531300155	-2.2691292176	 0.107677
H	-3.2737096072	 0.6589276049	-0.4290869136	 0.096199
H	-3.4987084109	 1.1558360856	-2.1023203175	 0.115868
H	-2.8813435354	-1.0152248389	-2.8393582657	 0.098044
H	-1.4523847513	-2.531160835	-1.6782578724	 0.103954
H	-1.7265287408	-0.9976751395	 0.8433775179	 0.114175
H	-0.4121948918	-2.1196785569	 0.4299430933	 0.124399
H	-1.1896791139	 1.4550822641	 0.7769057528	 0.09728
H	 0.2052740586	 2.0293342257	-0.1618177585	 0.130908
91.3854	104.4315	167.6097	283.3591	294.1769	305.5237	365.2534	426.5201	451.2301	465.1844	529.8664	607.2588	701.0264	708.5419	852.7216	878.5186	888.3548	921.9612	958.7022	993.2566	1016.3799	1032.6525	1061.0525	1097.832	1139.2346	1174.5741	1208.641	1246.475	1256.8053	1280.9796	1300.0311	1307.1083	1354.8162	1364.1535	1407.6685	1424.5245	1465.2792	1472.8488	1488.4822	1711.7882	1813.9726	2980.6562	2993.8397	3018.8828	3062.8787	3091.4056	3115.1226	3121.469	3156.4197	3180.8246	3794.3109
OC1CC=CCC(=O)C1	O[C@@H]1CC=CCC(=O)C1	
InChI=1S/C7H10O2/c8-6-3-1-2-4-7(9)5-6/h1-2,6,8H,3-5H2	InChI=1S/C7H10O2/c8-6-3-1-2-4-7(9)5-6/h1-2,6,8H,3-5H2/t6-/m1/s1
