19
gdb 3635	4.2274442	0.9112958	0.8032517	2.3892	77.43	-0.25246	0.00457	0.25703000000000004	1416.8452	0.157091	-422.54368	-422.535109	-422.534165	-422.577671	31.887	
O	 2.4217804022	 3.0010181423	-0.2009110668	-0.431619
C	 3.293727821	 1.8812088941	-0.2705242664	 0.106828
C	 2.9872472849	 0.9018404499	-1.4346480547	-0.265712
C	 3.2522386553	-0.5243629379	-0.8830528346	-0.052213
C	 3.2266673041	-0.307449637	 0.6175984722	-0.08184
C	 3.2554269918	 0.9824873395	 0.9447706149	-0.12899
C	 2.2615255569	-1.5623977841	-1.3600412128	 0.090031
C	 2.6260459707	-2.972332973	-1.5489359047	-0.185702
O	 2.4685975228	-2.0991401141	-2.6684276962	-0.238941
H	 1.5348801541	 2.6644087658	-0.0297805277	 0.272777
H	 4.2886424393	 2.3307292683	-0.3836063296	 0.096779
H	 1.9246226859	 1.0048251269	-1.687521959	 0.09842
H	 3.553930338	 1.1207944877	-2.3414208357	 0.114238
H	 4.2492540094	-0.8694486043	-1.1916036285	 0.088004
H	 3.223983011	-1.1360720468	 1.318434587	 0.098988
H	 3.2856847757	 1.3866229215	 1.9507651358	 0.102694
H	 1.2161102971	-1.335899344	-1.1366930246	 0.088604
H	 3.6477426376	-3.294118077	-1.3489975613	 0.112513
H	 1.8684694221	-3.7484023678	-1.4487983974	 0.11514
56.0224	69.5383	166.872	215.289	306.3879	341.0964	371.8732	384.8524	491.7433	556.2804	601.4048	765.591	781.4966	838.6246	862.066	869.2772	915.9243	951.6924	984.6781	1003.9198	1033.9756	1038.5359	1085.6772	1110.76	1135.3911	1149.4963	1159.6354	1174.5087	1190.1795	1245.0078	1275.3033	1285.1699	1291.9778	1308.991	1325.7557	1373.5909	1429.7407	1444.5294	1484.7972	1528.9511	1681.7956	3004.6039	3026.0962	3037.6317	3078.7125	3083.1351	3115.0014	3166.0915	3177.6779	3205.2073	3794.0655
OC1CC(C=C1)C1CO1	O[C@@H]1C[C@@H](C=C1)[C@@H]1CO1	
InChI=1S/C7H10O2/c8-6-2-1-5(3-6)7-4-9-7/h1-2,5-8H,3-4H2	InChI=1S/C7H10O2/c8-6-2-1-5(3-6)7-4-9-7/h1-2,5-8H,3-4H2/t5-,6+,7+/m1/s1
