19
gdb 5197	3.2394224	1.4043569	1.3709104	2.0759	74.18	-0.23412	0.07246	0.30657999999999996	1024.3704	0.158473	-422.520637	-422.513177	-422.512233	-422.552429	29.762	
O	 1.1919894402	 0.7972647729	 0.1622190585	-0.425567
C	 0.0962887239	-0.0870189641	-0.0481911037	-0.213816
C	-0.9897589873	 0.6803693495	-0.7474159909	 0.315675
C	-0.7437586203	 1.4539392966	-2.0739243743	-0.290182
C	-1.9483849709	 2.2977069709	-1.6305095589	-0.082484
C	-3.1037881029	 1.3338012556	-1.1401384881	 0.068153
C	-2.341532583	-0.0031868689	-1.0465273972	-0.274439
O	-2.9636994803	 1.8298678271	 0.2260505748	-0.297613
C	-1.6001573251	 2.0481377116	-0.1503594854	 0.080679
H	 1.885643084	 0.3136162863	 0.619777919	 0.288639
H	 0.3993812938	-0.9552572562	-0.6572883292	 0.086181
H	-0.2891541746	-0.4768738155	 0.9080390036	 0.091202
H	 0.1782858547	 2.0387249336	-2.040978088	 0.117534
H	-0.7946867186	 0.8859050266	-3.0079678793	 0.089249
H	-2.2212595938	 3.2702880067	-2.0354011906	 0.075781
H	-4.1250048583	 1.3611447273	-1.5175478647	 0.078719
H	-2.7381178078	-0.6094919036	-0.2286809793	 0.104038
H	-2.3231492967	-0.5891250787	-1.9698141505	 0.094827
H	-1.0032575772	 2.6697611523	 0.5132045742	 0.093426
99.1904	178.7574	225.6263	281.2007	380.5824	431.3167	487.0522	534.5703	646.2815	677.6757	726.4194	804.5256	823.9144	851.8409	875.263	920.8137	929.4944	963.6108	987.6956	1006.3716	1025.8792	1036.197	1067.9761	1079.1004	1116.0211	1136.805	1160.3394	1195.2263	1207.0832	1213.5442	1231.7335	1248.7825	1268.8932	1285.5502	1297.5883	1334.6319	1350.684	1464.1391	1478.7562	1506.6209	1513.3399	2956.1601	2985.3793	3050.3535	3060.0379	3114.9141	3118.7342	3129.3286	3138.7396	3153.9458	3833.3749
OCC12CC3C(C1)OC23	OC[C@@]12C[C@H]3[C@@H](C1)O[C@@H]23	
InChI=1S/C7H10O2/c8-3-7-1-4-5(2-7)9-6(4)7/h4-6,8H,1-3H2	InChI=1S/C7H10O2/c8-3-7-1-4-5(2-7)9-6(4)7/h4-6,8H,1-3H2/t4-,5+,6+,7+/m0/s1
