19
gdb 5072	3.9506759	1.0985365	0.9866231	4.8179	75.37	-0.25895	0.01237	0.27132	1245.4705	0.157617	-422.595833	-422.58737	-422.586426	-422.629041	31.633	
C	 2.4639115256	-1.0473958212	 1.1485380644	-0.381358
C	 1.7398958716	-0.5426371374	-0.1068900209	-0.286146
C	 2.4348914134	-0.9309758633	-1.3924569926	 0.339905
C	 2.1963790316	-2.2592193126	-2.0439165294	-0.327885
C	 1.7478783975	-0.9815771257	-2.7388541889	-0.267498
C	 2.7215562673	-0.4549275286	-3.7415964924	 0.459467
O	 2.5578567573	-0.2242791855	-4.9039089399	-0.346567
O	 3.9291613577	-0.2544517561	-3.1226687345	-0.235905
C	 3.8072765557	-0.3348206526	-1.6948709279	-0.142962
H	 2.5533441306	-2.1384759117	 1.1398249135	 0.123577
H	 3.4740769054	-0.6309759088	 1.2246224111	 0.122339
H	 1.920949014	-0.7599491183	 2.0534982304	 0.120997
H	 0.7178489346	-0.9389727767	-0.1240829673	 0.104914
H	 1.6454255383	 0.5503047283	-0.0636194563	 0.106449
H	 3.0298526008	-2.8117298222	-2.4666662764	 0.131367
H	 1.4019992002	-2.8770899817	-1.6392250443	 0.124456
H	 0.6956565263	-0.7898825775	-2.899652427	 0.116779
H	 4.6383678047	-0.9399573808	-1.3199557619	 0.122348
H	 3.8960868372	 0.6775293823	-1.2810924995	 0.115723
81.4978	119.4009	180.1875	203.7203	243.5628	337.2093	374.9853	377.206	493.407	594.6792	668.9406	725.3155	773.7162	787.2382	819.3591	898.6264	921.3358	959.4168	979.7323	993.1696	1044.6022	1053.2605	1066.6211	1078.0302	1092.5153	1131.4367	1176.5743	1225.9256	1249.5502	1264.4342	1342.0839	1358.1866	1381.9936	1411.7448	1421.8047	1481.5168	1494.4683	1499.1183	1506.8325	1519.6812	1883.0165	3020.5333	3026.9567	3036.4454	3058.4373	3081.0023	3104.1559	3112.018	3126.9101	3210.056	3218.1491
CCC12CC1C(=O)OC2	CC[C@@]12C[C@@H]1C(=O)OC2	
InChI=1S/C7H10O2/c1-2-7-3-5(7)6(8)9-4-7/h5H,2-4H2,1H3	InChI=1S/C7H10O2/c1-2-7-3-5(7)6(8)9-4-7/h5H,2-4H2,1H3/t5-,7+/m1/s1
