19
gdb 1359	2.7142875	0.8757029	0.7806372	2.0942	77.62	-0.24337	-0.01168	0.23169	1515.1049	0.152518	-422.547733	-422.536956	-422.536012	-422.584687	37.785	
C	 2.5549287643	-3.7814182663	-2.5960524442	-0.483494
C	 3.0430058853	-3.721367273	-1.1607588382	 0.393812
O	 3.7569782278	-4.5770870039	-0.6913944735	-0.300511
C	 2.6003246943	-2.525249427	-0.3215898999	-0.327017
C	 2.9533181817	-1.1757846825	-0.95989129	 0.116146
O	 4.3157302614	-1.1289877564	-1.3594524119	-0.425028
C	 2.6261671569	 0.0179972144	-0.0316271871	-0.372774
C	 1.2059986576	 0.1494727154	 0.261874861	 0.29984
C	 0.0260760474	 0.2320699879	 0.4771151267	-0.447024
H	 2.7483224382	-4.7728313782	-3.0071571335	 0.141399
H	 1.4894838337	-3.5406997815	-2.6714278475	 0.130875
H	 3.102097139	-3.0384009971	-3.1874168347	 0.161348
H	 1.5155600117	-2.5702677642	-0.1652253777	 0.135951
H	 3.0807795336	-2.6199068922	 0.6592774024	 0.111129
H	 2.3835202945	-1.046004381	-1.8859862144	 0.107032
H	 4.8586769633	-1.4367824783	-0.6243456854	 0.289278
H	 3.1941751875	-0.0918240694	 0.9024708671	 0.124964
H	 2.9985320893	 0.9260430218	-0.5192962104	 0.143649
H	-1.0130543874	 0.3186732513	 0.6780836913	 0.200423
37.7425	58.755	89.1601	143.3826	147.5154	169.3249	292.5235	302.3812	358.0643	377.5158	422.2755	444.2985	514.1133	533.2331	584.4444	629.9591	653.7933	775.9643	844.1272	890.0083	948.9074	972.9331	1000.0607	1048.2875	1083.2114	1108.0735	1154.0226	1197.972	1243.7026	1282.5413	1304.61	1354.254	1375.7725	1379.9679	1423.3954	1462.9208	1468.1658	1470.2658	1481.2435	1813.8751	2237.3494	3016.18	3032.888	3039.5726	3056.9105	3070.1905	3087.7794	3103.6938	3152.0892	3505.1947	3795.064
CC(=O)CC(O)CC#C	CC(=O)C[C@H](O)CC#C	
InChI=1S/C7H10O2/c1-3-4-7(9)5-6(2)8/h1,7,9H,4-5H2,2H3	InChI=1S/C7H10O2/c1-3-4-7(9)5-6(2)8/h1,7,9H,4-5H2,2H3/t7-/m1/s1
