19
gdb 4660	1.8290847	1.45753	1.0473274	1.9474	77.08	-0.23785	-0.02358	0.21427000000000002	1240.0725	0.153448	-422.542182	-422.531723	-422.530779	-422.577993	37.201	
C	 4.9981978304	 0.9033539028	 0.2690123261	-0.400836
C	 3.5652977113	 1.378244633	 0.5299981068	-0.093164
C	 2.5575245968	 0.2257041674	 0.2483474469	-0.35137
C	 1.1621879553	 0.5627239193	 0.5132951716	 0.298677
C	 0.012488843	 0.8501958631	 0.7271870553	-0.448285
C	 3.2148026846	 2.561702201	-0.381163188	 0.342274
O	 3.5519823224	 2.5885749973	-1.5423755595	-0.3166
C	 2.4114113989	 3.7271397507	 0.2118630337	-0.16214
O	 1.8772039838	 3.5122006952	 1.4963897864	-0.409718
H	 5.2258924423	 0.0119484484	 0.8617020029	 0.112356
H	 5.1354923034	 0.6705273249	-0.7900523734	 0.141237
H	 5.7204331634	 1.6798319151	 0.5368340046	 0.122645
H	 3.4425442137	 1.6924761953	 1.5692966242	 0.110653
H	 2.6625465559	-0.0749414716	-0.801454866	 0.153221
H	 2.8410293109	-0.6412300036	 0.8569602992	 0.138074
H	-1.0131405658	 1.0659253311	 0.9024215074	 0.208281
H	 3.1019593242	 4.5763333159	 0.2913158166	 0.13977
H	 1.6515882149	 4.0089334078	-0.53135745	 0.124168
H	 1.2163130906	 2.8102175172	 1.4246414951	 0.290758
52.9029	73.5602	115.1052	150.9123	198.2341	214.2191	236.7003	283.5393	351.5	361.6522	475.1581	514.0411	521.9237	571.369	621.09	624.2715	658.2928	716.9244	878.628	912.961	957.6633	972.6886	1054.2334	1085.6104	1105.1966	1116.4651	1150.1379	1209.6956	1227.8482	1304.7282	1349.7693	1357.9728	1378.5856	1406.752	1423.8319	1458.0579	1468.0175	1491.0753	1502.0109	1807.2068	2223.6505	3006.5351	3028.2545	3042.6394	3059.0955	3064.446	3089.6809	3111.0818	3128.2755	3497.7038	3742.011
CC(CC#C)C(=O)CO	C[C@H](CC#C)C(=O)CO	
InChI=1S/C7H10O2/c1-3-4-6(2)7(9)5-8/h1,6,8H,4-5H2,2H3	InChI=1S/C7H10O2/c1-3-4-6(2)7(9)5-8/h1,6,8H,4-5H2,2H3/t6-/m1/s1
