19
gdb 2592	2.5806692	1.4136209	1.0093917	2.962	79.2	-0.23821	-0.03296	0.20525	1198.3306	0.155916	-422.573173	-422.564155	-422.56321	-422.607309	32.735	
C	 1.3550242547	 0.6712672749	 0.7459144625	-0.481136
C	-0.0152193508	 0.1917516997	 0.3536716593	 0.265861
C	-1.0218956947	 1.011460283	 0.0408517192	-0.163417
C	-2.4209958909	 0.5187945192	-0.2126510846	-0.258665
C	-2.5847425249	-0.8552961914	 0.4296610839	-0.075595
O	-1.5433782756	-1.7269914449	 0.0165428576	-0.276369
C	-0.2369996494	-1.3140265184	 0.3624668388	-0.024655
C	 0.672704377	-1.9606030387	-0.6882227565	 0.141903
O	 1.8453718237	-2.1763502246	-0.536960879	-0.244333
H	 1.5838457241	 0.38960994	 1.7817396994	 0.128519
H	 2.1401207319	 0.2257968974	 0.1276378731	 0.151114
H	 1.4196540865	 1.7595138365	 0.6687381841	 0.120755
H	-0.846707962	 2.0845896293	 0.0239883208	 0.088994
H	-3.1525431212	 1.2175674328	 0.211414234	 0.106618
H	-2.635494389	 0.4597621146	-1.2882821121	 0.117914
H	-2.5917024289	-0.7566681098	 1.5262936925	 0.095689
H	-3.5148158349	-1.3425700689	 0.1253408076	 0.110571
H	 0.0583776248	-1.7168430491	 1.3470692339	 0.099044
H	 0.1317805394	-2.1977693615	-1.6296699246	 0.097189
56.4929	95.9495	155.7396	209.8766	215.4678	303.4901	334.9823	361.7981	408.3082	480.4755	549.5863	566.2772	647.0147	799.3681	852.1935	877.2569	936.1964	952.3182	1012.5128	1043.186	1059.4475	1073.3746	1085.8685	1102.4545	1145.2344	1172.7093	1231.8538	1258.7234	1299.7435	1317.2103	1352.2262	1360.5428	1391.8259	1413.3773	1420.9672	1471.4364	1476.2712	1491.5312	1501.7311	1730.7332	1834.6409	2907.8234	2953.8032	2987.1271	3016.6222	3027.2434	3054.8773	3087.3896	3093.4442	3122.6802	3151.7531
CC1=CCCOC1C=O	CC1=CCCO[C@H]1C=O	
InChI=1S/C7H10O2/c1-6-3-2-4-9-7(6)5-8/h3,5,7H,2,4H2,1H3	InChI=1S/C7H10O2/c1-6-3-2-4-9-7(6)5-8/h3,5,7H,2,4H2,1H3/t7-/m0/s1
