19
gdb 1338	2.7929043	1.2789869	1.0399056	2.2665	75.85	-0.24177	-0.02195	0.21982000000000002	1201.1266	0.155058	-422.498861	-422.490155	-422.489211	-422.53281	31.94	
C	 2.089340714	-0.559905829	-1.6504355229	-0.417453
C	 0.7025364177	 0.0691644016	-1.4206397387	-0.121314
C	-0.2548952996	-0.3705585109	-2.5108302194	 0.15764
O	-0.9761853932	 0.3621309947	-3.1399277087	-0.25427
C	 0.747786233	 1.5818101259	-1.2932982675	 0.049012
C	-0.4403587671	 2.310629544	-0.6092392215	 0.042277
C	 0.4790228204	 3.5167508586	-0.3115360082	-0.225035
C	 1.2181290354	 2.2084941978	 0.0513504673	 0.023205
O	-0.0261963234	 1.7206528847	 0.6933493777	-0.319293
H	 2.7444095417	-0.3714036657	-0.7958187357	 0.129978
H	 2.0161346903	-1.644679051	-1.7805623171	 0.122877
H	 2.5701587287	-0.1460826842	-2.5434631876	 0.125972
H	 0.2938461665	-0.337825703	-0.4840600097	 0.121835
H	-0.2535641983	-1.4699669493	-2.7010637235	 0.075713
H	 1.1281288667	 2.0610076649	-2.2003979258	 0.078576
H	-1.4989464126	 2.2831660055	-0.8620398796	 0.107711
H	 0.8483630057	 4.1059281803	-1.1544538153	 0.099402
H	 0.1786569046	 4.1243683124	 0.542102955	 0.110407
H	 2.1511190194	 2.0678891028	 0.5989701312	 0.092761
58.9668	106.3616	134.6771	199.3347	220.6007	253.1297	361.6374	426.0961	498.9606	638.0795	652.334	756.0156	785.6258	835.7882	880.7612	882.3723	914.9593	924.241	930.7	985.039	1031.7102	1033.2273	1076.0587	1127.6088	1131.1725	1138.1827	1145.6285	1183.8679	1188.8537	1211.4507	1254.3507	1279.3882	1287.9888	1317.3859	1405.2116	1405.6222	1434.7144	1488.6109	1497.8522	1503.5906	1823.7492	2854.5053	3015.2778	3034.7417	3062.9111	3072.9526	3100.9623	3108.4101	3115.9979	3139.4589	3153.952
CC(C=O)C1C2CC1O2	C[C@H](C=O)[C@H]1[C@@H]2C[C@H]1O2	
InChI=1S/C7H10O2/c1-4(3-8)7-5-2-6(7)9-5/h3-7H,2H2,1H3	InChI=1S/C7H10O2/c1-4(3-8)7-5-2-6(7)9-5/h3-7H,2H2,1H3/t4-,5-,6+,7-/m1/s1
