19
gdb 634	3.8200471	1.22489	1.1953704	1.4511	76.83	-0.24229	0.01704	0.25933	1116.387	0.15858	-422.569486	-422.561611	-422.560667	-422.602692	29.57	
C	 0.0324795937	 0.8751435505	-0.7102377291	 0.015811
O	 0.0695492439	 0.533374222	 0.6521066402	-0.238072
C	 1.4517263634	 0.534019993	 0.9627174807	-0.175703
C	 2.0246229352	 1.705212082	 0.1350889086	 0.380384
C	 3.4557026601	 1.4854988771	-0.4132183349	-0.280191
C	 4.1737182886	 2.8531812408	-0.3145081792	-0.261977
C	 3.2807462622	 3.6454794114	 0.6088861962	-0.075818
C	 2.1303383132	 3.0257337576	 0.8596935736	-0.101407
O	 1.04789793	 1.8299389317	-0.9282264525	-0.305244
H	 0.2071897189	-0.0175564311	-1.3400940784	 0.079093
H	-0.9458860485	 1.3088902736	-0.9407468037	 0.115964
H	 1.5691773414	 0.6676397787	 2.0399611481	 0.12106
H	 1.9235588538	-0.4162518607	 0.6637357725	 0.091343
H	 3.9735655677	 0.7485499329	 0.2102551196	 0.102922
H	 3.4141320668	 1.0872399031	-1.4290398661	 0.112815
H	 5.1956056767	 2.7578165612	 0.0698446186	 0.105389
H	 4.2587091297	 3.3493325159	-1.2900257253	 0.116982
H	 3.5603452717	 4.6219737714	 0.990033154	 0.096973
H	 1.3114472915	 3.4052103088	 1.4602384672	 0.099673
48.1479	76.9568	207.3616	270.1134	300.2494	398.6776	422.8559	494.8399	704.8116	735.3683	754.024	774.9201	802.2243	839.0699	911.601	939.5511	969.841	978.3842	987.4527	997.4552	1044.9063	1072.6179	1104.8477	1112.4729	1165.8687	1171.0756	1188.0013	1207.765	1216.5526	1246.8103	1278.5092	1307.3454	1323.7546	1359.3575	1387.0634	1428.7527	1467.9207	1491.5472	1506.3284	1545.7971	1686.9562	2922.424	2971.966	3024.9	3044.4058	3061.1657	3072.7401	3109.3444	3113.6804	3182.152	3209.1509
C1OCC2(CCC=C2)O1	C1OC[C@@]2(CCC=C2)O1	
InChI=1S/C7H10O2/c1-2-4-7(3-1)5-8-6-9-7/h1,3H,2,4-6H2	InChI=1S/C7H10O2/c1-2-4-7(3-1)5-8-6-9-7/h1,3H,2,4-6H2/t7-/m1/s1
