19
gdb 3515	2.4109978	1.6162694	1.0575705	4.0264	77.43	-0.24407	-0.00404	0.24003000000000002	1153.5424	0.157276	-422.588126	-422.579443	-422.578498	-422.621689	32.275	
C	-0.0611394591	-2.522414703	 0.3543140696	-0.402692
C	-0.8090127499	-1.2764308583	-0.1267994212	-0.15782
C	-1.4619314978	-1.4934837797	-1.4779711213	-0.0457
C	-2.3439870144	-0.6448334558	-1.9968708986	-0.084345
C	-2.6904590084	 0.6443206253	-1.2956604054	-0.280064
C	-1.4824016334	 1.5729847764	-1.1739852329	-0.04589
O	-0.4085520934	 1.1819248459	-0.3024169464	-0.242655
C	 0.1187712605	-0.0542414046	-0.1021186539	 0.404809
O	 1.2771967077	-0.1308292118	 0.205993048	-0.302202
H	 0.3583123586	-2.3706952308	 1.3501982674	 0.131716
H	-0.743183662	-3.3777950992	 0.3837262334	 0.109343
H	 0.7669645313	-2.75941925	-0.3187700112	 0.134369
H	-1.6068267725	-1.0402074316	 0.5938655163	 0.110864
H	-1.1856535288	-2.4014813425	-2.007278919	 0.100381
H	-2.8044834636	-0.8503143535	-2.9585930854	 0.098961
H	-3.4557725898	 1.1947113596	-1.8527605247	 0.111621
H	-3.1099315588	 0.4528781852	-0.2981483273	 0.121341
H	-1.052198388	 1.738305862	-2.1697803259	 0.11762
H	-1.7956099483	 2.5432879265	-0.7770827414	 0.120344
73.9068	79.7875	216.2254	223.3409	280.6294	293.8018	342.5343	362.4333	475.9133	558.9253	570.3266	611.6985	709.9092	725.6085	822.4479	861.1703	889.8803	959.8348	990.3926	1018.6196	1034.1908	1073.2714	1082.0178	1116.1463	1144.095	1173.2247	1230.0045	1249.9766	1284.0362	1305.8095	1323.4957	1361.5355	1404.8506	1416.2209	1438.3119	1475.4796	1490.1943	1493.4052	1505.653	1721.8462	1825.9612	2989.5627	3013.6641	3027.8277	3048.6229	3077.5432	3085.9626	3119.6847	3139.3858	3157.8003	3181.6654
CC1C=CCCOC1=O	C[C@@H]1C=CCCOC1=O	
InChI=1S/C7H10O2/c1-6-4-2-3-5-9-7(6)8/h2,4,6H,3,5H2,1H3	InChI=1S/C7H10O2/c1-6-4-2-3-5-9-7(6)8/h2,4,6H,3,5H2,1H3/t6-/m1/s1
