19
gdb 4315	2.1534626	1.771953	1.0153556	3.5943	78.46	-0.25371	-0.05912	0.19458999999999999	1161.2658	0.157349	-422.604377	-422.595849	-422.594905	-422.637205	32.693	
C	-2.959903317	-2.4275311898	 1.0540457111	-0.409556
C	-2.1011912911	-1.1624212617	 1.020394153	-0.006518
C	-2.9144337888	 0.0866114392	 0.63735353	-0.272869
C	-2.0631694467	 1.3006694727	 0.3951376855	-0.051759
C	-0.7480221345	 1.2449305785	 0.1421726319	-0.136694
C	-0.0471759925	-0.0444679548	 0.0860808288	 0.342303
O	 1.1667000307	-0.1545836685	 0.0646324142	-0.359207
C	-0.9179195971	-1.3015955301	 0.0495026998	 0.050383
O	-0.1378470027	-2.4308559657	 0.3283045525	-0.449191
H	-3.7777394906	-2.3274084959	 1.7755511238	 0.108837
H	-3.4012291589	-2.6287436561	 0.0706422444	 0.111938
H	-2.35327585	-3.2910543486	 1.3342468724	 0.144256
H	-1.6771584427	-0.9997762949	 2.0211530244	 0.086146
H	-3.4973159407	-0.1178754491	-0.2756771708	 0.124307
H	-3.6605272265	 0.3075561692	 1.4099937723	 0.117743
H	-2.5601165182	 2.267915979	 0.4316051877	 0.113372
H	-0.1448066622	 2.1359067521	 0.0012005597	 0.113119
H	-1.3312593492	-1.3621067338	-0.9782864339	 0.082194
H	 0.7804081488	-2.1180256818	 0.2718260332	 0.291196
99.6183	141.8946	229.9011	261.2091	280.0571	337.5058	353.469	417.854	451.654	471.7285	511.7189	569.4018	648.8725	717.7279	784.6185	877.5658	888.25	911.2224	940.7604	992.4358	1023.4267	1101.44	1106.1007	1123.1615	1149.5901	1179.054	1206.7014	1243.9976	1280.2858	1325.1315	1331.9642	1369.1433	1384.3653	1405.5411	1413.7521	1441.6962	1465.4227	1492.4144	1503.64	1677.0179	1764.8192	2895.84	2985.3882	3014.9818	3030.5396	3051.64	3092.7677	3131.9747	3152.6528	3192.2249	3667.381
CC1CC=CC(=O)C1O	C[C@@H]1CC=CC(=O)[C@H]1O	
InChI=1S/C7H10O2/c1-5-3-2-4-6(8)7(5)9/h2,4-5,7,9H,3H2,1H3	InChI=1S/C7H10O2/c1-5-3-2-4-6(8)7(5)9/h2,4-5,7,9H,3H2,1H3/t5-,7+/m1/s1
