19
gdb 4159	2.267671	1.9227414	1.407416	1.856	74.78	-0.2377	0.01057	0.24827	997.6559	0.158491	-422.567488	-422.559662	-422.558717	-422.599382	31.077	
C	 1.3862924633	 0.1746738503	 0.6210594289	-0.513357
C	-0.0373894593	-0.1522179253	 0.319001123	 0.331688
C	-0.714563561	-1.3027680225	 0.3985327574	-0.211524
C	-2.1594980064	-0.9676507033	 0.0467169024	 0.02817
C	-2.7825734713	-0.211169835	 1.2582245021	-0.262936
C	-1.9783925193	 1.1239093576	 1.2060773799	 0.137705
O	-1.2503592532	 1.4485351657	 2.3740485706	-0.440229
C	-1.0968302065	 0.8781122805	-0.0755001458	-0.05722
O	-1.9957782989	 0.1176747531	-0.8846317461	-0.248791
H	 1.4516499865	 0.9456566057	 1.3982569143	 0.137865
H	 1.9433359226	-0.7045130486	 0.9566720391	 0.125982
H	 1.8921229327	 0.5825585622	-0.2631813795	 0.135074
H	-0.3567437918	-2.2713883776	 0.723217331	 0.099475
H	-2.7666165311	-1.7605242236	-0.388451099	 0.080138
H	-3.8496792709	-0.0435173183	 1.0962563161	 0.110154
H	-2.655962086	-0.7274013917	 2.2134160123	 0.096841
H	-2.6399418048	 1.9742810165	 1.0298980965	 0.096647
H	-0.7588698548	 0.6617666377	 2.6342457507	 0.278749
H	-0.7600680698	 1.7757175267	-0.5935430538	 0.075569
143.8738	160.0734	191.4637	297.1096	343.874	400.2225	418.1135	491.919	512.4654	600.9801	614.4928	722.7999	810.9515	826.5357	837.2757	855.6636	924.5161	935.0062	947.5953	975.4645	1007.0836	1033.8367	1063.9732	1066.3674	1093.4493	1138.1444	1164.7505	1198.8434	1242.095	1255.819	1278.5859	1297.4853	1321.7737	1333.3709	1347.5637	1411.5652	1433.4226	1478.8019	1486.3628	1492.7094	1694.5809	3020.9284	3064.6292	3070.3926	3092.1301	3110.4282	3115.5155	3124.9984	3129.2204	3215.9152	3805.0268
CC1=CC2CC(O)C1O2	CC1=C[C@H]2C[C@@H](O)[C@@H]1O2	
InChI=1S/C7H10O2/c1-4-2-5-3-6(8)7(4)9-5/h2,5-8H,3H2,1H3	InChI=1S/C7H10O2/c1-4-2-5-3-6(8)7(4)9-5/h2,5-8H,3H2,1H3/t5-,6+,7+/m0/s1
