19
gdb 2151	2.7288113	1.9480904	1.4380172	2.3803	73.67	-0.22485	0.0797	0.30455	955.203	0.157997	-422.521088	-422.51372	-422.512776	-422.552311	29.945	
C	 0.2727583612	-0.5043283492	-0.4484792928	-0.451765
C	 1.6654067628	-0.1139210536	-0.0001296095	 0.420735
C	 2.1723324724	-0.8817979391	 1.2297679245	-0.260274
C	 3.7070363749	-0.903753825	 1.253226652	-0.076909
O	 4.2637972712	 0.3387936952	 0.8367253261	-0.250196
C	 3.9077662966	 0.6802217149	-0.4688535187	 0.077766
C	 2.6858028405	 1.5141445694	-0.7454582451	 0.061663
O	 1.7145390589	 1.3322839005	 0.272806445	-0.322348
C	 2.7070934122	 0.0467397816	-1.1267634837	-0.26941
H	-0.4382418475	-0.3803134827	 0.3747871623	 0.127061
H	-0.0510707851	 0.1241809257	-1.2824538932	 0.124787
H	 0.2500646427	-1.5519073339	-0.7681669846	 0.114015
H	 1.7738483662	-0.3768356398	 2.1157174711	 0.120462
H	 1.7930198084	-1.9102722491	 1.2337084534	 0.094757
H	 4.0911467105	-1.0837484938	 2.2601686286	 0.109759
H	 4.0754286978	-1.7099020245	 0.6004900571	 0.09092
H	 4.7612743186	 0.8656705088	-1.1187981214	 0.09454
H	 2.6628025456	 2.4318481558	-1.3218276158	 0.100817
H	 2.7060254421	-0.470365341	-2.0775579853	 0.093619
172.2557	232.7759	251.5406	288.0159	346.8166	391.3998	457.1937	491.932	631.1696	650.1519	712.2025	749.7748	794.7514	852.3066	861.6833	882.1496	931.6558	946.4685	979.7772	1013.1371	1040.4367	1052.268	1065.3054	1066.1769	1100.5894	1146.8136	1165.1024	1193.7334	1238.1971	1258.6302	1272.8894	1308.7773	1330.328	1370.9089	1395.203	1407.3069	1424.978	1464.4036	1484.1666	1489.8449	1503.4528	2986.357	3032.5906	3040.3208	3085.7885	3101.2679	3104.779	3118.4948	3123.3678	3177.3731	3193.2543
CC12CCOC3C(O1)C23	C[C@]12CCO[C@@H]3[C@H](O1)[C@H]23	
InChI=1S/C7H10O2/c1-7-2-3-8-5-4(7)6(5)9-7/h4-6H,2-3H2,1H3	InChI=1S/C7H10O2/c1-7-2-3-8-5-4(7)6(5)9-7/h4-6H,2-3H2,1H3/t4-,5+,6-,7-/m1/s1
