19
gdb 1104	3.044842	1.3629889	1.2259807	1.9469	74.33	-0.23987	-0.0234	0.21647	1096.3649	0.157205	-422.557853	-422.549583	-422.548639	-422.591669	30.891	
C	-0.2680803099	-2.0578374266	-3.9992181214	-0.480954
C	-0.4828602586	-0.5555199203	-4.0628219064	 0.356684
O	-0.7786459209	 0.0019727091	-5.0973735892	-0.302827
C	-0.2974057187	 0.1825532966	-2.7542162997	-0.087469
C	-0.4534548055	 1.7140720754	-2.5873119553	 0.050203
C	-1.8482297724	 2.0517533465	-3.148095081	-0.213756
C	-2.6286811783	 0.8929323617	-2.4493842921	-0.224482
C	-1.4344251449	 0.2833623828	-1.6856788406	 0.057667
O	-0.7577656508	 1.4658638131	-1.1718849677	-0.298791
H	 0.7803435442	-2.2743546353	-3.7628023325	 0.144418
H	-0.869769061	-2.5033258517	-3.1988978136	 0.138999
H	-0.5252600176	-2.511718789	-4.9569080253	 0.143809
H	 0.6082951986	-0.1603672581	-2.2466188515	 0.098587
H	 0.3708846661	 2.4072887594	-2.7492095686	 0.084754
H	-2.1675298548	 3.0368726619	-2.8026094412	 0.103601
H	-1.8862889379	 2.0087719865	-4.2355161229	 0.132394
H	-3.3931720643	 1.2482597006	-1.7559306399	 0.109567
H	-3.0907181358	 0.1952936443	-3.1530317901	 0.106184
H	-1.6102313975	-0.4927990369	-0.940655171	 0.081412
29.0923	122.5169	154.6318	186.4846	310.7066	363.3543	391.5248	525.2912	560.5744	612.0756	733.1371	786.5204	833.2907	842.0035	861.8946	870.1257	922.777	939.3807	948.5497	990.7641	1007.7958	1016.8763	1046.2908	1071.2911	1132.5116	1145.9332	1190.5788	1199.7302	1226.4367	1252.9598	1271.8328	1306.4878	1310.821	1340.5351	1372.9861	1388.1292	1461.805	1474.8856	1477.0016	1498.5147	1799.9695	3033.9958	3068.7717	3080.1012	3086.3403	3094.4341	3118.5616	3122.857	3134.9916	3152.1911	3156.9816
CC(=O)C1C2CCC1O2	CC(=O)[C@H]1[C@H]2CC[C@@H]1O2	
InChI=1S/C7H10O2/c1-4(8)7-5-2-3-6(7)9-5/h5-7H,2-3H2,1H3	InChI=1S/C7H10O2/c1-4(8)7-5-2-3-6(7)9-5/h5-7H,2-3H2,1H3/t5-,6+,7+
