19
gdb 3148	2.6892579	1.2881621	0.9837286	2.0628	75.27	-0.25118	0.0788	0.32998	1232.3208	0.155864	-422.491907	-422.48341	-422.482465	-422.525492	31.548	
C	 5.2312991232	 0.5755409	-1.5365968776	-0.417365
C	 3.7503171088	 0.5870603829	-1.1838194863	-0.02504
C	 3.3995808347	 1.1868041088	 0.1896288046	 0.026364
O	 1.9947475029	 0.9953928368	 0.3933171265	-0.249751
C	 2.8775208774	-0.0970909731	 0.6816246647	-0.000748
C	 3.1928177351	-0.7962375708	-0.6546312772	-0.060283
C	 2.0377573317	-1.4242928721	-1.3792257251	 0.084885
C	 1.8552972512	-2.8801434991	-1.4539783361	-0.189461
O	 2.3587929135	-2.1508666418	-2.5731753915	-0.241505
H	 5.8350170702	 0.1756200668	-0.7137356583	 0.114405
H	 5.4128923528	-0.0462292041	-2.4186386695	 0.134064
H	 5.5931904395	 1.5861890704	-1.7547558969	 0.118152
H	 3.1593561413	 1.0219849984	-1.9955983691	 0.088816
H	 3.8702745614	 2.0082158212	 0.7185068597	 0.103446
H	 2.8330254135	-0.516065424	 1.6805658925	 0.103537
H	 4.0107813096	-1.5162438425	-0.5524654294	 0.078964
H	 1.1540947609	-0.7930263765	-1.4665108603	 0.106967
H	 2.5723114663	-3.5380976151	-0.9633663763	 0.108702
H	 0.8557408561	-3.2954648163	-1.5757344544	 0.115852
65.8952	107.3738	172.4176	221.6972	248.505	261.7584	363.7218	442.9118	489.8209	542.389	744.0474	826.5902	851.1915	856.326	858.6852	880.868	896.5713	934.7707	982.7187	1003.8877	1044.5561	1059.6016	1084.8985	1108.3134	1125.1491	1152.6156	1171.442	1188.2173	1211.2575	1226.2253	1245.2259	1267.1562	1286.8514	1295.43	1355.2006	1384.6196	1410.4211	1452.9762	1496.1969	1498.6715	1528.156	3027.4093	3061.5189	3066.1215	3078.5312	3094.0177	3106.3078	3123.128	3164.647	3173.7517	3189.0887
CC1C2OC2C1C1CO1	C[C@@H]1[C@H]2O[C@H]2[C@H]1[C@@H]1CO1	
InChI=1S/C7H10O2/c1-3-5(4-2-8-4)7-6(3)9-7/h3-7H,2H2,1H3	InChI=1S/C7H10O2/c1-3-5(4-2-8-4)7-6(3)9-7/h3-7H,2H2,1H3/t3-,4-,5+,6+,7-/m0/s1
