19
gdb 1856	2.6266211	1.8241759	1.514563	2.1772	74.73	-0.2365	0.00953	0.24603	947.5344	0.159152	-422.571362	-422.563999	-422.563055	-422.602436	30.34	
O	-0.685938312	 0.2509787574	 0.0948118308	-0.498337
C	-1.7420578547	-0.6592772392	-0.1224181835	 0.348653
C	-2.4622387302	-1.1815875186	 1.1372580355	-0.27337
C	-3.2996934812	-2.2995208811	 0.4794062306	-0.091565
C	-4.4024915987	-1.5931368161	-0.3501371674	-0.068133
O	-3.8580327219	-0.7721386337	-1.3715079934	-0.248741
C	-2.8032533154	 0.0868384162	-0.9654287274	-0.089636
C	-2.2675056146	-2.908679618	-0.4620265163	-0.063311
C	-1.3853175853	-1.9730070624	-0.8123226228	-0.135567
H	-0.0406064004	-0.1768877849	 0.667921585	 0.274574
H	-1.7407543914	-1.5937618039	 1.8512559147	 0.085312
H	-3.0609714016	-0.4138450686	 1.6372378779	 0.094303
H	-3.7556795617	-3.0017234556	 1.1832029614	 0.067677
H	-5.038729554	-2.3177022988	-0.8675036845	 0.106861
H	-5.0395615688	-1.0026146217	 0.3300205719	 0.086776
H	-2.3557197585	 0.476146314	-1.883962411	 0.114186
H	-3.1820639481	 0.9380180663	-0.37709253	 0.092978
H	-2.328283231	-3.9186205887	-0.8503524415	 0.098154
H	-0.5877151207	-2.0541402027	-1.5412890401	 0.099186
229.6311	248.9109	267.9015	303.6572	361.786	384.4196	424.9526	460.4166	560.2146	607.0648	637.8424	747.5869	792.2302	832.1045	840.4804	923.2532	927.1909	948.4025	960.2999	973.5515	1000.5685	1042.0869	1082.7024	1100.0612	1106.6412	1149.4223	1185.555	1211.3387	1236.5203	1257.4886	1274.2989	1313.6013	1325.2472	1334.4431	1374.0726	1388.2676	1405.7573	1489.6114	1497.241	1510.3789	1660.4227	2961.4592	2978.4632	3037.6677	3067.1374	3078.9234	3090.6104	3094.0278	3189.3733	3215.5709	3804.0392
OC12CC(COC1)C=C2	O[C@@]12C[C@@H](COC1)C=C2	
InChI=1S/C7H10O2/c8-7-2-1-6(3-7)4-9-5-7/h1-2,6,8H,3-5H2	InChI=1S/C7H10O2/c8-7-2-1-6(3-7)4-9-5-7/h1-2,6,8H,3-5H2/t6-,7-/m0/s1
