19
gdb 4630	4.067204	0.6981073	0.6806866	2.1088	80.32	-0.24798	0.02925	0.27723000000000003	1726.9278	0.156901	-422.523672	-422.513994	-422.51305	-422.560931	33.225	
O	-3.9017712882	 3.3281172896	 1.0882126796	-0.401921
C	-3.3685355815	 2.0229453643	 0.9131558142	-0.189998
C	-1.9143093952	 2.0008729781	 0.7609020826	 0.016064
C	-0.7198561409	 2.032642369	 0.6003406166	 0.10809
C	 0.7357587122	 2.0622122019	 0.4118149882	-0.07227
C	 1.4256010221	 0.7845327141	 0.9306662031	-0.221538
C	 1.2761477585	-0.1518389074	-0.276917213	-0.234474
C	 1.3873340007	 0.8187198196	-1.4668516956	-0.058792
O	 1.0943779355	 2.1309361298	-0.9700229135	-0.255194
H	-3.5479977489	 3.8791621453	 0.3821531765	 0.288968
H	-3.6639114164	 1.4590137478	 1.8051407862	 0.139108
H	-3.8290325771	 1.5137598981	 0.050964696	 0.118241
H	 1.1368408107	 2.9640751453	 0.8877405063	 0.108956
H	 2.479593972	 1.0062204975	 1.1251595091	 0.108072
H	 0.9735810744	 0.3988801694	 1.8456425128	 0.115666
H	 2.0329217547	-0.938732386	-0.3066723485	 0.106732
H	 0.292193575	-0.6292706535	-0.2606457701	 0.118262
H	 2.4007139044	 0.8364579511	-1.8874516968	 0.102213
H	 0.6899207281	 0.5668721459	-2.2743346538	 0.103815
20.5246	35.4804	82.4104	121.1351	151.2277	244.2358	287.4155	340.2115	448.1837	505.8387	570.0365	625.9142	711.5677	795.0968	862.4232	887.007	917.3883	925.8664	950.8028	987.0122	1028.0969	1046.6532	1081.5441	1090.803	1149.7383	1196.4829	1203.1358	1216.7022	1251.6022	1286.5019	1319.9169	1341.0197	1356.8037	1363.5801	1390.8609	1419.5197	1483.4979	1491.1171	1496.1789	1531.0576	2350.6201	2972.6271	3017.5565	3042.7591	3049.3659	3059.5213	3061.2758	3066.3517	3113.5128	3128.3805	3815.5251	20.5272	35.4777	82.41	121.1347	151.2277	244.2357	287.4157	340.2119	448.1837	505.8384	570.0363	625.9142	711.5678	795.0968	862.4233	887.0069	917.388	925.8664	950.8027	987.0121	1028.0969	1046.6534	1081.5438	1090.8031	1149.7383	1196.4832	1203.1359	1216.702	1251.6025	1286.502	1319.9172	1341.0201	1356.8035	1363.5801	1390.861	1419.5194	1483.4985	1491.1168	1496.1794	1531.058	2350.6199	2972.6272	3017.5564	3042.7591	3049.3658	3059.5214	3061.2758	3066.3516	3113.5128	3128.3805	3815.5255
OCC#CC1CCCO1	OCC#C[C@H]1CCCO1	
InChI=1S/C7H10O2/c8-5-1-3-7-4-2-6-9-7/h7-8H,2,4-6H2	InChI=1S/C7H10O2/c8-5-1-3-7-4-2-6-9-7/h7-8H,2,4-6H2/t7-/m0/s1
