19
gdb 2220	2.5314517	2.0416153	1.8093685	1.7717	72.85	-0.25084	0.08575	0.33659	888.8357	0.159553	-422.574352	-422.567526	-422.566582	-422.605018	28.457	
C	-0.1168828276	-0.1240711523	-0.124327022	-0.507699
C	 1.3582223637	-0.0380453906	 0.1447757309	 0.432064
O	 1.90823032	-1.2524787208	 0.624899704	-0.276252
C	 3.2513353839	-0.8134708404	 0.6891504023	 0.163408
C	 3.1718180887	 0.3874836285	 1.6525675576	-0.237672
C	 1.9768417308	 1.1349189322	 1.0161307298	-0.120148
C	 2.4165652142	 1.829345714	-0.2981715795	-0.251306
C	 2.3749741942	 0.4379830946	-0.9627851823	 0.038625
O	 3.5356414154	-0.3308284877	-0.6224652461	-0.278798
H	-0.6654587075	-0.3424007707	 0.7971077364	 0.13055
H	-0.4914239931	 0.8211105738	-0.5282909254	 0.123638
H	-0.3301758716	-0.9167733249	-0.8478080571	 0.133474
H	 3.9257537899	-1.6329780612	 0.9333029921	 0.090063
H	 2.9467946996	 0.0391838318	 2.664353677	 0.106532
H	 4.0917389377	 0.9763145879	 1.6716312082	 0.106183
H	 1.3446669666	 1.6747224889	 1.7214355948	 0.068268
H	 1.644025775	 2.492693477	-0.6994398725	 0.099557
H	 3.3800808339	 2.3442028039	-0.3056328406	 0.103249
H	 2.1728869863	 0.327527756	-2.0295339076	 0.076263
208.7972	238.2107	263.9979	371.2731	387.0935	467.0092	583.7285	601.9039	644.7608	662.5444	784.1825	834.113	841.339	862.4433	894.038	901.9636	927.022	951.6171	974.0951	981.3611	1029.0101	1058.3931	1095.0121	1116.3007	1131.1424	1159.7217	1177.3914	1191.2954	1206.7306	1250.0885	1279.4048	1305.2458	1326.9082	1336.7718	1344.3973	1370.0931	1420.2949	1471.2371	1482.1382	1486.4711	1496.0587	3040.4648	3053.124	3062.5262	3096.9743	3105.0262	3111.0691	3112.3018	3115.9383	3118.554	3141.8197
CC12OC3CC1CC2O3	C[C@]12O[C@@H]3C[C@H]1C[C@H]2O3	
InChI=1S/C7H10O2/c1-7-4-2-5(7)8-6(3-4)9-7/h4-6H,2-3H2,1H3	InChI=1S/C7H10O2/c1-7-4-2-5(7)8-6(3-4)9-7/h4-6H,2-3H2,1H3/t4-,5-,6-,7+/m1/s1
