19
gdb 5361	3.4810568	1.206852	1.1642726	1.4413	76.08	-0.23819	0.00071	0.2389	1132.3416	0.159186	-422.558148	-422.550425	-422.549481	-422.590549	30.139	
O	 1.7318250368	 0.7698992622	-0.1554618103	-0.41209
C	 0.7843072764	 0.1203600188	 0.6899032115	-0.197461
C	-0.5458533952	 0.7999324773	 0.6772520988	 0.321197
C	-1.7659726481	 0.2770066726	 0.4879255324	-0.204915
C	-2.7562514351	 1.4043469107	 0.7329438193	 0.072523
C	-1.9888413672	 2.6034885541	 0.1553519593	-0.225499
C	-0.7465345137	 2.2717841656	 1.0240454921	-0.146953
C	-1.4430278205	 2.2685544037	 2.4181719359	-0.074175
O	-2.7326627794	 1.6986380655	 2.1621338955	-0.278899
H	 1.3661633887	 0.7682040954	-1.046385346	 0.282055
H	 0.6679162745	-0.9418799999	 0.4274601575	 0.095936
H	 1.2285230594	 0.1592085409	 1.6923156522	 0.118825
H	-2.0192437261	-0.7646439012	 0.3317276309	 0.098468
H	-3.7937079253	 1.2476591072	 0.4433386887	 0.074123
H	-1.7924760232	 2.5266470046	-0.9150868106	 0.097557
H	-2.4591695517	 3.5617628931	 0.3928686522	 0.101322
H	 0.1307831679	 2.9116000998	 0.9455454753	 0.081886
H	-0.9038373623	 1.6674822365	 3.1599005666	 0.097221
H	-1.5640367859	 3.2864236627	 2.8099110286	 0.098879
75.488	132.9237	228.7985	279.6265	338.5957	414.0953	477.9785	486.836	584.1646	639.7934	744.0345	806.2433	830.2591	850.7829	877.1586	883.414	940.7738	950.9884	959.4992	976.6143	990.0658	1031.515	1052.5083	1067.1973	1126.9063	1149.1448	1191.3768	1200.9124	1233.4952	1256.8111	1274.1092	1282.447	1296.3019	1340.8248	1361.5299	1377.479	1413.9598	1488.1625	1494.1586	1524.4825	1678.7469	2992.2652	3014.7628	3048.7048	3055.1413	3066.1334	3131.3266	3136.6202	3140.8086	3204.3701	3809.6366
OCC1=CC2CC1CO2	OCC1=C[C@@H]2C[C@H]1CO2	
InChI=1S/C7H10O2/c8-3-5-1-7-2-6(5)4-9-7/h1,6-8H,2-4H2	InChI=1S/C7H10O2/c8-3-5-1-7-2-6(5)4-9-7/h1,6-8H,2-4H2/t6-,7+/m0/s1
