19
gdb 2195	2.8662709	1.9434771	1.6861815	2.0854	73.29	-0.24675	0.091	0.33775	898.1935	0.159251	-422.571796	-422.564978	-422.564033	-422.602438	28.6	
C	 0.0318010808	 0.2736835861	 0.2681961618	-0.482376
C	 1.0913924583	-0.2991880887	-0.6375607825	 0.420399
C	 0.8143570405	-0.5856604608	-2.1365141713	-0.268006
C	 2.3355482779	-0.4228984422	-2.3439650091	 0.089029
O	 3.0071111176	-1.6243933434	-1.9224569387	-0.275979
C	 2.9862092647	-1.544103028	-0.5040143735	 0.184782
C	 3.505056903	-0.1288037413	-0.2178664599	-0.253639
C	 2.3975794313	 0.4818929296	-1.0607108653	-0.133477
O	 1.6426814967	-1.5027986807	-0.0475565236	-0.311171
H	 0.4525099661	 0.5413305574	 1.242354872	 0.122258
H	-0.4154525734	 1.1667080875	-0.1785920529	 0.113763
H	-0.7623761322	-0.4615791576	 0.4339175627	 0.131196
H	 0.3773922172	-1.5541460409	-2.3869432502	 0.107561
H	 0.251489848	 0.2273297272	-2.6067264098	 0.093114
H	 2.7419692633	-0.1033840909	-3.3040424314	 0.077106
H	 3.4890348479	-2.4126494105	-0.0828371324	 0.090377
H	 3.4562786381	 0.1310992913	 0.8415180235	 0.108527
H	 4.5102514397	 0.0398731614	-0.6095833586	 0.10882
H	 2.3235162344	 1.5587078243	-1.1894156007	 0.077716
204.8403	229.9555	283.8519	392.64	411.6969	456.1002	559.1775	581.8866	640.1509	687.0649	795.2501	830.3248	839.4686	870.9711	882.027	909.3284	924.3594	958.9025	960.2422	981.47	993.851	1017.4328	1072.3864	1096.2664	1116.2601	1147.8953	1175.9399	1203.8803	1207.004	1238.9139	1261.9477	1286.7414	1298.9924	1331.3145	1336.2345	1368.8826	1413.3375	1464.3259	1476.1633	1481.6252	1492.3835	3036.6198	3052.1693	3075.3682	3105.9122	3107.5466	3113.4058	3125.7076	3134.4156	3150.4392	3155.8634
CC12CC3OC(CC13)O2	C[C@@]12C[C@@H]3O[C@@H](C[C@H]13)O2	
InChI=1S/C7H10O2/c1-7-3-5-4(7)2-6(8-5)9-7/h4-6H,2-3H2,1H3	InChI=1S/C7H10O2/c1-7-3-5-4(7)2-6(8-5)9-7/h4-6H,2-3H2,1H3/t4-,5-,6+,7+/m0/s1
