19
gdb 4249	3.4577703	1.3816235	1.1269601	1.0941	74.3	-0.22493	0.07022	0.29515	1099.1664	0.157908	-422.531733	-422.524004	-422.523059	-422.564036	30.42	
O	 0.3811419866	 0.2239981856	 0.4366574709	-0.434899
C	-0.9440991664	 0.4823832746	 0.842538179	 0.119342
C	-2.078648986	-0.3544034598	 0.1752088471	-0.288496
C	-2.7880663741	 0.9627079186	-0.222911586	 0.095405
O	-3.8326945834	 1.3350724709	 0.6792921035	-0.277856
C	-3.4589855118	 2.5006307717	 1.3735387507	 0.11698
C	-3.1238972267	 3.7360241301	 0.5778024228	-0.335384
C	-2.0185200503	 2.8448274968	 1.1225358799	-0.089364
C	-1.5183385976	 1.7688395658	 0.1889616693	-0.049112
H	 0.6610735874	-0.6079260996	 0.8319333897	 0.2832
H	-1.0280996995	 0.5079523124	 1.9381194018	 0.066947
H	-1.6960061511	-0.8946262377	-0.6953543617	 0.103729
H	-2.6587015147	-1.0285304572	 0.8084775512	 0.105359
H	-3.1491814436	 1.039259581	-1.2520986373	 0.078285
H	-3.9421829007	 2.5727026565	 2.3408549125	 0.098562
H	-3.3195713879	 3.7287706448	-0.4897876751	 0.116631
H	-3.2687731815	 4.6989584641	 1.0562012513	 0.112504
H	-1.3666443911	 3.21394547	 1.9066548353	 0.092676
H	-0.8936399078	 2.1134171715	-0.6381296746	 0.085492
68.514	167.6056	236.5872	286.0242	345.4503	383.2564	418.1574	464.7013	627.1121	697.2955	767.7232	772.8948	810.7569	835.8933	869.6088	897.3271	924.7053	968.4012	984.8094	1000.1378	1028.7088	1056.8258	1060.1333	1085.8574	1102.9494	1129.9413	1153.1769	1169.3682	1191.4179	1206.6794	1211.1316	1256.8796	1267.9777	1288.0142	1317.4783	1332.5523	1360.5501	1390.7048	1422.1773	1460.5386	1477.0938	2996.4443	3055.7016	3065.4881	3091.9962	3126.8194	3127.7972	3167.8133	3182.8478	3215.5929	3813.1504
OC1CC2OC3CC3C12	O[C@@H]1C[C@H]2O[C@@H]3C[C@@H]3[C@@H]12	
InChI=1S/C7H10O2/c8-4-2-6-7(4)3-1-5(3)9-6/h3-8H,1-2H2	InChI=1S/C7H10O2/c8-4-2-6-7(4)3-1-5(3)9-6/h3-8H,1-2H2/t3-,4+,5+,6+,7-/m0/s1
