19
gdb 1904	2.7376367	1.5879154	1.2305903	3.0576	76.48	-0.23624	-0.02856	0.20768	1055.4646	0.157321	-422.579385	-422.571279	-422.570335	-422.61144	32.031	
O	-0.4869283272	-1.5192850363	-1.5960045761	-0.470721
C	-0.5353623537	-0.1539914468	-1.7488953231	 0.426412
C	-0.9056261306	 0.7368905097	-0.6257598499	-0.389557
C	 0.5540447397	 0.7933027196	-1.1018677399	 0.173647
C	 0.9087236565	 1.8609245544	-2.1212455702	-0.30124
C	-0.2128040501	 1.7847789422	-3.1906383346	-0.231558
C	-0.7230102444	 0.3280582232	-3.1730763765	-0.257422
C	 1.5568655253	 0.1017001188	-0.3003445031	 0.066068
O	 1.3068343903	-0.8430602596	 0.4329447061	-0.3183
H	-0.0918993784	-1.7000882366	-0.7256094545	 0.303023
H	-1.509042224	 1.6231585876	-0.7945652469	 0.119979
H	-1.0477959767	 0.2589607709	 0.3379948916	 0.13506
H	 0.9841064443	 2.8650839186	-1.6893075281	 0.1045
H	 1.8836705633	 1.6272549351	-2.5662188222	 0.107408
H	-1.0248159967	 2.4696891084	-2.9271904933	 0.110996
H	 0.1384737904	 2.0857701597	-4.180344071	 0.108453
H	-1.7621205907	 0.2442827422	-3.5076154923	 0.112072
H	-0.117446602	-0.3170327664	-3.8186653692	 0.118215
H	 2.6059052246	 0.4411943952	-0.4349596668	 0.082964
145.3263	209.6688	213.1353	228.895	292.9577	361.3164	414.338	456.7149	512.7986	548.2083	572.9548	636.535	666.9974	723.2827	789.6748	879.2796	898.0941	921.9811	938.9309	953.8353	1020.3348	1034.769	1061.1378	1077.3492	1117.7779	1187.76	1194.8397	1231.3885	1243.0102	1281.284	1307.6206	1343.4365	1353.2547	1374.1246	1427.3175	1454.9621	1470.864	1492.1643	1494.6449	1513.6507	1743.4173	2903.743	3028.5631	3047.339	3052.8001	3069.2214	3087.3147	3106.9758	3125.2667	3218.9191	3648.7648
OC12CC1(CCC2)C=O	O[C@@]12C[C@@]1(CCC2)C=O	
InChI=1S/C7H10O2/c8-5-6-2-1-3-7(6,9)4-6/h5,9H,1-4H2	InChI=1S/C7H10O2/c8-5-6-2-1-3-7(6,9)4-6/h5,9H,1-4H2/t6-,7-/m0/s1
