19
gdb 4765	2.3568655	1.0700643	0.9661306	2.3786	77.89	-0.23572	-0.0234	0.21232	1344.7618	0.152149	-422.525379	-422.514577	-422.513633	-422.561993	37.493	
C	 1.1727096105	-0.6452996547	-0.4318694329	-0.244332
O	-0.0503076295	-0.0901541368	 0.01234674	-0.22799
C	 0.0143104484	 0.5615690184	 1.2519007711	 0.029218
C	-1.2598106558	 1.4021165282	 1.3970510442	-0.415461
C	 0.1410211206	-0.4269977692	 2.4215036898	 0.368442
O	 0.0824448627	-1.620731569	 2.2703525209	-0.293774
C	 0.2994305632	 0.14871642	 3.8491901959	-0.45384
C	 1.0121226401	 1.4114852551	 3.9696631188	 0.30617
C	 1.6069517977	 2.4507944935	 4.0752558017	-0.452667
H	 1.5066508984	-1.4689133979	 0.208836865	 0.12981
H	 0.9962450464	-1.0283246483	-1.4396262441	 0.128314
H	 1.9641274443	 0.1192855782	-0.4785997977	 0.099808
H	 0.8903732674	 1.2307500394	 1.2977161878	 0.094206
H	-1.2398685978	 1.9985895468	 2.3118674443	 0.131392
H	-1.3369529832	 2.0775434712	 0.5421384151	 0.136021
H	-2.1414323361	 0.7547015781	 1.4041444582	 0.136004
H	-0.7181308981	 0.2565596703	 4.2512196803	 0.161972
H	 0.7796856037	-0.6349637917	 4.4435356231	 0.162175
H	 2.1345843271	 3.3678509284	 4.1683646982	 0.204533
43.4393	58.5452	116.793	129.7086	186.285	201.9591	221.7277	264.2166	312.9709	332.935	384.028	455.2637	488.945	567.2628	630.7632	640.2499	659.1526	754.9319	882.9529	896.4761	986.8464	1029.0513	1067.3681	1100.052	1142.8427	1174.8906	1183.5066	1207.7023	1246.8322	1293.3945	1316.5134	1373.4621	1400.4408	1439.1094	1478.2671	1484.8839	1487.8188	1500.9703	1513.1184	1819.1539	2237.1907	2966.6704	2983.4541	3018.7215	3051.5485	3068.5038	3082.3946	3121.523	3128.6395	3138.4084	3503.4062
COC(C)C(=O)CC#C	CO[C@@H](C)C(=O)CC#C	
InChI=1S/C7H10O2/c1-4-5-7(8)6(2)9-3/h1,6H,5H2,2-3H3	InChI=1S/C7H10O2/c1-4-5-7(8)6(2)9-3/h1,6H,5H2,2-3H3/t6-/m0/s1
