19
gdb 1819	2.6245795	1.9807708	1.4591859	2.9804	73.65	-0.24351	0.0776	0.32111	953.9759	0.157927	-422.536859	-422.529491	-422.528547	-422.568056	29.945	
C	 0.0390664305	-0.015789034	-0.0622956995	-0.489235
C	 1.5473924804	-0.0120638858	-0.1203758789	 0.380552
C	 2.3309142942	-0.9627342424	-1.0625950091	-0.291515
C	 3.2694455046	-1.0537893068	 0.162501848	 0.089337
C	 4.3187706285	 0.0643305328	 0.1964027689	-0.246712
C	 3.6448867738	 1.400910141	-0.0975282708	 0.037028
O	 2.7704198369	 1.9345671495	 0.9067959421	-0.241179
C	 2.1839835627	 1.3795549188	-0.2635468261	 0.006079
O	 2.1609648667	-0.6695881564	 1.0215735256	-0.309175
H	-0.3079888762	 0.5684590083	 0.7962289814	 0.139357
H	-0.3835151935	 0.4263381049	-0.9709111221	 0.117269
H	-0.3380837527	-1.0367968957	 0.0388165414	 0.123718
H	 1.7972629909	-1.8989773184	-1.2369963666	 0.107871
H	 2.7222136778	-0.5617451943	-2.001076398	 0.096303
H	 3.6811748485	-2.0298700259	 0.4323183021	 0.076947
H	 4.8058344641	 0.0913681926	 1.1772692118	 0.122923
H	 5.0963125426	-0.1243816298	-0.5540344132	 0.100326
H	 4.2399728019	 2.156975637	-0.6074002055	 0.092446
H	 1.6826133381	 2.0872941345	-0.9239906014	 0.087661
196.4704	216.3893	241.3005	302.8105	361.9949	399.3728	426.4851	485.8154	557.0599	672.34	696.7884	793.5881	832.7577	853.0771	872.7822	897.5807	909.9761	938.9154	980.0172	997.7833	1011.4161	1019.6693	1064.4078	1106.236	1121.6953	1147.1638	1205.6268	1228.111	1243.0835	1257.7547	1279.4908	1310.8753	1319.5436	1357.1059	1386.1433	1407.7178	1450.6694	1464.4325	1479.3668	1488.616	1494.3999	3034.0572	3035.9903	3062.1551	3075.9703	3080.6625	3104.7228	3108.2069	3119.6198	3122.5633	3128.3008
CC12CC(CC3OC13)O2	C[C@@]12C[C@@H](C[C@@H]3O[C@H]13)O2	
InChI=1S/C7H10O2/c1-7-3-4(9-7)2-5-6(7)8-5/h4-6H,2-3H2,1H3	InChI=1S/C7H10O2/c1-7-3-4(9-7)2-5-6(7)8-5/h4-6H,2-3H2,1H3/t4-,5+,6+,7-/m1/s1
