19
gdb 1164	2.7528931	0.9366868	0.8701297	2.4122	77.34	-0.24574	-0.02521	0.22052999999999998	1422.9085	0.153922	-422.575285	-422.565253	-422.564309	-422.612154	34.472	
C	-2.2480135519	-2.4925970609	-2.2874824057	-0.478472
C	-1.4060342575	-1.2426627392	-2.4535538859	 0.392795
O	-1.3273610578	-0.6489684299	-3.5041428845	-0.300627
C	-0.6728478365	-0.7343869342	-1.2106606592	-0.32459
C	-1.5720860199	 0.1774665173	-0.3914016882	 0.007253
C	-1.0271450855	 1.3704521658	 0.3106404895	-0.293289
C	-1.8906605079	 1.5729314113	-0.9305877842	-0.101438
C	-3.2698719333	 2.0757600116	-0.7314172476	 0.131223
O	-3.9422024035	 1.8361019289	 0.2460554109	-0.273263
H	-2.9213075786	-2.3962149662	-1.42840096	 0.143488
H	-2.823826151	-2.6826140466	-3.1937509502	 0.145167
H	-1.5961923304	-3.3501945357	-2.0817763227	 0.143116
H	-0.3381613162	-1.570966243	-0.5859469253	 0.111272
H	 0.2070122252	-0.1809521033	-1.5506694886	 0.120928
H	-2.4198150877	-0.297819233	 0.0943247467	 0.115706
H	-1.4871276681	 1.6557938343	 1.2499739973	 0.141602
H	 0.0293786136	 1.5947444471	 0.2131589246	 0.122691
H	-1.399953847	 1.8628661084	-1.8526420982	 0.113146
H	-3.6704821659	 2.7013799274	-1.5581454486	 0.083292
26.8181	64.4793	73.8349	126.1001	140.9016	222.0996	241.567	332.375	357.433	413.8922	527.4083	588.3157	698.2828	759.87	791.5303	818.2894	875.0988	906.4867	926.4096	980.659	1036.13	1055.9068	1058.4941	1086.2992	1104.216	1121.62	1132.6181	1201.3067	1227.9627	1256.804	1310.698	1346.5595	1381.2926	1420.5087	1429.5134	1459.5907	1472.2573	1475.562	1478.83	1801.0689	1813.3819	2897.442	3032.5295	3038.105	3093.3564	3098.4061	3136.9291	3153.3891	3154.6358	3184.837	3232.9162
CC(=O)CC1CC1C=O	CC(=O)C[C@H]1C[C@@H]1C=O	
InChI=1S/C7H10O2/c1-5(9)2-6-3-7(6)4-8/h4,6-7H,2-3H2,1H3	InChI=1S/C7H10O2/c1-5(9)2-6-3-7(6)4-8/h4,6-7H,2-3H2,1H3/t6-,7+/m0/s1
