19
gdb 5590	2.7719226	1.164862	0.9087483	3.7886	76.21	-0.23575	-0.01023	0.22552	1298.0157	0.157507	-422.577049	-422.568388	-422.567444	-422.610843	32.093	
O	-3.6456121877	 1.7510741295	 0.3147794366	-0.409735
C	-3.0132006478	 0.7269307971	 1.0642925946	-0.091035
C	-2.0203564434	 1.2429295138	 2.0833682768	-0.055779
C	-0.7448339182	 0.5021770757	 2.3261582093	-0.062362
C	-0.059083463	 0.7092772012	 3.6782042848	-0.236625
C	 0.0556292131	 2.2379578551	 3.8531806093	-0.340287
C	-0.0400099729	 2.8242077611	 2.4319491457	 0.411788
O	 0.3955696229	 3.8939502639	 2.0856430251	-0.33038
C	-0.7062444003	 1.8135755009	 1.5552148067	-0.143172
H	-4.1050100398	 2.3321861687	 0.929405709	 0.283766
H	-3.753557755	 0.0864708703	 1.5702066738	 0.093493
H	-2.4962177658	 0.1027475823	 0.3276411258	 0.110175
H	-2.4739577561	 1.7509643532	 2.9335332805	 0.084053
H	-0.5914658552	-0.4380128161	 1.807193755	 0.094201
H	-0.6033569864	 0.2256161455	 4.4957099742	 0.106044
H	 0.9393606192	 0.2609744827	 3.6452807493	 0.114134
H	-0.7630011559	 2.6500837836	 4.4552578024	 0.128559
H	 0.9847361519	 2.561692833	 4.3254405664	 0.130959
H	-0.5786484397	 1.8901856085	 0.4828986048	 0.112204
65.1624	119.7661	140.026	199.3034	241.253	295.3126	359.0746	438.8921	497.4492	540.1971	629.9774	654.2067	776.4596	814.113	833.6194	909.5959	911.7328	952.475	971.4055	1015.21	1042.1269	1061.3145	1069.0569	1091.7152	1115.9285	1161.8985	1173.0471	1186.1216	1228.079	1239.6408	1282.2247	1300.5463	1319.916	1344.0464	1377.1683	1422.1576	1443.9215	1462.5284	1500.4774	1502.404	1833.6075	2975.7311	3043.9126	3047.1931	3069.2929	3082.5468	3112.2724	3119.7284	3168.2892	3202.8076	3816.9588
OCC1C2CCC(=O)C12	OC[C@H]1[C@@H]2CCC(=O)[C@H]12	
InChI=1S/C7H10O2/c8-3-5-4-1-2-6(9)7(4)5/h4-5,7-8H,1-3H2	InChI=1S/C7H10O2/c8-3-5-4-1-2-6(9)7(4)5/h4-5,7-8H,1-3H2/t4-,5-,7-/m0/s1
