19
gdb 3949	2.6333218	1.6545078	1.5238485	2.2957	73.86	-0.22696	0.06081	0.28776999999999997	977.579	0.156737	-422.47976	-422.471826	-422.470882	-422.511825	31.302	
O	 0.4446558547	 0.1005839992	 0.5980212058	-0.426782
C	-0.7903964222	 0.7203507975	 0.3273366791	 0.046266
C	-2.0775190865	-0.2048875211	 0.2904044876	-0.342724
C	-2.2639503933	 0.2149917737	-1.1889507227	 0.398866
C	-3.1098035366	 1.4257221466	-1.6618405219	-0.297701
C	-1.7903500238	 2.2934420586	-1.6357976687	-0.304019
C	-0.9921177079	 1.0398154714	-1.1774023227	 0.19995
C	-0.4974586961	 0.0212281305	-2.2185473062	-0.155525
O	-1.7795192609	-0.6967866627	-2.1930493051	-0.338866
H	 0.4240694944	-0.2324715188	 1.5012780929	 0.286306
H	-0.9361306694	 1.6095652734	 0.958479803	 0.067453
H	-1.8410860906	-1.267161343	 0.3877295897	 0.115491
H	-2.8758550646	 0.0613374418	 0.9884329541	 0.097578
H	-3.5465555055	 1.2797463424	-2.6516143911	 0.117407
H	-3.8950532622	 1.7509832846	-0.9741202824	 0.100956
H	-1.486582937	 2.7092647879	-2.5999849009	 0.106991
H	-1.8011099529	 3.1055459745	-0.903805314	 0.104679
H	-0.2825129555	 0.4225465642	-3.2161787011	 0.100286
H	 0.3288710758	-0.6166146907	-1.8905446853	 0.123387
91.2749	208.7955	246.4312	270.9258	305.0805	325.511	384.3675	446.8069	561.566	656.0151	688.7722	711.7551	721.5837	802.6261	867.7563	888.8222	893.0925	911.7585	922.4794	952.03	1001.4513	1049.0097	1105.8349	1148.954	1153.7191	1168.9902	1179.924	1205.4638	1229.9837	1243.9929	1249.0912	1256.2609	1280.4792	1287.2947	1321.5419	1342.3821	1412.1452	1447.1089	1459.2868	1475.4027	1511.5511	2981.033	3023.9274	3053.9526	3055.5253	3062.5655	3087.5765	3104.1591	3123.1676	3128.0734	3811.4857
OC1CC23CCC12CO3	O[C@@H]1C[C@@]23CC[C@@]12CO3	
InChI=1S/C7H10O2/c8-5-3-7-2-1-6(5,7)4-9-7/h5,8H,1-4H2	InChI=1S/C7H10O2/c8-5-3-7-2-1-6(5,7)4-9-7/h5,8H,1-4H2/t5-,6-,7+/m1/s1
