19
gdb 1024	2.6560315	0.9966991	0.9551945	1.6256	80.38	-0.25164	0.02182	0.27346	1386.506	0.154263	-422.514983	-422.504691	-422.503747	-422.551776	35.688	
C	 1.3638691249	-0.1371906522	 0.0206541621	-0.501221
C	-0.0908122027	-0.1130850707	 0.072226446	 0.082673
C	-1.2961540444	-0.0627645094	 0.0857240599	 0.078081
C	-2.7494993597	-0.0487530647	 0.1584546446	-0.118819
O	-3.3948414111	-0.8191826238	-0.8820840682	-0.295778
C	-3.8672930354	-1.8275225381	 0.0544723631	 0.106036
C	-3.2327346688	-3.185395569	-0.1716031968	-0.392114
C	-3.3496098771	-0.9882642027	 1.2576217953	 0.070906
O	-2.4836114373	-1.5669444756	 2.1841503509	-0.424297
H	 1.7971554908	 0.1011909264	 0.9979769171	 0.155839
H	 1.7356893054	-1.1230063526	-0.278202799	 0.154852
H	 1.7431290385	 0.5957674683	-0.6994182385	 0.158075
H	-3.1228727325	 0.9821526552	 0.1741562092	 0.102155
H	-4.9609030798	-1.9025823405	 0.0039855915	 0.076953
H	-3.581698413	-3.8976661349	 0.5827922792	 0.124001
H	-3.5053844698	-3.5643668927	-1.1610727514	 0.124955
H	-2.1422977507	-3.1298321309	-0.1158687485	 0.114096
H	-4.1563683616	-0.5125843682	 1.8198438861	 0.099301
H	-1.6015776857	-1.5899252938	 1.7887396474	 0.284304
33.496	40.5977	88.8028	133.2711	193.6726	236.5148	256.098	323.4334	349.8311	390.5701	401.527	480.1452	551.5727	583.5445	731.1755	801.468	857.2526	878.4763	932.8233	990.9614	1037.8834	1050.6876	1053.8408	1078.1968	1139.2727	1163.0007	1183.8753	1203.4303	1257.803	1305.1481	1333.2183	1343.8798	1386.0515	1407.032	1413.8225	1442.9865	1475.3275	1477.1801	1481.9853	1492.216	2352.9145	3021.5927	3030.898	3031.5476	3042.109	3086.6848	3094.7984	3095.3447	3115.1412	3121.9345	3741.668
CC#CC1OC(C)C1O	CC#C[C@H]1O[C@@H](C)[C@H]1O	
InChI=1S/C7H10O2/c1-3-4-6-7(8)5(2)9-6/h5-8H,1-2H3	InChI=1S/C7H10O2/c1-3-4-6-7(8)5(2)9-6/h5-8H,1-2H3/t5-,6+,7+/m0/s1
