19
gdb 1100	3.3946608	1.11285	0.8678802	2.232	79.75	-0.24239	-0.04747	0.19491999999999998	1323.5525	0.156773	-422.581074	-422.572288	-422.571344	-422.614922	32.294	
C	 2.3604548327	 2.9770840311	 2.8571428684	-0.49144
C	 1.3574243617	 2.1052323067	 2.121377476	 0.315598
O	 0.2348848482	 1.9460030733	 2.5577763589	-0.308995
C	 1.8032989735	 1.4516521357	 0.8460725007	 0.174314
C	 0.9400001673	 0.6553111256	 0.2028442563	-0.116495
C	 1.2891214184	-0.0818966833	-1.0513237015	-0.129014
O	 2.6622917186	-0.0344615395	-1.3786616765	-0.243881
C	 3.2159753539	 1.2572786475	-1.1975440156	-0.087199
C	 3.1877457852	 1.6727676489	 0.2764579806	-0.322764
H	 1.9258213817	 3.2992077261	 3.8035471675	 0.141523
H	 3.2960382904	 2.4377244322	 3.0407983909	 0.136885
H	 2.6148565507	 3.8596599896	 2.2588863104	 0.140264
H	-0.0624651054	 0.5324926379	 0.6033445707	 0.125594
H	 1.0324646927	-1.1435731725	-0.948283015	 0.129124
H	 0.6721265345	 0.3078969559	-1.8837764861	 0.107085
H	 4.2402630561	 1.206682714	-1.5761146912	 0.11128
H	 2.6656361333	 1.997948935	-1.8012922112	 0.092134
H	 3.9350309204	 1.0964703617	 0.8380923371	 0.120448
H	 3.4844547461	 2.7251632142	 0.3570761397	 0.105537
57.5284	113.9895	170.1315	209.19	235.2775	298.2091	343.3841	411.9175	441.9533	516.3696	565.8511	607.9372	663.6636	785.84	862.3335	866.8686	922.973	971.102	989.8399	1021.2957	1041.818	1047.6133	1067.0736	1098.3649	1168.6955	1225.4425	1240.866	1270.7565	1297.7734	1321.8408	1371.7492	1381.6305	1388.6047	1420.7069	1460.6981	1471.731	1475.3941	1479.8007	1500.9086	1684.4946	1781.2461	2925.478	2970.1196	3018.6463	3036.1046	3046.6112	3060.7755	3092.7009	3095.7802	3155.2134	3180.7858
CC(=O)C1=CCOCC1	CC(=O)C1=CCOCC1	
InChI=1S/C7H10O2/c1-6(8)7-2-4-9-5-3-7/h2H,3-5H2,1H3	InChI=1S/C7H10O2/c1-6(8)7-2-4-9-5-3-7/h2H,3-5H2,1H3
