19
gdb 4618	3.8739567	0.6940033	0.6388769	1.2314	82.97	-0.25322	0.01489	0.26811	1736.9467	0.153187	-422.50872	-422.498029	-422.497085	-422.546091	37.074	
C	 3.967015434	 0.1927894733	 2.5718956411	-0.454886
C	 4.6949885576	 0.0119907698	 1.2596930803	 0.410717
C	 6.0961517633	 0.5808007197	 1.1980275693	-0.452394
O	 4.5430973802	-1.2744419897	 0.6491425885	-0.279724
C	 3.9356262867	-0.1446444895	-0.0082924066	-0.239835
C	 2.5014135269	-0.0964117227	-0.0836806867	 0.043178
C	 1.3024230442	-0.0322303336	-0.1961649705	 0.148821
C	-0.1562839997	 0.0303775147	-0.2762523783	-0.201665
O	-0.7500062755	 0.8396856913	 0.7289883503	-0.399697
H	 2.9647051189	-0.2353097909	 2.5232828667	 0.130684
H	 4.5198544412	-0.3021754687	 3.3774526048	 0.125982
H	 3.8839608505	 1.2551460453	 2.8241317545	 0.123577
H	 6.723665988	 0.1227295738	 1.9702976507	 0.128276
H	 6.5548288657	 0.3847643152	 0.2259399723	 0.129058
H	 6.0859107355	 1.6618916886	 1.3714519563	 0.125001
H	 4.445385397	 0.1492208254	-0.9265134152	 0.107312
H	-0.4588250242	 0.4732764629	-1.2316096376	 0.144042
H	-0.5614041715	-0.9941174149	-0.2602134	 0.123743
H	-0.4318141288	 0.5220839301	 1.5804544702	 0.287811
17.6145	65.5509	93.4138	162.7335	177.4796	205.4195	246.3126	302.234	325.5639	368.025	375.6091	404.3366	462.926	560.002	600.7566	705.8092	795.694	844.7238	906.6459	949.3935	982.6704	1005.1634	1044.2657	1055.2317	1094.7889	1148.4305	1187.7319	1214.6136	1262.923	1334.1068	1359.555	1408.2427	1416.8348	1418.5479	1433.2908	1473.3071	1482.6868	1487.7006	1496.0382	1508.2097	2352.3148	2977.6956	3034.7765	3040.6945	3064.2422	3098.1739	3099.3591	3103.4289	3124.7138	3140.9652	3816.5462	17.6264	65.5514	93.4145	162.7341	177.4804	205.4203	246.3135	302.2364	325.5642	368.025	375.6095	404.336	462.9256	560.0015	600.7566	705.8085	795.6931	844.7229	906.6445	949.3935	982.6703	1005.1633	1044.2659	1055.2315	1094.789	1148.4299	1187.7316	1214.6127	1262.9224	1334.1065	1359.5543	1408.2426	1416.8341	1418.5476	1433.2903	1473.3069	1482.6867	1487.6994	1496.038	1508.2094	2352.3149	2977.6958	3034.7765	3040.6944	3064.2424	3098.1739	3099.3588	3103.4289	3124.7138	3140.9651	3816.5473
CC1(C)OC1C#CCO	CC1(C)O[C@H]1C#CCO	
InChI=1S/C7H10O2/c1-7(2)6(9-7)4-3-5-8/h6,8H,5H2,1-2H3	InChI=1S/C7H10O2/c1-7(2)6(9-7)4-3-5-8/h6,8H,5H2,1-2H3/t6-/m0/s1
