19
gdb 3772	4.2267061	1.0239017	0.9321819	0.1402	76.81	-0.23372	0.06154	0.29526	1314.959	0.155728	-422.49135	-422.482793	-422.481848	-422.524897	31.884	
C	 1.8055286191	 4.9828863947	 4.2769424769	-0.418989
C	 1.4212117204	 4.0201599561	 3.1854425766	 0.082334
O	 1.167462478	 2.6647144727	 3.5806008814	-0.256441
C	 2.3033914726	 2.9233643443	 2.7510082158	-0.084433
C	 2.2422300282	 2.3557892057	 1.382509563	 0.492578
C	 1.0148549555	 1.9388668589	 0.6398277956	-0.341693
C	 2.1406980413	 0.9411319209	 0.846192138	-0.19209
C	 3.3230503322	 1.3337023671	-0.0299670798	-0.091734
O	 3.3002792605	 2.6987219486	 0.4768035648	-0.333209
H	 2.5402334358	 4.5339256698	 4.9506382524	 0.128688
H	 2.2333407409	 5.8950086417	 3.8477315335	 0.127972
H	 0.9280143761	 5.2671031214	 4.8669848971	 0.13026
H	 0.7093038365	 4.3935100948	 2.4482350064	 0.0951
H	 3.2683513837	 2.8160972503	 3.2489848465	 0.09352
H	 0.1458125338	 1.7603824983	 1.2640518387	 0.134006
H	 0.8170817879	 2.3541000833	-0.3451107846	 0.110644
H	 2.0089656314	 0.0014995634	 1.3645658721	 0.108223
H	 4.2616142461	 0.8402637741	 0.2459341963	 0.110319
H	 3.18949341	 1.294175934	-1.1176134908	 0.104946
59.4808	123.8842	153.9202	203.7035	288.9755	291.3662	371.0423	411.2139	445.0598	519.4719	725.5646	756.3015	798.6104	835.0775	884.2282	902.0978	948.9444	976.5131	984.4705	998.3866	1001.8015	1027.4413	1056.7646	1075.6721	1091.5392	1134.2886	1149.6293	1166.0699	1174.7711	1180.2798	1269.0236	1276.8895	1335.5956	1356.4512	1401.0257	1412.6449	1469.143	1484.4473	1491.834	1507.1546	1521.8353	3024.0869	3037.7634	3073.2496	3097.1863	3102.7539	3104.186	3114.2122	3126.1433	3208.2049	3219.0752
CC1OC1C12CC1CO2	C[C@@H]1O[C@H]1[C@]12C[C@H]1CO2	
InChI=1S/C7H10O2/c1-4-6(9-4)7-2-5(7)3-8-7/h4-6H,2-3H2,1H3	InChI=1S/C7H10O2/c1-4-6(9-4)7-2-5(7)3-8-7/h4-6H,2-3H2,1H3/t4-,5-,6+,7-/m0/s1
