19
gdb 5199	3.5877271	1.3710839	1.3325062	2.0947	73.84	-0.24469	0.0692	0.31389	1033.1608	0.158736	-422.524235	-422.51689	-422.515946	-422.555959	29.577	
O	 1.7230242256	 0.2445269249	-0.4983483123	-0.416908
C	 0.3914654539	 0.2039348488	-0.0145432346	-0.183078
C	-0.5940911584	 0.4509364223	-1.1234399195	 0.399952
C	-0.557817391	 1.7394375034	-1.9726217743	-0.232842
C	-1.8872573418	 1.4243900629	-2.6879751511	-0.090931
C	-2.893849859	 1.4729219547	-1.5069842926	-0.254693
C	-2.1586791099	 0.211098916	-1.0278143737	-0.131704
C	-1.8375083746	-0.1682450731	-2.4876828401	 0.117573
O	-0.4969312604	-0.5645162377	-2.1884393846	-0.344718
H	 1.7643364413	-0.3766721823	-1.2349996534	 0.29757
H	 0.1664655313	-0.7603282285	 0.4667659331	 0.093865
H	 0.3035425152	 0.9876377387	 0.7458022605	 0.111815
H	-0.6008263723	 2.6656020196	-1.3927840063	 0.096293
H	 0.3236025365	 1.7478560064	-2.6146260844	 0.109121
H	-2.0960584623	 1.8946072664	-3.6469727027	 0.069388
H	-2.8975655952	 2.369145892	-0.8798619433	 0.097293
H	-3.9173360218	 1.231181832	-1.8082232185	 0.10234
H	-2.5257007575	-0.4908503215	-0.2804884497	 0.074506
H	-2.3995342796	-0.836252015	-3.1383396824	 0.08516
87.6838	162.0728	276.1476	327.5848	414.2439	455.6492	463.7369	539.4208	653.2446	686.3489	757.0564	791.9549	828.4196	844.8276	857.028	908.0846	931.6228	962.8678	972.8587	999.027	1015.9925	1042.642	1053.3778	1067.0674	1117.0489	1122.5033	1152.0576	1178.1901	1199.932	1216.349	1235.2846	1257.9107	1270.08	1281.6967	1307.9921	1356.0051	1384.1082	1436.9467	1481.3213	1495.3611	1504.7311	2987.4616	3050.0114	3067.6226	3073.454	3103.6007	3126.1731	3130.4283	3134.9077	3141.9358	3797.112
OCC12CC3CC1C3O2	OC[C@]12C[C@@H]3C[C@H]1[C@@H]3O2	
InChI=1S/C7H10O2/c8-3-7-2-4-1-5(7)6(4)9-7/h4-6,8H,1-3H2	InChI=1S/C7H10O2/c8-3-7-2-4-1-5(7)6(4)9-7/h4-6,8H,1-3H2/t4-,5-,6+,7+/m0/s1
