19
gdb 5735	4.0945073	1.2024792	1.1326416	2.8561	77.29	-0.223	0.05139	0.27439	1139.8071	0.155479	-422.392777	-422.384683	-422.383739	-422.42523	31.312	
C	 1.5363303546	-0.0749360414	-0.0938989841	-0.241354
O	 0.1347306467	 0.0934626269	-0.1667023857	-0.226506
C	-0.4177629384	 0.6580823788	 0.9829228472	 0.072356
C	-0.2626095141	 2.264293617	 1.156883053	-0.38092
C	-1.6899679053	 2.2903448088	 0.6053770884	 0.383827
C	-2.0104942656	 1.9783322955	-0.8871470982	-0.257535
C	-3.0800030396	 1.3686229757	 0.0120453033	 0.002058
O	-3.1206148939	 2.6846363175	 0.7911691961	-0.382327
C	-1.9878182868	 0.8694014966	 1.0136901376	-0.057083
H	 1.8184338432	-0.7111508429	 0.7586804772	 0.111255
H	 1.8497807283	-0.5606072882	-1.0204227783	 0.134005
H	 2.0625979481	 0.8856309386	 0.0008640348	 0.11357
H	-0.0771883021	 0.1112819661	 1.8734632096	 0.084702
H	-0.1878088681	 2.521136898	 2.2160882186	 0.122523
H	 0.5181773878	 2.7759680692	 0.5875603787	 0.111484
H	-2.3343743533	 2.842733804	-1.466841278	 0.102278
H	-1.3411952123	 1.3073243034	-1.4219046941	 0.127931
H	-4.0643606507	 0.9558758808	-0.2223749583	 0.091865
H	-2.3590251384	 0.7664419555	 2.0340910521	 0.08787
100.2259	159.6309	168.5245	238.3502	321.125	357.8161	417.2803	424.1776	536.4047	594.3968	684.3527	746.033	751.9754	801.4408	839.3798	876.2527	924.7397	964.649	995.1754	1017.3368	1031.2437	1043.1492	1087.8319	1131.2406	1137.599	1174.8773	1180.2414	1187.7283	1196.0195	1202.6736	1223.6176	1233.1897	1263.2094	1294.6376	1345.3467	1385.7907	1464.4016	1478.8463	1486.091	1495.367	1508.5315	2982.4268	2997.0851	3035.27	3060.4088	3079.9823	3096.0309	3106.6891	3123.5178	3126.8915	3179.3876
COC1CC23CC(O2)C13	CO[C@H]1C[C@]23C[C@H](O2)[C@@H]13	
InChI=1S/C7H10O2/c1-8-4-2-7-3-5(9-7)6(4)7/h4-6H,2-3H2,1H3	InChI=1S/C7H10O2/c1-8-4-2-7-3-5(9-7)6(4)7/h4-6H,2-3H2,1H3/t4-,5-,6+,7+/m0/s1
