19
gdb 4128	2.4556484	1.6894938	1.3139798	2.0828	74.78	-0.23384	-0.00746	0.22638	1036.7795	0.157019	-422.573712	-422.565214	-422.564269	-422.606317	32.668	
C	-3.0605266733	 1.3525390199	-1.5691692759	-0.421245
C	-1.6921926137	 0.7171217276	-1.3357144497	 0.005296
C	-1.6766134334	-0.8530361772	-1.2673032299	-0.24478
C	-1.0068794248	-1.0765263892	 0.1101404637	-0.150698
C	-1.7661870412	-0.0328815474	 0.9918790739	-0.309679
C	-1.0627545778	 1.0267322865	 0.0431456215	 0.303846
O	-0.8907901629	 2.3634326703	 0.3392941921	-0.490995
C	 0.0826056315	 0.0072931123	 0.0949874978	 0.366845
O	 1.2586776743	 0.0888566073	 0.3091491777	-0.340478
H	-3.7914890306	 1.0413464205	-0.8159577987	 0.115392
H	-2.9888636914	 2.4436397349	-1.5385605925	 0.135064
H	-3.4537550433	 1.0638187375	-2.5498039728	 0.11534
H	-1.0090664403	 1.0738178697	-2.1143719962	 0.085803
H	-2.6894801986	-1.2673325907	-1.2823788894	 0.107106
H	-1.1137921787	-1.3058611205	-2.0874265767	 0.111696
H	-0.8116257813	-2.0922647172	 0.44358557	 0.089002
H	-2.8561363911	-0.0720647043	 0.9599301444	 0.113015
H	-1.4063771257	 0.0177376503	 2.0210779242	 0.114754
H	-0.0836502977	 2.4506778998	 0.8609645566	 0.294716
126.8065	161.3915	187.6548	217.0336	259.9904	298.1872	374.2463	420.737	440.5283	525.8212	579.9182	671.9543	708.991	777.5024	836.1617	845.0066	873.9832	902.8531	944.4281	958.8464	1008.4652	1034.7487	1058.4744	1093.2905	1118.3917	1124.6577	1143.5875	1188.8455	1229.3061	1241.7424	1274.3277	1314.2135	1336.3389	1362.8878	1407.9006	1410.649	1484.3404	1497.0997	1499.0992	1508.1849	1886.8807	3035.2968	3041.0974	3052.7168	3077.0066	3100.1822	3103.0129	3114.6721	3144.0466	3157.8329	3783.0523
CC1CC2CC1(O)C2=O	C[C@@H]1C[C@@H]2C[C@@]1(O)C2=O	
InChI=1S/C7H10O2/c1-4-2-5-3-7(4,9)6(5)8/h4-5,9H,2-3H2,1H3	InChI=1S/C7H10O2/c1-4-2-5-3-7(4,9)6(5)8/h4-5,9H,2-3H2,1H3/t4-,5-,7+/m1/s1
