19
gdb 1285	3.1614982	1.1919678	1.0567407	2.3647	77.06	-0.24295	-0.00201	0.24094	1210.8601	0.156386	-422.550635	-422.54193	-422.540986	-422.584185	32.732	
C	 4.8155970457	-0.5231013596	 0.398558066	-0.385909
C	 4.1616053117	 0.7928327551	-0.0221642668	 0.020027
O	 4.1304748633	 0.7857640176	-1.4506661116	-0.431841
C	 2.776444489	 0.9658239713	 0.5300257991	 0.324055
C	 2.3499505431	 1.8833015188	 1.4063211238	-0.213704
C	 0.8706964126	 1.7622941702	 1.711055598	-0.287704
C	 0.4222629839	 0.6496989687	 0.7698614261	 0.041166
O	 0.6098129044	 0.943603885	-0.6164519611	-0.262995
C	 1.6100995781	 0.145851657	 0.06063372	-0.06042
H	 4.9428417288	-0.5595850132	 1.4837685463	 0.117524
H	 4.2071227984	-1.3769182345	 0.086119859	 0.123321
H	 5.7960380253	-0.6139547678	-0.0770970191	 0.12693
H	 4.7872150808	 1.6236959273	 0.3423696637	 0.066069
H	 3.5916712251	 1.5318026161	-1.7353100901	 0.289423
H	 2.9705394309	 2.66280433	 1.8362844111	 0.098003
H	 0.6879454605	 1.4910961245	 2.75907642	 0.113959
H	 0.3280052478	 2.6970324714	 1.5248632365	 0.125367
H	-0.4422900256	 0.0343071705	 1.0031500941	 0.095765
H	 1.7192332063	-0.8664462386	-0.3142771951	 0.100966
60.5693	107.9396	183.1559	233.5824	308.7916	310.7455	342.007	366.006	411.5144	501.7879	616.818	703.04	744.4328	822.4735	827.5102	864.4149	870.224	916.1721	925.9689	954.5964	994.8349	1013.5854	1038.7115	1069.1764	1104.6024	1121.4854	1183.625	1198.1317	1255.7545	1266.4199	1288.9499	1309.5836	1342.3029	1383.733	1394.9271	1409.6768	1415.262	1459.9069	1483.8675	1497.6948	1695.1285	2966.7605	3025.5139	3044.4819	3061.6732	3118.8891	3126.1029	3150.5641	3173.9732	3184.8097	3810.5527
CC(O)C1=CCC2OC12	C[C@@H](O)C1=CC[C@H]2O[C@@H]12	
InChI=1S/C7H10O2/c1-4(8)5-2-3-6-7(5)9-6/h2,4,6-8H,3H2,1H3	InChI=1S/C7H10O2/c1-4(8)5-2-3-6-7(5)9-6/h2,4,6-8H,3H2,1H3/t4-,6-,7+/m1/s1
