19
gdb 1255	2.2090928	1.292988	1.0464732	1.7961	76.31	-0.25611	0.04297	0.29908	1234.258	0.15373	-422.509562	-422.499676	-422.498732	-422.544543	36.458	
C	 3.1828907358	-2.2644323102	 2.1920531745	-0.393414
C	 2.7626319497	-0.8336349009	 2.5107563433	 0.057457
O	 3.3613954724	-0.4697963589	 3.7410963923	-0.439864
C	 3.1643521521	 0.1586576038	 1.4153683262	 0.384614
C	 2.4462891853	 0.0595764949	 0.0722854212	-0.435356
C	 0.9902018344	 0.0944829395	 0.1715009321	 0.312529
C	-0.2086466268	 0.1206310259	 0.2484139278	-0.447268
C	 4.4971548577	 0.7706353549	 1.4597489405	-0.231466
O	 3.3368555843	 1.4977334298	 1.9045744484	-0.289852
H	 2.926582985	-2.9132665558	 3.0333421199	 0.132966
H	 2.6693264589	-2.6409638259	 1.3030072062	 0.120023
H	 4.2636466245	-2.3240145608	 2.0307458985	 0.119524
H	 1.6651780315	-0.7929969404	 2.5952170817	 0.088415
H	 3.2516128469	 0.4879010115	 3.8141728753	 0.291037
H	 2.7904885979	 0.8888662102	-0.5557431817	 0.142174
H	 2.7571542154	-0.8646124609	-0.4316297625	 0.140124
H	-1.2681199878	 0.1494075169	 0.3151520394	 0.201135
H	 5.184165249	 0.480402315	 2.250090863	 0.132153
H	 4.9507294837	 1.1474961814	 0.5447140241	 0.11507
40.5363	99.2013	130.5815	210.7404	234.1157	284.001	324.7423	336.9823	361.7914	392.6707	464.5809	499.532	515.0885	624.5268	631.7951	650.3607	704.968	816.0669	897.8594	914.0763	940.6875	962.5408	989.5612	1044.8471	1104.0007	1130.549	1148.4127	1174.174	1209.7991	1261.4107	1302.6199	1316.787	1378.281	1398.8429	1419.5791	1437.6643	1454.3631	1488.3452	1498.8622	1516.3011	2240.1297	2983.0481	3028.2384	3044.9215	3068.9844	3097.8614	3119.1191	3125.5257	3194.7076	3504.9188	3760.3472
CC(O)C1(CC#C)CO1	C[C@@H](O)[C@]1(CC#C)CO1	
InChI=1S/C7H10O2/c1-3-4-7(5-9-7)6(2)8/h1,6,8H,4-5H2,2H3	InChI=1S/C7H10O2/c1-3-4-7(5-9-7)6(2)8/h1,6,8H,4-5H2,2H3/t6-,7+/m1/s1
