19
gdb 3505	2.496157	1.8063802	1.3535623	2.4913	75.67	-0.24639	0.01421	0.2606	1002.404	0.159335	-422.555576	-422.548037	-422.547093	-422.587284	30.129	
O	 2.3311886163	 2.4250018096	-1.8933586693	-0.437618
C	 2.2253399208	 1.3463779636	-0.9631363893	 0.092913
C	 1.7348967025	 0.1096962193	-1.6848838742	-0.092587
C	 0.5748818258	-0.542952878	-1.5808650897	-0.051179
C	-0.5972320999	-0.2866274931	-0.6686451587	-0.266366
C	-0.3982185021	 0.7878946041	 0.3889186742	 0.11486
C	 0.9184392242	 0.6954291436	 1.190029055	-0.303343
C	 1.388241356	 1.797980346	 0.2262391462	 0.080893
O	 0.0225797962	 2.0478638931	-0.2039054837	-0.312336
H	 1.420992412	 2.6371093033	-2.1390532792	 0.286534
H	 3.2514933539	 1.1688692569	-0.6129794055	 0.087426
H	 2.4356590974	-0.2314619999	-2.4442471386	 0.094434
H	 0.42225961	-1.3833822183	-2.2568312443	 0.091123
H	-1.4674737126	-0.0178726362	-1.2856226536	 0.120231
H	-0.8770881796	-1.2241507333	-0.165360602	 0.109168
H	-1.3140332282	 0.9204353522	 0.9747394786	 0.078287
H	 0.8160946758	 1.0447683301	 2.2183755682	 0.111184
H	 1.4550679266	-0.2541952635	 1.1707447987	 0.112006
H	 1.8353036648	 2.6976217605	 0.6605150073	 0.084369
101.3657	213.8789	277.5423	314.3219	343.7497	388.9835	453.611	457.2321	508.7055	651.4601	716.2872	771.18	808.2179	853.6244	882.2826	889.3445	900.8105	960.2558	977.6108	1007.1186	1021.1763	1034.5495	1068.6839	1093.1604	1122.2286	1148.613	1210.5306	1235.5247	1244.0178	1260.4091	1276.9196	1335.4483	1343.595	1369.5636	1375.8742	1402.4837	1417.2891	1440.3332	1453.7244	1489.3311	1724.4916	2998.4541	3019.9438	3025.0794	3049.0846	3062.2441	3083.8612	3126.9067	3139.5227	3154.7775	3770.7619
OC1C=CCC2CC1O2	O[C@@H]1C=CC[C@H]2C[C@@H]1O2	
InChI=1S/C7H10O2/c8-6-3-1-2-5-4-7(6)9-5/h1,3,5-8H,2,4H2	InChI=1S/C7H10O2/c8-6-3-1-2-5-4-7(6)9-5/h1,3,5-8H,2,4H2/t5-,6+,7-/m0/s1
