19
gdb 3956	3.6309739	1.3699644	1.1570908	1.117	75.13	-0.22962	0.05263	0.28225	1106.9842	0.157025	-422.496673	-422.4889	-422.487956	-422.528765	30.296	
C	 1.8243380027	 1.4484625389	 0.8035866767	-0.411855
C	 1.5656539961	-0.0274262724	 0.5375371764	 0.018509
C	 2.4431516109	-1.0531204158	 1.3507873828	-0.365242
C	 2.7008808747	-1.7772530815	 0.0439964101	 0.433695
O	 3.7971913766	-2.5924285281	-0.327831917	-0.335251
C	 2.9502673884	-3.3467589675	-1.2477414472	-0.1151
C	 1.6822431361	-2.6100492641	-0.7523080588	-0.006772
O	 1.2472765811	-1.4851032988	-1.539907839	-0.307033
C	 2.1351396839	-0.6094071282	-0.801720505	 0.020274
H	 1.5472953497	 1.718977708	 1.8281777703	 0.119875
H	 2.8842239205	 1.6947727177	 0.6726903099	 0.117349
H	 1.2473662041	 2.0801914489	 0.1197692841	 0.122253
H	 0.4988590966	-0.2537338159	 0.6144002249	 0.088652
H	 3.3517622411	-0.5753171659	 1.7328171723	 0.115572
H	 1.9719368763	-1.6136215445	 2.1622837614	 0.104496
H	 3.1982505172	-3.1568895107	-2.2970130751	 0.117051
H	 2.9993988877	-4.4194408618	-1.0323735159	 0.110855
H	 0.8595331316	-3.2072316874	-0.3537944668	 0.089783
H	 2.7042604247	 0.0690463791	-1.441464884	 0.082886
96.7285	187.4013	228.159	263.9289	321.6469	346.25	400.175	470.9022	507.5521	676.3607	754.9503	822.1636	832.4636	850.9014	861.3176	918.4515	946.2323	969.9179	987.5562	1013.9317	1050.918	1069.4191	1094.269	1117.9267	1138.132	1157.0125	1168.8718	1188.989	1194.0068	1239.2037	1268.4941	1290.113	1308.1823	1335.5355	1358.422	1368.352	1410.1436	1483.7898	1495.146	1497.7608	1502.6321	3025.8448	3034.611	3048.3588	3070.7262	3086.0976	3090.1609	3095.0414	3098.0225	3098.3542	3105.8782
CC1CC23OCC2OC13	C[C@@H]1C[C@@]23OC[C@@H]2O[C@@H]13	
InChI=1S/C7H10O2/c1-4-2-7-5(3-8-7)9-6(4)7/h4-6H,2-3H2,1H3	InChI=1S/C7H10O2/c1-4-2-7-5(3-8-7)9-6(4)7/h4-6H,2-3H2,1H3/t4-,5+,6+,7-/m1/s1
