19
gdb 4766	1.8681769	1.4008079	0.8796132	2.7418	78.76	-0.25005	-0.03339	0.21666	1325.7911	0.152684	-422.529748	-422.518974	-422.51803	-422.566054	37.696	
C	 4.6027531969	-1.1474193427	 0.943121309	-0.411801
C	 3.069200595	-1.2131853537	 0.8913153031	-0.052693
C	 2.6502844155	-2.5947795108	 0.3541756516	-0.045507
O	 1.2853692323	-2.7358591695	 0.0264392972	-0.413734
C	 2.4545761304	-0.0620931037	 0.0293058316	-0.21325
C	 3.1602548364	 1.2682680437	 0.3224831474	 0.157479
O	 3.8919569925	 1.8266278143	-0.4484521705	-0.247621
C	 1.0339623557	 0.1401335751	 0.2996152521	 0.281094
C	-0.1031634032	 0.4054596797	 0.5906551838	-0.437491
H	 5.0022842596	-2.0308609441	 1.4511641559	 0.120379
H	 5.0293589633	-1.1151322429	-0.064937625	 0.136089
H	 4.962624268	-0.2670838945	 1.481953997	 0.130144
H	 2.6760220345	-1.1004341766	 1.9104413572	 0.086161
H	 3.1963849875	-2.7956277202	-0.5757064186	 0.111362
H	 2.9728219898	-3.354281641	 1.0857227304	 0.091857
H	 0.7526773183	-2.3890795802	 0.7497866221	 0.285162
H	 2.6213348855	-0.2826063548	-1.0312176888	 0.128322
H	 2.9352175227	 1.6854435244	 1.3288560401	 0.090165
H	-1.1209314108	 0.6174770874	 0.8090922445	 0.203883
47.8271	72.5644	116.5783	148.7415	175.6157	216.4199	232.0426	259.3883	296.4736	351.5489	390.8466	474.4987	479.8658	523.6036	541.3852	638.9044	650.9462	841.2396	903.1664	939.1782	951.4783	1008.3973	1059.8209	1086.7331	1101.3327	1130.2575	1148.5842	1206.6618	1259.5444	1293.6934	1331.7968	1365.0064	1383.5318	1412.5343	1419.9671	1433.8528	1493.9901	1499.1727	1508.9889	1836.4225	2223.9955	2889.2312	2965.4042	3016.6034	3038.8481	3052.669	3057.9608	3107.3036	3115.0965	3500.4944	3813.3294
CC(CO)C(C=O)C#C	C[C@H](CO)[C@H](C=O)C#C	
InChI=1S/C7H10O2/c1-3-7(5-9)6(2)4-8/h1,5-8H,4H2,2H3	InChI=1S/C7H10O2/c1-3-7(5-9)6(2)4-8/h1,5-8H,4H2,2H3/t6-,7+/m1/s1
