19
gdb 3065	2.703501	1.3867306	1.1336697	1.8566	77.95	-0.22526	0.01283	0.23809	1157.4283	0.156019	-422.528767	-422.520045	-422.519101	-422.561774	33.054	
C	-0.8619098576	 1.9941463752	 0.3287712987	-0.519336
C	-0.5358048807	 0.6953897168	-0.3241398171	 0.239125
C	 0.1083947686	 0.3877751105	-1.464228285	 0.239127
C	 0.7463539955	 1.2261629548	-2.5175652472	-0.519335
C	 0.0059699723	-1.1357785961	-1.4667942326	-0.094542
O	 0.2880092159	-1.4884721294	-0.0629526539	-0.313669
C	-0.9270415225	-0.6902511302	 0.184435767	-0.094544
C	-1.5141371695	-1.3515392801	-1.1181847285	 0.198342
O	-1.9349751189	-2.6704197692	-1.0001220357	-0.44783
H	-0.4214415603	 2.0595085224	 1.3316957468	 0.133577
H	-0.4938896687	 2.8426127448	-0.2550379411	 0.126913
H	-1.9449623939	 2.1202609841	 0.4531953789	 0.130426
H	 0.6578823675	 2.2927900614	-2.2925181224	 0.126915
H	 1.8131608249	 0.992059308	-2.6236617284	 0.133572
H	 0.2883959082	 1.0539774008	-3.4999198045	 0.130428
H	 0.5453455899	-1.7339072217	-2.2015155166	 0.078058
H	-1.3625330504	-0.8228595873	 1.1750224468	 0.078058
H	-2.2629786198	-0.79977138	-1.6901848973	 0.088716
H	-1.2453201605	-3.1180251948	-0.4896583178	 0.286
140.5819	155.1887	167.9493	176.8129	234.5968	274.2208	314.8294	417.6731	498.2852	568.1102	582.5172	596.0603	616.2531	757.6194	832.3101	835.4336	862.4409	917.7348	928.9707	948.99	1036.1959	1041.1157	1068.1101	1112.0846	1120.6346	1158.6783	1180.1771	1204.6089	1205.8477	1213.5668	1296.376	1299.0113	1341.6244	1413.0106	1420.5569	1433.991	1478.4419	1479.207	1487.2227	1489.8444	1719.9653	3016.2474	3017.5215	3062.1015	3062.3289	3102.4561	3104.5041	3107.0824	3123.6264	3127.5423	3748.7713
CC1=C(C)C2OC1C2O	CC1=C(C)[C@H]2O[C@@H]1[C@@H]2O	
InChI=1S/C7H10O2/c1-3-4(2)7-5(8)6(3)9-7/h5-8H,1-2H3	InChI=1S/C7H10O2/c1-3-4(2)7-5(8)6(3)9-7/h5-8H,1-2H3/t5-,6-,7+
