19
gdb 472	3.6992007	1.1497582	1.0045146	1.0407	74.49	-0.23262	0.08822	0.32084	1211.3124	0.157867	-422.51528	-422.507411	-422.506466	-422.548199	29.905	
C	 2.89176668	-1.4326799241	 2.8525167867	-0.192622
O	 3.1501984439	-0.0538748235	 2.5771303703	-0.244422
C	 1.9991235358	-0.6576817531	 1.9828814488	 0.100581
C	 2.0088980031	-0.7995399133	 0.476485462	-0.058764
C	 0.8249989348	-1.6696595922	-0.0229877629	-0.11961
O	-0.252424119	-0.7807961568	-0.3120678944	-0.25654
C	 0.2961619683	 0.4725538211	-0.6342734063	 0.125405
C	 1.3909164098	 0.54140743	-1.6662010745	-0.352612
C	 1.7265647077	 0.5459137097	-0.1834628464	-0.066436
H	 3.5956931241	-2.1362059391	 2.4087177557	 0.112217
H	 2.5951497403	-1.6584388041	 3.875849447	 0.116057
H	 1.0514045939	-0.3133115515	 2.401959382	 0.101348
H	 2.9679060152	-1.2287213747	 0.1679903321	 0.082003
H	 1.1130502051	-2.2296979169	-0.9225441562	 0.100576
H	 0.4744035365	-2.3900812579	 0.7225249544	 0.11177
H	-0.4267641064	 1.2714648487	-0.5237328325	 0.102457
H	 1.616224974	-0.3361211193	-2.2630148447	 0.1165
H	 1.5118483929	 1.4803282084	-2.1957804848	 0.116223
H	 2.1557455401	 1.4329959086	 0.2662029635	 0.105867
70.6973	105.1352	165.3232	270.7849	323.7649	354.6504	445.6714	473.7991	704.7963	727.7378	791.6999	813.2196	819.5896	868.1831	902.9358	915.6219	962.9528	965.2629	985.8733	1005.8377	1044.2574	1061.9849	1086.2035	1103.2397	1116.7604	1154.003	1160.9559	1168.8362	1185.3534	1202.0275	1244.0671	1255.3393	1286.9887	1292.3448	1325.8751	1370.823	1398.9232	1452.1278	1476.6642	1522.2269	1530.8981	3008.7619	3055.4748	3077.377	3080.37	3094.8544	3131.9322	3166.5686	3183.6341	3192.2112	3217.7776
C1OC1C1COC2CC12	C1O[C@H]1[C@H]1CO[C@@H]2C[C@H]12	
InChI=1S/C7H10O2/c1-4-5(7-3-9-7)2-8-6(1)4/h4-7H,1-3H2	InChI=1S/C7H10O2/c1-4-5(7-3-9-7)2-8-6(1)4/h4-7H,1-3H2/t4-,5+,6-,7-/m1/s1
