19
gdb 4319	3.1180665	1.1577596	0.8928676	2.9946	78.28	-0.24324	-0.02893	0.21431	1305.0855	0.155547	-422.575777	-422.566766	-422.565822	-422.610242	32.707	
C	 1.044910704	 1.192860683	 0.0204257274	-0.404622
C	 1.0138677983	-0.3252922432	 0.0908253664	 0.140833
C	 1.8327894649	-0.8995904846	 1.252735788	-0.257045
C	 2.0422092411	-2.3805409007	 1.076332542	-0.081946
C	 1.8237270023	-2.9852897908	-0.0874553683	-0.073985
C	 1.4085702246	-2.2071727411	-1.3099854595	-0.000186
O	 1.52202978	-0.8103823426	-1.1530953767	-0.285287
C	 2.2736914659	-2.5850822817	-2.5133160066	 0.132221
O	 2.4091692769	-3.7123791012	-2.906682226	-0.247077
H	 0.6614284532	 1.627303614	 0.9485214801	 0.117163
H	 2.0704839604	 1.5443175811	-0.1297438214	 0.126161
H	 0.4336020188	 1.5517798058	-0.811612329	 0.124623
H	-0.0291603949	-0.6673735758	 0.2003242659	 0.071214
H	 2.8007343165	-0.3824447053	 1.3189389524	 0.113842
H	 1.3144136748	-0.6992492999	 2.1990120822	 0.107739
H	 2.3715285996	-2.9546819154	 1.9381555754	 0.097631
H	 1.9473873515	-4.0538486913	-0.2288444581	 0.11632
H	 0.3708931434	-2.4847038875	-1.5829145702	 0.103447
H	 2.7665426687	-1.7126248527	-2.9942715241	 0.098952
43.7094	92.0586	139.5753	195.6948	227.0838	291.9958	338.2997	407.398	458.1289	470.6921	545.6828	589.2292	712.344	785.4065	841.6692	858.7314	916.5935	934.6421	987.074	1002.3384	1033.0976	1074.2277	1083.6735	1126.0448	1129.7605	1175.7207	1208.1981	1237.6645	1277.3762	1309.2819	1324.751	1372.9456	1393.0271	1399.4574	1403.4864	1416.7783	1469.7762	1484.2081	1499.5834	1723.0995	1839.6544	2906.4922	2907.0023	2959.7346	3008.7209	3042.6755	3048.3769	3116.1757	3123.2481	3160.6584	3195.5346
CC1CC=CC(O1)C=O	C[C@@H]1CC=C[C@@H](O1)C=O	
InChI=1S/C7H10O2/c1-6-3-2-4-7(5-8)9-6/h2,4-7H,3H2,1H3	InChI=1S/C7H10O2/c1-6-3-2-4-7(5-8)9-6/h2,4-7H,3H2,1H3/t6-,7-/m1/s1
