19
gdb 5017	2.8127831	1.2986488	1.0956111	2.8603	76.83	-0.24364	-0.02538	0.21826	1172.4363	0.155735	-422.506826	-422.498076	-422.497132	-422.540755	31.971	
C	 1.4447383252	-0.1821202639	-0.0645764154	-0.266106
O	 0.0356026092	-0.1282342379	 0.0800093468	-0.290298
C	-0.3893220978	 0.5797450986	 1.1770910243	 0.426904
C	-0.2285579207	 2.1042778981	 1.4890987293	-0.295156
C	-1.1154127403	 1.5092306029	 2.6220692784	-0.063273
C	-0.1225441828	 0.3095605718	 2.6935839317	-0.299061
C	-1.9098370515	 0.7555989014	 1.5155353067	-0.1193
C	-2.7477157941	-0.4520571244	 1.8255657184	 0.116666
O	-2.9069846531	-0.9382290514	 2.9189415078	-0.249914
H	 1.9199936482	-0.6660989658	 0.7992952814	 0.119469
H	 1.6486647908	-0.7711436628	-0.9606453141	 0.133778
H	 1.8762093813	 0.8205951901	-0.1887866086	 0.11657
H	 0.7661514182	 2.4423473917	 1.7897440061	 0.095275
H	-0.7070088419	 2.8009094144	 0.7959834723	 0.096207
H	-1.545116232	 2.0447666743	 3.4636101804	 0.094319
H	 0.8806088964	 0.5495357282	 3.0546485228	 0.091561
H	-0.5013305026	-0.61768525	 3.1187721882	 0.128702
H	-2.43607666	 1.3846407996	 0.7870538164	 0.082342
H	-3.2496808924	-0.890169555	 0.9322380573	 0.081314
62.094	93.7613	152.8655	189.9593	223.5051	261.1265	351.7057	421.5141	487.258	569.2439	618.2091	715.4121	782.7033	819.6323	846.3049	920.3065	943.8465	952.4842	983.2739	1021.6256	1049.3758	1080.1176	1090.7542	1115.3926	1130.8554	1148.6067	1165.2448	1180.7529	1203.8911	1206.8563	1226.9177	1238.7317	1300.6869	1387.9755	1427.0047	1484.1373	1489.8003	1497.4652	1505.6154	1542.481	1816.3763	2866.3578	2998.3358	3038.4064	3052.3094	3056.6634	3072.9727	3123.9568	3129.5531	3161.774	3166.3014
COC12CC(C1)C2C=O	CO[C@]12C[C@H](C1)[C@@H]2C=O	
InChI=1S/C7H10O2/c1-9-7-2-5(3-7)6(7)4-8/h4-6H,2-3H2,1H3	InChI=1S/C7H10O2/c1-9-7-2-5(3-7)6(7)4-8/h4-6H,2-3H2,1H3/t5-,6-,7-/m0/s1
