19
gdb 893	2.0334857	1.6957786	1.1873543	1.7477	75.65	-0.25727	0.00594	0.26321	1118.6863	0.155668	-422.54652	-422.537626	-422.536682	-422.580528	32.894	
O	-0.0164117871	-0.311137134	 0.1468890055	-0.29793
C	-0.4598120964	-0.066597476	-0.9386588575	 0.166909
O	-1.0034134054	 1.0910069222	-1.3612624007	-0.258931
C	-1.0582964087	 2.208762066	-0.468222027	 0.429452
C	-0.4647392321	 3.4599674038	-1.0545747564	-0.314461
C	 0.2418568257	 2.7305651705	 0.0682323654	-0.306946
C	-2.3210926041	 2.2952151319	 0.3344232902	-0.027819
C	-2.9762560316	 1.1007680019	 0.9778073372	-0.280299
C	-3.6338852765	 1.7788084526	-0.2000185595	-0.277066
H	-0.4861629379	-0.7736928292	-1.7837885074	 0.109102
H	-0.039489367	 3.3805731496	-2.048419797	 0.124393
H	-0.9603853478	 4.4014302507	-0.8451991166	 0.117169
H	 1.1446790315	 2.1830124663	-0.1704554146	 0.132356
H	 0.2314171786	 3.160138598	 1.0638949194	 0.123313
H	-2.3684567396	 3.2211761764	 0.9005842046	 0.083679
H	-2.5286952176	 0.1264668075	 0.8282603723	 0.133317
H	-3.411459563	 1.2387564846	 1.9614656997	 0.112237
H	-3.6130667031	 1.2595898409	-1.1512895128	 0.120859
H	-4.5259362781	 2.3715021363	-0.0310099548	 0.110664
54.6554	90.9298	182.1412	194.9282	228.6213	267.2901	334.366	353.2876	494.383	523.5428	638.1152	752.0922	779.8557	796.6312	820.8084	845.3103	899.337	934.0176	963.5167	980.6263	1014.9089	1045.4359	1057.4104	1065.9623	1077.8245	1080.1077	1089.1611	1132.0941	1185.6051	1188.794	1198.3796	1226.1815	1271.7709	1296.1451	1415.0222	1433.2404	1460.268	1471.8594	1496.8064	1515.5831	1826.3877	3016.5895	3138.1513	3138.7407	3143.8265	3146.9931	3150.4315	3221.9357	3223.7373	3239.163	3239.7364
O=COC1(CC1)C1CC1	O=COC1(CC1)C1CC1	
InChI=1S/C7H10O2/c8-5-9-7(3-4-7)6-1-2-6/h5-6H,1-4H2	InChI=1S/C7H10O2/c8-5-9-7(3-4-7)6-1-2-6/h5-6H,1-4H2
