19
gdb 3160	2.5675599	1.8098351	1.3578736	2.0435	73.29	-0.24849	0.07031	0.3188	1003.124	0.157183	-422.542057	-422.533951	-422.533007	-422.574153	31.998	
C	 0.6535394874	 1.2376709947	-3.2525798652	-0.492592
C	 0.3949368303	 0.1188657997	-2.2856687042	 0.369814
O	 1.0130438545	-1.1503468043	-2.5982695213	-0.307285
C	-0.4254513658	-1.0791396079	-2.5132708104	-0.0391
C	-0.9988615511	-1.5837788826	-1.2049962658	-0.060047
C	-0.005731249	-2.1600797082	-0.2267421583	-0.296234
C	-0.406932322	-0.7099175214	-0.1175802168	-0.072283
C	 0.4547127906	 0.3829294355	-0.7705097193	 0.0623
O	 1.7883622307	 0.4776279866	-0.3035888668	-0.437253
H	-0.1008871766	 2.0248192354	-3.1493520704	 0.122681
H	 1.6342227868	 1.6835364502	-3.0548498898	 0.139217
H	 0.6408832862	 0.8701450096	-4.2816584317	 0.128387
H	-0.9465320853	-1.2709116967	-3.4477416666	 0.094445
H	-2.0320542722	-1.9096415775	-1.1951458087	 0.086471
H	-0.3913840274	-2.8240644568	 0.5391219377	 0.110729
H	 0.9744216188	-2.4214700341	-0.604933423	 0.126875
H	-0.9953726702	-0.4229221218	 0.746206354	 0.088511
H	 0.0061489121	 1.3599191564	-0.5585621955	 0.086341
H	 2.2351919524	-0.3260194068	-0.595997248	 0.289021
123.5474	196.81	219.5093	230.9071	272.1023	362.9895	389.9694	463.7571	531.9324	574.0207	633.0642	681.2394	729.4589	784.3523	814.6036	840.5753	883.6092	935.2657	948.9541	981.7997	1032.0858	1040.8034	1066.5332	1080.685	1090.4858	1103.9062	1112.4498	1114.8307	1196.1014	1228.1508	1280.9815	1292.4459	1319.4099	1344.506	1380.406	1405.3585	1431.8586	1451.8136	1479.3123	1486.1266	1497.9951	3035.7733	3053.7117	3100.7898	3123.7993	3142.0378	3146.9309	3171.791	3184.8864	3232.8218	3790.3352
CC12OC1C1CC1C2O	C[C@]12O[C@H]1[C@H]1C[C@H]1[C@H]2O	
InChI=1S/C7H10O2/c1-7-5(8)3-2-4(3)6(7)9-7/h3-6,8H,2H2,1H3	InChI=1S/C7H10O2/c1-7-5(8)3-2-4(3)6(7)9-7/h3-6,8H,2H2,1H3/t3-,4+,5-,6+,7-/m1/s1
