19
gdb 3446	3.1817717	1.4385401	1.1664956	2.5032	77.85	-0.23528	0.0063	0.24158	1098.2918	0.15672	-422.517895	-422.509472	-422.508528	-422.550567	32.133	
C	-0.0232456932	 1.5725897128	-0.0921047088	-0.426292
C	-0.0178663789	 0.0463132193	 0.0153679855	-0.028931
C	-1.4176980094	-0.5636710667	 0.1655432502	-0.210294
C	-1.3205944731	-1.6553649437	 0.9110930596	 0.189888
C	-1.8652749747	-2.4385312031	 2.0783625042	-0.154922
O	-0.549169497	-2.3434105132	 2.7088936311	-0.300205
C	 0.0473772883	-1.8807110748	 1.4593666047	 0.119841
C	 0.7248035419	-0.4980391474	 1.3048001597	 0.032287
O	 0.4428386579	 0.2706742462	 2.4543780307	-0.410729
H	 0.996432023	 1.9735741064	-0.1321786482	 0.10939
H	-0.5360423341	 1.8967862496	-1.0029214339	 0.120972
H	-0.5396846416	 2.0227229437	 0.7610470328	 0.128382
H	 0.4985647435	-0.3592500662	-0.867435615	 0.081621
H	-2.3158911119	-0.070038076	-0.1875037796	 0.097402
H	-2.6531742982	-1.9607723723	 2.6703184036	 0.123743
H	-2.1315754799	-3.4860038936	 1.8851772624	 0.107021
H	 0.661858738	-2.6766538519	 1.0160829904	 0.077409
H	 1.8099079357	-0.5710741765	 1.1377113068	 0.056138
H	 0.9148877238	 1.1048792274	 2.3744770338	 0.287277
96.965	170.813	220.3115	240.4523	257.0721	289.0422	338.9574	358.632	454.7588	527.5763	675.3213	729.4724	767.6116	813.4224	845.0985	869.3112	899.5048	915.1572	969.7636	991.6588	1008.4311	1044.9461	1063.8094	1094.7963	1131.9794	1138.2655	1155.9807	1194.5057	1236.4003	1263.9359	1274.9502	1311.1025	1335.1054	1351.9299	1361.8438	1397.539	1431.4682	1496.0926	1506.8372	1507.2526	1749.2531	2979.8555	2992.4769	3007.2597	3014.6056	3028.5706	3072.4938	3094.0207	3109.7609	3195.8112	3829.2266
CC1C=C2COC2C1O	C[C@@H]1[CH][C]2CO[C@@H]2[C@@H]1O	
InChI=1S/C7H10O2/c1-4-2-5-3-9-7(5)6(4)8/h2,4,6-8H,3H2,1H3	InChI=1S/C7H10O2/c1-4-2-5-3-9-7(5)6(4)8/h2,4,6-8H,3H2,1H3/t4-,6-,7+/m1/s1
