19
gdb 5609	2.5443	1.3115428	1.0047463	3.4586	78.34	-0.23027	-0.02419	0.20608	1243.1752	0.15493	-422.573656	-422.564186	-422.563242	-422.608284	33.875	
C	 1.2925511187	-0.1722873909	-0.3424632949	-0.249564
O	-0.0765390986	-0.0795081537	 0.0106520526	-0.236018
C	-0.3472907134	 0.6300793603	 1.1970002418	-0.005012
C	 0.0703531681	 2.0788773035	 1.2495829067	-0.223822
C	 0.6594592786	 2.4211188108	 2.4014301325	 0.316776
C	 1.1433629038	 3.7796972223	 2.7949758793	-0.48628
C	 0.7824321732	 1.2403290187	 3.3380776258	-0.413331
C	 0.3309029983	 0.0565426947	 2.4748059958	 0.359977
O	 0.5130641937	-1.1079989541	 2.7042120884	-0.298289
H	 1.8654806373	-0.7538132922	 0.3911426294	 0.124483
H	 1.3282323744	-0.6874741028	-1.304789314	 0.129942
H	 1.7572484322	 0.8175197024	-0.4521434717	 0.106413
H	-1.4355069498	 0.5300892209	 1.3251997014	 0.113332
H	-0.1362431704	 2.7632451372	 0.433647771	 0.101458
H	 0.6214328972	 4.1428887329	 3.6893769585	 0.131574
H	 2.2111763696	 3.7573839399	 3.0473747887	 0.13145
H	 0.9943888243	 4.5077928599	 1.9931988182	 0.128676
H	 1.7939047972	 1.081614199	 3.7319002223	 0.13182
H	 0.1232182255	 1.3274860609	 4.2136811181	 0.136415
66.0108	95.2226	127.4069	170.5556	192.4932	255.069	281.2356	324.6898	432.9623	446.4704	516.3879	555.6749	598.7477	703.0674	777.4891	836.9467	882.79	945.7496	969.2289	1000.2019	1044.6048	1057.0274	1103.6101	1136.4275	1163.8763	1179.3445	1191.5323	1225.496	1251.1394	1276.6144	1342.5772	1362.3862	1413.8858	1446.3934	1474.9072	1477.054	1486.009	1488.9701	1510.3443	1708.3796	1857.9612	2997.1979	3001.2294	3014.4934	3019.483	3055.2829	3057.9799	3066.2247	3113.9342	3122.4756	3188.8776
COC1C=C(C)CC1=O	CO[C@@H]1C=C(C)CC1=O	
InChI=1S/C7H10O2/c1-5-3-6(8)7(4-5)9-2/h4,7H,3H2,1-2H3	InChI=1S/C7H10O2/c1-5-3-6(8)7(4-5)9-2/h4,7H,3H2,1-2H3/t7-/m1/s1
