19
gdb 1804	2.5625421	1.414719	1.3551484	2.3676	77.3	-0.25598	-0.04079	0.21519	1071.6789	0.155871	-422.529572	-422.521048	-422.520103	-422.562309	33.016	
C	 0.0637547943	 2.1790495682	-2.1887767221	-0.51906
C	-0.1220438394	 0.7012051433	-1.9784070426	 0.268245
C	-1.4489906341	-0.1214853785	-2.107969575	-0.265942
C	-0.3716000877	-1.1549438526	-1.6650062287	-0.118243
C	 0.5685896921	-0.4902902911	-2.7078620154	-0.287817
C	 0.0917013235	-0.0809217908	-0.6126086165	 0.371312
O	-0.7969810292	 0.2293283281	 0.4135976295	-0.502339
C	 1.480711914	-0.1818158718	-0.0397086299	 0.071157
O	 1.6833674255	 0.0127276486	 1.1400233823	-0.285022
H	-0.5133450794	 2.7424710187	-1.4483074551	 0.136441
H	 1.1154017358	 2.4706769596	-2.093732615	 0.11944
H	-0.279500965	 2.4782059559	-3.1849976183	 0.123993
H	-2.2403581326	 0.1040263443	-1.3961591287	 0.127337
H	-1.8299007588	-0.2403348256	-3.1261689853	 0.088134
H	-0.5098773029	-2.2194591628	-1.4745482178	 0.082426
H	 1.6477435991	-0.6166566727	-2.6120013473	 0.093318
H	 0.2644386114	-0.6275072717	-3.748007825	 0.101256
H	-0.2507427381	 0.2951458785	 1.2136937921	 0.292784
H	 2.3131593513	-0.4395035376	-0.7154604413	 0.10258
89.299	178.5299	196.7383	229.0681	289.5718	313.6609	385.509	429.4358	470.6757	521.204	541.2992	611.5627	643.0936	734.3985	801.542	833.023	894.764	904.1917	936.1058	1000.1262	1010.9278	1016.8656	1038.573	1072.8677	1100.1164	1102.5568	1174.3686	1182.1778	1208.4717	1215.9994	1227.531	1266.9305	1318.8877	1388.5127	1405.5131	1451.1067	1485.902	1490.6359	1505.9328	1549.1736	1782.2237	2989.2204	3029.0006	3064.2008	3072.4941	3095.6226	3103.506	3114.1938	3129.6892	3163.3007	3672.9445
CC12CC(C1)C2(O)C=O	C[C@@]12C[C@@H](C1)[C@@]2(O)C=O	
InChI=1S/C7H10O2/c1-6-2-5(3-6)7(6,9)4-8/h4-5,9H,2-3H2,1H3	InChI=1S/C7H10O2/c1-6-2-5(3-6)7(6,9)4-8/h4-5,9H,2-3H2,1H3/t5-,6+,7-/m0/s1
