19
gdb 2412	2.2112777	1.8773301	1.3582293	2.5624	74.3	-0.24659	-0.02836	0.21823	1015.7429	0.157608	-422.585005	-422.576917	-422.575973	-422.617556	31.508	
O	-0.5263506325	 2.0922303234	 1.0990332351	-0.486273
C	-0.8729520167	 1.2191184236	 0.06649378	 0.344382
C	-0.9136650898	 1.8182818318	-1.3767541975	-0.290911
C	-2.3374865542	 1.2324075734	-1.5775302087	-0.23173
C	-2.3586100753	 0.7530845255	-0.0943670732	-0.058438
C	-2.3730912843	-0.7764253716	 0.111220029	-0.239109
C	-0.9509978858	-1.2460096545	-0.2712635536	-0.325104
C	-0.0796565356	-0.0846569433	 0.1831416183	 0.339961
O	 1.0167810311	-0.1350229764	 0.6873445369	-0.337804
H	 0.3527026634	 1.8131854783	 1.398374744	 0.286965
H	-0.8996602779	 2.9080811448	-1.3083259789	 0.122647
H	-0.1332972469	 1.5003992051	-2.0741474238	 0.10151
H	-3.1042736379	 1.9640429099	-1.838212894	 0.108768
H	-2.392989132	 0.4154564376	-2.3025274939	 0.097954
H	-3.0743027196	 1.2790379015	 0.5382719223	 0.084226
H	-2.5604641156	-1.0099198936	 1.1653447588	 0.114123
H	-3.1535611072	-1.2678930342	-0.4768744002	 0.106851
H	-0.6322104748	-2.1845174281	 0.1850074566	 0.129848
H	-0.8515383583	-1.3548732933	-1.3594097671	 0.132134
70.7651	148.4421	211.6921	276.3074	313.3437	385.1231	439.764	477.7625	488.1054	577.5857	646.1794	688.8751	718.8901	798.2832	814.0321	827.1913	912.2716	940.6078	947.1124	976.3087	1026.0963	1050.0688	1059.4458	1105.2783	1126.8902	1161.3157	1189.6492	1217.0392	1231.7921	1238.1953	1266.7891	1282.6142	1315.0939	1326.1275	1350.8174	1402.2058	1458.2486	1472.5977	1489.9664	1496.4707	1829.2253	3031.4844	3042.7984	3055.452	3063.1143	3090.123	3101.6323	3112.0803	3123.2094	3126.4278	3705.8699
OC12CCC1CCC2=O	O[C@]12CC[C@H]1CCC2=O	
InChI=1S/C7H10O2/c8-6-2-1-5-3-4-7(5,6)9/h5,9H,1-4H2	InChI=1S/C7H10O2/c8-6-2-1-5-3-4-7(5,6)9/h5,9H,1-4H2/t5-,7-/m1/s1
