19
gdb 2481	3.0216949	1.3308409	1.103269	3.1576	77.36	-0.23682	-0.02264	0.21418	1143.0985	0.156656	-422.559115	-422.550549	-422.549605	-422.592017	32.022	
C	 1.845618822	 1.4588627224	-2.6232634408	-0.494019
C	 0.6355302543	 0.589638516	-2.3818179232	 0.271553
C	-0.6364729454	 0.8747462616	-3.1824457253	-0.292543
C	-1.39009448	-0.473130235	-3.1835543691	-0.09808
O	-0.4158666003	-1.488118076	-2.9063218438	-0.253921
C	 0.6508682303	-0.8839878457	-2.253471525	 0.10122
C	 0.3492092625	-0.0361746775	-0.9910652383	-0.228724
C	 1.3668471009	-0.0643316701	 0.0726057551	 0.129355
O	 2.5645907217	-0.1518513248	-0.1022026051	-0.284496
H	 2.7054023905	 1.1075642564	-2.052041495	 0.163633
H	 2.102917158	 1.4525797627	-3.6885072587	 0.116539
H	 1.6450855801	 2.4967218094	-2.3347760027	 0.11719
H	-1.2439967026	 1.684796594	-2.7686201325	 0.111619
H	-0.3429376338	 1.163288271	-4.1975123554	 0.115554
H	-2.1710192268	-0.4937860562	-2.4123225343	 0.107768
H	-1.8582714173	-0.712007036	-4.1416786355	 0.11805
H	 1.5530142905	-1.4836225736	-2.2343429816	 0.130505
H	-0.6776491037	-0.0123605499	-0.6405890556	 0.090813
H	 0.952249319	-0.0311328486	 1.1045576366	 0.077983
123.2065	181.0078	188.6169	200.2168	229.0553	249.9029	326.747	344.5033	405.201	589.3432	654.9086	684.3604	733.7926	845.1969	865.8709	898.9829	934.0188	956.5236	991.4098	1001.3657	1031.4111	1053.2966	1071.8142	1082.7051	1140.566	1149.9231	1219.3519	1227.7853	1243.2664	1269.2148	1294.3709	1352.5845	1384.31	1415.7476	1430.1198	1442.7699	1488.9551	1499.418	1508.6407	1527.9394	1783.9134	2880.8123	3017.5886	3031.4677	3046.6541	3086.7287	3088.2811	3100.2716	3147.2021	3163.6313	3197.8455
CC12CCOC1C2C=O	C[C@@]12CCO[C@@H]1[C@H]2C=O	
InChI=1S/C7H10O2/c1-7-2-3-9-6(7)5(7)4-8/h4-6H,2-3H2,1H3	InChI=1S/C7H10O2/c1-7-2-3-9-6(7)5(7)4-8/h4-6H,2-3H2,1H3/t5-,6-,7+/m1/s1
