19
gdb 3067	2.5496268	1.6553357	1.3034213	1.7639	75.46	-0.23526	-0.00137	0.23389	1044.8803	0.157433	-422.546332	-422.538149	-422.537205	-422.578579	31.807	
C	 0.8671155766	-0.5158252831	-0.8919581054	-0.433499
C	 1.0121062758	 0.199346017	 0.4431230419	 0.027419
C	 2.151971991	-0.3428414887	 1.3563919986	 0.029334
O	 3.0922998639	 0.5490732647	 0.6737131058	-0.303009
C	 1.9619234155	 1.4197258782	 0.4038186376	 0.072612
C	 1.7755042195	 2.3396976476	 1.6214718132	 0.065174
O	 0.5383186004	 3.0255746571	 1.4337762376	-0.438196
C	 1.7824184594	 1.4892944786	 2.880598808	-0.10514
C	 1.9526835543	 0.1728546655	 2.764815244	-0.059626
H	 0.4051221181	-1.5005955708	-0.7625541309	 0.112383
H	 0.2351714476	 0.0607706524	-1.5760304379	 0.119037
H	 1.8438540057	-0.6562513725	-1.3646017293	 0.13082
H	 0.0478831061	 0.3569520895	 0.9292482397	 0.085706
H	 2.4496821219	-1.391772042	 1.2876481582	 0.072067
H	 2.0654748924	 1.9827686522	-0.5280610606	 0.077284
H	 2.6088798765	 3.0600716103	 1.6505128351	 0.076962
H	 0.3988475796	 3.6105997766	 2.185022598	 0.284938
H	 1.6427191564	 1.98420174	 3.8388406926	 0.089122
H	 1.9461973194	-0.5064744125	 3.6108858338	 0.096611
138.9894	189.9639	198.7674	240.0358	255.9419	310.8536	400.5316	435.1949	472.3714	522.1375	644.9866	703.2455	774.0863	821.7587	858.1159	886.4768	929.6072	954.5389	962.574	975.2548	1013.5232	1057.1012	1064.8893	1080.1643	1091.3419	1135.4332	1155.0966	1188.61	1228.3158	1242.908	1286.8013	1306.0862	1327.8191	1348.8784	1386.0441	1403.6211	1408.1381	1416.3947	1494.8579	1502.3894	1693.3089	2969.3576	3030.925	3073.9617	3085.7007	3093.6447	3094.8097	3116.0888	3150.2477	3186.9415	3820.2602
CC1C2OC1C(O)C=C2	C[C@H]1[C@H]2O[C@@H]1[C@@H](O)C=C2	
InChI=1S/C7H10O2/c1-4-6-3-2-5(8)7(4)9-6/h2-8H,1H3	InChI=1S/C7H10O2/c1-4-6-3-2-5(8)7(4)9-6/h2-8H,1H3/t4-,5-,6-,7-/m0/s1
