19
gdb 5249	3.2094442	1.4771533	1.3007228	1.5778	74.2	-0.24226	0.0658	0.30806	1025.4748	0.15837	-422.517609	-422.510144	-422.5092	-422.549412	29.846	
O	 1.3235055395	 0.4596801686	 0.0168946716	-0.411563
C	 0.0961379751	-0.207381487	-0.2462925447	-0.193833
C	-0.9301845782	 0.6858336091	-0.8897649083	 0.300716
C	-0.6799302505	 1.5332553909	-2.1469801882	-0.283422
C	-2.0004783054	 2.2029829505	-1.7172492722	 0.072042
O	-2.9578844353	 1.1540055772	-1.9463750256	-0.269686
C	-2.4628995499	 0.2421755881	-0.9559020666	 0.030418
C	-2.7295710985	 1.0139502143	 0.3562191672	-0.247435
C	-1.6318081065	 1.9302108093	-0.1984460522	-0.117978
H	 1.1357744659	 1.1792325568	 0.6284328739	 0.281926
H	 0.3497378224	-1.0291657234	-0.9266406366	 0.115757
H	-0.3115229289	-0.6654935034	 0.6698376428	 0.087255
H	 0.1957117009	 2.1710356055	-2.0027892722	 0.105485
H	-0.663378814	 1.061017804	-3.1327474665	 0.099577
H	-2.3624102059	 3.1551949807	-2.1006801936	 0.079672
H	-2.8000252708	-0.7749197424	-1.1510707575	 0.078972
H	-3.7421470312	 1.3983696064	 0.4990357477	 0.103358
H	-2.3902580087	 0.4786771566	 1.246985287	 0.100646
H	-1.10751201	 2.7026545182	 0.3631888842	 0.068093
96.3852	165.7471	250.5254	313.5414	359.7033	434.0667	452.1049	534.7043	648.4045	658.0477	737.6614	807.1235	837.8719	840.0506	904.9927	919.6716	933.7541	948.0169	968.7694	989.5937	1031.8123	1046.1599	1049.9733	1064.5642	1128.1127	1137.1002	1150.0412	1174.2712	1198.6483	1215.3511	1242.3111	1244.8774	1267.0746	1278.8571	1310.7722	1348.613	1381.4622	1417.728	1477.0942	1484.0708	1498.4777	2968.4921	3055.2941	3060.3965	3061.5895	3121.4556	3121.8062	3124.6445	3131.4592	3140.2124	3812.6904
OCC12CC3OC1CC23	OC[C@@]12C[C@H]3O[C@@H]1C[C@@H]23	
InChI=1S/C7H10O2/c8-3-7-2-5-4(7)1-6(7)9-5/h4-6,8H,1-3H2	InChI=1S/C7H10O2/c8-3-7-2-5-4(7)1-6(7)9-5/h4-6,8H,1-3H2/t4-,5-,6-,7-/m1/s1
