19
gdb 2367	2.3760898	1.5966394	1.259436	2.2121	77.15	-0.24142	-0.02665	0.21477	1077.3147	0.154605	-422.526884	-422.517737	-422.516793	-422.560197	33.847	
C	 1.7628381135	 1.5049121587	 2.8214076373	-0.511883
C	 1.7547781895	 1.115573818	 1.3715801214	 0.208103
C	 2.0004283919	 2.0950402811	 0.2180706152	-0.142032
O	 2.7133643186	 1.0790408203	-0.544512033	-0.286972
C	 2.5591160711	 0.1761301441	 0.5328331739	 0.057686
C	 1.0611352065	-0.1336999123	 0.7776358965	 0.136569
C	 0.0474364095	-0.0528423092	-0.3459832815	-0.506003
C	 0.9134550676	-1.281687283	 1.7069887524	 0.090781
O	 1.6413215029	-1.5347246817	 2.642927923	-0.285736
H	 1.8431117249	 0.6272898663	 3.4630972011	 0.167068
H	 2.611156498	 2.1651278512	 3.0328687959	 0.120201
H	 0.8456957301	 2.0448254586	 3.0846465061	 0.119051
H	 1.1424012704	 2.5043403461	-0.3247945726	 0.11306
H	 2.6850913662	 2.9016412547	 0.5005469286	 0.12078
H	 3.3402538715	-0.543534412	 0.746645066	 0.129682
H	-0.280299749	-1.0559626103	-0.6383536932	 0.12237
H	-0.8425117238	 0.5163200776	-0.0564682905	 0.122161
H	 0.486706615	 0.416388145	-1.22885303	 0.148089
H	 0.0682149557	-1.9597989932	 1.4517358634	 0.077024
130.2592	159.489	179.4369	185.2199	222.1415	250.5561	293.8771	313.3617	352.6626	423.739	498.7251	609.1077	672.467	686.9101	730.8627	899.26	925.1389	958.6508	981.6012	986.0927	998.6483	1038.4015	1061.7583	1108.4669	1126.8461	1154.26	1167.6845	1222.414	1230.2932	1276.2535	1308.6729	1407.2677	1409.8962	1427.1704	1455.7767	1491.1447	1494.0051	1500.9013	1504.8164	1518.8443	1784.0206	2875.5495	3030.3295	3034.7308	3039.6685	3085.2352	3092.0533	3093.4533	3126.514	3150.4119	3194.2101
CC12COC1C2(C)C=O	C[C@@]12CO[C@@H]1[C@@]2(C)C=O	
InChI=1S/C7H10O2/c1-6(3-8)5-7(6,2)4-9-5/h3,5H,4H2,1-2H3	InChI=1S/C7H10O2/c1-6(3-8)5-7(6,2)4-9-5/h3,5H,4H2,1-2H3/t5-,6-,7-/m1/s1
