19
gdb 6017	4.2935947	0.7559957	0.6793857	3.775	77.34	-0.24127	-0.00938	0.23189	1625.9004	0.156032	-422.543765	-422.534721	-422.533777	-422.578228	33.008	
O	 1.407554676	-0.5786662704	 5.8305995075	-0.414567
C	 1.8027990347	 0.122468379	 4.6645028719	-0.053405
C	 0.6090810772	 0.5947446629	 3.82700345	-0.255101
C	 1.0233632974	 1.3695092654	 2.5918500788	-0.009716
C	 0.090285809	 2.3619155111	 1.9984427403	-0.076112
C	 0.6725781626	 2.9021469184	 0.6826553991	-0.372944
C	 1.8695036968	 3.4378818	 1.5204093529	 0.411595
O	 2.7725887331	 4.1825795639	 1.2654127665	-0.314132
C	 1.329022712	 2.8590583849	 2.7920195042	-0.174517
H	 0.9724248158	-1.3916786288	 5.5548382396	 0.282047
H	 2.3767099911	 0.9861220804	 5.0156422025	 0.120422
H	 2.4817634243	-0.4811599586	 4.040574422	 0.089974
H	 0.0199152669	-0.2803939538	 3.5175217681	 0.094638
H	-0.045467272	 1.2058023447	 4.4592495663	 0.110781
H	 1.6669445388	 0.8126322331	 1.9111425567	 0.09291
H	-0.9426743624	 2.4517498881	 2.3082387126	 0.105322
H	 0.8815681308	 2.1721130666	-0.1050341573	 0.119269
H	 0.1170058652	 3.7423433788	 0.2562516213	 0.133741
H	 1.4127335327	 3.2770137543	 3.788023227	 0.109796
77.8317	90.346	104.6412	157.9601	264.2609	292.6711	326.5014	352.1879	467.5146	504.8757	563.5782	649.4458	754.9572	805.5346	838.5101	868.4863	880.2842	971.5071	989.2549	1013.4301	1027.881	1035.8603	1053.7322	1082.458	1111.3265	1120.0273	1146.4271	1150.0772	1207.837	1223.7089	1254.8708	1286.9062	1306.7892	1326.1774	1397.9498	1419.6123	1429.6733	1459.0148	1483.9674	1512.3964	1882.7316	2975.4198	3007.9406	3055.3701	3061.6113	3083.0117	3104.3383	3111.3423	3190.5963	3205.5181	3816.4101
OCCC1C2CC(=O)C12	OCC[C@H]1[C@@H]2CC(=O)[C@H]12	
InChI=1S/C7H10O2/c8-2-1-4-5-3-6(9)7(4)5/h4-5,7-8H,1-3H2	InChI=1S/C7H10O2/c8-2-1-4-5-3-6(9)7(4)5/h4-5,7-8H,1-3H2/t4-,5-,7+/m0/s1
