19
gdb 4802	2.7136526	1.0441207	0.7990148	2.2326	78.85	-0.24942	0.03892	0.28834	1428.7099	0.153309	-422.47591	-422.465677	-422.464733	-422.512231	35.619	
C	 1.2688242819	-0.547975956	-0.1461824192	-0.247314
O	 0.0581376852	 0.1848842155	-0.128308524	-0.238736
C	-0.2639169133	 0.7979900184	 1.1109070715	-0.091314
C	 0.0840533252	 2.305550033	 1.1102884861	-0.215473
C	 1.5630626615	 2.5941738495	 1.1746587809	 0.07651
C	 2.1586548266	 3.7785467768	 0.5434747916	-0.183601
O	 2.3178437674	 2.48283655	-0.0352535359	-0.224084
C	-1.6949627399	 0.6059416123	 1.3666813105	 0.324694
C	-2.8689784113	 0.4770043098	 1.5862470478	-0.422181
H	 1.2885831848	-1.3129258573	 0.6447900212	 0.102698
H	 1.3108083506	-1.0505569515	-1.1155944627	 0.129786
H	 2.1494570313	 0.0980603915	-0.0494438729	 0.135505
H	 0.2968099083	 0.3082405632	 1.9243911534	 0.093157
H	-0.3472606467	 2.7520538434	 0.2094462955	 0.125095
H	-0.3987577811	 2.7693379681	 1.9789975749	 0.114277
H	 2.0772149513	 2.1828076293	 2.0468357247	 0.090867
H	 1.5223602097	 4.4626985642	-0.0164838057	 0.117701
H	 3.0614205949	 4.2208673778	 0.9623337201	 0.116109
H	-3.9057772564	 0.346509512	 1.7758835822	 0.196305
46.2057	56.6555	109.7396	129.0336	161.7099	190.2807	243.1152	329.3483	368.8155	382.126	470.3231	535.1563	554.6161	629.5844	665.0836	789.3803	848.6604	874.1397	940.7395	973.0469	1020.8564	1041.972	1097.5141	1121.6414	1142.9492	1159.8501	1172.4409	1183.1953	1213.9544	1249.1674	1285.6907	1299.1036	1359.1867	1374.0125	1444.0322	1456.592	1479.7537	1496.2356	1511.0064	1530.4663	2239.9868	2963.2755	2988.8852	3041.1356	3065.383	3076.7378	3084.1344	3103.7734	3117.6997	3170.4252	3503.1424
COC(CC1CO1)C#C	CO[C@@H](C[C@@H]1CO1)C#C	
InChI=1S/C7H10O2/c1-3-6(8-2)4-7-5-9-7/h1,6-7H,4-5H2,2H3	InChI=1S/C7H10O2/c1-3-6(8-2)4-7-5-9-7/h1,6-7H,4-5H2,2H3/t6-,7-/m1/s1
