19
gdb 3935	2.6034626	1.7935107	1.5370911	1.1757	73.59	-0.22414	0.07146	0.2956	963.6273	0.157205	-422.500034	-422.492253	-422.491308	-422.531892	30.61	
C	 2.6492362637	-0.9919707807	-1.0664175409	-0.406083
C	 1.7667481568	-0.0551587808	-0.2549954535	-0.045405
C	 2.3221618494	 1.4113775125	-0.0757101463	-0.309534
C	 2.3464311194	 1.1838892378	 1.4454645433	 0.302349
C	 1.0279926788	 0.7786785808	 2.0579627193	-0.378419
C	 1.8518172357	-0.2188768966	 1.2839374218	 0.300007
O	 2.7295104346	-1.0486561033	 1.9918801683	-0.29097
C	 3.8873473055	-0.2438227201	 2.2504761698	-0.000053
O	 3.4827100734	 1.1277873559	 2.2621825005	-0.289512
H	 3.684741412	-0.9803567091	-0.7111467407	 0.118848
H	 2.2908932966	-2.0239874923	-1.0019328632	 0.127079
H	 2.6526465464	-0.6961060399	-2.1205338247	 0.116717
H	 0.7375100716	-0.1021923013	-0.6272501953	 0.073969
H	 3.3308299193	 1.511230042	-0.4842694	 0.112754
H	 1.707922836	 2.2413616183	-0.437524913	 0.101743
H	 1.0528421932	 0.6533198493	 3.1331899311	 0.131392
H	 0.0920140445	 1.1511798067	 1.6486462204	 0.113046
H	 4.2889740747	-0.5044193964	 3.2335938342	 0.124407
H	 4.6458861583	-0.4107618427	 1.4689440191	 0.097665
129.0846	170.974	223.2695	230.1903	352.8098	368.3287	427.3693	476.3	546.0306	631.5299	687.9341	773.2364	784.2632	818.8804	868.0695	901.9204	915.0292	935.943	948.5591	1002.2553	1030.9867	1042.8745	1067.1462	1086.728	1150.8214	1158.4514	1188.141	1209.1467	1221.9812	1252.6799	1277.5988	1283.4334	1342.8448	1359.5802	1413.9624	1417.2516	1460.4377	1481.8473	1491.422	1495.3365	1539.0714	2972.0979	3035.1068	3037.8207	3051.1334	3095.0821	3103.3153	3106.8081	3113.4804	3115.8507	3233.0526
CC1CC23CC12OCO3	C[C@@H]1C[C@@]23C[C@@]12OCO3	
InChI=1S/C7H10O2/c1-5-2-6-3-7(5,6)9-4-8-6/h5H,2-4H2,1H3	InChI=1S/C7H10O2/c1-5-2-6-3-7(5,6)9-4-8-6/h5H,2-4H2,1H3/t5-,6-,7-/m1/s1
