19
gdb 2983	2.5725112	1.8342621	1.4241429	2.4263	74.29	-0.25862	0.08234	0.34096000000000004	973.3212	0.15868	-422.531816	-422.524468	-422.523524	-422.563252	29.914	
O	 0.5166151863	 0.1092159113	 0.7496219698	-0.455998
C	-0.8409186431	 0.4233874302	 0.9433766834	 0.086536
C	-1.2970947041	 0.3854872872	 2.4166576921	-0.050515
C	-2.6434521151	 1.1641469214	 2.3316672047	-0.244585
C	-1.7025376589	 2.3683758593	 2.0127760938	-0.10515
C	-0.6879864314	 1.6971483735	 2.9906601566	-0.230354
C	-1.1338374273	 1.9259990541	 0.6807418017	 0.435151
C	-1.3152586331	 2.5333142832	-0.6338957884	-0.284492
O	-0.0666444895	 2.6661344096	 0.0773800958	-0.302968
H	 0.9115491805	 0.8815395847	 0.3198468973	 0.293029
H	-1.465690115	-0.2332366627	 0.3209869791	 0.070149
H	-1.2075587516	-0.5715191814	 2.9287957582	 0.071593
H	-3.3742889646	 0.8630180264	 1.5739248049	 0.093438
H	-3.1306621821	 1.2674449532	 3.3030009033	 0.105968
H	-2.0148985324	 3.4082287736	 2.104584949	 0.068141
H	 0.3768529304	 1.876643073	 2.8298026156	 0.109529
H	-0.9535506343	 1.8603847842	 4.036959415	 0.099044
H	-1.2743402249	 1.9134565559	-1.5286913492	 0.121152
H	-1.8796606599	 3.4590217731	-0.7375000427	 0.120332
109.3276	255.1148	265.0606	298.9876	383.1764	439.6752	470.5211	502.9863	560.8749	602.9592	759.7325	809.8129	843.5721	853.8385	883.0755	894.0388	910.1083	941.7829	971.4806	1019.8618	1025.3632	1050.8074	1072.0372	1084.7557	1105.6977	1120.609	1146.6969	1168.1243	1215.3329	1219.7774	1224.6162	1247.2857	1258.7309	1281.4611	1318.6685	1374.3244	1407.3915	1449.2864	1487.4604	1517.3672	1536.0482	2994.4502	3049.6096	3073.0184	3082.6567	3118.2612	3122.2524	3128.5113	3135.0983	3169.7268	3723.2554
OC1C2CC(C2)C11CO1	O[C@H]1[C@@H]2C[C@@H](C2)[C@@]21CO2	
InChI=1S/C7H10O2/c8-6-4-1-5(2-4)7(6)3-9-7/h4-6,8H,1-3H2	InChI=1S/C7H10O2/c8-6-4-1-5(2-4)7(6)3-9-7/h4-6,8H,1-3H2/t4-,5+,6-,7+/m0/s1
