19
gdb 5945	2.1365002	1.1789224	0.8815542	2.2318	77.19	-0.25301	0.03701	0.29002	1353.1814	0.154676	-422.497169	-422.487273	-422.486329	-422.532451	35.242	
O	 1.5277654645	 0.9201689667	-0.1907223217	-0.418455
C	 0.236908394	 0.4752399114	 0.1975993555	-0.086105
C	-0.7742372401	 1.2077535746	-0.6762606491	-0.243684
C	-2.231971492	 0.7796269333	-0.4401757862	 0.070178
C	-3.2011656958	 1.3345824896	-1.5296445299	-0.113597
O	-3.2843562243	 0.05287374	-2.1755888694	-0.267663
C	-2.5976885779	-0.5930539152	-1.0908691332	-0.106691
C	-2.6565898312	 0.9689630375	 0.9362381611	 0.281694
C	-3.0216179584	 1.1290566287	 2.0712043455	-0.457375
H	 2.1744598762	 0.5068012918	 0.3883421217	 0.28743
H	 0.1341638903	-0.6141730331	 0.0609546835	 0.085113
H	 0.0359936738	 0.6917177677	 1.2566335157	 0.103468
H	-0.6779718388	 2.2846178431	-0.4986346032	 0.115644
H	-0.5261205977	 1.0296238168	-1.7287213809	 0.119027
H	-4.169705562	 1.6662913516	-1.137277809	 0.107917
H	-2.7831097836	 2.1061387057	-2.1862012112	 0.109439
H	-3.2689890211	-1.2107696547	-0.4826291293	 0.108202
H	-1.7529421952	-1.198749908	-1.4384099127	 0.108352
H	-3.3444217006	 1.2695890624	 3.0731844928	 0.197108
72.06	92.7488	110.9258	140.1886	181.7859	211.5621	260.2246	330.4604	371.4438	398.54	525.5177	535.5212	627.3297	634.0696	669.511	804.2748	845.4188	918.8254	968.5066	973.1795	992.6642	1026.6321	1045.7801	1065.7777	1103.4254	1160.6893	1164.6766	1182.6077	1228.685	1252.7981	1283.2382	1307.1359	1324.9661	1341.6029	1374.7349	1464.1741	1486.8622	1509.1283	1528.2421	1533.6936	2230.3058	2963.3671	3014.0464	3015.4662	3024.9797	3039.9359	3070.0648	3072.8508	3087.6368	3500.2928	3832.4834
OCCC1(COC1)C#C	OCCC1(COC1)C#C	
InChI=1S/C7H10O2/c1-2-7(3-4-8)5-9-6-7/h1,8H,3-6H2	InChI=1S/C7H10O2/c1-2-7(3-4-8)5-9-6-7/h1,8H,3-6H2
