19
gdb 4714	2.2808204	1.2492534	0.9954771	1.9092	77.14	-0.24776	0.03579	0.28355	1262.9045	0.154136	-422.510092	-422.500124	-422.49918	-422.544778	37.021	
O	 2.6269182276	 2.0499039935	-1.2198850364	-0.423423
C	 3.1475814997	 1.368571585	-0.0989164702	-0.064856
C	 2.569016542	-0.0610492391	 0.049054079	-0.240738
C	 1.1087423538	 0.0036012982	 0.1398733723	 0.279899
C	-0.0846830753	 0.1086597555	 0.2592706226	-0.455231
C	 3.1429950571	-0.7732304281	 1.2741908957	 0.427926
O	 2.8208351471	-0.1581643883	 2.4913810892	-0.47094
C	 4.5181105068	-1.3602636211	 1.2157484641	-0.314546
C	 3.304132017	-2.2713478479	 1.2661073136	-0.324978
H	 1.6719848446	 2.1099902168	-1.0994048514	 0.285205
H	 4.22759363	 1.2942084299	-0.2545084767	 0.114592
H	 2.9767366697	 1.91402853	 0.8386712558	 0.107905
H	 2.8409812586	-0.6266880298	-0.8504912212	 0.110467
H	-1.1420738755	 0.1728015935	 0.3402070901	 0.203708
H	 1.8607189632	-0.2013468931	 2.5856403623	 0.285898
H	 5.0753029242	-1.2912349096	 0.2876715757	 0.117079
H	 5.1163769475	-1.2744051414	 2.1150807377	 0.128451
H	 3.0323497924	-2.8252671357	 0.373949825	 0.114799
H	 3.1102400395	-2.7829189581	 2.2018337728	 0.118781
75.4944	105.7372	124.8853	161.7714	204.4815	302.2184	322.0719	350.2992	385.6856	395.5639	410.2328	500.7586	539.1283	573.0061	637.8071	657.2951	772.9081	816.3166	837.1833	907.6708	937.0286	944.4156	987.6338	1048.2612	1054.8021	1069.6526	1082.8456	1087.9628	1189.3023	1199.3645	1218.426	1288.6093	1299.5691	1330.246	1379.5855	1409.1159	1423.3191	1454.6577	1502.9209	1510.3492	2220.4788	3018.9676	3039.6843	3095.162	3134.2736	3139.1393	3220.7586	3234.4554	3499.3145	3769.3811	3790.3082
OCC(C#C)C1(O)CC1	OC[C@H](C#C)C1(O)CC1	
InChI=1S/C7H10O2/c1-2-6(5-8)7(9)3-4-7/h1,6,8-9H,3-5H2	InChI=1S/C7H10O2/c1-2-6(5-8)7(9)3-4-7/h1,6,8-9H,3-5H2/t6-/m0/s1
