19
gdb 4345	2.4347717	1.5621647	1.0337868	2.9986	76.79	-0.25157	-0.02697	0.22460000000000002	1154.0482	0.158019	-422.590955	-422.582546	-422.581602	-422.624039	32.041	
O	 0.0774585616	-2.4391470434	 0.2614579834	-0.436012
C	-0.8516353233	-1.4035572984	 0.098677138	 0.049579
C	-1.6271454697	-1.598552309	-1.2358759899	-0.278215
C	-2.8670661756	-0.7576074235	-1.3892737413	-0.062335
C	-2.9056611835	 0.5751358363	-1.3679556309	-0.05235
C	-1.7102102037	 1.4775580742	-1.1845927159	-0.265868
C	-0.9163607812	 1.2330996096	 0.1264293941	-0.28379
C	-0.1249937209	-0.0565952923	 0.1236227393	 0.361058
O	 1.0904794469	-0.0577173929	 0.1270921039	-0.328685
H	 0.9457775287	-2.0031038541	 0.2382492734	 0.290643
H	-1.5807060852	-1.4186575138	 0.923407517	 0.089664
H	-0.9232712596	-1.4219943873	-2.0607618957	 0.117459
H	-1.8819834871	-2.660193173	-1.2745621276	 0.124328
H	-3.8016622927	-1.2973107203	-1.5192729333	 0.095294
H	-3.8671367831	 1.068285088	-1.4864347872	 0.093404
H	-1.019314792	 1.3815829736	-2.0333524	 0.126054
H	-2.0387530096	 2.5204864324	-1.1801549083	 0.114372
H	-0.1989849572	 2.0427583096	 0.2831690201	 0.123925
H	-1.6197393628	 1.2212809845	 0.967010211	 0.121476
73.6403	121.7998	182.0532	277.06	304.4943	335.5519	381.3264	442.7185	483.8614	508.3229	595.0759	649.0955	683.6183	761.5779	777.7621	864.2868	895.492	947.4127	985.1415	999.8948	1014.6226	1045.0781	1065.7848	1108.2812	1143.168	1186.4806	1215.3032	1254.2895	1267.8543	1286.2234	1322.2348	1328.4334	1349.5177	1372.2812	1420.0177	1450.2542	1471.0955	1483.7692	1492.7538	1719.1329	1781.962	2988.4008	3017.0332	3021.232	3044.0004	3084.532	3099.4947	3108.0414	3147.1103	3170.2167	3661.239
OC1CC=CCCC1=O	O[C@@H]1CC=CCCC1=O	
InChI=1S/C7H10O2/c8-6-4-2-1-3-5-7(6)9/h1-2,6,8H,3-5H2	InChI=1S/C7H10O2/c8-6-4-2-1-3-5-7(6)9/h1-2,6,8H,3-5H2/t6-/m1/s1
