19
gdb 2322	2.658904	1.9480411	1.6609798	1.5113	74.21	-0.22484	0.07844	0.30328	904.9263	0.158964	-422.505003	-422.498024	-422.497079	-422.535663	29.678	
O	 0.0252279829	 0.2519926704	-0.0977366014	-0.486902
C	-0.7380994409	 0.6723933941	 0.9882642249	 0.466682
C	-0.7412424956	 2.2316257058	 1.0692576242	-0.315817
C	-2.2146932305	 2.245942745	 0.5131146675	-0.328695
C	-2.3201263523	 0.7710660771	 0.9216257754	 0.22112
C	-2.2900946432	 0.4628903912	 2.4630032634	-0.27382
C	-1.0881770569	-0.3844848378	 2.0478232266	-0.015643
O	-1.7190733855	-1.3812243484	 1.1654147844	-0.319886
C	-2.6715790326	-0.586722789	 0.3620881054	-0.185859
H	-0.108077543	-0.7044079121	-0.1590709777	 0.29006
H	-0.6282706919	 2.6569708834	 2.0669799243	 0.112012
H	 0.0125439923	 2.6680645282	 0.4134060624	 0.121372
H	-2.9245595625	 2.9435399119	 0.9645207117	 0.100721
H	-2.2227176793	 2.3815088737	-0.5715837066	 0.1177
H	-2.0548787634	 1.3243289415	 3.0855198034	 0.107259
H	-3.1408796112	-0.0857693871	 2.8704743574	 0.105705
H	-0.4078434616	-0.923291134	 2.7096018904	 0.073478
H	-2.4290414287	-0.6958624692	-0.7003331859	 0.10513
H	-3.685024676	-0.9551021348	 0.5490822202	 0.105385
227.5221	261.0969	303.5729	350.3574	406.319	483.5972	507.3321	555.5743	573.2908	643.6131	687.0932	746.0085	798.4191	833.8092	850.3407	856.5833	902.8941	917.4548	955.0459	969.5022	981.5798	1035.0396	1048.7405	1092.3481	1104.9129	1161.5389	1189.3139	1199.3774	1220.7907	1230.1759	1235.0981	1253.3004	1259.3335	1303.4049	1309.6372	1366.2984	1396.1701	1465.3918	1484.315	1499.2023	1525.1823	3036.7121	3059.8359	3082.3264	3085.2852	3089.0747	3106.3719	3112.166	3145.021	3159.6916	3744.123
OC12CCC11CC2OC1	O[C@@]12CC[C@@]31C[C@H]2OC3	
InChI=1S/C7H10O2/c8-7-2-1-6(7)3-5(7)9-4-6/h5,8H,1-4H2	InChI=1S/C7H10O2/c8-7-2-1-6(7)3-5(7)9-4-6/h5,8H,1-4H2/t5-,6-,7-/m1/s1
