19
gdb 1996	2.9841184	1.7197219	1.6230091	2.7766	73.27	-0.23847	0.08611	0.32458	936.0914	0.158732	-422.544154	-422.537026	-422.536082	-422.575173	29.192	
C	 0.0373614017	 0.4501475458	 0.1575682476	-0.499626
C	 1.4287451649	-0.1000233228	 0.0441084122	 0.434779
O	 2.3872276239	 0.6768399495	-0.6831077761	-0.279542
C	 2.0842573292	-0.6445448542	-1.1580524285	-0.043162
C	 3.0190045891	-1.759396815	-0.638795516	-0.099035
C	 4.1308092262	-1.101659632	 0.1983372785	-0.066353
O	 3.4376659605	-0.5998852546	 1.3595175544	-0.260935
C	 2.0676790772	-0.9487106452	 1.192691945	 0.012925
C	 2.1398255609	-2.3283268552	 0.5111727355	-0.234363
H	-0.0015697204	 1.2568804609	 0.8978748061	 0.133996
H	-0.2974344126	 0.8519032389	-0.8024837749	 0.130811
H	-0.6658883905	-0.3281320749	 0.473815771	 0.122433
H	 1.6268777698	-0.6981975541	-2.1424095905	 0.092888
H	 3.370892373	-2.4619013389	-1.3939834668	 0.071355
H	 4.8844428261	-1.8350737785	 0.5122915611	 0.090572
H	 4.6201382415	-0.2728671182	-0.3185490261	 0.117227
H	 1.5646519379	-0.8726032512	 2.1571420874	 0.072981
H	 2.6278907203	-3.09147778	 1.1243143306	 0.102569
H	 1.1707722812	-2.6943792403	 0.1612518397	 0.10048
185.9027	201.0098	267.4605	313.9913	372.5462	468.8917	473.0927	554.513	590.4779	691.5635	766.4328	819.4075	853.6978	868.2017	890.0579	902.7739	931.2248	946.4581	957.9524	992.3583	1010.3223	1039.5087	1066.4084	1088.3091	1107.2963	1140.6548	1171.7252	1207.4576	1223.9409	1257.5322	1274.3508	1298.3678	1301.706	1322.1173	1386.4885	1408.7714	1447.7474	1483.2912	1489.2118	1494.3838	1518.1639	3020.7253	3032.3139	3056.6585	3094.4151	3098.1139	3113.4858	3116.7024	3118.6775	3121.2201	3149.4636
CC12OC1C1COC2C1	C[C@]12O[C@H]1[C@H]1CO[C@@H]2C1	
InChI=1S/C7H10O2/c1-7-5-2-4(3-8-5)6(7)9-7/h4-6H,2-3H2,1H3	InChI=1S/C7H10O2/c1-7-5-2-4(3-8-5)6(7)9-7/h4-6H,2-3H2,1H3/t4-,5-,6+,7-/m1/s1
