19
gdb 868	3.2847448	1.2191046	1.0432902	1.4017	74.93	-0.24852	-0.02441	0.22410999999999998	1169.9567	0.157915	-422.563357	-422.555276	-422.554332	-422.596789	29.879	
O	 0.8011615606	-0.6469467347	 0.4290513427	-0.25192
C	-0.2438334778	-0.1439778488	 0.1048151952	 0.152968
C	-0.4670275134	 0.6343219886	-1.1735300106	-0.087329
C	-1.0382007046	 2.0513167957	-0.8734141723	-0.246333
C	-2.5669810462	 1.864830173	-0.8115572415	-0.228827
C	-2.8547151171	 0.7972756885	-1.8590580442	 0.140691
O	-2.7508950945	 1.3039347953	-3.2120881435	-0.296081
C	-1.6287262456	 0.4453029221	-3.501368483	-0.088272
C	-1.5577068365	-0.0417894435	-2.0400160972	-0.088614
H	-1.1421859814	-0.2313424295	 0.761839872	 0.071025
H	 0.4950683881	 0.6757401337	-1.6920311491	 0.094225
H	-0.6207136487	 2.4886416877	 0.0380966879	 0.110716
H	-0.7779420403	 2.7186947842	-1.6998305277	 0.125359
H	-2.8800551207	 1.4971642495	 0.1732719266	 0.103624
H	-3.119198894	 2.7873261935	-1.0110116088	 0.117436
H	-3.7983192683	 0.2621664336	-1.706956484	 0.074991
H	-1.8889349232	-0.3333047931	-4.2295138039	 0.10471
H	-0.76202588	 1.0060988184	-3.8728487733	 0.104862
H	-1.6170170963	-1.1223142042	-1.9008157453	 0.08677
51.5346	96.3898	173.0327	221.0741	285.8537	370.0599	375.3693	452.5028	625.785	675.2045	811.3095	830.1689	850.5399	883.9921	899.3384	925.7352	960.4298	982.0775	1003.1656	1022.7692	1039.0216	1065.2207	1102.4037	1129.2606	1163.163	1177.2737	1191.2987	1216.5397	1260.0346	1277.4523	1293.978	1316.1657	1329.1977	1356.0145	1362.531	1367.4038	1436.2503	1475.8896	1495.7362	1525.1385	1831.5537	2846.0051	3010.3456	3035.4164	3052.0855	3053.3342	3059.5284	3076.4014	3095.9838	3099.3199	3107.4839
O=CC1CCC2OCC12	O=C[C@@H]1CC[C@H]2OC[C@@H]12	
InChI=1S/C7H10O2/c8-3-5-1-2-7-6(5)4-9-7/h3,5-7H,1-2,4H2	InChI=1S/C7H10O2/c8-3-5-1-2-7-6(5)4-9-7/h3,5-7H,1-2,4H2/t5-,6-,7+/m0/s1
