19
gdb 427	2.7957423	1.4958572	1.1425854	2.0285	77.51	-0.24365	0.00415	0.2478	1102.554	0.157951	-422.529878	-422.521847	-422.520902	-422.562485	30.86	
C	 0.826144575	 0.0182639108	-1.0783703152	-0.221489
O	 0.0464394387	-0.0166966578	 0.1129415742	-0.28376
C	 1.4419388284	 0.3300106515	 0.2268008611	 0.344051
C	 2.2666620936	-0.7383939612	 0.9297266776	-0.147753
O	 3.6057976021	-0.8610242483	 0.4879914851	-0.256455
C	 4.3324224223	 0.3376757583	 0.2741035297	-0.05488
C	 4.1130193719	 1.4550417394	 1.3037731807	-0.293538
C	 2.8190628531	 2.2166727692	 1.1392256388	-0.072972
C	 1.6828488987	 1.7404348299	 0.6280281073	-0.098959
H	 1.0256047455	-0.9468542231	-1.5431872208	 0.121146
H	 0.5923200284	 0.8291830508	-1.7667215351	 0.114587
H	 2.2315493218	-0.5416084135	 2.0121562502	 0.098315
H	 1.798172556	-1.7100513289	 0.752824604	 0.118387
H	 5.3841024502	 0.0339544938	 0.2835473391	 0.107443
H	 4.1127423431	 0.7405506758	-0.7270822234	 0.095462
H	 4.2094723928	 1.0473490488	 2.3200919191	 0.124955
H	 4.9442078995	 2.1626397068	 1.1954022491	 0.110043
H	 2.844190977	 3.262391029	 1.4362831436	 0.09522
H	 0.822454842	 2.3935321187	 0.5073486149	 0.100198
69.3655	158.5893	236.9248	272.7593	316.6948	356.9717	369.1433	422.7781	531.3469	548.3393	653.3965	751.3512	789.6707	804.944	870.191	898.3254	939.7592	959.1082	987.717	1003.9239	1032.3461	1051.6557	1079.1734	1132.2366	1146.5492	1161.6592	1215.6123	1226.9158	1254.8974	1308.3811	1317.482	1365.8724	1369.9744	1396.4155	1423.7079	1437.5064	1463.9873	1506.4961	1508.5002	1525.5185	1720.5079	2979.8607	2990.9068	3014.0148	3050.6501	3072.6108	3079.5053	3095.3469	3148.8183	3168.4766	3172.8303
C1OC11COCCC=C1	C1O[C@]21COCCC=C2	
InChI=1S/C7H10O2/c1-2-4-8-5-7(3-1)6-9-7/h1,3H,2,4-6H2	InChI=1S/C7H10O2/c1-2-4-8-5-7(3-1)6-9-7/h1,3H,2,4-6H2/t7-/m0/s1
