19
gdb 5790	3.4393019	1.3447311	1.2740022	2.885	73.57	-0.24071	0.08071	0.32142000000000004	1057.8993	0.159155	-422.529141	-422.52176	-422.520816	-422.560979	29.487	
O	 1.4414493487	 0.7979799827	 0.2150294436	-0.424024
C	 0.4342898143	-0.1009006717	 0.635354374	-0.065826
C	-0.8713084374	 0.6385960421	 0.9241892087	 0.076005
O	-0.6218889398	 1.7032021789	 1.8688528194	-0.295668
C	-1.3578344454	 1.4193045345	 3.0538018139	 0.089287
C	-0.8386922612	 0.1305773431	 3.7661338258	-0.252718
C	-1.9008282401	-0.6505761109	 2.9872955041	-0.080544
C	-2.6301628273	 0.639777868	 2.6316078658	-0.09632
C	-2.00001427	-0.1714597479	 1.5429011498	-0.076593
H	 1.4309484229	 1.5163667104	 0.8595373795	 0.28836
H	 0.2774539809	-0.8139367344	-0.1823649248	 0.102052
H	 0.7466789031	-0.675683967	 1.5202543161	 0.087834
H	-1.20806457	 1.1085819028	-0.0102770924	 0.084434
H	-1.4384158377	 2.3344769344	 3.6384052178	 0.085165
H	 0.2200508599	-0.1111582284	 3.6345574405	 0.098756
H	-1.0767143833	 0.1470621393	 4.8340787338	 0.103178
H	-2.3315505984	-1.6020098242	 3.2766858026	 0.088699
H	-3.669102082	 0.9296999237	 2.7039570565	 0.09285
H	-2.6376159371	-0.7553543954	 0.8893283154	 0.095073
93.3661	164.2339	204.4703	343.4187	420.7927	463.0154	477.5604	517.2612	662.844	703.8095	752.6979	787.8837	820.6523	838.1616	873.0521	905.4041	959.4351	969.072	995.3569	1007.0605	1026.2906	1054.3809	1065.346	1079.7115	1109.2392	1113.7602	1127.2376	1154.5985	1203.6709	1224.7785	1230.6964	1282.8913	1292.8572	1326.1411	1339.7653	1363.4185	1392.3424	1403.3081	1440.3619	1490.0655	1509.8501	2989.8933	3012.0939	3047.5584	3064.6395	3099.2559	3130.0933	3177.3614	3187.361	3212.8375	3784.5626
OCC1OC2CC3C2C13	OC[C@@H]1O[C@@H]2C[C@H]3[C@@H]2[C@@H]13	
InChI=1S/C7H10O2/c8-2-5-7-3-1-4(9-5)6(3)7/h3-8H,1-2H2	InChI=1S/C7H10O2/c8-2-5-7-3-1-4(9-5)6(3)7/h3-8H,1-2H2/t3-,4+,5-,6-,7+/m0/s1
