19
gdb 5976	4.5093486	0.9755348	0.9371067	2.0067	74.33	-0.23138	0.07357	0.30495	1295.0695	0.156616	-422.49055	-422.482281	-422.481337	-422.523779	31.503	
O	 1.3952360998	 0.8244825471	 0.1576214618	-0.417807
C	 0.3695134264	-0.0804605403	 0.5344955546	-0.064999
C	-0.8941937123	 0.6417396256	 1.0203855035	-0.352371
C	-1.986765107	-0.3077577097	 1.4112801864	 0.441883
C	-2.70126112	-1.2889640316	 0.4333076025	-0.265361
C	-3.7943381974	-1.3535802934	 1.4964475465	-0.123491
C	-3.0356114603	-1.2230972001	 2.8286224741	 0.104622
O	-1.6410698926	-1.1807713358	 2.5404320853	-0.335006
C	-3.3921804216	 0.0041050491	 2.0686164445	-0.213304
H	 1.6933438012	 1.27703305	 0.9530363425	 0.281826
H	 0.1451143432	-0.6637732443	-0.3645423251	 0.116135
H	 0.7112504177	-0.7857297774	 1.3047334204	 0.114623
H	-0.6451653102	 1.2675610707	 1.8874911421	 0.099816
H	-1.2555228566	 1.3091260104	 0.2296533495	 0.111762
H	-3.048820514	-0.77529469	-0.4670238245	 0.104096
H	-2.1559878557	-2.2015459457	 0.1721234933	 0.100246
H	-4.7863059057	-1.7809252366	 1.4276709483	 0.092079
H	-3.3683598638	-1.6199724974	 3.7782945154	 0.107413
H	-3.9387918409	 0.9077588792	 2.2993344789	 0.097836
78.6654	99.5255	126.6774	296.9764	315.4572	326.748	357.081	458.9341	551.9285	707.2352	754.4671	765.5248	783.3417	793.9957	816.4962	865.8392	917.004	934.2615	963.2857	1000.4232	1013.3483	1029.8761	1039.6875	1058.3863	1069.25	1074.4204	1109.1117	1141.2457	1176.1848	1198.3369	1232.6906	1276.7965	1284.1146	1327.9412	1354.4175	1371.6721	1407.1457	1423.6835	1475.0989	1487.2318	1513.9276	3012.3724	3023.7329	3046.1019	3066.474	3087.5554	3109.4672	3199.7311	3204.1018	3220.2845	3816.8762
OCCC12CC3C(O1)C23	OCC[C@@]12C[C@H]3[C@@H](O1)[C@@H]23	
InChI=1S/C7H10O2/c8-2-1-7-3-4-5(7)6(4)9-7/h4-6,8H,1-3H2	InChI=1S/C7H10O2/c8-2-1-7-3-4-5(7)6(4)9-7/h4-6,8H,1-3H2/t4-,5+,6-,7+/m1/s1
