19
gdb 4126	3.1925437	1.1647464	0.9691209	1.971	76.08	-0.25154	-0.02255	0.22898999999999997	1229.3631	0.156367	-422.53899	-422.53039	-422.529446	-422.572901	31.82	
O	-0.4296330447	 1.7835994734	-3.0085399157	-0.429183
C	 0.9254169495	 1.473459983	-3.2093660067	 0.149313
C	 1.9785351159	 2.6179424094	-3.302995047	-0.289611
C	 2.9042687844	 1.8500734742	-2.3159147026	-0.009242
C	 2.7948681449	 2.3203300734	-0.8472779491	-0.252753
C	 1.5542037953	 1.4117087228	-0.6469443713	-0.093336
C	 1.650444313	 0.3762645313	 0.4417857036	 0.135793
O	 2.5735611004	 0.2549456437	 1.2067398848	-0.242103
C	 1.752068189	 0.8036262162	-2.0776942399	-0.077133
H	-0.4867028497	 2.5003306351	-2.3685448211	 0.282706
H	 0.9495078521	 0.8420229337	-4.1025667596	 0.096378
H	 2.378729364	 2.7929577907	-4.3039250432	 0.110828
H	 1.6224721427	 3.5777042887	-2.9106366955	 0.092275
H	 3.8875811246	 1.5688255142	-2.6910498957	 0.074387
H	 3.6175608091	 1.9777770957	-0.2155941783	 0.130414
H	 2.6525589107	 3.3933805218	-0.6919427698	 0.096863
H	 0.583958691	 1.9128197272	-0.5341964882	 0.07096
H	 0.7842483786	-0.3243469937	 0.474958416	 0.080693
H	 1.8828978292	-0.279219431	-2.1236597906	 0.072753
59.9553	79.9375	141.5061	228.3787	263.073	285.6065	384.3611	400.1717	517.9164	604.4814	666.2817	717.8952	784.0458	835.2713	852.2643	882.4118	907.1374	950.7387	979.9176	1002.557	1036.7985	1052.7774	1076.6306	1102.7739	1125.2039	1143.5999	1174.8922	1198.5742	1217.6007	1234.5351	1262.6616	1280.4046	1291.245	1307.2409	1318.1996	1354.6679	1419.6295	1428.2143	1475.6309	1491.0593	1823.2965	2867.5263	3023.2184	3037.3341	3059.8706	3062.6006	3088.541	3103.2004	3115.1895	3122.8528	3814.4647
OC1CC2CC(C=O)C12	O[C@H]1C[C@H]2C[C@H](C=O)[C@@H]12	
InChI=1S/C7H10O2/c8-3-5-1-4-2-6(9)7(4)5/h3-7,9H,1-2H2	InChI=1S/C7H10O2/c8-3-5-1-4-2-6(9)7(4)5/h3-7,9H,1-2H2/t4-,5-,6+,7+/m1/s1
