19
gdb 1850	2.2896087	1.8150839	1.4206528	2.0736	74.66	-0.2432	-0.01754	0.22566	1012.563	0.157344	-422.573707	-422.565488	-422.564544	-422.606161	31.454	
C	-0.8843339923	 2.2530532196	 0.8248396076	-0.477096
C	-1.0370119401	 1.0193485278	-0.0286873435	 0.282486
C	-1.47234005	 1.2593410925	-1.4954700793	-0.267834
C	-2.1744392456	-0.0071488133	-2.0394001879	-0.187898
C	-1.5581739411	-1.3157371255	-1.4897854197	-0.238629
C	-1.1029408519	-1.0635115452	-0.0375866647	-0.03095
O	-1.915342672	-0.0069890202	 0.5544861341	-0.330125
C	 0.0556017568	-0.0624893945	-0.0493574707	 0.389207
O	 1.2479105601	-0.0937987562	-0.0007509499	-0.31311
H	-0.5574740523	 1.9921063405	 1.8342706768	 0.133829
H	-0.1409858096	 2.9217901877	 0.3798813203	 0.135432
H	-1.8348494198	 2.7919794486	 0.8914059193	 0.130012
H	-2.1522039975	 2.1169261773	-1.5492696227	 0.106426
H	-0.587397733	 1.5190777109	-2.0890732432	 0.116279
H	-3.2189543884	 0.0285247194	-1.7223068413	 0.121723
H	-2.1735938817	-0.0095526245	-3.1329554477	 0.100722
H	-2.2952862996	-2.1236567801	-1.5284897828	 0.111219
H	-0.6949647663	-1.6415250877	-2.0825298021	 0.117193
H	-1.0428233858	-1.9565145572	 0.5884119872	 0.101113
117.5478	164.4844	184.5357	218.9852	255.952	299.33	440.3067	448.9075	506.4606	546.2159	685.4756	710.1728	738.6704	819.4162	852.5627	868.6394	880.9924	918.9034	928.5233	983.5956	1033.3142	1046.2911	1075.5403	1086.4617	1146.2575	1201.6426	1213.5454	1223.0611	1275.8687	1292.1675	1309.4998	1344.5584	1367.8201	1376.5514	1404.8157	1476.0329	1483.9383	1487.8102	1490.7227	1501.1469	1912.7776	3030.4936	3037.1834	3041.7829	3063.0695	3070.869	3078.737	3096.5829	3111.2138	3112.7738	3127.1112
CC12CCCC(O1)C2=O	C[C@]12CCC[C@H](O1)C2=O	
InChI=1S/C7H10O2/c1-7-4-2-3-5(9-7)6(7)8/h5H,2-4H2,1H3	InChI=1S/C7H10O2/c1-7-4-2-3-5(9-7)6(7)8/h5H,2-4H2,1H3/t5-,7+/m0/s1
