19
gdb 5054	2.3411944	1.4814846	1.0900264	3.6806	77.01	-0.24489	-0.01396	0.23093	1165.6212	0.15573	-422.553035	-422.543839	-422.542895	-422.587185	33.903	
C	-3.3621636318	 0.2556763195	-0.8688943522	-0.492061
C	-2.118206813	 0.0722802302	-0.0491343255	 0.274446
C	-2.0317652582	-0.7563273467	 1.1854515911	-0.366011
C	-1.1538624594	-1.1652644984	 0.0077959298	 0.172738
C	-1.103559309	-2.5356594546	-0.6162408647	-0.183052
O	-0.0729412643	-3.3123257221	-0.027042466	-0.416163
C	-0.0126642639	-0.2155131894	-0.0935542641	 0.38516
O	 1.1515707272	-0.3969128666	-0.3466954248	-0.344631
C	-0.9148444025	 1.0405389313	-0.0621123045	-0.412111
H	-3.9847104151	-0.6442869595	-0.8551261368	 0.126239
H	-3.9667886104	 1.0812179402	-0.4752097409	 0.131737
H	-3.1239721518	 0.4887870241	-1.9122787912	 0.126536
H	-1.5899130369	-0.3622314977	 2.097349513	 0.120106
H	-2.8545891108	-1.4451697767	 1.3569909471	 0.124791
H	-2.040647639	-3.0798447348	-0.4593768625	 0.107657
H	-0.9539295736	-2.442250229	-1.7037295834	 0.095229
H	 0.7441423409	-2.8096524878	-0.1399231084	 0.297849
H	-0.8201264836	 1.7230463626	 0.7880516032	 0.120867
H	-0.8039133547	 1.6077158755	-0.9917171594	 0.130672
58.9666	109.2979	125.1096	218.8369	232.1455	268.8051	337.4019	393.2855	461.7331	480.2619	490.4254	561.3151	612.1061	668.8427	765.4075	805.6441	872.1812	938.9744	975.6552	988.0345	994.0467	1032.4758	1054.9522	1075.9464	1096.4561	1121.4412	1143.1613	1207.4875	1237.7327	1268.3432	1354.1237	1373.8909	1391.4785	1423.1908	1441.5113	1457.4834	1485.5383	1497.4329	1503.681	1510.4595	1848.6248	2975.2583	3026.7173	3049.923	3069.0636	3086.7478	3103.489	3104.4717	3106.7558	3191.3255	3772.9366
CC12CC1(CO)C(=O)C2	C[C@@]12C[C@]1(CO)C(=O)C2	
InChI=1S/C7H10O2/c1-6-2-5(9)7(6,3-6)4-8/h8H,2-4H2,1H3	InChI=1S/C7H10O2/c1-6-2-5(9)7(6,3-6)4-8/h8H,2-4H2,1H3/t6-,7+/m1/s1
