19
gdb 1371	3.9053758	0.8055445	0.7663032	0.8639	78.24	-0.24331	0.03394	0.27725	1537.1961	0.154837	-422.500585	-422.490773	-422.489828	-422.536226	34.86	
O	 2.0785448083	 3.2344468825	-1.0302160226	-0.423913
C	 2.989940884	 2.2437957773	-1.5053065652	-0.070984
C	 2.1440152266	 1.0680995888	-2.0143451156	-0.202475
C	 1.3541279093	 0.418354821	-0.8907580471	 0.153082
C	 0.6905676808	-0.9477482208	-1.1761091343	-0.306518
C	 1.5912543394	-1.4632455796	-0.036134813	-0.057018
O	 2.2243244792	-0.1753575199	 0.1099911554	-0.29895
C	 3.8710844684	 2.7788951669	-2.5475575253	 0.308759
C	 4.5961391648	 3.2393493742	-3.3889149767	-0.451493
H	 2.5949132431	 3.9854227397	-0.7205999794	 0.289625
H	 3.6114966776	 1.869419346	-0.6774542824	 0.119003
H	 1.4581687827	 1.4363526247	-2.7860527789	 0.114619
H	 2.8082407016	 0.3283258433	-2.4728326342	 0.107673
H	 0.688716218	 1.1564440637	-0.4288376099	 0.095948
H	-0.3846290946	-1.0025483679	-1.0012420468	 0.111712
H	 0.9157938893	-1.360326162	-2.1619960216	 0.108785
H	 1.061488845	-1.7618551702	 0.8773604412	 0.101505
H	 2.3108770656	-2.2480761943	-0.297860257	 0.103098
H	 5.236980471	 3.6428245268	-4.1335693965	 0.197542
57.4506	70.728	95.6249	116.9949	190.5932	247.4209	270.4866	327.7333	398.9762	470.4141	536.3371	578.7945	623.6268	668.275	747.7875	802.2047	856.4806	884.9184	913.8858	972.6828	1001.1916	1023.2939	1043.4176	1046.939	1104.9739	1139.9618	1168.0037	1203.3693	1222.7895	1258.3588	1278.8707	1300.2258	1312.3487	1363.9857	1370.9008	1396.9557	1412.0595	1459.0539	1491.0959	1533.1201	2231.5299	2991.4449	3013.7933	3042.5031	3046.0184	3053.4299	3076.1245	3096.5869	3132.8571	3502.986	3823.0951
OC(CC1CCO1)C#C	O[C@@H](C[C@H]1CCO1)C#C	
InChI=1S/C7H10O2/c1-2-6(8)5-7-3-4-9-7/h1,6-8H,3-5H2	InChI=1S/C7H10O2/c1-2-6(8)5-7-3-4-9-7/h1,6-8H,3-5H2/t6-,7-/m1/s1
