19
gdb 1350	2.8326192	1.1717288	0.8682606	1.7349	77.86	-0.24077	-0.03309	0.20768	1315.7964	0.155902	-422.576795	-422.567609	-422.566665	-422.611556	33.092	
O	 0.7637092072	-1.0154438453	-1.6024225697	-0.428489
C	-0.2274690575	-1.032632441	-0.5847840032	 0.014984
C	 0.2900442028	-1.7951838489	 0.6296347744	 0.120757
O	-0.0527044174	-1.597787256	 1.7666095233	-0.242867
C	-1.4630725722	-1.7440469029	-1.1625815666	-0.022295
C	-1.9973629885	-1.0685673357	-2.4560249232	-0.221326
C	-3.5402072953	-1.1940597696	-2.3792719883	-0.261712
C	-3.7893893243	-1.4358951356	-0.9100466674	-0.075653
C	-2.6720303948	-1.733335838	-0.2500190203	-0.07435
H	 1.4839509546	-0.4428112872	-1.3201003164	 0.291321
H	-0.5125536312	-0.0194432845	-0.2664424334	 0.091797
H	 1.0306306273	-2.5851178195	 0.3611651593	 0.08504
H	-1.1598257297	-2.781441431	-1.3748528186	 0.08632
H	-1.7133916253	-0.0112472995	-2.4473243957	 0.10605
H	-1.5718889523	-1.505697696	-3.3605942784	 0.108962
H	-4.0518367386	-0.3028848512	-2.7599898469	 0.104307
H	-3.9116428595	-2.0380023991	-2.9777225324	 0.107651
H	-4.7804582566	-1.4043230979	-0.470499585	 0.095246
H	-2.6042438787	-1.9717836012	 0.8047672686	 0.114256
61.1689	75.448	94.4059	176.9307	265.111	270.5185	312.9907	369.4825	414.6686	475.1368	549.8298	632.4581	749.2329	781.3552	846.1427	866.1639	924.5559	969.6805	978.1377	993.3953	1022.8693	1051.2231	1066.558	1078.9898	1109.6767	1142.8183	1175.2978	1218.3204	1227.3838	1282.4432	1298.1706	1313.2773	1323.1401	1343.8953	1382.9073	1386.2037	1407.8251	1482.034	1498.6439	1687.1789	1830.2022	2863.6095	2976.156	3008.5362	3009.6298	3049.1058	3063.8998	3119.282	3186.6218	3214.9598	3819.212
OC(C=O)C1CCC=C1	O[C@H](C=O)[C@@H]1CCC=C1	
InChI=1S/C7H10O2/c8-5-7(9)6-3-1-2-4-6/h1,3,5-7,9H,2,4H2	InChI=1S/C7H10O2/c8-5-7(9)6-3-1-2-4-6/h1,3,5-7,9H,2,4H2/t6-,7+/m0/s1
