19
gdb 4505	2.2373385	1.6626048	1.4097961	2.4625	74.33	-0.23711	-0.01423	0.22288	1024.7892	0.158821	-422.578171	-422.570305	-422.569361	-422.610344	30.866	
O	-0.958669383	-2.3517141261	-2.1148240355	-0.433049
C	-1.6007866953	-1.2881378238	-1.4380554083	 0.13525
C	-1.5215661348	 0.0293131657	-2.2443369623	-0.232355
C	-1.7161283356	 1.3016137216	-1.3862336779	-0.227056
C	-1.1374198467	 1.0964716648	 0.0334438647	-0.130501
C	-1.9373218807	-0.0420307497	 0.7385705137	-0.247088
C	-1.0352377973	-1.0705655537	-0.0082148285	-0.165783
C	 0.0042339532	 0.063099671	-0.0478575159	 0.410026
O	 1.2006681063	 0.1152800041	-0.0237881133	-0.325648
H	-0.0305782878	-2.1160986734	-2.22943258	 0.285287
H	-2.6413270466	-1.6167078487	-1.334866985	 0.09648
H	-0.5140096023	 0.0642542859	-2.6793500266	 0.108586
H	-2.2177722556	 0.0032684094	-3.0868967716	 0.107089
H	-1.2238851516	 2.1459286209	-1.8781567719	 0.114296
H	-2.776920012	 1.5616381279	-1.295584097	 0.109209
H	-0.9603332023	 2.0348777378	 0.560745898	 0.086992
H	-1.783301833	-0.0610143806	 1.8191186635	 0.114321
H	-3.0070087687	-0.0865303701	 0.5168797456	 0.101865
H	-0.7783793063	-2.0223283731	 0.4582486883	 0.092079
103.8606	146.0675	221.6565	311.3527	372.0661	381.7014	409.3199	459.9986	488.1438	533.9753	645.062	776.5038	786.7321	823.0717	838.6557	899.7287	924.3122	935.5908	1024.6695	1029.5208	1042.6212	1057.0953	1065.2477	1102.0459	1119.273	1154.5864	1170.0352	1198.0355	1243.3964	1253.595	1268.4232	1292.8455	1307.2861	1343.9263	1362.2996	1374.173	1430.9071	1486.1041	1495.7558	1505.3465	1881.683	3021.8071	3038.5916	3045.3124	3062.3861	3082.8642	3095.9008	3105.9852	3112.4623	3123.5867	3791.4909
OC1CCC2CC1C2=O	O[C@@H]1CC[C@H]2C[C@@H]1C2=O	
InChI=1S/C7H10O2/c8-6-2-1-4-3-5(6)7(4)9/h4-6,8H,1-3H2	InChI=1S/C7H10O2/c8-6-2-1-4-3-5(6)7(4)9/h4-6,8H,1-3H2/t4-,5-,6+/m0/s1
