19
gdb 5524	3.0316223	1.1889401	1.0369385	2.829	75.35	-0.23658	-0.00903	0.22755	1200.5725	0.158156	-422.564472	-422.55639	-422.555445	-422.59726	31.127	
O	 0.717701818	-2.0500360878	 0.8827914316	-0.415714
C	 0.794346751	-0.6747105969	 0.5421833546	-0.111788
C	-0.3126675512	 0.1391644815	 1.2006907076	 0.010985
C	-0.2666052935	 1.6947275308	 1.0555334658	-0.046714
C	 0.7240456648	 1.7086916981	 2.2561175253	-0.248606
C	-0.1323515084	 0.4869390706	 2.7300345034	-0.145026
C	-1.4633925869	 1.1844014077	 2.9826252546	 0.436356
O	-2.2275130578	 1.057360001	 3.8996208394	-0.333915
C	-1.5855422015	 2.1021680178	 1.7414211578	-0.337861
H	 0.8626722513	-2.1287528949	 1.8311330449	 0.285092
H	 1.7914235817	-0.2663514992	 0.760543793	 0.090898
H	 0.6643010763	-0.6344433175	-0.545330049	 0.115174
H	-1.268040015	-0.3325580659	 0.9440754609	 0.084953
H	-0.0239974351	 2.1709878534	 0.1055147748	 0.072724
H	 1.7437554006	 1.4322925853	 1.9901367994	 0.113805
H	 0.740133478	 2.594999473	 2.8966899908	 0.106422
H	 0.1958096897	-0.2270675026	 3.4842423819	 0.07279
H	-2.483841409	 1.8659496774	 1.1630164762	 0.12619
H	-1.6292757429	 3.1566945083	 2.0309539069	 0.124232
94.0855	115.0353	177.9823	268.1133	309.6311	379.4165	434.6733	457.518	527.288	591.9423	616.6845	765.7522	782.6911	815.4027	852.5682	902.6621	941.9237	957.1719	991.9369	1001.6977	1031.7014	1052.7136	1079.7594	1086.5182	1103.2443	1155.0431	1164.1536	1185.7165	1215.7111	1232.9773	1248.6377	1264.7795	1272.5455	1302.83	1356.4082	1402.751	1425.8357	1460.6204	1498.0584	1522.135	1871.9033	3001.4256	3042.2791	3056.1126	3065.4947	3067.0519	3103.6292	3112.8634	3127.6665	3139.7449	3816.7179
OCC1C2CC1C(=O)C2	OC[C@@H]1[C@@H]2C[C@H]1C(=O)C2	
InChI=1S/C7H10O2/c8-3-6-4-1-5(6)7(9)2-4/h4-6,8H,1-3H2	InChI=1S/C7H10O2/c8-3-6-4-1-5(6)7(9)2-4/h4-6,8H,1-3H2/t4-,5-,6-/m1/s1
