19
gdb 601	2.2103591	2.0527135	1.7742597	0.6276	75.09	-0.23822	0.01443	0.25265	913.8828	0.160196	-422.558023	-422.550865	-422.549921	-422.589332	28.626	
C	-0.4425058011	-0.6591548263	-0.4159289269	-0.082176
O	-1.5657316633	 0.2136162904	-0.3922740169	-0.273731
C	-1.3896186594	 1.3455191459	 0.4664403395	 0.030438
C	-0.6478426242	 0.9142477532	 1.7347660554	-0.079278
O	 0.6647058613	 0.4449812161	 1.4454681259	-0.276329
C	 0.8376340204	-0.0043019625	 0.1014349393	 0.069517
C	 1.3717413005	 1.1410266819	-0.7794975951	-0.258072
C	 0.5126682688	 2.3757469509	-0.8051682227	-0.039464
C	-0.6917693379	 2.4879113643	-0.2499545858	-0.062534
H	-0.6506965616	-1.5453674667	 0.2028585043	 0.098894
H	-0.3023730309	-0.9994801254	-1.4490152724	 0.104501
H	-2.4015348803	 1.655519646	 0.7462395454	 0.081698
H	-0.5493817829	 1.755913861	 2.4289143315	 0.10847
H	-1.2321491088	 0.1249067246	 2.2323895763	 0.09649
H	 1.6080131397	-0.7840131791	 0.1434110646	 0.082577
H	 2.3674310317	 1.4157255338	-0.4060448973	 0.114977
H	 1.5331914335	 0.7673350547	-1.8019869856	 0.105152
H	 0.9400302927	 3.2339498377	-1.319976739	 0.091054
H	-1.2285989279	 3.4305580594	-0.3096269006	 0.087816
105.282	248.8028	264.7366	318.2095	368.7991	432.4274	481.4432	520.4802	597.1052	716.3818	771.9187	801.4323	852.1286	875.0028	899.2172	916.3893	948.3212	967.0442	992.1447	999.8621	1053.177	1069.1295	1113.8535	1145.7196	1157.5097	1216.3096	1235.6773	1253.6565	1270.074	1329.9679	1345.1774	1358.2948	1367.8182	1389.7661	1407.823	1414.4498	1424.228	1462.1064	1504.9136	1515.5158	1726.9557	2982.5247	2988.1844	2998.0868	3030.0411	3037.7523	3049.5132	3057.3358	3065.5032	3141.3988	3170.1396
C1OC2COC1CC=C2	C1O[C@H]2CO[C@@H]1CC=C2	
InChI=1S/C7H10O2/c1-2-6-4-9-7(3-1)5-8-6/h1-2,6-7H,3-5H2	InChI=1S/C7H10O2/c1-2-6-4-9-7(3-1)5-8-6/h1-2,6-7H,3-5H2/t6-,7-/m1/s1
