19
gdb 2670	2.7606041	1.4451101	1.0981663	4.2342	74.9	-0.26913	0.00841	0.27754	1143.8841	0.156561	-422.575924	-422.567313	-422.566369	-422.60923	32.065	
C	-4.1411211293	 0.6638961433	 1.2333250721	-0.416746
C	-2.6719137559	 0.2614656953	 1.2292525254	-0.006833
C	-1.6450367948	 1.4368236776	 1.4007544218	 0.001096
C	-0.7351604036	 1.454326985	 2.6201773155	-0.41521
C	-1.027762973	 1.0941480288	-0.0006259577	-0.253478
C	-2.0628767433	-0.0435684425	-0.1595971028	 0.09863
O	-0.9903479585	-1.0376048137	-0.0828635587	-0.256992
C	-0.0271130108	-0.0566315355	 0.0324233318	 0.454413
O	 1.1482372353	-0.2083194226	 0.1264244243	-0.330803
H	-4.4400696246	 1.0400832332	 2.2172197677	 0.124777
H	-4.3403851847	 1.45623489	 0.5023659543	 0.11711
H	-4.7857827366	-0.1867729348	 0.9881506044	 0.124022
H	-2.4987639141	-0.5680481926	 1.9211989686	 0.091995
H	-2.1733272399	 2.3922561087	 1.3194169572	 0.084534
H	-0.1715897573	 0.5211804695	 2.7163327021	 0.138088
H	-0.010993999	 2.2735804533	 2.56295844	 0.126593
H	-1.3223758636	 1.5892185572	 3.5350180782	 0.118267
H	-0.8369129006	 1.8995945195	-0.7067896131	 0.105081
H	-2.7021372757	-0.2140327795	-1.0251570813	 0.095455
69.7607	137.4986	216.5173	223.6527	230.3669	249.5146	331.9301	404.6614	454.6843	499.7777	632.879	733.4041	784.8532	807.0064	866.2479	885.3419	897.9481	944.9954	951.4794	988.1761	1061.1624	1072.0787	1098.9122	1115.0224	1128.6329	1150.5106	1194.8441	1206.7393	1238.112	1253.712	1290.4865	1312.478	1338.1099	1381.489	1411.9033	1418.2415	1493.7528	1495.7778	1496.2341	1497.3913	1929.4811	3026.2489	3033.0926	3049.7595	3065.0572	3094.6233	3099.6853	3101.6435	3109.9272	3122.8394	3141.7223
CC1C(C)C2C1OC2=O	C[C@@H]1[C@@H](C)[C@@H]2[C@H]1OC2=O	
InChI=1S/C7H10O2/c1-3-4(2)6-5(3)7(8)9-6/h3-6H,1-2H3	InChI=1S/C7H10O2/c1-3-4(2)6-5(3)7(8)9-6/h3-6H,1-2H3/t3-,4-,5-,6+/m1/s1
