19
gdb 5977	3.9230477	1.0143937	0.9280181	0.6354	75.32	-0.24244	0.05441	0.29685	1330.975	0.154791	-422.450646	-422.442196	-422.441252	-422.484341	31.6	
C	 1.0609520355	 0.1825111653	-1.8797515535	-0.385003
C	 0.8128242614	 1.0202267395	-0.6235612284	-0.164358
C	 2.1149637614	 1.4506088732	 0.0679922021	-0.357149
C	 1.8808373027	 2.2272128538	 1.3219702143	 0.457559
O	 1.1550100086	 1.6152933269	 2.4383433996	-0.3542
C	 1.4537685213	 2.9408556986	 2.950840732	 0.036663
C	 2.84585599	 3.0381592179	 2.2572410363	-0.017407
O	 2.5730075862	 4.3176532851	 1.6194244805	-0.32732
C	 1.277221707	 3.6565314581	 1.5786914612	-0.001207
H	 1.6132996398	-0.7332018687	-1.6417337992	 0.117157
H	 0.1187335212	-0.1106395981	-2.3525412544	 0.115007
H	 1.646724745	 0.738964527	-2.6199962996	 0.11531
H	 0.2324604204	 1.9144415493	-0.8831141658	 0.098785
H	 0.2038874471	 0.4558690301	 0.0911910234	 0.121732
H	 2.7197890108	 0.5675661651	 0.3117026247	 0.113649
H	 2.7195676424	 2.0752614842	-0.6022395176	 0.118986
H	 1.125465765	 3.2096021027	 3.9539254624	 0.104635
H	 3.8524285168	 2.825222864	 2.6168670278	 0.103231
H	 0.4271799877	 4.1771189759	 1.1382764241	 0.103931
73.7538	79.8601	124.6369	240.1637	257.7994	314.4577	344.8448	530.6832	573.521	699.2351	725.449	767.6096	778.0302	782.8466	828.1653	847.4937	885.7221	901.8712	919.2473	938.264	992.5768	1029.3312	1050.2637	1106.3402	1115.5676	1132.3662	1146.9773	1165.8779	1181.081	1236.4879	1270.0713	1284.7395	1311.1208	1331.5758	1376.1552	1412.8241	1417.2455	1466.9312	1492.6584	1499.4446	1509.4611	3020.1994	3029.4466	3033.3498	3055.47	3075.2074	3100.2471	3105.0517	3122.6703	3124.5254	3142.9584
CCCC12OC3C1OC23	CCC[C@@]12O[C@H]3[C@@H]1O[C@@H]23	
InChI=1S/C7H10O2/c1-2-3-7-5-4(9-7)6(7)8-5/h4-6H,2-3H2,1H3	InChI=1S/C7H10O2/c1-2-3-7-5-4(9-7)6(7)8-5/h4-6H,2-3H2,1H3/t4-,5-,6+,7+
