19
gdb 2933	2.9458356	1.4611813	1.2427044	1.7501	74.58	-0.2409	0.06721	0.30811	1074.1578	0.156292	-422.494147	-422.485848	-422.484904	-422.5265	32.122	
C	 0.8819155512	-0.4476558584	-0.6691291209	-0.437162
C	 1.0542458757	 0.2902103795	 0.6431925129	-0.089612
C	 1.9333031446	 1.5242043697	 0.627232799	-0.135189
C	 1.9304930261	 2.2064627115	 2.0083796173	 0.105019
O	 0.6994408583	 2.1435320019	 2.7816913481	-0.298982
C	 1.183698879	 1.0033431573	 3.5384936616	-0.112588
C	 2.4610424329	 0.9261851464	 2.67846696	-0.144728
C	 2.4093791853	 0.226323346	 1.2959046569	 0.364306
O	 3.4093622404	-0.6278363133	 0.8642645801	-0.459997
H	 0.5891143634	-1.4904430464	-0.4997059363	 0.110858
H	 0.0987138039	 0.0189343348	-1.2749337997	 0.124188
H	 1.8075381602	-0.4523200591	-1.2506543194	 0.130709
H	 0.160476181	 0.3256752062	 1.2597508227	 0.101385
H	 2.2358041627	 1.9857916192	-0.3055908049	 0.087163
H	 2.4185081913	 3.1811657771	 2.0752532159	 0.08042
H	 1.3653695452	 1.2759733228	 4.585339021	 0.101831
H	 0.4921891021	 0.1527700326	 3.5021267002	 0.098376
H	 3.4347868435	 0.8816824739	 3.1630832444	 0.086365
H	 3.1038979231	-1.5362951318	 0.967011351	 0.287639
160.6831	176.9927	199.7762	227.1103	235.7416	296.5661	333.702	417.1658	473.6771	568.283	663.6421	694.1823	781.962	825.6542	857.6731	905.0077	920.3367	941.3313	970.047	975.6423	989.5787	1037.592	1048.5151	1080.2181	1114.387	1142.9467	1159.3265	1171.2566	1182.5601	1221.154	1233.029	1277.1454	1299.2841	1304.4884	1344.5532	1379.1761	1415.2582	1437.0562	1495.7105	1506.4742	1516.136	3013.4693	3031.4228	3057.27	3085.6709	3090.145	3116.3507	3132.4331	3146.8344	3180.4614	3785.5648
CC1C2C3OCC3C12O	C[C@@H]1[C@H]2[C@H]3OC[C@H]3[C@@]12O	
InChI=1S/C7H10O2/c1-3-5-6-4(2-9-6)7(3,5)8/h3-6,8H,2H2,1H3	InChI=1S/C7H10O2/c1-3-5-6-4(2-9-6)7(3,5)8/h3-6,8H,2H2,1H3/t3-,4-,5+,6+,7+/m1/s1
