19
gdb 3133	2.0862715	1.8193624	1.1084895	2.8683	75.36	-0.24628	-0.02429	0.22199	1120.5801	0.156896	-422.578685	-422.570158	-422.569214	-422.6118	32.592	
C	-3.2833399358	-1.2968591838	 1.0247812364	-0.422658
C	-2.311149797	-0.8153601038	-0.0520772905	-0.0141
C	-2.153567846	 0.7181158542	-0.0922981374	-0.047509
C	-1.6803928484	 1.2911868103	-1.3902248163	-0.288437
C	-0.6806809831	 1.0694235191	-0.2644394881	-0.151583
C	 0.0616780215	-0.2259619876	-0.3341315799	 0.346408
O	 1.1988478352	-0.433235663	-0.6881188824	-0.344641
C	-0.8720117476	-1.3362184487	 0.1485843333	 0.066185
O	-0.5995198261	-2.5757618811	-0.4416915062	-0.442959
H	-3.32674483	-2.3898558232	 1.0448139985	 0.133574
H	-2.9719006212	-0.9529373988	 2.0179177557	 0.116154
H	-4.2950295223	-0.9207137074	 0.8413109829	 0.115813
H	-2.6575589243	-1.1779380663	-1.0269171666	 0.092669
H	-2.7881693713	 1.318037558	 0.550082673	 0.093284
H	-1.6430428667	 0.6464195007	-2.2630914708	 0.128655
H	-1.9026821596	 2.3289313268	-1.6127512683	 0.125681
H	-0.1983050936	 1.936231591	 0.1704498625	 0.113291
H	-0.6919740437	-1.3699180716	 1.2435784896	 0.088796
H	 0.32946943	-2.5343100348	-0.7139672652	 0.291377
58.355	174.9866	230.474	248.3126	255.4229	285.7071	391.5686	415.4022	452.0292	488.8839	587.4688	620.0678	669.2918	805.7407	809.7975	848.6443	918.6118	942.3644	956.5115	974.6561	1040.4935	1066.5806	1089.1371	1102.4497	1111.1621	1140.3559	1162.7499	1180.859	1193.4755	1260.4232	1277.664	1321.7192	1335.2267	1359.5478	1373.748	1410.8732	1424.996	1490.328	1497.8112	1500.0312	1825.8744	2888.3107	3029.1908	3038.0926	3096.882	3110.7128	3127.0454	3173.7798	3189.5239	3215.6385	3720.6613
CC1C2CC2C(=O)C1O	C[C@H]1[C@@H]2C[C@@H]2C(=O)[C@@H]1O	
InChI=1S/C7H10O2/c1-3-4-2-5(4)7(9)6(3)8/h3-6,8H,2H2,1H3	InChI=1S/C7H10O2/c1-3-4-2-5(4)7(9)6(3)8/h3-6,8H,2H2,1H3/t3-,4-,5-,6+/m0/s1
