19
gdb 684	3.6353648	1.0693954	0.9112047	4.4117	75.6	-0.26042	0.01858	0.27899999999999997	1303.2322	0.158097	-422.59323	-422.584954	-422.58401	-422.626851	30.809	
O	 1.238155866	 0.1920797229	 0.2870653816	-0.336683
C	 0.0540107943	 0.0571203299	 0.182005898	 0.425203
C	-0.7269378804	-1.1974616106	-0.198640817	-0.358153
C	-2.165747287	-0.866160884	 0.2038464252	-0.248722
C	-2.189243567	 0.6792360629	 0.1556944639	 0.090684
O	-0.8179899074	 1.0789048827	 0.3956462816	-0.222788
C	-2.6761854734	 1.2519428725	-1.150685985	 0.022917
C	-4.1359373057	 1.6082026035	-1.3017623681	-0.273678
C	-3.0950844993	 2.695538117	-1.2282871952	-0.265597
H	-0.6154483534	-1.3496367799	-1.2778560777	 0.140063
H	-0.2996170554	-2.0698472712	 0.2971241436	 0.140005
H	-2.9224718194	-1.2997617949	-0.452345913	 0.118371
H	-2.3647504483	-1.2112658403	 1.2222466707	 0.116872
H	-2.776301688	 1.1027494496	 0.9765958404	 0.08889
H	-2.1849528527	 0.8419595811	-2.0298883819	 0.086432
H	-4.6144228165	 1.4095314789	-2.2538658527	 0.117945
H	-4.7851216678	 1.4676576053	-0.443322694	 0.114829
H	-2.8582076303	 3.2471029583	-2.1306501738	 0.120279
H	-3.0374616283	 3.2856814065	-0.3198849966	 0.123132
71.7051	85.4134	119.1393	202.7015	292.8606	357.7933	429.5359	508.5518	548.3171	667.8316	732.4836	762.3476	799.8922	831.195	848.7446	882.9282	924.5672	948.7344	987.1909	1006.9094	1038.5038	1059.0833	1067.7268	1083.31	1125.0993	1130.7796	1171.2073	1196.0134	1212.1523	1227.0622	1241.2203	1295.7181	1316.4701	1337.6396	1365.3751	1438.5074	1466.2151	1471.2768	1499.1694	1507.5561	1881.1604	3054.6396	3060.2395	3069.7533	3118.4467	3130.7167	3132.778	3136.7544	3140.8847	3212.5344	3228.0081
O=C1CCC(O1)C1CC1	O=C1CC[C@@H](O1)C1CC1	
InChI=1S/C7H10O2/c8-7-4-3-6(9-7)5-1-2-5/h5-6H,1-4H2	InChI=1S/C7H10O2/c8-7-4-3-6(9-7)5-1-2-5/h5-6H,1-4H2/t6-/m1/s1
