19
gdb 4572	3.0212015	1.2053308	0.9088329	0.5696	76.65	-0.25194	0.03935	0.29129	1271.4256	0.156216	-422.533027	-422.523759	-422.522815	-422.568061	33.871	
O	 4.0379843002	-1.8340501289	-0.9170930163	-0.438383
C	 4.1220196564	-0.4698756247	-1.2733385973	 0.116706
C	 5.0492989712	-0.2861261361	-2.4921760518	-0.25608
C	 4.2451730393	 0.6311363793	-3.4426477143	-0.083653
O	 3.1491100897	 1.1413949447	-2.6832845724	-0.26007
C	 2.7849920842	 0.1263930478	-1.7692902016	 0.106882
C	 1.9080823186	 0.7527908217	-0.6795155721	-0.384499
C	 1.5620106351	-0.2082111101	 0.3621166857	 0.289886
C	 1.3036281637	-1.0215489779	 1.2106401189	-0.451624
H	 3.4129042805	-1.8976452706	-0.1840751123	 0.284329
H	 4.4853993218	 0.131450764	-0.4257813491	 0.069182
H	 6.0053035836	 0.1571657324	-2.2072951466	 0.110538
H	 5.2486568024	-1.2634205595	-2.9373710548	 0.122643
H	 4.8129647765	 1.4871632666	-3.8151948778	 0.109746
H	 3.8700532009	 0.0657062736	-4.3084090409	 0.097216
H	 2.2287025711	-0.6826683452	-2.2732115967	 0.078655
H	 2.4517323822	 1.6006846668	-0.24462282	 0.14065
H	 0.9985200851	 1.1611324642	-1.1343400195	 0.143443
H	 1.0467383676	-1.7181317782	 1.9703553588	 0.204435
32.4589	71.0014	118.5987	179.1925	260.0522	344.6207	356.9712	392.4179	419.3229	453.5838	535.3347	622.1975	629.6401	652.8394	684.2425	800.5209	853.0363	937.2796	957.7002	991.0684	1014.5048	1032.4407	1070.7037	1116.4911	1124.469	1137.9935	1195.8149	1230.5598	1254.9366	1286.6601	1291.6219	1302.4111	1314.2136	1372.1909	1382.6488	1404.9043	1435.6145	1472.5091	1491.5557	1523.4814	2229.9914	2958.5654	2980.5772	2994.9445	3033.386	3072.6283	3076.096	3092.9946	3126.481	3501.9095	3771.4771
OC1CCOC1CC#C	O[C@H]1CCO[C@@H]1CC#C	
InChI=1S/C7H10O2/c1-2-3-7-6(8)4-5-9-7/h1,6-8H,3-5H2	InChI=1S/C7H10O2/c1-2-3-7-6(8)4-5-9-7/h1,6-8H,3-5H2/t6-,7+/m0/s1
