19
gdb 4574	2.3892648	1.4047899	0.93248	2.2285	79.7	-0.24807	-0.05876	0.18931	1246.324	0.156761	-422.572107	-422.563313	-422.562369	-422.605754	32.238	
C	-1.0559168714	 0.8914667274	-0.9929401544	-0.410742
C	-0.971711525	-0.2746371648	 0.0077412276	-0.117075
C	-2.0955468427	-1.2811848833	-0.2866949866	-0.081917
O	-1.9669761937	-2.4727184249	 0.4648536713	-0.247324
C	-0.8102181511	-3.2020086898	 0.1149684434	-0.133166
C	 0.4090666886	-2.3468037639	-0.0135958039	-0.131391
C	 0.3585017703	-1.0073987907	-0.0283135874	 0.19251
C	 1.6386339599	-0.2525046854	-0.0414203169	 0.087535
O	 2.7344962234	-0.7529843919	-0.1625375977	-0.267842
H	-0.8400934165	 0.551326408	-2.0115063757	 0.124964
H	-2.0630487761	 1.3220678974	-0.9882277446	 0.121796
H	-0.3581717016	 1.6972990563	-0.7530329002	 0.126628
H	-1.1296968172	 0.127121991	 1.0187750104	 0.095906
H	-3.070009302	-0.8576061946	-0.0274019777	 0.11234
H	-2.1024013958	-1.5084160699	-1.3669140243	 0.088524
H	-0.6632012613	-3.9507851686	 0.9028822789	 0.130469
H	-0.9664003036	-3.764591315	-0.8255881868	 0.109255
H	 1.3764389748	-2.8387159325	-0.0752002966	 0.12832
H	 1.5401313808	 0.8464280854	 0.0907241612	 0.07121
77.5666	110.4765	201.5253	218.5954	242.769	290.4193	304.4024	343.1385	418.31	497.3056	535.4103	618.5558	740.6551	794.7472	850.5079	904.8176	919.2357	960.3033	1023.5719	1034.4804	1046.5282	1084.7692	1111.5288	1125.4783	1174.7979	1194.772	1247.9476	1298.3792	1315.0572	1322.6729	1368.5123	1378.25	1407.8772	1423.5785	1445.3849	1474.0808	1494.5556	1500.8472	1504.6679	1678.1028	1794.8059	2897.3517	2925.7978	2958.0352	3004.3898	3035.5081	3050.0597	3086.4193	3100.0972	3117.9364	3174.8683
CC1COCC=C1C=O	C[C@H]1COCC=C1C=O	
InChI=1S/C7H10O2/c1-6-5-9-3-2-7(6)4-8/h2,4,6H,3,5H2,1H3	InChI=1S/C7H10O2/c1-6-5-9-3-2-7(6)4-8/h2,4,6H,3,5H2,1H3/t6-/m0/s1
