19
gdb 4646	5.6168262	0.4976322	0.4879899	1.788	82.65	-0.25061	0.0305	0.28110999999999997	2260.4171	0.154418	-422.483604	-422.473297	-422.472353	-422.521078	35.331	
O	-1.0753431435	 1.3460952974	-6.5546498145	-0.401838
C	-0.6728634636	 2.5216362648	-5.8656937611	-0.19472
C	 0.0726327755	 2.2566948312	-4.636911742	 0.130652
C	 0.6473940986	 2.0012365966	-3.6099661645	-0.015149
C	 1.3790645798	 1.700140355	-2.3888118724	-0.212092
O	 0.4912842991	 1.6850651165	-1.2783167489	-0.249613
C	 1.14536006	 1.392965567	-0.0818508323	 0.161037
C	 0.32064953	 0.7483430739	 0.9811971176	-0.287631
C	 1.4056656591	-0.0482695914	 0.2814978905	-0.288718
H	-1.5304122991	 0.7832408079	-5.9195340725	 0.28831
H	-0.048096521	 3.0809589284	-6.5710073085	 0.141185
H	-1.5358497558	 3.1648350767	-5.6296860103	 0.121857
H	 1.8867083675	 0.7269815582	-2.4835621585	 0.122585
H	 2.169272014	 2.4542105677	-2.2347914418	 0.119392
H	 1.8885510034	 2.1348687175	 0.215086606	 0.084109
H	 0.4726815491	 1.0541085671	 2.0099596291	 0.11603
H	-0.7056768968	 0.5185664578	 0.7194173931	 0.128896
H	 2.3100055527	-0.2968600046	 0.8257875228	 0.114349
H	 1.0783069609	-0.7986300477	-0.4295430618	 0.121359
29.0432	44.119	81.1622	116.1547	139.098	208.8544	278.4934	297.2196	360.9956	387.4807	442.8425	499.4466	574.842	755.1594	788.8895	820.4678	846.2523	960.9956	984.2068	987.7936	1026.7608	1045.6197	1048.4473	1073.0329	1077.4544	1127.7032	1164.3258	1193.8883	1201.4496	1215.7784	1240.0407	1253.8615	1358.346	1368.6605	1419.4001	1429.7535	1453.4281	1488.4292	1494.6922	1501.6106	2365.4022	2963.0236	2977.3002	2989.1607	3062.7712	3086.8523	3136.5531	3143.8023	3221.4829	3236.4587	3816.7866
OCC#CCOC1CC1	OCC#CCOC1CC1	
InChI=1S/C7H10O2/c8-5-1-2-6-9-7-3-4-7/h7-8H,3-6H2	InChI=1S/C7H10O2/c8-5-1-2-6-9-7-3-4-7/h7-8H,3-6H2
