19
gdb 3593	2.1903274	1.7853994	1.1959707	2.8581	78.93	-0.22664	0.01184	0.23848	1092.6816	0.156424	-422.522648	-422.514017	-422.513073	-422.555681	32.35	
C	-0.0175612078	 1.4730398827	 0.0966855013	-0.49667
C	 0.0044412611	-0.0060316593	-0.1064169451	 0.192821
C	-1.0033674218	-0.8592755341	-0.2647692418	 0.098277
C	-2.3813139213	-1.2477093244	 0.2130187533	-0.153417
O	-1.8420041766	-2.5522418941	 0.5933301392	-0.297346
C	-0.6118778014	-2.2915195198	-0.1479858862	 0.126768
C	 0.7832499577	-2.2258027628	 0.5229690247	 0.059634
O	 0.6054264937	-2.206809015	 1.9244915289	-0.417996
C	 1.2890997756	-0.8411468736	-0.0144886532	-0.328862
H	 0.5241522833	 1.9963102372	-0.7019363202	 0.128883
H	-1.0392626477	 1.861949111	 0.1161533474	 0.125337
H	 0.4751572093	 1.7469224717	 1.0384492384	 0.127515
H	-2.7845028965	-0.6919310185	 1.0669476543	 0.118488
H	-3.1583969467	-1.3567678722	-0.5551148039	 0.104116
H	-0.5847555352	-2.9050609273	-1.0596408795	 0.073374
H	 1.4432182078	-3.0519954221	 0.219747917	 0.056851
H	 1.4738017322	-2.1086456947	 2.3272859617	 0.282665
H	 1.8028300504	-0.9519176583	-0.9796698368	 0.105949
H	 2.015315284	-0.3958471864	 0.6777420205	 0.093612
111.6988	142.2058	171.6753	200.6287	259.3562	264.2984	332.005	382.4744	460.761	508.8143	595.5751	690.662	757.7101	802.1884	850.2786	902.0451	916.4441	946.0619	955.461	984.7724	1030.3073	1053.8718	1091.7309	1118.2587	1124.8047	1142.3816	1184.5204	1193.8025	1231.6747	1271.1388	1274.8531	1331.1677	1341.501	1358.5335	1412.4721	1429.2263	1471.2875	1478.3233	1488.0824	1508.3543	1780.2244	2983.2367	3000.8028	3009.1934	3013.1501	3017.1502	3048.5401	3060.5743	3064.871	3109.9341	3820.3424
CC1=C2COC2C(O)C1	C[C]1[C]2CO[C@@H]2[C@H](O)C1	
InChI=1S/C7H10O2/c1-4-2-6(8)7-5(4)3-9-7/h6-8H,2-3H2,1H3	InChI=1S/C7H10O2/c1-4-2-6(8)7-5(4)3-9-7/h6-8H,2-3H2,1H3/t6-,7+/m1/s1
