19
gdb 3583	2.8311778	1.2307278	1.120116	1.0547	78.09	-0.24696	0.0231	0.27006	1181.7753	0.154167	-422.520004	-422.510167	-422.509223	-422.554184	36.876	
C	 1.0291773131	 1.0221514736	 0.0169704466	-0.411477
C	 0.830702361	-0.4629308549	 0.3050858874	-0.040012
C	 1.3567036017	-1.4249252289	-0.8009735346	-0.268113
C	 2.6030410593	-1.7623365578	 0.064935505	 0.19292
O	 3.6939573993	-0.9329986015	-0.3520871525	-0.47654
C	 3.0089209642	-3.1496624727	 0.1926698342	 0.241535
C	 3.3561490039	-4.2932867372	 0.3312101344	-0.448164
C	 1.8718472159	-1.0917165042	 1.2937393049	 0.104114
O	 2.660762227	-0.2608939859	 2.0893214834	-0.427843
H	 0.8687972744	 1.6204275813	 0.9189706603	 0.124958
H	 2.0386207894	 1.2280561248	-0.3530306431	 0.124243
H	 0.3230150839	 1.361817631	-0.7477555409	 0.11374
H	-0.2062212687	-0.6439060548	 0.6014895024	 0.069843
H	 0.724399408	-2.2983272494	-0.9671502449	 0.113674
H	 1.6112687974	-0.9729289356	-1.7620829551	 0.117622
H	 4.4933117279	-1.286417963	 0.0543623304	 0.291708
H	 3.6558103063	-5.3057774715	 0.4466269568	 0.20015
H	 1.4175966377	-1.8396785376	 1.9475857658	 0.094708
H	 3.2437082785	 0.2109443444	 1.4792994296	 0.282935
74.2135	128.1216	162.1945	197.5176	222.2895	253.9601	273.5835	323.0553	394.0375	407.6844	503.6787	525.0373	576.5807	603.5679	618.377	642.0105	668.5916	787.4644	815.6106	852.2357	900.1192	975.66	1001.1824	1028.0783	1072.1988	1103.1771	1151.44	1172.751	1193.0283	1233.6427	1268.3753	1271.1765	1310.1329	1360.7325	1374.9355	1410.6561	1438.6167	1470.32	1495.8558	1509.6503	2227.213	3035.9186	3058.6562	3075.1525	3090.5301	3103.6711	3111.8339	3136.8017	3499.3819	3756.4853	3806.9788
CC1CC(O)(C#C)C1O	C[C@H]1C[C@](O)(C#C)[C@H]1O	
InChI=1S/C7H10O2/c1-3-7(9)4-5(2)6(7)8/h1,5-6,8-9H,4H2,2H3	InChI=1S/C7H10O2/c1-3-7(9)4-5(2)6(7)8/h1,5-6,8-9H,4H2,2H3/t5-,6-,7+/m0/s1
