19
gdb 3782	5.3947346	0.8098004	0.7581716	3.0929	77.04	-0.23367	0.07268	0.30635	1525.1146	0.155704	-422.48523	-422.476654	-422.475709	-422.51898	31.615	
C	 2.4659917423	-1.6426949785	 4.3170975349	-0.419669
C	 1.3154934536	-1.2486686976	 3.427684182	 0.070523
O	 0.654866863	-2.3058308938	 2.7202689297	-0.265164
C	 1.3769262732	-1.3260489763	 1.9610087096	 0.044862
C	 0.5722190252	-0.4411091902	 1.0713257456	-0.074199
C	 1.3571148071	 0.4106362262	 0.0838540274	-0.148938
C	 0.379612378	 1.2364009727	-0.7440790324	-0.096762
O	-0.3938647453	 0.0523119197	-1.08507064	-0.288461
C	 0.5470174019	-0.7699902853	-0.394619783	 0.096532
H	 2.0986667825	-2.1097109181	 5.2369005745	 0.131102
H	 3.1213442942	-2.3564034715	 3.8104671116	 0.126132
H	 3.0548185264	-0.7629195269	 4.5984759311	 0.121783
H	 0.6270982336	-0.5151168651	 3.8529593685	 0.087611
H	 2.3022271254	-1.7060737879	 1.5203730272	 0.084763
H	-0.3384164341	-0.0423704217	 1.5139388135	 0.095999
H	 2.426179525	 0.5614280723	 0.1523975425	 0.101138
H	-0.2205635541	 1.9929980213	-0.2250314835	 0.107988
H	 0.8280131607	 1.6707951833	-1.6446388525	 0.112459
H	 0.8084789315	-1.7293667027	-0.8266180367	 0.1123
66.6222	107.1007	137.3675	196.8116	275.4503	322.3916	343.5347	357.1253	490.1287	533.77	754.8943	784.2948	805.4978	877.8512	914.3102	942.6934	953.1706	971.4027	989.9975	1006.2675	1036.3084	1040.0292	1077.6375	1088.8875	1099.0604	1148.7259	1159.0732	1164.822	1174.153	1210.508	1248.6221	1252.221	1287.1273	1322.2108	1366.0268	1403.4721	1420.7681	1478.289	1491.6735	1514.6396	1519.3039	3024.2401	3035.4735	3073.7101	3073.7975	3085.3599	3100.9631	3121.659	3129.615	3177.9741	3201.7537
CC1OC1C1C2COC12	C[C@@H]1O[C@H]1[C@H]1[C@@H]2CO[C@H]12	
InChI=1S/C7H10O2/c1-3-6(9-3)5-4-2-8-7(4)5/h3-7H,2H2,1H3	InChI=1S/C7H10O2/c1-3-6(9-3)5-4-2-8-7(4)5/h3-7H,2H2,1H3/t3-,4-,5+,6+,7-/m0/s1
