19
gdb 1433	3.3301988	1.1864035	1.1600596	2.6926	74.62	-0.24138	-0.01973	0.22165	1137.3944	0.155432	-422.579465	-422.570514	-422.56957	-422.612948	33.761	
C	-1.6394876072	-0.1461921145	-2.6225216	-0.450269
C	-2.4909903293	-0.0951828811	-1.3786351463	 0.441406
O	-3.8430906566	-0.130063466	-1.7681729338	-0.476571
C	-2.1315518593	-0.7995507735	-0.0901583485	-0.143939
C	-0.7082961356	-1.2561175219	 0.1546727685	-0.337508
C	 0.1669002363	 0.0063292373	 0.0557269606	 0.382541
O	 1.3680895559	 0.0177825222	 0.0023374924	-0.308483
C	-0.7376989997	 1.2515728272	 0.0318607174	-0.337493
C	-2.1495972675	 0.7401241934	-0.1656425013	-0.143749
H	-1.8530354963	-1.0624996732	-3.1814904248	 0.131413
H	-1.874514039	 0.7052879818	-3.2685989193	 0.131451
H	-0.5700228963	-0.1224659285	-2.4052414436	 0.132486
H	-4.3963351241	-0.1006376686	-0.9812723103	 0.281178
H	-2.9337252942	-1.3289980334	 0.4147045391	 0.082042
H	-0.5948760471	-1.6665242552	 1.166193643	 0.13244
H	-0.3346801893	-2.0176829149	-0.5366678712	 0.134255
H	-0.6350966864	 1.7613625108	 0.9983322895	 0.132441
H	-0.3811684977	 1.9505032262	-0.7309668085	 0.134254
H	-2.9646178068	 1.2974541821	 0.285763627	 0.082107
70.3318	136.4664	173.0078	203.839	230.434	284.6377	388.3557	426.475	451.113	478.1679	478.6098	640.8665	648.4212	696.8005	767.1116	784.8154	841.7104	879.1821	947.3095	983.7913	1011.0514	1027.6696	1047.1607	1084.86	1108.5388	1148.2587	1158.1112	1177.8984	1195.9132	1222.0344	1275.4018	1287.6071	1326.2751	1375.6443	1425.3855	1447.5755	1448.1128	1465.033	1481.0013	1509.1639	1845.6534	3035.0746	3037.9935	3045.9549	3085.3024	3085.7368	3108.6325	3133.8795	3146.5175	3157.0662	3821.7097
CC1(O)C2CC(=O)CC12	C[C@@]1(O)[C@H]2CC(=O)C[C@@H]12	
InChI=1S/C7H10O2/c1-7(9)5-2-4(8)3-6(5)7/h5-6,9H,2-3H2,1H3	InChI=1S/C7H10O2/c1-7(9)5-2-4(8)3-6(5)7/h5-6,9H,2-3H2,1H3/t5-,6+,7+
