19
gdb 6029	3.8852777	1.0434015	0.9164182	2.1341	76.84	-0.24591	-0.00748	0.23843	1327.1019	0.15618	-422.526744	-422.518102	-422.517158	-422.560834	31.639	
C	 0.0256939615	-0.3846827235	-0.5083741867	-0.385264
C	 1.1271245579	 0.0981257598	 0.419533766	-0.032791
O	 1.4446418634	 1.4345813425	 0.0734987529	-0.255114
C	 2.3728963506	 2.0507857958	 0.9360583158	 0.092344
C	 2.5607448637	 3.4993387973	 0.5193466942	-0.113433
C	 3.8433056027	 3.8173113692	 0.347848754	-0.085058
C	 4.7057719865	 2.6107985181	 0.5606236645	-0.00332
O	 4.4320715661	 1.5566159367	-0.3887264364	-0.246914
C	 3.8086293006	 1.4972861217	 0.8949166654	-0.005865
H	-0.2442659775	-1.4188611319	-0.2743762646	 0.113764
H	-0.8655845829	 0.2406301493	-0.4045031978	 0.124678
H	 0.3575084895	-0.3388044409	-1.5492635062	 0.133301
H	 0.7984329481	 0.0494028053	 1.4721461704	 0.081521
H	 2.0160501811	-0.5448344848	 0.3256902406	 0.097228
H	 2.0078518099	 1.9885230064	 1.9789780517	 0.06788
H	 1.7069060163	 4.1432903138	 0.346498708	 0.112111
H	 4.2296599297	 4.7849249704	 0.0524007874	 0.107583
H	 5.7352715391	 2.6771755656	 0.8988334393	 0.099359
H	 4.1043474635	 0.6635549892	 1.5255404715	 0.097989
63.2175	69.013	131.4901	195.7122	252.0146	296.6473	370.1931	431.3236	499.8475	620.2426	705.7526	750.4613	821.4897	825.8679	836.5917	875.3199	906.4526	910.6269	950.3981	980.3289	1015.2242	1049.3217	1061.6228	1106.1773	1119.6166	1151.4036	1167.237	1189.6759	1253.8865	1297.065	1299.7184	1305.1677	1344.6063	1374.4147	1401.7332	1419.2356	1438.0561	1483.0505	1499.8239	1526.9708	1674.3646	2920.6886	2955.3095	2996.4075	3045.3673	3119.271	3123.8107	3148.7387	3166.4219	3199.7274	3223.6928
CCOC1C=CC2OC12	CCO[C@@H]1C=C[C@@H]2O[C@H]12	
InChI=1S/C7H10O2/c1-2-8-5-3-4-6-7(5)9-6/h3-7H,2H2,1H3	InChI=1S/C7H10O2/c1-2-8-5-3-4-6-7(5)9-6/h3-7H,2H2,1H3/t5-,6+,7-/m1/s1
