19
gdb 735	2.7764004	1.3461219	0.9913634	1.6639	75.67	-0.23786	-0.02439	0.21347	1215.7378	0.157001	-422.560198	-422.551682	-422.550738	-422.59425	31.333	
O	 1.2507028846	-0.1931327343	 0.2238297463	-0.302431
C	 0.0575020272	-0.1444585528	 0.0901672463	 0.373
C	-0.9209304195	-1.3183642198	 0.0350158338	-0.338423
C	-2.2734684186	-0.6261017246	 0.212936414	-0.094837
O	-2.1055927209	 0.688225186	-0.3270710688	-0.262898
C	-0.7834331013	 1.1379588908	-0.054205872	-0.013381
C	-0.6897375915	 2.0153234463	 1.1762330279	 0.019785
C	 0.4519584448	 2.991203073	 1.2965141869	-0.253535
C	-0.9485211708	 3.4958544891	 1.0600023836	-0.279825
H	-0.8369069775	-1.7817388631	-0.955007771	 0.141658
H	-0.6786340471	-2.0742477133	 0.784448036	 0.134442
H	-3.0921085974	-1.1000726792	-0.3327486677	 0.118066
H	-2.5538071914	-0.5781973131	 1.2763856448	 0.100663
H	-0.4323838256	 1.702746102	-0.9273685736	 0.10217
H	-1.0170394082	 1.535474353	 2.094822164	 0.08357
H	 0.8988214206	 3.133866731	 2.2734880451	 0.115865
H	 1.1604488192	 3.0394394892	 0.4771265547	 0.123797
H	-1.4661357953	 3.9873426283	 1.8759331841	 0.1149
H	-1.1926100912	 3.8892500514	 0.0787255057	 0.117413
62.213	63.7897	145.6825	167.2038	282.1163	300.2755	410.675	486.7404	541.4188	634.3694	662.226	760.7208	816.5859	818.2365	842.5237	884.1302	925.4011	949.5273	969.9669	992.7157	1041.8492	1060.1191	1077.9799	1088.3458	1128.877	1149.9166	1175.0585	1193.684	1205.9376	1226.544	1238.6152	1263.3958	1286.4593	1323.0772	1387.2362	1414.2183	1448.1574	1472.3393	1505.7149	1523.1876	1856.1099	2986.9176	3029.4647	3051.0951	3102.1204	3122.7278	3134.5005	3139.3195	3143.8014	3213.9413	3229.1773
O=C1CCOC1C1CC1	O=C1CCO[C@H]1C1CC1	
InChI=1S/C7H10O2/c8-6-3-4-9-7(6)5-1-2-5/h5,7H,1-4H2	InChI=1S/C7H10O2/c8-6-3-4-9-7(6)5-1-2-5/h5,7H,1-4H2/t7-/m0/s1
