19
gdb 5645	2.5591365	1.241374	0.9203521	3.5662	76.91	-0.24207	-0.03749	0.20458	1299.8107	0.154807	-422.539284	-422.530102	-422.529158	-422.573613	33.351	
C	 3.0932600845	-1.2824388765	 0.9909957357	-0.383382
C	 2.014710275	-0.5640962698	 0.1737632402	-0.201399
C	 2.1419989831	-0.8017722828	-1.327150399	-0.079426
C	 1.8043544623	-2.2273321985	-1.8824026016	-0.380393
C	 0.9069680662	-1.5672802287	-2.9516346884	 0.337783
O	 0.3589996766	-1.9452086975	-3.9448539223	-0.298645
C	 1.0542736992	-0.2213981573	-2.2554319973	 0.326676
C	-0.0187702746	 0.7506950136	-1.9787166426	-0.248222
O	 1.0501135808	 1.0473618181	-2.8737631925	-0.259384
H	 2.9720850905	-1.0889522982	 2.0609922987	 0.117715
H	 3.0504042039	-2.3665145569	 0.8412353618	 0.121314
H	 4.0953471886	-0.9475612661	 0.701974156	 0.120076
H	 1.0196946038	-0.8889809704	 0.5057759904	 0.095799
H	 2.0682917276	 0.5146668465	 0.3692793116	 0.106686
H	 3.1287853169	-0.4800400484	-1.6784360358	 0.095092
H	 2.630791162	-2.8234198932	-2.2749259222	 0.136791
H	 1.2247833395	-2.844781685	-1.187587673	 0.132051
H	-0.993745676	 0.611870357	-2.4428142034	 0.13511
H	-0.00829142	 1.2943177942	-1.0355146563	 0.12576
64.8167	101.9361	141.1089	205.5137	218.554	230.4943	298.1262	338.6064	425.6854	500.7272	561.7252	621.2222	701.9034	778.7715	802.2048	839.1192	908.0206	918.3819	958.7591	982.719	1027.6621	1059.7446	1071.4914	1119.8556	1128.9917	1153.4728	1162.1019	1182.4522	1223.7274	1246.6687	1290.7467	1340.2643	1387.1212	1402.7982	1413.9245	1440.4582	1486.9448	1499.6204	1506.2431	1520.0712	1893.4612	3015.104	3033.3347	3042.1486	3055.2862	3058.2772	3087.3748	3101.419	3107.2041	3120.962	3181.9194
CCC1CC(=O)C11CO1	CC[C@H]1CC(=O)[C@]21CO2	
InChI=1S/C7H10O2/c1-2-5-3-6(8)7(5)4-9-7/h5H,2-4H2,1H3	InChI=1S/C7H10O2/c1-2-5-3-6(8)7(5)4-9-7/h5H,2-4H2,1H3/t5-,7+/m0/s1
