19
gdb 3648	3.3750397	0.8907435	0.7479057	1.4055	77.02	-0.25367	0.02983	0.28350000000000003	1499.6701	0.154537	-422.496127	-422.486544	-422.4856	-422.531462	35.026	
O	-5.4202138385	 2.5549199446	-2.046069136	-0.432416
C	-4.0302570287	 2.7009604866	-1.9092653156	 0.163478
C	-3.0721152461	 1.7914663558	-2.7271468385	-0.303731
C	-2.1328281454	 1.7668676849	-1.5054283424	 0.159938
C	-3.3221720456	 2.223745969	-0.6122645351	-0.291984
O	-1.5435363069	 0.505985673	-1.27985679	-0.238002
C	-0.5160853081	 0.4907050133	-0.3083812023	-0.236651
C	-0.9774504987	 0.6459152501	 1.0750123724	 0.324046
C	-1.3422061923	 0.7645420015	 2.2141349606	-0.466877
H	-5.6403055623	 1.6348283696	-1.865561043	 0.276493
H	-3.8305172023	 3.758815572	-2.1030420182	 0.092411
H	-3.5090706241	 0.796144226	-2.8631968682	 0.106958
H	-2.685273432	 2.1483891213	-3.6835944561	 0.103539
H	-1.3529390802	 2.5397382677	-1.5665595318	 0.069428
H	-3.8239487684	 1.3434509955	-0.1976215325	 0.105345
H	-3.1415236064	 2.9443525827	 0.1867012383	 0.105207
H	-0.0177055869	-0.4786842568	-0.4177345712	 0.1396
H	 0.2333920081	 1.2687463159	-0.5285022811	 0.120001
H	-1.6660739151	 0.8701252373	 3.2201590307	 0.203217
40.3393	71.741	95.1298	198.3772	259.4717	295.3661	333.866	348.3956	422.1006	437.1548	459.0301	582.257	618.2123	622.6202	679.8767	779.1096	796.1388	905.6355	921.5551	951.5915	1009.3751	1023.9077	1031.7047	1069.0404	1085.3157	1108.7079	1172.7411	1191.3743	1200.0247	1253.4084	1265.1067	1294.9515	1300.8196	1335.1995	1381.7684	1410.9795	1444.8552	1461.7972	1474.1981	1495.2118	2232.9212	2972.3217	2995.6156	3052.704	3060.7225	3065.6141	3072.2298	3119.7216	3129.0332	3503.4245	3806.3464
OC1CC(C1)OCC#C	O[C@@H]1C[C@@H](C1)OCC#C	
InChI=1S/C7H10O2/c1-2-3-9-7-4-6(8)5-7/h1,6-8H,3-5H2	InChI=1S/C7H10O2/c1-2-3-9-7-4-6(8)5-7/h1,6-8H,3-5H2/t6-,7+
