19
gdb 5136	2.5848415	1.4203979	1.144451	4.1502	74.99	-0.26614	0.01172	0.27786	1145.9496	0.156877	-422.596269	-422.587812	-422.586868	-422.629473	31.958	
C	 2.0469159024	 0.3001022408	 0.6180025462	-0.385381
C	 1.4218793266	 0.5044937929	-0.7663477365	-0.264574
C	 1.8555731713	-0.5241303602	-1.775417845	 0.442224
C	 1.0464105174	-0.9318166553	-2.9722268293	-0.356966
C	 1.3600968086	-1.9453151674	-1.8820780428	-0.111178
C	 2.5891966987	-2.8018679557	-2.0736468913	-0.374311
C	 3.7409834858	-1.7965022593	-2.189736717	 0.404378
O	 4.892020793	-2.0151834135	-2.4234568816	-0.327497
O	 3.2649368168	-0.5304276142	-1.9915328024	-0.253121
H	 1.761338536	-0.6683470344	 1.0422071757	 0.113938
H	 3.1379511819	 0.3340786132	 0.5587681432	 0.140296
H	 1.7195258596	 1.0802714145	 1.3109232906	 0.116883
H	 0.3283907336	 0.4687582526	-0.7004875328	 0.102899
H	 1.6770359323	 1.50054939	-1.1485725331	 0.116951
H	 0.0244562365	-0.5736639045	-3.0328849639	 0.121731
H	 1.5563152973	-1.0166527698	-3.9271201979	 0.12612
H	 0.5522886095	-2.3000511567	-1.2533990515	 0.10175
H	 2.7837640111	-3.4534336554	-1.2155998709	 0.142706
H	 2.5776576215	-3.4362847173	-2.9646115297	 0.14315
84.1963	110.1739	159.5676	207.2773	288.8319	316.2844	409.5113	489.576	505.6114	561.7395	583.5746	666.8531	742.027	780.6306	839.3916	849.5374	888.333	927.7884	960.3571	1002.5164	1026.8207	1045.0374	1067.8245	1076.1928	1099.4261	1119.1099	1162.9963	1197.7774	1238.8657	1270.647	1297.3075	1336.1373	1357.3769	1409.1019	1421.2598	1462.0352	1476.1724	1487.8802	1497.4919	1510.254	1886.0559	3032.1713	3041.2255	3060.2138	3068.7582	3099.5031	3108.9487	3124.314	3126.6616	3182.1881	3217.7403
CCC12CC1CC(=O)O2	CC[C@]12C[C@H]1CC(=O)O2	
InChI=1S/C7H10O2/c1-2-7-4-5(7)3-6(8)9-7/h5H,2-4H2,1H3	InChI=1S/C7H10O2/c1-2-7-4-5(7)3-6(8)9-7/h5H,2-4H2,1H3/t5-,7+/m1/s1
