19
gdb 4746	2.1240274	1.1122646	1.0089715	2.912	77.98	-0.24647	-0.02284	0.22363	1305.3468	0.152628	-422.537933	-422.52731	-422.526366	-422.573852	37.754	
C	-2.3077361598	 1.4918293621	 0.2122186423	-0.420793
C	-1.0889945927	 1.9596500704	-0.60988886	 0.015747
C	-1.5841625155	 2.7788673759	-1.8363978566	-0.072718
O	-0.5319928897	 3.2823754106	-2.6271345862	-0.417997
C	-0.2714998097	 0.7436160006	-1.1293149397	-0.285015
C	 0.3944007913	-0.0661444214	-0.0410713402	 0.148263
O	 0.2610854565	-1.2557797648	 0.0990349591	-0.248212
C	-0.2393322154	 2.8497400305	 0.1908881158	 0.330466
C	 0.448044861	 3.628638836	 0.7988988898	-0.499754
H	-1.9979322686	 0.9071621953	 1.0821796158	 0.139378
H	-2.8886350127	 2.3471867289	 0.5678334571	 0.129197
H	-2.9560463281	 0.8621774699	-0.4056656379	 0.126135
H	-2.1721977527	 2.1216522448	-2.4851946825	 0.114399
H	-2.2435435852	 3.5824230549	-1.4757359718	 0.098254
H	-0.0146966346	 3.8748164974	-2.0675238843	 0.288212
H	-0.9236797038	 0.0797234699	-1.7044807805	 0.119245
H	 0.5065808517	 1.1296390983	-1.7997354187	 0.138914
H	 1.045004608	 0.5223232402	 0.6427819291	 0.088925
H	 1.0539902999	 4.2937032506	 1.3642286092	 0.207354
54.0856	83.069	121.229	142.3978	182.9445	223.2296	237.3371	253.3404	353.5745	378.8563	422.2301	455.9887	484.1658	566.7564	624.3791	641.9725	654.3996	699.5875	811.8595	908.7076	925.5698	967.3583	1006.5021	1060.4382	1095.3146	1145.9311	1168.3077	1177.8021	1235.4655	1283.8505	1314.7234	1384.1737	1408.8673	1424.8483	1430.0926	1461.202	1489.6527	1496.6403	1500.6889	1827.9086	2219.9658	2894.5732	2993.0595	3036.8871	3041.8464	3080.2353	3101.8351	3115.5564	3123.9294	3496.221	3779.0964
CC(CO)(CC=O)C#C	C[C@](CO)(CC=O)C#C	
InChI=1S/C7H10O2/c1-3-7(2,6-9)4-5-8/h1,5,9H,4,6H2,2H3	InChI=1S/C7H10O2/c1-3-7(2,6-9)4-5-8/h1,5,9H,4,6H2,2H3/t7-/m1/s1
