19
gdb 2083	2.3488862	1.8241725	1.1823929	3.0582	75.28	-0.24229	-0.02753	0.21476	1076.0807	0.157086	-422.582219	-422.573834	-422.572889	-422.615135	31.913	
C	-0.391011679	 2.4597352223	 0.8079909487	-0.468834
C	-0.8725925805	 1.2728059221	 0.0149815567	 0.271768
O	-1.1045372127	 1.5165104527	-1.394786384	-0.280651
C	-2.2311652793	 1.2198960765	-0.5719538353	 0.003755
C	-2.9293788242	-0.0909984806	-0.8575954459	-0.245026
C	-1.9177128623	-1.1750548459	-1.2479112181	-0.224258
C	-0.8255657504	-1.3290027377	-0.1837503651	-0.303091
C	-0.1556742932	-0.0390918826	 0.2765254402	 0.356992
O	 0.8900859007	-0.0511231074	 0.8853119331	-0.308766
H	-0.5575097629	 2.3035112951	 1.8782003166	 0.128322
H	 0.6818279854	 2.6030742469	 0.6597534561	 0.147142
H	-0.9207920054	 3.3616250836	 0.4927390058	 0.122424
H	-2.874698746	 2.0787804124	-0.3744926238	 0.092431
H	-3.4976400558	-0.3880278581	 0.0343396127	 0.106859
H	-3.6609769544	 0.0553735551	-1.6606901403	 0.112352
H	-2.4305535439	-2.1310836059	-1.3917711389	 0.100361
H	-1.4625844946	-0.904778281	-2.2045747569	 0.127153
H	-1.2605800224	-1.7604466111	 0.7308354993	 0.129826
H	-0.0388280892	-2.0223103865	-0.4946596007	 0.131241
62.7514	166.3409	203.9351	256.9656	296.7958	306.4551	372.3309	414.4977	487.2803	527.818	602.2884	631.9789	670.0967	780.8133	828.7924	864.9199	885.0942	915.3441	962.9484	1028.4594	1059.8599	1070.9797	1079.5557	1116.3451	1128.9122	1193.1958	1222.4693	1278.0182	1298.9863	1335.6237	1355.3656	1373.4569	1383.4979	1411.3779	1447.4013	1455.4619	1476.0466	1483.6053	1493.1674	1496.462	1799.78	3006.4426	3021.407	3050.1733	3053.9403	3064.7254	3090.8534	3099.6667	3103.9577	3120.6833	3137.1044
CC12OC1CCCC2=O	C[C@]12O[C@H]1CCCC2=O	
InChI=1S/C7H10O2/c1-7-5(8)3-2-4-6(7)9-7/h6H,2-4H2,1H3	InChI=1S/C7H10O2/c1-7-5(8)3-2-4-6(7)9-7/h6H,2-4H2,1H3/t6-,7+/m0/s1
