19
gdb 3440	2.8524457	1.3696825	1.0373015	2.49	77.59	-0.24351	0.01808	0.26159	1189.2741	0.156215	-422.556255	-422.54761	-422.546666	-422.589232	33.063	
C	 1.5841622848	 0.6797939593	 0.1824709987	-0.491436
C	 0.2201485588	 0.0874483011	 0.0275758277	 0.32671
C	-0.1321060358	-1.1951555961	 0.1513119326	-0.220295
C	-1.5979765906	-1.4325891366	-0.1456993458	 0.039381
O	-2.2880448249	-2.2916742761	 0.7336358311	-0.440176
C	-2.1449021109	 0.0088460518	-0.1135938491	 0.36265
C	-3.5633258374	 0.3197521888	-0.2682497413	-0.245466
O	-2.9630595368	 0.2800443919	 1.0384141076	-0.274976
C	-0.974017674	 0.9517694246	-0.3434587689	-0.387005
H	 1.5899629456	 1.4551468571	 0.9592367191	 0.129188
H	 2.325359225	-0.0781530751	 0.4487894292	 0.127411
H	 1.9125354579	 1.1673898119	-0.7445592819	 0.126303
H	 0.5393871012	-2.0123064683	 0.3901537661	 0.095799
H	-1.717294941	-1.8657470752	-1.1498701545	 0.090393
H	-2.601909733	-1.7273452423	 1.4547467351	 0.288803
H	-3.8747828268	 1.3092481317	-0.5992582449	 0.116491
H	-4.2648519536	-0.4872067856	-0.4743350094	 0.124203
H	-0.9164942403	 1.28082747	-1.3906434677	 0.112421
H	-1.067242708	 1.8535581271	 0.2725254062	 0.119599
92.8407	148.8592	194.3053	245.8315	275.714	311.4268	371.4208	421.5837	437.9512	474.0885	508.1006	561.6564	665.4367	753.8321	830.3563	865.6127	875.5928	901.9411	956.6369	996.2486	1008.8519	1039.1355	1067.962	1101.3537	1121.8747	1150.7123	1181.3436	1191.061	1226.7155	1253.6546	1287.387	1315.4173	1335.8138	1412.9701	1425.0185	1444.6922	1472.5111	1478.7519	1486.6458	1526.172	1714.8586	2994.3173	3010.2396	3017.4271	3061.6027	3063.0698	3086.2189	3114.1429	3174.8985	3196.4807	3735.6975
CC1=CC(O)C2(CO2)C1	CC1=C[C@@H](O)[C@]2(CO2)C1	
InChI=1S/C7H10O2/c1-5-2-6(8)7(3-5)4-9-7/h2,6,8H,3-4H2,1H3	InChI=1S/C7H10O2/c1-5-2-6(8)7(3-5)4-9-7/h2,6,8H,3-4H2,1H3/t6-,7-/m1/s1
