19
gdb 4918	2.378614	1.5896974	1.1982928	1.8422	75.62	-0.23442	-0.03097	0.20345	1101.4155	0.154913	-422.520084	-422.511146	-422.510202	-422.553574	33.017	
C	 1.2617671938	-0.1928930164	-0.2557361623	-0.262281
O	-0.1261971502	-0.1035375742	 0.0111758628	-0.292656
C	-0.4602885223	 0.7266875941	 1.101890997	 0.334655
C	-0.0670803427	 0.175394483	 2.5128027168	-0.306658
C	-1.5542169403	-0.0586783176	 2.8171027337	-0.03603
C	-2.3181603378	 1.2278416702	 2.7170626801	-0.292418
C	-1.9483215144	 0.5002872762	 1.4515709342	-0.112269
C	-0.1434674292	 2.1757989196	 0.7798397116	 0.099984
O	 0.1770785453	 3.0109609976	 1.5881615183	-0.254751
H	 1.8151977165	-0.637598853	 0.58268533	 0.115692
H	 1.3732912988	-0.8354068978	-1.1316006294	 0.134925
H	 1.7068984104	 0.7878615355	-0.4788630824	 0.115909
H	 0.4962803646	-0.7537368996	 2.41140131	 0.113807
H	 0.4654011553	 0.8648534021	 3.1723839465	 0.11572
H	-1.9551586071	-0.9270026985	 3.3244301779	 0.090493
H	-3.370356248	 1.1672082933	 2.9754451901	 0.116594
H	-1.8458540122	 2.1729699771	 2.969485536	 0.134999
H	-2.6693715289	 0.1478286777	 0.7253834662	 0.098768
H	-0.2907416416	 2.4265546506	-0.2967073271	 0.085518
95.9868	137.2018	161.8257	183.7204	200.2036	270.9325	302.4944	389.4797	427.0166	462.8747	571.7866	643.6634	758.9951	794.1864	843.2593	883.5997	928.9565	943.5189	961.8009	980.87	1042.1429	1064.3627	1085.9074	1096.7152	1122.6226	1144.2183	1154.9898	1182.2286	1204.9059	1224.6168	1242.2084	1259.8724	1287.8072	1350.3343	1399.5544	1463.682	1481.1304	1489.69	1492.1846	1508.5655	1820.3597	2864.807	2990.7275	3042.8344	3069.6274	3122.8216	3124.5347	3131.2313	3187.575	3199.3914	3212.5156
COC1(CC2CC12)C=O	CO[C@@]1(C[C@H]2C[C@@H]12)C=O	
InChI=1S/C7H10O2/c1-9-7(4-8)3-5-2-6(5)7/h4-6H,2-3H2,1H3	InChI=1S/C7H10O2/c1-9-7(4-8)3-5-2-6(5)7/h4-6H,2-3H2,1H3/t5-,6-,7+/m1/s1
