19
gdb 5892	2.0834477	1.2069553	0.9029525	2.4786	78.2	-0.24383	-0.0243	0.21953	1376.7022	0.152324	-422.523588	-422.512685	-422.51174	-422.560565	37.355	
C	 1.3574514082	-0.2239562442	 1.26210905	-0.227304
O	 0.0051105508	-0.2889973395	 0.8675413919	-0.232847
C	-0.6121334549	 0.9714569391	 0.8023410213	-0.15221
C	-2.1129993403	 0.8143147374	 0.5716320428	 0.356274
O	-2.7440361046	 1.6773860231	 0.0161425589	-0.296863
C	-2.7710106131	-0.4753460535	 1.1075270904	-0.222791
C	-4.2384257758	-0.5796074999	 0.6673390221	-0.393527
C	-2.6201566214	-0.5132213147	 2.5611611776	 0.332955
C	-2.5258827518	-0.5078565141	 3.759782816	-0.491621
H	 1.4633405152	 0.2221992922	 2.2626422622	 0.113312
H	 1.7378283031	-1.2474177498	 1.2860822592	 0.133602
H	 1.9598524442	 0.3648578868	 0.5537508503	 0.110711
H	-0.4823430069	 1.5275773194	 1.7473217261	 0.124336
H	-0.2037681901	 1.5946864912	-0.0069818206	 0.119523
H	-2.1876279397	-1.3059736984	 0.6894762956	 0.139488
H	-4.6779183672	-1.5062783917	 1.0432357012	 0.121488
H	-4.8148245895	 0.2650041932	 1.049309713	 0.140571
H	-4.3063230548	-0.5690653071	-0.423164054	 0.125886
H	-2.4387005514	-0.5231153793	 4.8179313661	 0.199017
38.9458	75.3548	80.296	133.1217	156.4691	200.4474	226.42	229.4884	275.5866	338.4014	396.9609	478.2827	528.2951	566.1131	616.2704	643.3232	651.4663	743.1701	878.5621	969.3036	1005.6876	1050.4126	1083.7799	1116.9665	1146.5436	1183.161	1190.0883	1227.6466	1242.8666	1294.7348	1315.0161	1384.7341	1408.9467	1468.898	1486.1107	1487.5181	1490.3134	1492.1655	1512.7074	1826.3388	2230.7419	2960.0393	2980.1038	3017.1465	3028.7959	3033.9372	3057.7495	3122.5172	3133.76	3142.9113	3504.6192
COCC(=O)C(C)C#C	COCC(=O)[C@H](C)C#C	
InChI=1S/C7H10O2/c1-4-6(2)7(8)5-9-3/h1,6H,5H2,2-3H3	InChI=1S/C7H10O2/c1-4-6(2)7(8)5-9-3/h1,6H,5H2,2-3H3/t6-/m1/s1
