19
gdb 3817	2.9335375	1.6754596	1.2942567	1.3708	74.65	-0.23398	0.07397	0.30795	1029.5474	0.156262	-422.507533	-422.499678	-422.498734	-422.539378	31.131	
C	 0.3977813653	-0.1676563097	-0.5347017463	-0.397955
C	 0.7632560869	 0.0898202358	 0.9191871897	 0.099746
O	 2.0574418029	-0.4913756361	 1.2265521831	-0.327248
C	 2.8133593422	 0.596434631	 1.7026890001	 0.452762
C	 4.2116527494	 0.2249702681	 2.0941109601	-0.499229
C	 2.4755496778	 1.893316672	 0.8890558639	-0.01229
O	 2.6563607149	 2.7197046791	 2.0860123586	-0.320145
C	 1.9139101025	 1.5502557228	 2.5640514601	-0.018207
C	 1.0115671304	 1.5426726274	 1.2960307056	-0.090413
H	 0.3905104552	-1.2420392956	-0.7385931954	 0.129948
H	-0.5978263651	 0.2304646524	-0.757263153	 0.116566
H	 1.1186458099	 0.3036709121	-1.2098074427	 0.119677
H	 0.0160331748	-0.3725624621	 1.5785951382	 0.083011
H	 4.2025549622	-0.5267017721	 2.8890400332	 0.127875
H	 4.7533181702	-0.1919367225	 1.2398375043	 0.127495
H	 4.7334164617	 1.1164655931	 2.449367913	 0.141298
H	 2.8721072624	 2.2654563573	-0.0557418439	 0.091022
H	 1.6373784118	 1.5105754119	 3.61806069	 0.090395
H	 0.2244562748	 2.2861602753	 1.1860426913	 0.085694
141.882	215.6653	223.5382	235.8796	278.9866	331.9986	453.6633	478.0144	519.8161	668.7662	682.7053	697.6588	786.0129	809.5584	856.3059	888.4503	893.9197	913.9199	931.6155	972.7783	995.7237	1042.8394	1092.8945	1104.4482	1130.8334	1133.5926	1158.448	1169.1347	1189.0511	1221.089	1264.6232	1309.3125	1330.0555	1354.6797	1388.8534	1407.9509	1419.011	1485.4624	1487.186	1493.2174	1495.0253	3010.8594	3038.0168	3046.2869	3109.3611	3112.3552	3113.3542	3117.7907	3119.4539	3136.3383	3148.979
CC1OC2(C)C3OC2C13	C[C@H]1O[C@@]2(C)[C@@H]3O[C@H]2[C@H]13	
InChI=1S/C7H10O2/c1-3-4-5-7(2,9-3)6(4)8-5/h3-6H,1-2H3	InChI=1S/C7H10O2/c1-3-4-5-7(2,9-3)6(4)8-5/h3-6H,1-2H3/t3-,4-,5-,6+,7+/m1/s1
