19
gdb 5099	4.2003896	1.0058212	0.9626516	2.778	76.26	-0.24811	0.06478	0.31289	1276.4897	0.156039	-422.499411	-422.490815	-422.48987	-422.532734	32.62	
O	 0.7271822573	-0.7022604857	 0.2568996408	-0.408456
C	 0.3637360634	 0.6319792441	-0.0612861379	-0.194088
C	-0.6014657781	 0.731937992	-1.2142636927	 0.340977
C	-0.666885902	-0.2537620229	-2.344613217	-0.343022
C	-1.8922759497	-0.0535899392	-1.4797102575	-0.182454
C	-2.5748677266	 1.2294422053	-1.8967881502	 0.4772
C	-3.7122568373	 1.464431791	-2.7876460455	-0.272722
O	-3.8198140574	 1.6343429207	-1.3618822963	-0.280731
C	-1.2934940168	 2.0455319311	-1.6348377065	-0.396923
H	 1.346749922	-1.0057321304	-0.4134172105	 0.287025
H	-0.1018678495	 1.0400280562	 0.8437319959	 0.116991
H	 1.2531694185	 1.2501422296	-0.2677099027	 0.091754
H	-0.6594439384	 0.0789219171	-3.380417848	 0.105082
H	-0.1592876175	-1.1974347823	-2.1724695606	 0.107908
H	-2.3415194685	-0.8581970651	-0.9113008218	 0.105099
H	-3.7706119524	 2.3848159441	-3.3675605563	 0.112412
H	-4.2641733175	 0.61972284	-3.1980658263	 0.114451
H	-0.8484966689	 2.5943444187	-2.4711941012	 0.098021
H	-1.4510617205	 2.7295810958	-0.7958139857	 0.121476
67.8317	112.2497	179.4584	278.7954	295.7173	320.6083	347.1733	382.2882	436.5829	493.7947	581.2658	671.1818	788.237	815.5834	841.8252	864.2161	919.8669	945.7212	971.7697	981.3079	1010.0405	1038.1949	1074.6615	1085.7799	1095.3672	1120.8554	1130.4773	1163.8177	1166.8327	1208.183	1224.5785	1249.765	1256.8539	1388.124	1394.7923	1416.8255	1439.5763	1472.8483	1495.4887	1502.7592	1537.3112	2966.8089	3043.6883	3053.6188	3079.0675	3102.1166	3104.5199	3165.9138	3194.863	3202.5102	3826.1535
OCC12CC1C1(CO1)C2	OC[C@@]12C[C@@H]1[C@]1(CO1)C2	
InChI=1S/C7H10O2/c8-3-6-1-5(6)7(2-6)4-9-7/h5,8H,1-4H2	InChI=1S/C7H10O2/c8-3-6-1-5(6)7(2-6)4-9-7/h5,8H,1-4H2/t5-,6-,7+/m0/s1
