19
gdb 4067	3.2910529	1.3824692	1.1725331	2.9085	75.05	-0.23853	0.06028	0.29881	1119.0982	0.155518	-422.4961	-422.48785	-422.486906	-422.528474	31.836	
C	 0.2673061023	 0.4605670462	 0.1453888546	-0.413921
C	 0.8650150558	-0.848864553	-0.3286600596	 0.157042
O	 2.1256336498	-0.6354849148	-1.0385942717	-0.308462
C	 2.8477878284	-1.4255287384	-0.0876111027	 0.104073
C	 2.9653732682	-2.9483422428	-0.3940886472	-0.081691
O	 1.7359834834	-3.3655070229	-0.9970911192	-0.26419
C	 1.7629897408	-3.2305494288	 0.4265185449	 0.403989
C	 1.3488580699	-4.3960270001	 1.2635239442	-0.505717
C	 1.5792570627	-1.7155356735	 0.7412190206	-0.198671
H	 0.9579317633	 0.9948399022	 0.8054441699	 0.116882
H	 0.0446491276	 1.1058121945	-0.710038996	 0.128797
H	-0.6662233989	 0.278016341	 0.6896328118	 0.113082
H	 0.1642962131	-1.402270931	-0.9616522768	 0.093652
H	 3.749781416	-0.946541909	 0.3022019595	 0.079819
H	 3.8462272094	-3.5425477088	-0.6152617157	 0.100879
H	 1.7745514953	-5.3209902105	 0.8656501297	 0.137027
H	 1.6826525344	-4.2700009129	 2.2985166911	 0.12569
H	 0.2575997507	-4.4987113399	 1.2725277279	 0.132772
H	 1.4847035778	-1.4370019375	 1.7900160448	 0.078947
146.5534	176.2184	201.3195	215.5608	239.154	320.6631	338.1558	400.5549	531.9622	574.9697	654.5235	746.4717	793.6826	825.0398	857.3245	869.2798	886.3657	920.9574	936.3246	995.8388	1017.8577	1030.1907	1071.7512	1090.5543	1098.3556	1133.7309	1165.0244	1175.5703	1217.2768	1242.6172	1272.0456	1291.1008	1326.2327	1366.2581	1403.0512	1406.3281	1459.4936	1481.7486	1482.7733	1492.9026	1493.8094	3031.2557	3033.3001	3059.2347	3076.3604	3095.5897	3103.7448	3112.119	3121.7735	3124.8666	3168.2156
CC1OC2C3OC3(C)C12	C[C@H]1O[C@@H]2[C@@H]3O[C@]3(C)[C@H]12	
InChI=1S/C7H10O2/c1-3-4-5(8-3)6-7(4,2)9-6/h3-6H,1-2H3	InChI=1S/C7H10O2/c1-3-4-5(8-3)6-7(4,2)9-6/h3-6H,1-2H3/t3-,4-,5+,6+,7-/m1/s1
