19
gdb 1770	2.5450691	1.7817013	1.3247627	0.9801	73.99	-0.24799	0.07342	0.32141	1000.4778	0.157446	-422.530386	-422.522678	-422.521734	-422.561683	32.262	
O	-3.552884346	 0.6196456399	 2.2516696491	-0.48525
C	-3.0178954815	 1.5162482878	 1.3296330317	 0.415151
C	-3.049058349	 1.1278608078	-0.180254251	-0.315698
C	-1.9511898166	 2.2579035877	-0.2348773055	 0.408903
O	-1.0963279158	 2.4597343442	-1.3139078818	-0.487686
C	-1.4818237939	 1.7185090253	 1.1453732778	-0.382583
C	-2.8062753628	 3.4925442129	 0.099344085	-0.05252
C	-2.7082870595	 4.1492227656	 1.4519491213	-0.322716
C	-3.6039081153	 2.9460714891	 1.2678736661	-0.117025
H	-3.4912809813	 1.0186740706	 3.1262083518	 0.279123
H	-2.6556193305	 0.1243614944	-0.3687850968	 0.089515
H	-3.9801657903	 1.29513079	-0.7273225983	 0.093737
H	-0.628290154	 1.6369678237	-1.4883536338	 0.279041
H	-0.9855255923	 0.7498501886	 1.0471876584	 0.092864
H	-0.9146765185	 2.3585253131	 1.8218542815	 0.093319
H	-3.2663522782	 4.0155593255	-0.7310358771	 0.094577
H	-1.8030205108	 4.1047932243	 2.0449525209	 0.114385
H	-3.2279923285	 5.0987011471	 1.5391180053	 0.11171
H	-4.6816641853	 3.0468858123	 1.3355274053	 0.091151
241.8979	252.4305	265.5084	296.5801	321.5905	397.1243	407.8021	480.2595	545.8345	562.7914	574.501	601.9217	665.3843	793.7029	819.4824	829.9004	843.7007	934.9278	950.0054	971.731	994.5083	1005.7426	1022.9089	1065.1183	1080.998	1095.7882	1107.1332	1132.6819	1138.6779	1158.4522	1192.7249	1206.6569	1248.8889	1280.2853	1320.2765	1353.1846	1378.1869	1399.2731	1472.0944	1496.6427	1537.1661	3050.8508	3072.787	3118.2281	3126.8281	3136.137	3168.8867	3181.0437	3211.5394	3805.9131	3818.2801
OC12CC(O)(C1)C1CC21	O[C@]12C[C@](O)(C1)[C@@H]1C[C@H]21	
InChI=1S/C7H10O2/c8-6-2-7(9,3-6)5-1-4(5)6/h4-5,8-9H,1-3H2	InChI=1S/C7H10O2/c8-6-2-7(9,3-6)5-1-4(5)6/h4-5,8-9H,1-3H2/t4-,5+,6-,7+
