19
gdb 4266	2.3296455	1.5043761	1.2320885	1.3623	76.24	-0.25225	-0.03455	0.21769999999999998	1104.1358	0.155813	-422.53725	-422.528608	-422.527664	-422.570732	32.017	
C	 0.9474133102	-0.4724695215	-1.0452468645	-0.412496
C	 0.9830939409	 0.2576285268	 0.279656659	 0.100609
O	 1.798162273	 1.4576600895	 0.2529194583	-0.308163
C	 2.4731308497	 1.0885074214	 1.4632537976	 0.080869
C	 3.8316015616	 0.3972123461	 1.2258799134	-0.227982
C	 3.124799135	-0.9930741074	 1.2159003495	-0.309532
C	 1.7588407212	-0.3196185227	 1.4934642392	 0.176004
C	 0.9667941018	-0.7783336075	 2.6705067785	 0.062065
O	 1.3152076393	-1.6337933631	 3.4473597985	-0.255341
H	 0.3420351697	-1.3816776389	-0.9649869533	 0.124094
H	 0.4964118536	 0.1715727546	-1.8065732198	 0.134458
H	 1.9497914659	-0.7447350387	-1.3848395387	 0.127687
H	-0.0426841936	 0.5220937637	 0.5822991756	 0.078046
H	 2.3833102888	 1.8461388934	 2.2468012825	 0.086622
H	 4.3084072367	 0.7094486872	 0.2946755133	 0.11571
H	 4.5373631552	 0.5238202966	 2.0506855215	 0.110662
H	 3.1916341642	-1.5661184126	 0.2895452286	 0.106791
H	 3.41144815	-1.6399925994	 2.0463036556	 0.135866
H	 0.0010015867	-0.2385884074	 2.8122490253	 0.074031
80.316	90.251	202.026	219.3155	226.8816	280.5445	339.4884	397.943	489.5187	520.2491	621.6484	724.93	739.0162	812.8167	848.401	870.4522	894.6425	952.7054	959.5146	1034.8711	1041.6983	1081.5392	1099.4141	1111.1834	1126.3307	1190.0013	1209.7123	1236.3221	1241.7012	1259.1383	1278.1752	1314.671	1350.6502	1393.2628	1413.1373	1428.0875	1464.113	1480.2623	1483.9724	1504.8011	1810.5028	2854.4769	2970.9017	3040.8342	3062.9358	3073.3405	3083.347	3110.2854	3121.4403	3125.011	3140.7262
CC1OC2CCC12C=O	C[C@@H]1O[C@@H]2CC[C@]12C=O	
InChI=1S/C7H10O2/c1-5-7(4-8)3-2-6(7)9-5/h4-6H,2-3H2,1H3	InChI=1S/C7H10O2/c1-5-7(4-8)3-2-6(7)9-5/h4-6H,2-3H2,1H3/t5-,6+,7-/m0/s1
