19
gdb 892	2.3286609	1.3600094	0.9890099	2.7591	75.41	-0.24824	-0.02278	0.22546	1226.9284	0.154756	-422.52993	-422.520739	-422.519795	-422.564857	33.13	
O	 0.3486424456	-1.2176008848	 0.1998681465	-0.244201
C	 0.3982722852	-0.0221283759	 0.330915668	 0.169868
C	-0.4168593886	 0.7669948035	 1.338656737	-0.348396
C	-1.1377658682	 1.9500880014	 0.7064158902	 0.367293
C	-1.1870175344	 3.2315294983	 1.4279001163	-0.226715
O	-0.279714719	 3.0388741499	 0.3355629983	-0.271753
C	-2.2001978851	 1.5964639065	-0.2964349282	-0.062956
C	-1.8326539086	 1.4136081536	-1.7519445637	-0.259847
C	-2.6590455941	 2.5984917944	-1.3197794552	-0.281011
H	 1.0843297305	 0.5999184464	-0.2854194676	 0.092212
H	-1.1227292697	 0.0878739531	 1.8263748868	 0.122519
H	 0.2820598966	 1.1449495649	 2.0960841075	 0.124692
H	-2.0059522166	 3.9202594659	 1.230623466	 0.120305
H	-0.7214088007	 3.3233038423	 2.4080804234	 0.115039
H	-2.9512173099	 0.915806959	 0.0954097529	 0.09395
H	-0.8064179134	 1.613550145	-2.0390423275	 0.125988
H	-2.3094554019	 0.6113283512	-2.3028235689	 0.120289
H	-2.1638121227	 3.5626930265	-1.3231939714	 0.129747
H	-3.7121046851	 2.6209067188	-1.5757621204	 0.112979
52.2588	64.6887	103.8685	176.5614	226.5933	255.7848	325.8238	394.0985	440.4863	532.4208	542.3762	672.808	790.7438	806.3378	827.4891	834.2523	903.6412	933.6667	943.6111	974.9915	1029.6322	1061.8965	1070.0069	1094.5895	1112.6663	1130.2896	1136.176	1170.2606	1176.2001	1202.1137	1223.7434	1257.2158	1299.2702	1385.7476	1421.0539	1422.2271	1447.5361	1458.5013	1499.8723	1525.1551	1833.5083	2891.5057	3030.8815	3088.2726	3099.3928	3139.9834	3141.4172	3146.7918	3179.0231	3222.7326	3236.5305
O=CCC1(CO1)C1CC1	O=CC[C@]1(CO1)C1CC1	
InChI=1S/C7H10O2/c8-4-3-7(5-9-7)6-1-2-6/h4,6H,1-3,5H2	InChI=1S/C7H10O2/c8-4-3-7(5-9-7)6-1-2-6/h4,6H,1-3,5H2/t7-/m0/s1
