19
gdb 1491	2.8286419	1.5194175	1.2886412	2.0733	75.47	-0.24378	0.00488	0.24866	1047.1425	0.156906	-422.552202	-422.543909	-422.542965	-422.584724	32.154	
C	-0.0062834915	-0.052135177	 0.2670066122	-0.455457
C	 1.4915059051	 0.0368493657	-0.0395134724	 0.330113
O	 2.2325012911	-0.568445381	 1.0323115357	-0.471968
C	 2.0024050811	 1.4619296521	-0.1480981882	-0.074907
C	 2.7775616126	 1.6651950844	-1.2115688406	-0.096204
C	 2.9055569863	 0.4279482385	-2.0562252811	 0.08614
O	 2.1131160866	 0.4731682446	-3.2750359115	-0.29705
C	 1.090203986	-0.3485407602	-2.6772136611	-0.0966
C	 1.928520196	-0.5737889315	-1.3950763219	-0.122895
H	-0.2063316152	 0.3830289866	 1.2506951283	 0.127062
H	-0.6119998104	 0.4781733852	-0.4720477686	 0.128174
H	-0.3383285346	-1.0978749327	 0.2830174248	 0.108178
H	 1.8100672446	-1.4089526661	 1.2425665789	 0.273454
H	 1.758648084	 2.1986653913	 0.6101172174	 0.100405
H	 3.2547863701	 2.6025293323	-1.4750142263	 0.104201
H	 3.9378847004	 0.1346730909	-2.2740245122	 0.082926
H	 0.1486814334	 0.1984802231	-2.5450519094	 0.097831
H	 0.8953191934	-1.2457017133	-3.2759068085	 0.102098
H	 2.2838529111	-1.5965600829	-1.2675902055	 0.0745
83.3382	195.9512	224.2756	252.6378	278.0695	337.3282	356.9063	390.8503	440.2204	578.5994	594.057	717.7334	754.4003	794.402	869.3679	897.7997	907.5663	937.5882	964.1736	983.8719	1005.477	1014.1626	1024.6182	1056.9754	1101.9947	1123.3228	1146.5891	1170.1301	1213.2285	1226.6271	1264.0705	1301.1853	1312.9506	1350.2787	1356.1737	1402.2255	1408.8252	1490.2058	1496.3115	1520.9765	1680.0307	3018.0114	3026.1943	3052.6311	3059.0727	3096.1188	3108.7695	3122.4635	3182.9512	3208.3778	3794.1374
CC1(O)C=CC2OCC12	C[C@]1(O)C=C[C@@H]2OC[C@H]12	
InChI=1S/C7H10O2/c1-7(8)3-2-6-5(7)4-9-6/h2-3,5-6,8H,4H2,1H3	InChI=1S/C7H10O2/c1-7(8)3-2-6-5(7)4-9-6/h2-3,5-6,8H,4H2,1H3/t5-,6-,7-/m0/s1
