19
gdb 5596	3.0947479	1.302932	1.1880139	2.8331	75.27	-0.23174	-0.01151	0.22023	1119.9733	0.157838	-422.550754	-422.542546	-422.541602	-422.583609	30.885	
C	 1.5236493081	-0.1170934219	-0.1860162166	-0.246612
O	 0.1162016296	-0.1262981777	-0.0566745116	-0.249114
C	-0.3422803235	 0.5961894335	 1.0450298065	 0.154148
C	-0.2504019584	-0.0513429811	 2.4831621871	-0.199807
C	-0.9110534366	-1.4275894362	 2.2337229165	-0.219045
C	-2.1285072328	-0.9911355506	 1.3393505531	-0.217188
C	-1.8815102311	 0.5358040482	 1.2738250583	-0.195965
C	-1.4992815624	 0.8084185486	 2.7408821055	 0.43166
O	-1.921523493	 1.4768770644	 3.6368841473	-0.321463
H	 2.0168469105	-0.5906944031	 0.6749392909	 0.113522
H	 1.7678050984	-0.6798835568	-1.0896068514	 0.132511
H	 1.9117480983	 0.9075197249	-0.2878223622	 0.112274
H	 0.0433681124	 1.6250331706	 1.0362533692	 0.082475
H	 0.6355040026	 0.0032228028	 3.1119771803	 0.080295
H	-0.2397920096	-2.1042264218	 1.7017687014	 0.113822
H	-1.218941147	-1.9073231729	 3.1656326977	 0.110583
H	-2.0885970354	-1.4420903771	 0.3472463624	 0.122804
H	-3.0937539335	-1.225939486	 1.793917029	 0.10961
H	-2.5805815268	 1.1571328521	 0.7190337666	 0.08549
91.1562	135.684	185.834	201.838	261.1275	288.896	394.2902	498.731	524.7122	663.855	669.5196	753.9136	782.7583	836.9201	873.5309	895.5748	902.5077	972.3028	995.8346	1013.3767	1042.0941	1080.4422	1123.7213	1134.8792	1153.8651	1179.9951	1185.5915	1194.8622	1232.2338	1247.4974	1253.2555	1256.3841	1319.8018	1331.0609	1402.3169	1483.3936	1486.4471	1487.9634	1506.0714	1509.5978	1905.8908	2984.3953	3013.6178	3036.2822	3068.8737	3077.8095	3113.9258	3122.1755	3133.233	3146.836	3152.3981
COC1C2CCC1C2=O	CO[C@@H]1[C@@H]2CC[C@H]1C2=O	
InChI=1S/C7H10O2/c1-9-7-4-2-3-5(7)6(4)8/h4-5,7H,2-3H2,1H3	InChI=1S/C7H10O2/c1-9-7-4-2-3-5(7)6(4)8/h4-5,7H,2-3H2,1H3/t4-,5+,7-
