19
gdb 2822	2.5039482	1.7405255	1.1945191	2.299	75.71	-0.22279	0.07389	0.29668	1075.5042	0.154485	-422.487664	-422.478925	-422.47798	-422.520263	33.795	
C	-3.3311668406	 2.4833890419	 0.9279670429	-0.527214
C	-1.8396296817	 2.5796068972	 0.9474249819	 0.458645
O	-1.219476147	 3.8342550669	 1.3708319581	-0.390539
C	-0.0855616459	 2.9618327553	 1.0591697396	 0.477029
C	 1.3026149107	 3.4862899799	 1.2221011776	-0.529793
C	-0.7891447516	 2.3035728088	-0.1788547101	-0.206109
C	-0.5222538289	 0.8886163002	 0.3427641104	 0.098962
O	 0.7853723429	 0.4249225398	 0.0790092949	-0.44108
C	-0.7694386464	 1.6775091154	 1.6461926216	-0.239568
H	-3.7394149474	 2.6538231712	 1.9289648833	 0.134415
H	-3.7539291211	 3.2327992627	 0.2517014937	 0.135548
H	-3.6482553944	 1.4924085432	 0.5882972444	 0.126308
H	 1.4824559667	 3.7808798351	 2.2610065783	 0.1272
H	 2.0184193916	 2.7105903639	 0.9400645919	 0.144312
H	 1.4577557293	 4.3628797596	 0.5851686123	 0.129934
H	-0.8062011889	 2.6781553203	-1.2024349646	 0.078676
H	-1.2754021491	 0.1301829975	 0.0882946895	 0.06665
H	 0.9232041806	-0.3874746279	 0.576097648	 0.283888
H	-0.7682643288	 1.3491189388	 2.6867906762	 0.072738
166.1831	193.3691	208.3811	217.9485	228.9477	270.9935	290.6551	365.4994	405.9515	556.4136	560.3498	592.0014	675.9006	731.6135	757.7603	794.3017	849.1094	881.7642	921.9062	927.0341	1016.9139	1057.7415	1073.87	1081.2629	1107.1629	1114.5079	1123.5104	1173.0692	1199.6563	1218.2638	1257.7087	1277.6678	1309.9412	1387.8535	1406.8259	1429.8556	1448.3837	1474.081	1482.5435	1489.1474	1493.5342	3005.3387	3038.0532	3040.3413	3106.4438	3106.7501	3110.7491	3113.0771	3121.3956	3135.0664	3818.8229
CC12OC3(C)C1C(O)C23	C[C@]12O[C@]3(C)[C@H]1[C@@H](O)[C@H]23	
InChI=1S/C7H10O2/c1-6-4-3(8)5(6)7(4,2)9-6/h3-5,8H,1-2H3	InChI=1S/C7H10O2/c1-6-4-3(8)5(6)7(4,2)9-6/h3-5,8H,1-2H3/t3-,4-,5+,6-,7+
