19
gdb 3008	2.2273538	1.8688668	1.7110009	2.8709	73.46	-0.24708	0.07366	0.32074	944.9312	0.158086	-422.524992	-422.517542	-422.516598	-422.556251	30.656	
C	-0.7468992868	 0.1668130958	 2.2878048584	-0.511467
C	-0.2454107379	-0.7947184327	 1.2366528149	 0.227225
C	-1.1837440458	-1.7165888185	 0.3650062176	-0.264352
C	 0.0811205331	-1.8046446012	-0.5628237925	-0.151133
C	 1.0147577819	-2.5749651779	 0.3873151057	 0.041397
O	 2.0821746018	-1.8099010156	 0.9997590758	-0.287138
C	 0.7872736343	-1.8698819724	 1.6474984281	 0.006243
C	 0.2943271408	-0.3079563444	-0.1561082251	 0.155318
O	 1.4920241339	 0.3766839825	-0.3136779299	-0.4474
H	-1.1404567425	-0.3583967259	 3.1658322796	 0.114042
H	 0.0622558791	 0.8234877712	 2.6253594559	 0.132801
H	-1.5463747694	 0.8012007943	 1.8917906541	 0.118439
H	-1.5253664627	-2.6483472084	 0.8220513254	 0.09929
H	-2.0264315713	-1.1842649791	-0.083201186	 0.103408
H	 0.0258257065	-2.1227957706	-1.6027748588	 0.069831
H	 1.2055851038	-3.6378140526	 0.2885221444	 0.109223
H	 0.7830163368	-2.3241811394	 2.6331396147	 0.105606
H	-0.4762635335	 0.3032410968	-0.6343255822	 0.085291
H	 2.164842858	-0.177338092	 0.1065741299	 0.293376
182.5621	216.4453	244.5637	316.624	328.0139	429.1408	479.5115	501.405	588.5232	644.9933	669.9583	746.4758	786.962	797.5637	827.9406	843.337	891.0813	896.4567	918.2617	954.2925	985.3988	1012.5554	1070.1038	1081.1047	1115.0268	1139.407	1172.4001	1182.5196	1211.3853	1231.9784	1247.9521	1263.7367	1281.173	1330.4029	1337.6249	1413.6203	1419.4381	1480.6229	1490.4686	1493.9734	1514.5394	3026.2016	3061.0525	3073.8863	3089.7508	3100.2557	3123.0061	3128.9767	3165.8514	3182.6613	3728.5063
CC12CC(C3OC13)C2O	C[C@]12C[C@H]([C@H]3O[C@@H]13)[C@@H]2O	
InChI=1S/C7H10O2/c1-7-2-3(5(7)8)4-6(7)9-4/h3-6,8H,2H2,1H3	InChI=1S/C7H10O2/c1-7-2-3(5(7)8)4-6(7)9-4/h3-6,8H,2H2,1H3/t3-,4-,5+,6-,7-/m1/s1
