19
gdb 664	2.5170676	1.7515509	1.5473924	3.3575	73.89	-0.234	-0.01322	0.22078	958.7022	0.160013	-422.597443	-422.590303	-422.589359	-422.6288	28.745	
O	 1.1995735995	-0.050817102	 0.0990836017	-0.331252
C	-0.0016935229	-0.0292475731	 0.0617846976	 0.440441
C	-0.8959288724	 1.220899265	 0.0883092392	-0.320595
C	-2.328496636	 0.6507249477	 0.1360104283	-0.035097
C	-2.1897561355	-0.6543220014	-0.6832444614	-0.243491
C	-0.9352228434	-1.2495346597	-0.0209531456	-0.133688
C	-1.2974580717	-1.6483209407	 1.4264030677	-0.082988
O	-1.6943495179	-0.5190566363	 2.1913496632	-0.253961
C	-2.708721099	 0.2631783753	 1.5746697105	-0.076397
H	-0.6272088944	 1.8606176894	 0.9331612046	 0.132003
H	-0.7230228103	 1.7946188689	-0.8297614077	 0.125162
H	-3.0786359775	 1.3362196972	-0.2672019251	 0.073391
H	-3.0658624806	-1.3048304285	-0.5968621977	 0.099325
H	-2.0261678067	-0.4457964367	-1.7460448948	 0.102051
H	-0.4672193177	-2.0866912434	-0.542175068	 0.087744
H	-2.0974323992	-2.4074867764	 1.4064084968	 0.091587
H	-0.4309105146	-2.0696831287	 1.9429077763	 0.126773
H	-3.6682826068	-0.28099216	 1.5720269059	 0.087728
H	-2.8227016031	 1.1481260234	 2.2083450486	 0.111264
105.2231	232.9956	269.9203	346.4921	420.0015	436.0124	472.4917	508.4471	606.6878	654.543	772.7407	813.922	822.0142	862.8968	898.9271	921.0323	938.1904	959.5112	989.3954	1021.7583	1057.9018	1087.1718	1114.3158	1141.556	1161.704	1178.5493	1209.2339	1238.0232	1269.3929	1285.3954	1310.692	1324.2425	1340.8137	1353.0568	1385.5722	1412.7448	1444.5572	1493.665	1495.3388	1509.8901	1855.6036	2961.6456	2967.6511	3039.781	3046.2537	3073.4871	3080.963	3085.4494	3093.252	3102.7227	3104.4527
O=C1CC2CC1COC2	O=C1C[C@H]2C[C@@H]1COC2	
InChI=1S/C7H10O2/c8-7-2-5-1-6(7)4-9-3-5/h5-6H,1-4H2	InChI=1S/C7H10O2/c8-7-2-5-1-6(7)4-9-3-5/h5-6H,1-4H2/t5-,6-/m1/s1
