19
gdb 4290	3.2106649	1.3888764	1.0720738	0.3896	77.32	-0.23926	0.01887	0.25813	1132.8261	0.158133	-422.550045	-422.542094	-422.54115	-422.582372	30.932	
O	 0.3587465532	 0.410220353	 0.6284169068	-0.43405
C	-0.9211190755	 0.8294648067	 0.2191165986	 0.118162
C	-2.1016815751	-0.1855235688	 0.2856113734	-0.28997
C	-2.5089520581	 0.2554844405	-1.1350295024	 0.094999
O	-3.4984404491	 1.2656441792	-1.0391439629	-0.268975
C	-3.5364571056	 2.1290143551	-2.1624266635	-0.122737
C	-2.1897556294	 2.7114400261	-2.5078366635	-0.078433
C	-1.058077948	 2.1472143651	-2.0900255508	-0.090078
C	-1.0946565848	 0.8647540486	-1.327243197	-0.051763
H	 0.4032923615	 0.4608960545	 1.5884446723	 0.283505
H	-1.1948422182	 1.7926526009	 0.6670084135	 0.077877
H	-1.7188354639	-1.2094477537	 0.2953279333	 0.105872
H	-2.8587189637	-0.0574074686	 1.0617727577	 0.105062
H	-2.8188739905	-0.5206199553	-1.8481191364	 0.062022
H	-3.9648418892	 1.6092310277	-3.0393452301	 0.097153
H	-4.2387211343	 2.9277422395	-1.8980665993	 0.115027
H	-2.1866819061	 3.6181416346	-3.1065965946	 0.092429
H	-0.0923627108	 2.5941339934	-2.3114963809	 0.094643
H	-0.4092250224	 0.1228277717	-1.7522478243	 0.089256
91.4622	190.9994	214.7169	259.0024	291.9636	353.4177	427.1216	479.6251	487.5283	553.3487	699.0211	711.8274	807.519	829.5138	870.2544	915.8975	927.4731	969.587	992.3285	996.8133	1045.299	1054.2333	1088.0551	1112.3029	1131.7482	1153.3337	1193.9522	1210.2149	1225.8026	1260.2634	1265.6381	1278.9229	1318.6536	1344.3653	1359.5179	1401.9577	1412.65	1423.7157	1469.3521	1488.319	1715.2509	2936.2494	3001.6692	3025.9654	3052.5524	3056.8697	3067.94	3131.3459	3151.9866	3175.7763	3817.3258
OC1CC2OCC=CC12	O[C@@H]1C[C@H]2OCC=C[C@@H]12	
InChI=1S/C7H10O2/c8-6-4-7-5(6)2-1-3-9-7/h1-2,5-8H,3-4H2	InChI=1S/C7H10O2/c8-6-4-7-5(6)2-1-3-9-7/h1-2,5-8H,3-4H2/t5-,6+,7+/m0/s1
