19
gdb 2803	2.718833	1.3205578	1.0112983	2.0178	75.94	-0.23666	0.06863	0.30529	1198.0736	0.155597	-422.502094	-422.493243	-422.492299	-422.53524	33.858	
O	-2.870557342	-0.2931126464	 3.9195747031	-0.440098
C	-2.475521967	-0.4273125766	 2.5846840841	 0.145543
C	-1.1728292325	 0.1856949061	 2.14704289	-0.16755
C	-2.5307742334	 0.7684578388	 1.6771900844	-0.222364
C	-2.1973504021	 0.3520893723	 0.2581028341	 0.327075
C	-2.3854870531	 1.1746885119	-0.9830108336	-0.342038
C	-3.1156071331	-0.1401561569	-0.8221289609	-0.329934
C	-0.8290834643	-0.2251773663	 0.7044030786	 0.056856
O	 0.3053871944	 0.3913776824	 0.1401181039	-0.42608
H	-2.5710534464	 0.5618532976	 4.24676775	 0.284156
H	-2.7777910539	-1.4061316634	 2.2188811011	 0.106056
H	-0.4570079992	 0.5661625817	 2.8679685308	 0.088
H	-3.0372889733	 1.6816249866	 1.9741417332	 0.084231
H	-2.9609236863	 2.0919510371	-0.9076526916	 0.112904
H	-1.5579766341	 1.2155468333	-1.6840891537	 0.123289
H	-4.1846389514	-0.1120967845	-0.637041389	 0.115084
H	-2.7869871533	-0.9788568074	-1.4275412968	 0.117167
H	-0.6837892422	-1.2991927099	 0.5452272686	 0.0887
H	 0.173787923	 1.3451731237	 0.1939615837	 0.279002
114.4485	161.759	170.5867	217.8865	247.3788	262.8452	347.33	380.7241	406.911	447.0644	560.3842	598.9123	781.9899	800.2074	830.1095	884.8279	892.6237	915.9017	951.6255	956.507	984.8926	994.6369	1030.3712	1049.185	1077.6807	1083.4608	1107.132	1112.501	1150.89	1191.7939	1200.3252	1240.8624	1253.6259	1264.1926	1296.8375	1331.5748	1387.8846	1432.1286	1445.014	1460.7905	1500.0183	3051.8701	3123.2122	3126.2411	3133.7449	3155.1424	3171.8139	3202.7732	3217.175	3792.6786	3810.6475
OC1C2C1C1(CC1)C2O	O[C@@H]1[C@@H]2[C@H]1C1(CC1)[C@H]2O	
InChI=1S/C7H10O2/c8-5-3-4(5)7(1-2-7)6(3)9/h3-6,8-9H,1-2H2	InChI=1S/C7H10O2/c8-5-3-4(5)7(1-2-7)6(3)9/h3-6,8-9H,1-2H2/t3-,4+,5+,6-/m0/s1
