19
gdb 5993	5.2919638	0.8397327	0.7777202	1.8916	78.36	-0.24033	-0.00023	0.24009999999999998	1490.6427	0.156322	-422.529129	-422.520449	-422.519505	-422.563128	31.625	
C	 1.5802558754	 0.6940280689	 0.1478536579	-0.220395
O	 0.2187895089	 0.9968790101	 0.3372720601	-0.235246
C	-0.4867705164	-0.0426423339	 0.990068989	-0.178888
C	-1.9309076769	 0.3273534652	 1.0706532523	 0.325071
C	-2.7241556852	 0.2329322492	 2.1439982439	-0.215364
C	-4.1348766097	 0.5535866898	 1.7808646886	 0.015128
O	-4.6850546297	-0.341261071	 0.7839727774	-0.260574
C	-4.1308322742	 0.9014098323	 0.3481029389	 0.033064
C	-2.6964864766	 0.8075383209	-0.153295841	-0.325695
H	 1.7162969574	-0.2115769824	-0.4648694946	 0.104321
H	 2.0350809852	 1.542474243	-0.3688818488	 0.128495
H	 2.102470414	 0.5397564799	 1.1054721431	 0.104875
H	-0.3702878317	-0.9839182657	 0.4207495723	 0.096595
H	-0.0776008455	-0.2244238656	 1.9974774793	 0.093905
H	-2.4112436117	-0.073558772	 3.1350579998	 0.096693
H	-4.8521272216	 0.9357146249	 2.5005549924	 0.095585
H	-4.8357965059	 1.596008961	-0.1005597453	 0.09481
H	-2.6030150068	 0.112284635	-0.9965062802	 0.121134
H	-2.3206878891	 1.7778095604	-0.4968880152	 0.126485
64.6699	95.4621	112.0618	212.6878	234.5088	333.5097	353.5764	370.8857	482.0617	533.6291	691.3094	722.1676	813.8407	850.6055	864.8712	874.3233	926.8248	954.371	982.1945	1002.8452	1020.9451	1048.4857	1109.8315	1146.6034	1177.4437	1185.6193	1199.8494	1221.6922	1243.9289	1258.7722	1284.8159	1308.5617	1358.171	1400.4821	1413.8823	1457.4239	1478.7086	1484.7751	1498.1408	1517.9995	1699.7293	2929.0278	2968.4483	2981.8375	3012.6721	3039.316	3075.5975	3115.6791	3148.6915	3166.6024	3204.047
COCC1=CC2OC2C1	COCC1=C[C@@H]2O[C@@H]2C1	
InChI=1S/C7H10O2/c1-8-4-5-2-6-7(3-5)9-6/h2,6-7H,3-4H2,1H3	InChI=1S/C7H10O2/c1-8-4-5-2-6-7(3-5)9-6/h2,6-7H,3-4H2,1H3/t6-,7+/m0/s1
