19
gdb 3866	4.2751668	1.0157964	0.9810145	1.7492	75.97	-0.24344	0.06695	0.31039	1273.8269	0.156017	-422.503385	-422.494848	-422.493904	-422.536736	32.447	
O	-1.6660702954	 2.3307023404	 3.3406142612	-0.438101
C	-0.4047268702	 2.8841498784	 3.0405132525	 0.11095
C	 0.7596927287	 1.8337134424	 2.9046887091	-0.336394
C	 0.811899881	 2.1563372137	 1.3985410054	 0.445477
O	 1.0642905771	 3.5702458503	 1.3113531869	-0.291682
C	-0.2846713599	 3.1363492971	 1.5324135359	-0.065058
C	 1.2663910241	 1.2908184391	 0.2874878377	-0.138905
C	 2.6764476335	 1.4333995024	-0.2446726204	-0.263646
C	 1.5047150444	 1.8742330072	-1.0819024193	-0.266338
H	-1.6675575861	 2.0731876675	 4.2677741496	 0.287724
H	-0.1786741862	 3.7605095086	 3.6618813613	 0.076241
H	 1.6839894953	 2.0154991139	 3.458939729	 0.101212
H	 0.3799500867	 0.8293146507	 3.1104639914	 0.105891
H	-1.0496127108	 3.4675445213	 0.8393939221	 0.10635
H	 0.8661957608	 0.2819435224	 0.3307847685	 0.088966
H	 3.2949959507	 2.2091283036	 0.1924278936	 0.125821
H	 3.2083353773	 0.5313093074	-0.5251430339	 0.11133
H	 1.3497756291	 2.9405799152	-1.1936945771	 0.130143
H	 1.2262498301	 1.2757502285	-1.9418207436	 0.110019
69.7412	102.8048	184.0571	213.9715	262.7061	354.4955	368.0622	450.0781	484.1678	510.2074	633.853	747.5595	791.2436	823.713	828.4031	885.5123	895.5772	914.9291	954.5568	973.8839	1010.3316	1035.3628	1063.5027	1078.8067	1088.3955	1122.9473	1129.5272	1142.4119	1175.375	1200.5157	1206.6423	1217.2728	1228.0052	1242.199	1305.9844	1380.2231	1416.6377	1451.5423	1460.5244	1485.7858	1505.5649	3017.5473	3058.7373	3122.4907	3138.0395	3142.5871	3150.1337	3190.3008	3222.2318	3237.7706	3821.2713
OC1CC2(OC12)C1CC1	O[C@H]1C[C@@]2(O[C@H]12)C1CC1	
InChI=1S/C7H10O2/c8-5-3-7(4-1-2-4)6(5)9-7/h4-6,8H,1-3H2	InChI=1S/C7H10O2/c8-5-3-7(4-1-2-4)6(5)9-7/h4-6,8H,1-3H2/t5-,6+,7+/m0/s1
