19
gdb 3715	3.430114	1.4126539	1.3036311	2.9253	75.23	-0.23102	0.07582	0.30684	1038.9311	0.157822	-422.516024	-422.50853	-422.507586	-422.547643	30.481	
O	 0.603664873	 0.18976462	 0.5765208972	-0.436944
C	-0.7562276861	 0.4669497168	 0.6964981979	 0.040995
C	-1.4200820019	 0.4471679282	 2.0724166146	-0.412774
C	-1.6628640513	-0.6549565752	 1.0842805996	 0.448865
O	-1.0015452004	-1.9124831528	 1.3074423178	-0.332875
C	-1.9745161456	-2.8318068738	 0.7606611186	 0.106141
C	-2.3985180894	-2.1594513353	-0.5678728819	-0.239114
C	-2.9593383544	-1.1026513126	 0.4409385176	-0.150766
C	-3.3066830771	-2.3201072768	 1.3625413726	-0.234748
H	 0.6879650523	-0.7703542999	 0.6613624029	 0.293004
H	-1.1007497526	 1.2060969973	-0.0231274818	 0.095111
H	-0.7771320051	 0.2133599265	 2.9145762372	 0.125317
H	-2.2187157471	 1.1540689038	 2.2765308296	 0.110052
H	-1.6013524194	-3.8501410171	 0.8516740067	 0.085604
H	-1.6037402265	-1.8518108986	-1.2510239022	 0.107975
H	-3.1847170598	-2.7031604257	-1.0937213703	 0.103543
H	-3.68044742	-0.3353834526	 0.1650662305	 0.078909
H	-3.3361803463	-2.1593821335	 2.4420288229	 0.108364
H	-4.1797145321	-2.8767324686	 1.0181486604	 0.10334
121.5116	173.7501	228.9065	347.7928	387.4809	445.5375	486.5354	500.6179	541.9888	626.9058	731.5635	816.7144	832.2321	838.1795	855.585	872.6022	902.5599	942.9368	961.2246	994.8296	1009.7603	1023.9391	1038.3836	1056.4922	1070.9793	1093.2419	1099.7313	1128.9412	1159.1555	1195.0719	1211.0876	1237.1967	1251.6302	1265.4495	1315.2897	1331.1097	1389.5155	1421.823	1472.0039	1491.0095	1510.3466	3070.9313	3076.2409	3121.9248	3130.9714	3136.7872	3138.8064	3142.9687	3145.4404	3218.6455	3737.763
OC1CC11OC2CC1C2	O[C@@H]1C[C@@]21O[C@@H]1C[C@H]2C1	
InChI=1S/C7H10O2/c8-6-3-7(6)4-1-5(2-4)9-7/h4-6,8H,1-3H2	InChI=1S/C7H10O2/c8-6-3-7(6)4-1-5(2-4)9-7/h4-6,8H,1-3H2/t4-,5+,6-,7-/m1/s1
