19
gdb 1886	2.7005662	1.4714444	1.1034652	3.4021	75.3	-0.243	-0.0167	0.2263	1139.8262	0.154604	-422.590426	-422.581411	-422.580467	-422.623868	33.891	
C	-3.2116495562	-1.647567598	 0.8879855648	-0.485933
C	-2.1706862659	-0.7587257945	 0.2635626487	 0.341901
C	-0.7493576523	-1.2648446882	 0.110104746	-0.390222
C	 0.0938480937	-0.0107428164	-0.1598760945	 0.397058
O	 1.2372575464	-0.0060400539	-0.5299334706	-0.301333
C	-0.7490684358	 1.236072324	 0.1427798518	-0.390221
C	-2.1705141911	 0.7264448282	 0.2829676699	 0.341901
C	-3.2112738051	 1.59890975	 0.9304031203	-0.485932
O	-2.5741809261	-0.0008314745	-0.8948167636	-0.337753
H	-2.9086516216	-1.9505410621	 1.8959268009	 0.122922
H	-4.1804081565	-1.1482427486	 0.9487157668	 0.13185
H	-3.3403314243	-2.5571490518	 0.2911775803	 0.133292
H	-0.3866196473	-1.7499457195	 1.0255698701	 0.127396
H	-0.6369700867	-1.9829966293	-0.7075923918	 0.139808
H	-0.3862211637	 1.6970059581	 1.0706053233	 0.127396
H	-0.636512152	 1.9753166861	-0.6558758196	 0.139808
H	-2.9082015527	 1.8753882696	 1.9459093902	 0.122921
H	-3.3397542608	 2.5237960977	 0.357554783	 0.133292
H	-4.1801445519	 1.0983873076	 0.978084014	 0.13185
74.0203	166.4439	169.338	190.0969	250.3674	292.9988	317.1158	420.8936	444.0293	485.2447	511.4083	543.159	584.1221	704.0493	718.1875	798.774	812.6488	886.946	922.2875	954.6656	989.837	1039.3429	1075.4772	1118.5391	1154.0848	1180.6487	1208.2168	1225.1667	1230.3382	1296.6038	1328.5454	1412.1992	1416.0128	1432.4208	1437.8078	1455.4857	1475.7568	1486.0135	1495.3135	1510.2519	1854.3896	3034.6181	3036.7685	3038.1502	3041.827	3094.1605	3094.4899	3097.5718	3098.2328	3127.651	3136.2845
CC12CC(=O)CC1(C)O2	C[C@]12CC(=O)C[C@@]1(C)O2	
InChI=1S/C7H10O2/c1-6-3-5(8)4-7(6,2)9-6/h3-4H2,1-2H3	InChI=1S/C7H10O2/c1-6-3-5(8)4-7(6,2)9-6/h3-4H2,1-2H3/t6-,7+
