19
gdb 3869	2.7638323	1.2934523	1.0495396	3.0149	78.36	-0.25449	-0.03686	0.21763	1205.2969	0.154016	-422.542124	-422.53276	-422.531816	-422.576023	34.223	
C	 2.4292268854	-1.1433556949	-1.1513049782	-0.410775
C	 1.8809458545	-0.0900700134	-0.1987959262	-0.028415
C	 2.7183696109	 1.2211404212	 0.0286061	-0.325932
C	 2.7951258242	 0.8750631327	 1.5128042473	 0.254787
O	 3.3847514683	-0.43520916	 1.6312525861	-0.3073
C	 2.0008730039	-0.3855996894	 1.3157948244	 0.325673
C	 1.0387960495	-1.1272862641	 2.1877268999	-0.500294
C	 2.8338139745	 1.7574585698	 2.6892508126	 0.061747
O	 2.7223133144	 2.9590535525	 2.628862537	-0.262623
H	 3.4458329738	-1.4252207462	-0.8629496148	 0.134808
H	 1.8088852404	-2.0462753863	-1.1494816896	 0.115648
H	 2.4578007705	-0.7623365199	-2.1772749449	 0.120494
H	 0.845862393	 0.1631440967	-0.4494035562	 0.082484
H	 3.6863230507	 1.271731111	-0.4753661676	 0.114127
H	 2.1548975515	 2.135585381	-0.1615943166	 0.129526
H	 1.3198678697	-1.0464241545	 3.2402333071	 0.139788
H	 0.0229114483	-0.7414471747	 2.0602473245	 0.134337
H	 1.0303642086	-2.1902490751	 1.9199916986	 0.139002
H	 2.9599536679	 1.2189690235	 3.6533660664	 0.082918
96.1208	135.9843	163.121	183.6857	208.4502	228.3771	278.1772	306.0452	388.2493	464.9832	490.6244	587.8396	618.7458	702.2068	770.2092	794.0976	835.0594	891.267	916.3045	1003.6006	1027.2914	1069.4514	1082.9472	1105.7714	1119.412	1182.2751	1206.6592	1226.5128	1248.9845	1320.0767	1348.0532	1390.2659	1405.805	1407.8598	1455.9053	1478.2524	1482.0613	1493.6243	1496.6444	1503.7132	1801.3501	2900.5451	3033.8675	3036.9537	3058.1859	3075.4569	3097.7146	3100.3109	3117.9082	3129.9495	3139.785
CC1CC2(OC12C)C=O	C[C@@H]1C[C@@]2(O[C@]12C)C=O	
InChI=1S/C7H10O2/c1-5-3-7(4-8)6(5,2)9-7/h4-5H,3H2,1-2H3	InChI=1S/C7H10O2/c1-5-3-7(4-8)6(5,2)9-7/h4-5H,3H2,1-2H3/t5-,6-,7-/m1/s1
