19
gdb 3778	4.689733	0.8683389	0.8113369	2.5391	80.56	-0.22884	0.00468	0.23351999999999998	1463.2011	0.156098	-422.536683	-422.527724	-422.52678	-422.57125	31.882	
C	-1.3492436247	-1.8595181917	 3.4368497258	-0.418639
C	-0.5534146104	-1.3324580588	 2.2714121171	 0.067717
O	-0.636119888	-2.0637035504	 1.0480815339	-0.257671
C	-1.204238969	-0.7388780679	 1.0839849417	-0.069942
C	-0.5680460153	 0.2814816526	 0.2356285002	 0.333566
C	-1.1586006309	 1.3025103394	-0.3833441944	-0.234979
C	-0.1423188552	 2.1024123774	-1.1440125541	-0.100122
O	 1.0969708143	 1.433404136	-0.9287957437	-0.268431
C	 0.9079355485	 0.303281104	-0.0834086691	-0.158039
H	-0.8566655637	-2.7350619083	 3.87256921	 0.132723
H	-1.4365106111	-1.0977758777	 4.2188828558	 0.125279
H	-2.353098973	-2.1548388996	 3.1198283233	 0.128792
H	 0.4557622071	-0.9941271408	 2.5115197327	 0.093732
H	-2.2947900161	-0.7266856094	 1.0803650813	 0.089515
H	-2.2137769728	 1.5458488247	-0.3626534293	 0.101409
H	-0.3633828679	 2.1442950243	-2.2227368323	 0.107197
H	-0.0739132557	 3.14420195	-0.7902959138	 0.104655
H	 1.2269053699	-0.6151888621	-0.5960802257	 0.122398
H	 1.5326191542	 0.4061152582	 0.8182584805	 0.100838
56.5379	89.6473	117.565	147.0354	201.6541	270.4743	322.6619	398.3004	433.3232	545.1979	682.2942	771.5146	784.8887	830.412	872.4156	907.0031	926.7479	968.5791	981.2817	1023.8623	1040.1037	1063.5785	1081.9885	1116.3102	1165.5347	1170.704	1174.4564	1217.8995	1224.6336	1267.8886	1308.0346	1356.0249	1377.8639	1398.9485	1409.6975	1463.5946	1486.2924	1499.7689	1516.7005	1529.2586	1722.5784	2965.763	2975.32	2981.6993	3014.0486	3036.8182	3094.3776	3102.6801	3104.5117	3124.8236	3210.9199
CC1OC1C1=CCOC1	C[C@H]1O[C@@H]1C1=CCOC1	
InChI=1S/C7H10O2/c1-5-7(9-5)6-2-3-8-4-6/h2,5,7H,3-4H2,1H3	InChI=1S/C7H10O2/c1-5-7(9-5)6-2-3-8-4-6/h2,5,7H,3-4H2,1H3/t5-,7+/m1/s1
