19
gdb 5626	3.3092382	1.3641449	1.1738666	0.9429	75.92	-0.22702	-0.00034	0.22668	1108.6035	0.157757	-422.525859	-422.517845	-422.516901	-422.5587	30.451	
C	 1.445845962	-0.2204110401	 0.040739878	-0.237677
O	 0.0957513096	 0.1852038936	-0.0327283027	-0.254651
C	-0.3802003895	 0.8548127982	 1.1267508243	 0.08686
C	-1.88934051	 0.7216982904	 1.161099616	-0.089019
C	-2.6302965332	 1.8253290115	 1.2410781165	-0.058056
C	-1.8665415144	 3.1319841837	 1.2869200757	 0.040555
C	-0.8486007336	 3.1596414429	 0.1168891242	-0.239355
C	-0.0133710692	 2.3566336374	 1.1318391167	 0.054979
O	-0.7478437115	 2.9799135537	 2.2221108689	-0.296528
H	 1.6238898383	-0.8797657134	 0.904191359	 0.107899
H	 1.664147604	-0.7737972391	-0.8759319828	 0.12909
H	 2.1416471716	 0.6284204431	 0.1081037325	 0.108629
H	 0.0522484756	 0.3860061613	 2.0271000658	 0.077346
H	-2.3049786968	-0.2793171883	 1.1074748002	 0.101647
H	-3.7149360083	 1.8139631163	 1.2562704685	 0.096667
H	-2.4749278869	 4.0105910777	 1.5078332078	 0.077201
H	-1.1278307892	 2.6866552389	-0.8244586689	 0.115151
H	-0.429816487	 4.1543476743	-0.043853983	 0.105378
H	 1.0634701886	 2.532439568	 1.1968705834	 0.073883
67.3172	119.1698	168.4866	251.2784	343.9594	388.325	429.8013	460.8316	509.1231	631.612	681.9452	745.9276	837.445	857.6913	907.7059	943.5647	954.2542	961.3462	979.0651	1002.182	1015.9055	1072.1876	1093.7388	1112.0448	1140.574	1162.782	1179.4458	1209.1556	1216.8448	1247.9468	1294.1529	1315.1029	1331.2474	1355.3477	1368.6362	1401.6958	1476.612	1484.8052	1489.4831	1508.7927	1697.9314	2957.2759	2979.904	3027.8175	3073.259	3083.9881	3100.1442	3113.6528	3150.829	3173.8054	3197.0258
COC1C=CC2CC1O2	CO[C@@H]1C=C[C@@H]2C[C@H]1O2	
InChI=1S/C7H10O2/c1-8-6-3-2-5-4-7(6)9-5/h2-3,5-7H,4H2,1H3	InChI=1S/C7H10O2/c1-8-6-3-2-5-4-7(6)9-5/h2-3,5-7H,4H2,1H3/t5-,6-,7-/m1/s1
