19
gdb 3884	2.5681521	1.5973236	1.2299794	2.0308	74.3	-0.25256	0.06979	0.32235	1064.1912	0.157529	-422.538419	-422.530439	-422.529495	-422.570703	31.465	
O	 0.5619120445	-0.1810762797	 1.084804872	-0.434596
C	-0.6937154032	 0.4666919875	 0.9190214524	 0.096775
C	-1.4391955613	 0.7256546713	 2.2522099636	-0.339438
C	-2.2931989633	-0.5272313083	 2.4763692802	 0.360746
C	-2.0135565587	-1.5101544575	 3.5936646893	-0.326498
C	-3.2625667646	-0.6624678658	 3.6155133574	-0.32636
C	-2.5838202898	-1.0533511157	 1.1019337177	-0.029599
O	-3.0133822081	-0.0335998392	 0.1843274734	-0.265674
C	-1.6426661929	-0.4447279607	 0.1488688563	 0.00238
H	 0.4063777847	-1.0044861314	 1.5614642047	 0.283128
H	-0.4709720422	 1.395034709	 0.3865408274	 0.093644
H	-0.7293522248	 0.9180351246	 3.0605722807	 0.105985
H	-2.0847535991	 1.6020508328	 2.147685065	 0.120522
H	-2.121029638	-2.5712418805	 3.3896528449	 0.113113
H	-1.219614166	-1.2699517419	 4.2932612259	 0.116585
H	-4.2133192835	-1.1494278337	 3.4258700358	 0.118143
H	-3.3151170673	 0.1507185859	 4.3318550571	 0.117686
H	-3.0329303089	-2.0334143196	 0.9582723609	 0.094298
H	-1.3039703774	-0.928914677	-0.7635268346	 0.099162
88.5495	170.0574	263.8542	290.8613	297.6257	342.1986	391.6752	445.1812	511.7907	552.9635	741.0917	781.0117	789.3065	831.6524	846.6904	889.587	893.5367	937.6067	946.9419	972.7542	993.5472	1034.2453	1042.936	1058.7195	1079.0565	1088.6747	1116.6267	1182.3055	1189.5954	1236.8673	1248.0027	1276.949	1295.9785	1303.5633	1334.4056	1376.1789	1426.2375	1434.3407	1466.6887	1474.9785	1504.6393	3060.8564	3084.6351	3111.6233	3122.2662	3130.3132	3140.2584	3155.8427	3202.2634	3218.2359	3795.839
OC1CC2(CC2)C2OC12	O[C@@H]1CC2(CC2)[C@H]2O[C@@H]12	
InChI=1S/C7H10O2/c8-4-3-7(1-2-7)6-5(4)9-6/h4-6,8H,1-3H2	InChI=1S/C7H10O2/c8-4-3-7(1-2-7)6-5(4)9-6/h4-6,8H,1-3H2/t4-,5+,6+/m1/s1
