19
gdb 1710	2.7131204	1.3085291	1.1842184	1.9879	76.04	-0.24173	-0.02839	0.21334	1144.1957	0.155346	-422.549798	-422.540721	-422.539776	-422.583803	33.744	
O	-1.2714148114	 1.9444216837	 1.1913995498	-0.483314
C	-1.1623445046	 1.0375201157	 0.1205489591	 0.292066
C	-2.1919919236	-0.1485619606	 0.0727535919	-0.281469
C	-1.0248762959	-1.1628322171	-0.156748007	-0.341219
C	-0.0926148253	-0.0523475296	 0.3351633921	 0.339552
O	 0.9391135054	-0.0210873413	 0.946496193	-0.314469
C	-1.0456628422	 1.7623283013	-1.2098933387	-0.017873
C	-0.2553808231	 3.0387446514	-1.3159542711	-0.269259
C	-1.7611652763	 3.0745617244	-1.4108179394	-0.274855
H	-0.4700549433	 1.8483378902	 1.721696082	 0.297085
H	-2.6668339073	-0.2815368998	 1.0460712716	 0.121919
H	-2.9507392947	-0.0866904051	-0.7078706909	 0.11261
H	-1.0103221088	-2.0887865771	 0.4210979435	 0.133017
H	-0.8690972187	-1.4015036823	-1.2131632159	 0.13473
H	-1.0098828174	 1.0974490323	-2.0687845826	 0.081284
H	 0.1846664968	 3.4264755793	-0.4048057254	 0.118316
H	 0.3312538771	 3.2050305624	-2.2123281368	 0.110213
H	-2.2954059136	 3.4808369529	-0.5604364839	 0.132622
H	-2.2195555831	 3.2620352692	-2.3752710515	 0.109046
71.1828	81.2596	148.209	224.4064	233.1505	277.9384	290.1434	381.901	455.6627	491.31	583.6359	687.8407	734.9524	760.1004	788.8821	821.9348	841.3903	907.7369	926.6634	953.6306	987.4634	1040.4664	1061.578	1074.0883	1078.235	1088.6899	1130.4617	1136.1069	1185.3529	1200.073	1205.3465	1226.9992	1238.8756	1282.4584	1356.1577	1400.5885	1446.7151	1456.3477	1482.7179	1498.5209	1873.2991	3065.4398	3084.844	3125.6091	3138.5171	3140.731	3145.9819	3150.403	3224.5205	3238.2383	3772.5867
OC1(CCC1=O)C1CC1	O[C@@]1(CCC1=O)C1CC1	
InChI=1S/C7H10O2/c8-6-3-4-7(6,9)5-1-2-5/h5,9H,1-4H2	InChI=1S/C7H10O2/c8-6-3-4-7(6,9)5-1-2-5/h5,9H,1-4H2/t7-/m0/s1
