19
gdb 4915	2.049099	1.4013508	0.9638782	0.9232	78.53	-0.25937	-0.05704	0.20232999999999998	1258.1209	0.154104	-422.56994	-422.560102	-422.559158	-422.604886	34.641	
C	 1.6174692661	-0.158023225	 1.4405695529	-0.381052
C	 1.1557275607	 0.1158679448	 0.0021736336	-0.301367
C	 2.0337603148	-0.5744327077	-1.0254858455	 0.237355
C	 3.398650445	-0.0446829447	-1.3652461837	-0.306188
C	 2.335264122	 0.0601497974	-2.4215627326	-0.149765
C	 1.7724445898	 1.3857658311	-2.7763436173	 0.135844
O	 1.7969857991	 2.3657193851	-2.0670233377	-0.26377
C	 1.8816489185	-2.0617117559	-1.1204889792	 0.102514
O	 2.5530531944	-2.7785674964	-1.822539062	-0.265954
H	 1.6178311496	-1.2285065515	 1.673882428	 0.117037
H	 2.6330910611	 0.2160470432	 1.6036279548	 0.125675
H	 0.9569119445	 0.3368628802	 2.1583484376	 0.122086
H	 0.1203246281	-0.2270641492	-0.1248797613	 0.100551
H	 1.1551565431	 1.1913085025	-0.1847365784	 0.146571
H	 3.6880288467	 0.8881389338	-0.8934018415	 0.144022
H	 4.1828725428	-0.7729918192	-1.5361757831	 0.14371
H	 2.3705769684	-0.6655922306	-3.2267048129	 0.119358
H	 1.3081697745	 1.4300017182	-3.7852613077	 0.08889
H	 1.0696778208	-2.4812358261	-0.4864474338	 0.084484
83.9405	105.7035	124.8761	162.3248	196.3856	209.7473	229.3912	255.6544	323.6841	371.9158	465.4605	601.0391	698.655	721.8715	765.0926	790.1791	881.2949	926.2475	951.5958	999.4957	1018.6906	1050.9969	1057.3982	1089.545	1094.6033	1119.3541	1140.5965	1243.5505	1292.7375	1330.1906	1376.0014	1403.8741	1414.8166	1426.4148	1431.7881	1456.2519	1491.7652	1499.4417	1506.1586	1793.7851	1812.3569	2888.7305	2897.4934	3024.924	3035.1268	3094.376	3113.2031	3120.8524	3138.2571	3179.0903	3239.096
CCC1(CC1C=O)C=O	CC[C@@]1(C[C@@H]1C=O)C=O	
InChI=1S/C7H10O2/c1-2-7(5-9)3-6(7)4-8/h4-6H,2-3H2,1H3	InChI=1S/C7H10O2/c1-2-7(5-9)3-6(7)4-8/h4-6H,2-3H2,1H3/t6-,7-/m1/s1
