19
gdb 3414	2.0501876	1.6841342	1.0984286	3.2139	76.96	-0.24727	-0.02313	0.22413999999999998	1147.1532	0.157001	-422.562181	-422.553626	-422.552682	-422.595224	31.807	
C	 1.061613811	 1.1569495669	 0.0489100726	-0.433798
C	 1.0073686795	-0.3507437426	 0.1732749786	-0.046453
C	 1.5883527311	-1.2310838299	-0.8799747182	-0.125448
C	 1.0282756623	-2.6388760284	-0.9992806322	-0.09803
O	 0.8798003744	-3.1067370512	 0.3343437908	-0.255906
C	 1.937860676	-2.5581057284	 1.1191718873	-0.151221
C	 2.240331686	-1.1949840986	 0.511962658	 0.202771
C	 3.5699013462	-0.6014427265	 0.7323990727	 0.070349
O	 4.4241124994	-1.1037079876	 1.4269706519	-0.273514
H	 1.0968467974	 1.6404704032	 1.0304866193	 0.130649
H	 1.9291708242	 1.4967657916	-0.5235700338	 0.123286
H	 0.1677219631	 1.5195570727	-0.4693682879	 0.128502
H	 0.1057046178	-0.7308972613	 0.6492672577	 0.110934
H	 2.0916196354	-0.7855104359	-1.7315450681	 0.100281
H	 0.0423178022	-2.6849778634	-1.473474596	 0.115149
H	 1.7225909303	-3.27074613	-1.5764023951	 0.099472
H	 1.5867178164	-2.5176760884	 2.1542760198	 0.11718
H	 2.8425136327	-3.1808490178	 1.0826493747	 0.115845
H	 3.7590922947	 0.3600031159	 0.2073548278	 0.069951
101.3173	189.0656	193.1894	217.4462	224.6016	256.8453	298.7307	362.8141	432.955	514.8221	638.4445	707.0935	764.3736	780.1681	876.6853	939.2062	948.4816	1005.6303	1007.7473	1032.1981	1064.0654	1086.6621	1093.9303	1116.3345	1130.6542	1150.8985	1215.8815	1237.3175	1259.2742	1266.2031	1331.3552	1370.3047	1395.2204	1416.707	1432.3955	1455.509	1495.2667	1505.1276	1510.4072	1522.3004	1794.7251	2890.7645	2976.7869	3014.826	3036.9956	3070.6066	3086.7179	3099.1594	3107.3106	3137.0474	3174.1068
CC1C2COCC12C=O	C[C@H]1[C@@H]2COC[C@]12C=O	
InChI=1S/C7H10O2/c1-5-6-2-9-4-7(5,6)3-8/h3,5-6H,2,4H2,1H3	InChI=1S/C7H10O2/c1-5-6-2-9-4-7(5,6)3-8/h3,5-6H,2,4H2,1H3/t5-,6-,7+/m0/s1
