19
gdb 5238	2.5427131	1.5397426	1.2561081	1.0979	75.46	-0.2131	0.0798	0.2929	1093.133	0.155443	-422.475525	-422.466816	-422.465872	-422.508855	32.32	
C	 1.6249887428	 0.052990295	 0.1047906712	-0.258163
O	 0.2098739915	 0.1365795363	 0.0126719363	-0.284559
C	-0.3711433948	 0.8131246155	 1.0538958509	 0.338592
C	-0.4352798346	 2.3202857084	 1.3162394639	-0.312956
C	-1.5149778851	 1.9298119321	 2.360178693	 0.02013
O	-0.7745165888	 1.2192791941	 3.3945783275	-0.29481
C	-0.6316274715	 0.1673416712	 2.4407521573	-0.037162
C	-1.7809695536	 0.5821045551	 1.5720925428	 0.211657
C	-2.9865593138	-0.0988731248	 1.0144815923	-0.53244
H	 1.9362270509	-0.4388451991	 1.0360925946	 0.11465
H	 1.9646331232	-0.5369235241	-0.7490466579	 0.128574
H	 2.0904815482	 1.0468790545	 0.0612756223	 0.117927
H	 0.4412669515	 2.8492484319	 1.7029531224	 0.099209
H	-0.8688661806	 2.8504209981	 0.4640526401	 0.106396
H	-2.2445027671	 2.6381320899	 2.7472754956	 0.088305
H	-0.2660556105	-0.8029228458	 2.7523400596	 0.106682
H	-3.713822912	-0.3361475274	 1.7984358094	 0.127652
H	-3.4879504421	 0.5219056501	 0.2633232247	 0.12443
H	-2.6968670135	-1.0347484611	 0.5260124242	 0.135887
88.185	133.4259	164.6449	190.4552	211.4568	251.4763	376.4114	408.6619	458.7402	559.3917	597.5993	690.0109	749.3471	785.4743	826.0253	909.9403	918.421	924.5957	966.3531	1016.208	1041.1516	1065.1723	1095.7052	1124.9125	1129.7442	1158.8139	1177.2837	1181.3108	1209.7134	1220.8232	1239.8426	1292.5758	1345.0888	1410.877	1461.4291	1477.7595	1484.7012	1486.5504	1493.8274	1504.6453	1510.9572	2999.7712	3026.5586	3047.7831	3056.1454	3087.0418	3102.0368	3112.8489	3125.8594	3142.9738	3201.9445
COC12CC3OC1C23C	CO[C@]12C[C@@H]3O[C@H]1[C@]23C	
InChI=1S/C7H10O2/c1-6-4-3-7(6,8-2)5(6)9-4/h4-5H,3H2,1-2H3	InChI=1S/C7H10O2/c1-6-4-3-7(6,8-2)5(6)9-4/h4-5H,3H2,1-2H3/t4-,5-,6+,7+/m0/s1
