19
gdb 2371	2.83721	1.5181015	1.234263	2.9316	76.11	-0.21461	0.06503	0.27964	1081.9104	0.156112	-422.48822	-422.479782	-422.478838	-422.521287	31.472	
C	 2.4112459902	-2.0792546449	 0.0400070319	-0.496672
C	 2.4412222854	-0.6655938325	 0.5202384069	 0.367255
O	 3.6832634076	 0.0368430542	 0.4060757122	-0.317767
C	 3.4655073183	 0.6990049974	 1.6796738989	-0.089311
C	 2.0950135616	 0.0554313811	 1.8461088863	-0.296388
C	 1.3129963956	 0.304984097	 0.5915838435	 0.434229
C	-0.1735931967	 0.0240073583	 0.3942571511	-0.377064
C	-0.1658657527	 1.3979433261	-0.3122401623	-0.06955
O	 1.2546764196	 1.5576592859	-0.091840857	-0.309505
H	 3.16467401	-2.6837481711	 0.5546732557	 0.130379
H	 1.4292205179	-2.5296377163	 0.2101253522	 0.123002
H	 2.6230120551	-2.1171191831	-1.0347982311	 0.136577
H	 4.205758426	 0.3656155825	 2.4149402585	 0.105342
H	 3.4891426604	 1.7901295239	 1.5876734242	 0.118782
H	 1.6546580671	-0.2917450176	 2.7736410688	 0.092709
H	-0.4113526594	-0.8278079432	-0.2460636238	 0.116173
H	-0.7682455838	-0.0326491208	 1.3081604282	 0.115327
H	-0.4107273849	 1.3857478941	-1.379927788	 0.10912
H	-0.7445002973	 2.1860015491	 0.1825287841	 0.107362
79.3502	160.3819	179.5326	190.3762	218.2527	276.86	333.6242	454.5413	528.623	576.466	674.6159	775.8104	795.4843	832.9659	882.5011	926.4152	942.3849	963.3405	972.5594	996.3684	1016.5263	1048.7923	1098.2135	1107.3419	1136.1211	1160.2747	1163.9556	1181.8676	1206.1123	1218.2055	1258.5722	1284.256	1336.6988	1353.1636	1408.0352	1458.5615	1474.6676	1490.8306	1500.41	1512.7081	1532.9163	3028.4326	3031.789	3032.9015	3071.3443	3071.8462	3083.0299	3096.7518	3115.6382	3124.584	3175.3321
CC12OCC1C21CCO1	C[C@]12OC[C@H]1[C@@]12CCO1	
InChI=1S/C7H10O2/c1-6-5(4-9-6)7(6)2-3-8-7/h5H,2-4H2,1H3	InChI=1S/C7H10O2/c1-6-5(4-9-6)7(6)2-3-8-7/h5H,2-4H2,1H3/t5-,6+,7-/m1/s1
