19
gdb 1239	2.1752701	1.341832	0.960812	1.5736	78.03	-0.23881	-0.02736	0.21145	1284.75	0.152711	-422.546149	-422.535509	-422.534564	-422.582168	38.064	
C	-1.6175565099	 0.4791271733	-0.7855842531	-0.37718
C	-0.8619484303	 0.55117461	 0.5408754361	 0.03173
O	-0.7956731032	 1.9103757953	 0.9262967631	-0.429255
C	-1.5474510852	-0.3554564815	 1.5816008733	 0.346296
O	-1.72690965	-1.5269611344	 1.3620503595	-0.303395
C	-2.0014522988	 0.2985182487	 2.9112280448	-0.229223
C	-2.8471768605	-0.6668494288	 3.7531533151	-0.39218
C	-0.8169482012	 0.7718442287	 3.6274959212	 0.300786
C	 0.1811615848	 1.1325199954	 4.1961860682	-0.477947
H	-2.6139839379	 0.9185921678	-0.6768827194	 0.124378
H	-1.0765113634	 1.0424147955	-1.5492349139	 0.127316
H	-1.7199815523	-0.5606468277	-1.100606988	 0.141487
H	 0.1450894179	 0.1280052251	 0.3954874065	 0.104164
H	-0.2414221056	 1.9774713295	 1.7134286597	 0.291048
H	-2.5914857312	 1.1810785229	 2.6295026258	 0.137613
H	-3.1643340175	-0.1827696626	 4.6796441085	 0.122913
H	-3.7311317151	-0.9765628494	 3.1910105603	 0.129496
H	-2.2745157552	-1.5630047309	 3.9987482991	 0.143145
H	 1.0464571745	 1.451845213	 4.7234459632	 0.208809
35.7986	75.9718	135.1777	190.8826	194.7905	221.8678	225.2696	284.4848	301.7115	401.819	413.1504	468.7505	504.8348	526.4172	584.2688	619.3084	652.0095	688.019	767.2098	866.2874	909.0599	997.1946	1009.1004	1067.5337	1092.2411	1115.4297	1138.7568	1182.0337	1270.1994	1284.2946	1310.9964	1336.6985	1391.791	1409.9423	1410.7771	1486.1091	1486.9879	1491.2287	1498.4956	1816.8722	2219.5214	2976.3244	3027.3762	3050.6442	3058.8348	3123.8214	3135.4078	3144.1464	3149.9861	3498.8406	3777.0089
CC(O)C(=O)C(C)C#C	C[C@@H](O)C(=O)[C@@H](C)C#C	
InChI=1S/C7H10O2/c1-4-5(2)7(9)6(3)8/h1,5-6,8H,2-3H3	InChI=1S/C7H10O2/c1-4-5(2)7(9)6(3)8/h1,5-6,8H,2-3H3/t5-,6+/m0/s1
