19
gdb 2717	2.3431711	1.4946721	1.2013952	4.0026	77.34	-0.23624	-0.00615	0.23009000000000002	1119.6889	0.154149	-422.555181	-422.54547	-422.544526	-422.589316	35.462	
C	-3.1472550758	 0.2191960838	 1.2396151518	-0.50552
C	-2.0325317063	 0.016904557	 0.2574600581	 0.241668
C	-0.9907604753	 1.0756765497	-0.1385485033	-0.427771
C	 0.0741215214	-0.0482819056	-0.0780454113	 0.375605
O	 1.2744299947	-0.0325731914	-0.0647319092	-0.323069
C	-0.9293006322	-1.1141991023	 0.2244126006	 0.146822
C	-0.6786895709	-2.3543643831	 1.0320573658	-0.504824
C	-2.046379656	-1.0214838907	-0.816806389	 0.003729
O	-2.959744936	-2.0737286204	-0.7026450053	-0.424348
H	-3.6783355342	-0.7185843717	 1.4224949863	 0.132444
H	-2.7726135948	 0.5921529527	 2.19866029	 0.128236
H	-3.8717980231	 0.9526210045	 0.8638225114	 0.122676
H	-1.1371445705	 1.5871544475	-1.0962282147	 0.113422
H	-0.7983983172	 1.8215869593	 0.6391086838	 0.130727
H	-1.5879814219	-2.9500721904	 1.1281970794	 0.141701
H	 0.0821233864	-2.9714087565	 0.5419741159	 0.138789
H	-0.3075536973	-2.1068692938	 2.0314562608	 0.124986
H	-1.8087610319	-0.7496806391	-1.8485146056	 0.09006
H	-3.8151445589	-1.7604104496	-1.0151233854	 0.294667
94.3381	114.5896	157.3089	188.1769	224.1622	251.3433	259.0905	293.1683	310.8025	426.6459	501.1706	543.6155	567.7718	627.4073	664.3963	679.3974	797.4037	856.9301	956.9401	977.2354	1008.1804	1050.0253	1080.8365	1095.9003	1110.3535	1138.0155	1186.6394	1203.3448	1244.8791	1268.7737	1349.8795	1367.7933	1406.112	1418.9197	1436.349	1464.9781	1488.6667	1490.2711	1494.8882	1499.728	1869.5119	3023.3511	3039.8464	3040.6671	3056.9423	3081.6828	3096.8032	3097.6955	3116.6527	3137.7346	3808.7168	94.339	114.5921	157.3089	188.1759	224.1621	251.3429	259.0891	293.1677	310.8024	426.6459	501.1705	543.6154	567.7716	627.4073	664.3963	679.3975	797.4038	856.9301	956.9401	977.2354	1008.1802	1050.0252	1080.8363	1095.9001	1110.3536	1138.0153	1186.6394	1203.3452	1244.879	1268.7737	1349.8794	1367.7933	1406.1117	1418.9196	1436.3491	1464.9784	1488.6661	1490.2706	1494.8881	1499.7281	1869.5115	3023.3511	3039.8464	3040.6671	3056.9423	3081.6828	3096.8031	3097.6955	3116.6527	3137.7347	3808.7163
CC12CC(=O)C1(C)C2O	C[C@@]12CC(=O)[C@]1(C)[C@H]2O	
InChI=1S/C7H10O2/c1-6-3-4(8)7(6,2)5(6)9/h5,9H,3H2,1-2H3	InChI=1S/C7H10O2/c1-6-3-4(8)7(6,2)5(6)9/h5,9H,3H2,1-2H3/t5-,6-,7+/m0/s1
