19
gdb 2005	2.9471438	1.6495297	1.313676	2.5238	74.6	-0.2453	0.07563	0.32093	1008.7853	0.158463	-422.533825	-422.526237	-422.525293	-422.565542	30.161	
O	 0.3072495728	 0.3291673411	 0.1888850726	-0.462497
C	-0.6529694289	 1.211416976	 0.6529191861	 0.425744
C	-2.1246984973	 0.9173193356	 0.5886634097	-0.368203
C	-1.5668000347	 2.1004528771	-0.1734460143	-0.098712
C	-1.3353569868	 3.2685181729	 0.7890612719	-0.033028
C	-0.412428561	 4.36908191	 0.2610606806	-0.099327
O	 0.8946237168	 3.8165735163	 0.2447461317	-0.245926
C	 1.0094602461	 3.017879222	 1.4144630685	-0.089388
C	-0.3566470379	 2.3552279276	 1.6300789824	-0.140917
H	 0.2969003367	-0.4538690751	 0.7503628998	 0.285784
H	-2.3753645721	 0.0634802045	-0.033441355	 0.113285
H	-2.7778632784	 1.0642699526	 1.4471157999	 0.100473
H	-1.6556977587	 2.1808027745	-1.2503104886	 0.094474
H	-2.2255543717	 3.6619588645	 1.2878519684	 0.068589
H	-0.6500261145	 4.6937284538	-0.7566027858	 0.106439
H	-0.4595395909	 5.2481562801	 0.9261641258	 0.083262
H	 1.8110194542	 2.2942627339	 1.244769434	 0.116559
H	 1.2674721431	 3.6388607947	 2.2879252163	 0.0811
H	-0.5755717867	 2.1717517079	 2.6864660257	 0.06229
124.4042	179.8219	259.3183	282.1234	325.0045	386.3678	427.0737	476.0696	546.4525	687.5437	734.0637	810.6963	841.1605	844.9182	874.0116	924.8629	936.6466	955.7051	988.2268	1009.7451	1031.372	1044.8676	1057.1526	1083.4901	1109.3955	1128.3131	1175.4962	1206.7514	1220.4117	1244.1063	1275.0299	1276.7343	1294.4005	1328.227	1335.7345	1354.1878	1391.8112	1410.7658	1493.2998	1498.2737	1511.3902	2958.1983	2969.6123	3056.3083	3071.4638	3079.6022	3096.1122	3096.8768	3183.7917	3197.4726	3792.9421
OC12CC1C1COCC21	O[C@]12C[C@H]1[C@@H]1COC[C@H]21	
InChI=1S/C7H10O2/c8-7-1-5(7)4-2-9-3-6(4)7/h4-6,8H,1-3H2	InChI=1S/C7H10O2/c8-7-1-5(7)4-2-9-3-6(4)7/h4-6,8H,1-3H2/t4-,5-,6-,7+/m0/s1
