19
gdb 4980	2.7666201	1.5115947	1.3528117	2.4458	73.7	-0.2142	0.06941	0.28361000000000003	1048.8179	0.157358	-422.509481	-422.501591	-422.500646	-422.542117	30.18	
C	 0.5520339415	-1.4639780412	 0.3362235367	-0.377186
C	 1.3698670303	-2.5372458233	-0.3962050749	-0.322317
C	 2.1927088553	-1.98478432	-1.5237781489	 0.241294
C	 2.9315269007	-2.5661079686	-2.7085044444	-0.012137
O	 4.1350459481	-1.836979581	-2.468086669	-0.302505
C	 3.4241307679	-1.0356966714	-1.472566669	 0.00958
C	 2.9635867535	 0.2291853399	-2.178281564	-0.077431
O	 2.1133260465	-0.252373578	-3.2288915216	-0.267749
C	 1.7845359237	-1.5850766558	-2.9146568449	 0.03152
H	-0.0384839469	-1.9048587701	 1.1448155872	 0.116196
H	 1.2023046836	-0.7017123682	 0.7791824279	 0.11759
H	-0.1348339993	-0.9572423999	-0.3491018235	 0.125905
H	 2.0240215915	-3.055471568	 0.31719848	 0.105532
H	 0.6942313492	-3.3026836558	-0.7976677054	 0.104555
H	 3.0091058873	-3.5690964568	-3.1145272602	 0.103014
H	 3.989835296	-0.9139272081	-0.5472270696	 0.086038
H	 2.4078364977	 0.8978710546	-1.5017112342	 0.092392
H	 3.7981216933	 0.7764716193	-2.6263057668	 0.120188
H	 0.85415516	-1.9241070676	-3.3557948254	 0.105521
70.394	125.5362	199.8631	254.8693	304.3759	355.4622	407.4549	547.7003	596.9654	703.4368	759.3921	774.325	801.4335	859.7669	895.1459	911.4534	930.5852	976.6322	994.1152	1000.7275	1025.7704	1032.2443	1042.4136	1078.3661	1112.2688	1127.3077	1183.4262	1194.6274	1236.7562	1249.7416	1278.0918	1308.5073	1315.8927	1358.5379	1374.6569	1410.0429	1464.9408	1483.2365	1498.3225	1500.1323	1507.314	2980.2516	3017.945	3034.0027	3050.5277	3087.1078	3100.7888	3104.9736	3110.8197	3169.5649	3187.4762
CCC12C3OC1COC23	CC[C@]12[C@@H]3O[C@H]1CO[C@H]23	
InChI=1S/C7H10O2/c1-2-7-4-3-8-5(7)6(7)9-4/h4-6H,2-3H2,1H3	InChI=1S/C7H10O2/c1-2-7-4-3-8-5(7)6(7)9-4/h4-6H,2-3H2,1H3/t4-,5-,6+,7-/m0/s1
