19
gdb 1261	2.4075032	1.4098124	1.3041288	2.6544	75.76	-0.25067	-0.00779	0.24288	1110.9702	0.154579	-422.511709	-422.502577	-422.501633	-422.545752	33.616	
C	-0.3333262565	 3.7153776366	-2.1914367124	-0.401321
C	-1.3890488342	 3.203664312	-1.1978452438	-0.128524
C	-1.546922736	 4.1409150472	 0.00932614	-0.402211
C	-1.0243142964	 1.821347147	-0.7420362498	 0.314588
C	-0.9288096302	 0.475422376	-1.5147111375	-0.283062
C	-0.8585193159	 0.1037016454	-0.0175791137	-0.076462
O	-1.9141044367	 1.1158630931	 0.2441696633	-0.3449
C	 0.1141747469	 1.2938018317	 0.1859984929	 0.443612
O	 1.0667354735	 1.646679169	 0.8008005349	-0.322699
H	 0.6508055344	 3.7809823077	-1.7155869361	 0.137077
H	-0.2466819318	 3.0595800971	-3.063562089	 0.117619
H	-0.6021379637	 4.7140051533	-2.5475498015	 0.120964
H	-2.3540603767	 3.1332413459	-1.7178850298	 0.090183
H	-2.2949363224	 3.7566634975	 0.7072959584	 0.136547
H	-0.5995627158	 4.2397496725	 0.5491374531	 0.137165
H	-1.8586684612	 5.1370313374	-0.3186518041	 0.112255
H	-1.8731524383	 0.1854338438	-1.9790664667	 0.11992
H	-0.0575953027	 0.2886157398	-2.1480305891	 0.113968
H	-0.9555786363	-0.8624942229	 0.471585481	 0.115282
50.8425	127.718	170.6519	184.735	220.645	246.3971	304.723	406.7744	423.2649	467.1496	520.3399	633.8377	716.8916	772.7325	809.3916	831.6854	885.0578	910.8072	932.1228	939.704	972.5443	993.3828	1034.0341	1056.7795	1129.4732	1143.3195	1174.1285	1194.9017	1204.4767	1214.2485	1319.733	1340.9484	1386.1016	1399.2012	1423.9282	1475.352	1488.5202	1492.3375	1502.1384	1516.5935	1924.0472	3015.0982	3035.8917	3041.8509	3062.8713	3105.7993	3110.2335	3114.1257	3124.6036	3145.6261	3159.6943
CC(C)C12CC(O1)C2=O	CC(C)[C@]12C[C@H](O1)C2=O	
InChI=1S/C7H10O2/c1-4(2)7-3-5(9-7)6(7)8/h4-5H,3H2,1-2H3	InChI=1S/C7H10O2/c1-4(2)7-3-5(9-7)6(7)8/h4-5H,3H2,1-2H3/t5-,7-/m0/s1
