19
gdb 4830	3.7012377	1.2558535	1.1183844	2.7192	74.15	-0.2285	0.06103	0.28953	1138.7819	0.155176	-422.470868	-422.462523	-422.461579	-422.503598	32.343	
C	 0.4823531283	-0.4103810749	 1.254569771	-0.402878
C	 1.2260202311	 0.0324090085	-0.0118620426	-0.236255
C	 2.1625804147	-1.0316403681	-0.5785207257	 0.398229
O	 1.4641044671	-2.1987692499	-0.980315685	-0.487993
C	 3.5219928914	-1.2825227192	 0.1274890605	-0.16863
C	 4.1853935943	-1.7261852102	-1.2161588097	 0.08499
O	 5.3240790706	-0.8220609459	-1.0912965876	-0.333306
C	 4.1862717129	-0.0641207375	-0.5861853816	 0.076874
C	 3.1824169277	-0.6110484096	-1.6499359553	-0.139544
H	-0.1793314294	-1.2619720501	 1.0589509657	 0.112206
H	 1.1786903572	-0.697729878	 2.0500777401	 0.12059
H	-0.1469210846	 0.396602187	 1.6404258441	 0.123139
H	 0.4997825961	 0.2992181685	-0.7892213255	 0.107134
H	 1.8036624569	 0.9385656573	 0.2057801305	 0.099855
H	 1.0134711222	-2.5631730674	-0.2118365853	 0.279916
H	 3.7499428798	-1.6605275227	 1.1246527001	 0.078804
H	 4.3430522842	-2.7212990419	-1.6243366022	 0.106352
H	 4.351949255	 0.9529713769	-0.2346084141	 0.096763
H	 3.0150450647	-0.2316689226	-2.6576277671	 0.083753
81.8246	172.3089	179.8176	246.2299	265.8522	323.9248	376.3099	401.7183	558.9817	583.0085	643.7665	770.1003	784.869	800.4544	806.9651	836.7641	879.2616	910.5264	936.42	967.7589	974.4176	1010.3015	1029.1891	1081.0985	1110.5501	1122.7765	1143.7468	1151.3152	1169.4852	1178.3612	1195.657	1208.7395	1268.6272	1309.4294	1327.2816	1347.9718	1401.4194	1411.6782	1475.8769	1500.2927	1510.2433	3027.9494	3030.824	3063.6737	3095.0881	3108.1071	3112.1668	3122.346	3133.9332	3157.061	3817.1266
CCC1(O)C2C3OC2C13	CC[C@]1(O)[C@H]2[C@@H]3O[C@H]2[C@H]13	
InChI=1S/C7H10O2/c1-2-7(8)3-5-4(7)6(3)9-5/h3-6,8H,2H2,1H3	InChI=1S/C7H10O2/c1-2-7(8)3-5-4(7)6(3)9-5/h3-6,8H,2H2,1H3/t3-,4+,5-,6+,7-
