19
gdb 707	2.6153821	1.6996201	1.34217	1.9127	73.9	-0.2392	-0.01565	0.22355	1005.7976	0.159185	-422.576134	-422.568634	-422.56769	-422.608058	29.49	
O	 0.1079076588	 1.043520004	 3.5124872149	-0.310195
C	-0.2556385335	 1.1426556196	 2.3625115573	 0.37057
C	-1.3711346324	 0.2700730181	 1.7952975217	-0.276187
C	-0.8782372982	-0.8499093432	 0.846351335	-0.23511
C	 0.0669669119	-0.3480471912	-0.2510170298	 0.116652
C	 1.459116801	 0.1285391734	 0.2197585867	-0.285222
C	 0.8446348239	 1.5372979406	 0.0907154735	 0.102998
C	 0.3841493623	 2.1576096892	 1.4123613714	-0.301892
O	-0.2711489327	 1.0040808114	-0.6677242582	-0.295124
H	-1.9062700533	-0.1729159404	 2.6382425174	 0.115891
H	-2.0576297523	 0.9095846824	 1.2320345351	 0.124074
H	-0.3668815454	-1.6338826658	 1.4179407579	 0.115598
H	-1.7589336051	-1.314741661	 0.3907286762	 0.111881
H	 0.0665911728	-1.0330462099	-1.104942835	 0.081604
H	 1.7964182095	-0.1833847061	 1.2105984716	 0.121066
H	 2.2440311687	-0.0680382059	-0.5116966408	 0.112266
H	 1.4041891424	 2.271590846	-0.4973155654	 0.086198
H	 1.2259721074	 2.6229337588	 1.933637377	 0.118906
H	-0.3532736857	 2.9388356499	 1.1848224635	 0.126027
88.5364	158.8837	282.3058	303.8012	349.9762	379.2906	486.1622	496.3375	560.8891	667.2273	747.5349	795.4428	825.8705	863.5648	874.4153	899.7673	935.4121	945.3447	966.5662	1034.1272	1048.4906	1068.4474	1117.1888	1123.6034	1144.3606	1197.8986	1208.9062	1249.7652	1262.3057	1274.3242	1298.1691	1320.7124	1357.1203	1366.7427	1377.1881	1388.5348	1448.8784	1469.1572	1485.3236	1495.3856	1806.0622	3028.3974	3034.2366	3053.014	3056.4845	3057.6684	3077.142	3079.6377	3098.8805	3119.9187	3134.2263
O=C1CCC2CC(C1)O2	O=C1CC[C@@H]2C[C@H](C1)O2	
InChI=1S/C7H10O2/c8-5-1-2-6-4-7(3-5)9-6/h6-7H,1-4H2	InChI=1S/C7H10O2/c8-5-1-2-6-4-7(3-5)9-6/h6-7H,1-4H2/t6-,7+/m1/s1
