19
gdb 4485	2.9464451	1.6413376	1.2430181	2.1996	74.04	-0.23489	0.06924	0.30413	1036.9018	0.158282	-422.498234	-422.490908	-422.489964	-422.529724	29.304	
C	-0.5835724835	-2.1580016227	-1.226864125	-0.40539
C	-0.4404556917	-0.6614336786	-0.9302894169	-0.039263
C	-0.3916174822	 0.152477681	-2.2305485986	-0.074345
O	 0.0913654987	 1.4766606703	-2.0308199611	-0.271489
C	 1.1864894346	 1.5313774937	-1.1675260416	 0.123949
C	 1.0240487258	 1.1272459132	 0.3269707382	-0.001301
O	 2.4824359474	 0.9085335006	 0.3740175947	-0.308357
C	 2.0527695088	 0.2616962167	-0.8759100652	-0.019665
C	 0.822235285	-0.3400833972	-0.1263293394	-0.00653
H	-0.6715969283	-2.7337261139	-0.3004535535	 0.121175
H	-1.4731530246	-2.3610892516	-1.8326174113	 0.117524
H	 0.2872213603	-2.5364680147	-1.7742838448	 0.119461
H	-1.3092119903	-0.3379955658	-0.3403374426	 0.083746
H	 0.2654556114	-0.3671884113	-2.9475535807	 0.092401
H	-1.3787295375	 0.2483256928	-2.690546662	 0.1117
H	 1.7419433112	 2.4538475143	-1.3396781118	 0.098193
H	 0.5606757964	 1.66567792	 1.1545346635	 0.089924
H	 2.8235035259	-0.2260892302	-1.4735905099	 0.092172
H	 1.0824166625	-1.0798984764	 0.6352580182	 0.076095
140.7235	202.7752	233.6777	284.5079	371.8533	443.8908	471.5163	492.2248	572.8714	658.4474	758.4694	849.7831	870.169	886.038	899.1258	903.7042	937.5698	970.9528	999.1974	1019.3614	1026.4715	1094.1796	1122.5194	1133.2805	1149.8016	1160.1098	1175.9362	1189.9726	1221.11	1250.9825	1265.0645	1279.1681	1321.2388	1335.4943	1358.7829	1391.1837	1408.4302	1424.5931	1496.4207	1497.8989	1506.9954	2967.3597	3010.5198	3029.1525	3082.3192	3090.0614	3096.812	3104.853	3110.2538	3112.6209	3126.8637
CC1COC2C3OC2C13	C[C@@H]1CO[C@H]2[C@@H]3O[C@H]2[C@H]13	
InChI=1S/C7H10O2/c1-3-2-8-7-5-4(3)6(7)9-5/h3-7H,2H2,1H3	InChI=1S/C7H10O2/c1-3-2-8-7-5-4(3)6(7)9-5/h3-7H,2H2,1H3/t3-,4-,5-,6+,7+/m1/s1
