19
gdb 425	2.9551794	1.5572793	1.2097437	0.5987	78.48	-0.23025	0.01401	0.24426	1069.102	0.157857	-422.533172	-422.525309	-422.524365	-422.565314	30.883	
C	 0.6980286817	 1.3656829574	-0.0796625493	-0.316759
C	 1.6063150313	 0.1624036514	-0.1011358052	-0.319369
C	 0.1086556779	-0.0133281035	 0.0673874834	 0.402846
O	-0.6333402685	-0.4358244976	-1.0521786099	-0.28875
C	-0.4425122251	-1.7717295358	-1.4463611509	-0.018077
O	-0.5168585102	-2.6895250998	-0.3968576119	-0.23115
C	-1.6030551864	-2.4834798381	 0.5002382346	-0.14208
C	-1.2727838025	-1.4621852573	 1.5622065096	-0.094914
C	-0.4678779749	-0.416963735	 1.3759592374	-0.07269
H	 0.7049148973	 2.0126226784	 0.7908117212	 0.114971
H	 0.5051790546	 1.8648785433	-1.0216982402	 0.126405
H	 2.0277191168	-0.1288637946	-1.0568612575	 0.122755
H	 2.2427758943	-0.0357065361	 0.7536343915	 0.121109
H	-1.2258784232	-1.9420883531	-2.2003399634	 0.094881
H	 0.5493686914	-1.9311858423	-1.8916205876	 0.096756
H	-2.5178773412	-2.2124844387	-0.0506936751	 0.109869
H	-1.7863325451	-3.454230711	 0.9726704162	 0.113966
H	-1.6966004835	-1.6392457354	 2.5472702	 0.091001
H	-0.2269498045	 0.2297277077	 2.216293137	 0.08923
86.4642	208.3003	238.4138	276.2836	309.9979	366.8426	409.967	412.6773	541.3919	634.9175	693.1541	727.8178	771.984	798.0798	893.7895	902.1856	918.3333	958.915	970.7632	983.8595	995.663	1034.3949	1055.0576	1077.3609	1096.7673	1150.2647	1169.7322	1191.5963	1203.2023	1272.7035	1285.8761	1308.067	1321.7781	1394.6084	1424.4031	1447.7223	1455.7152	1483.539	1489.1964	1514.7397	1719.3743	2978.883	2988.6875	3034.6332	3067.2704	3137.0429	3139.7735	3147.3998	3170.816	3221.3522	3236.0743
C1CC11OCOCC=C1	C1CC21OCOCC=C2	
InChI=1S/C7H10O2/c1-2-7(3-4-7)9-6-8-5-1/h1-2H,3-6H2	InChI=1S/C7H10O2/c1-2-7(3-4-7)9-6-8-5-1/h1-2H,3-6H2
