19
gdb 654	5.3193198	0.8410751	0.7593898	3.3789	76.62	-0.24293	-0.01982	0.22311	1469.9469	0.155937	-422.541049	-422.532329	-422.531385	-422.576043	31.367	
O	 1.2669649968	 0.1256808259	 0.5503933508	-0.286256
C	 0.1171109454	 0.0697610526	 0.2273630483	 0.404459
C	-0.853844543	-1.0932222943	-0.0462781715	-0.37455
C	-2.0204375077	-0.0529397889	-0.0178920886	 0.010395
C	-0.9860185693	 1.1179733545	 0.0172668525	-0.359087
C	-2.9700699683	-0.0761309039	-1.1926263088	 0.14885
C	-4.1182814514	-1.113046963	-1.198977399	-0.300846
C	-5.0368074106	 0.1213249781	-1.2896421753	-0.061372
O	-3.9148771666	 1.0206182221	-1.1590085643	-0.294817
H	-0.6866391062	-1.5326634691	-1.0371185523	 0.129237
H	-0.8605953967	-1.8988350955	 0.6917291686	 0.130661
H	-2.5900260646	-0.107246848	 0.9139491477	 0.080749
H	-0.8832699482	 1.6349926319	-0.9437328556	 0.136701
H	-1.0904539506	 1.8713032314	 0.80132351	 0.134728
H	-2.3931602078	-0.0571841814	-2.1313070716	 0.067096
H	-4.1438331176	-1.8003356181	-2.0453251062	 0.11277
H	-4.2092113984	-1.681406087	-0.270878328	 0.110836
H	-5.5500109518	 0.2479544725	-2.2513193024	 0.103412
H	-5.7641011734	 0.2541523603	-0.4806972241	 0.107035
37.277	64.8982	77.8491	158.7998	296.7311	327.1242	399.0588	414.2647	500.3798	657.4147	673.0673	725.8331	786.6011	838.0094	892.9819	929.6023	948.3698	951.1435	991.5281	1012.3439	1027.2299	1036.7002	1091.3925	1108.5446	1147.748	1164.6308	1192.6585	1208.3113	1231.8069	1236.7919	1254.6461	1260.6516	1286.7361	1316.3224	1359.1808	1413.3231	1424.5167	1445.2003	1489.1511	1532.1829	1896.0107	2969.0686	3017.0593	3043.8048	3052.6272	3059.5517	3069.9663	3078.2411	3113.0511	3117.1315	3134.9783
O=C1CC(C1)C1CCO1	O=C1CC(C1)[C@H]1CCO1	
InChI=1S/C7H10O2/c8-6-3-5(4-6)7-1-2-9-7/h5,7H,1-4H2	InChI=1S/C7H10O2/c8-6-3-5(4-6)7-1-2-9-7/h5,7H,1-4H2/t7-/m1/s1
