19
gdb 4442	3.2329044	0.9985839	0.8556601	0.932	77.31	-0.24641	0.02571	0.27212	1378.617	0.155021	-422.495051	-422.485565	-422.484621	-422.530123	34.668	
O	-2.8194873073	 2.8436399989	 1.3589243424	-0.43109
C	-1.4345162895	 3.0580742436	 1.4265102469	 0.142114
C	-0.8136898951	 4.2283769537	 0.6104912953	-0.25942
C	 0.3094765885	 3.2629182078	 0.1373884569	-0.247779
C	-0.5202628722	 2.0586740854	 0.6356151389	 0.07958
O	-1.2303267041	 1.4719042871	-0.4481973807	-0.26819
C	-1.8259569999	 0.2168537614	-0.1305407184	-0.244343
C	-0.8513487718	-0.8662298133	 0.0163336242	 0.31716
C	-0.051047809	-1.7543383224	 0.1399067757	-0.453362
H	-3.015660878	 2.6852976909	 0.4269550749	 0.285448
H	-1.1723716064	 3.1037618662	 2.4871829756	 0.089223
H	-1.4733029344	 4.5284579452	-0.2089551025	 0.104033
H	-0.5193218536	 5.1223128548	 1.1644469657	 0.101751
H	 0.5341058557	 3.2475145603	-0.930327801	 0.115601
H	 1.2422869177	 3.3763943933	 0.6947892223	 0.107461
H	 0.0057517502	 1.285016266	 1.2047443974	 0.079119
H	-2.435165689	 0.2966876839	 0.7798174857	 0.141326
H	-2.5028017961	-0.0071837334	-0.9623038752	 0.137917
H	 0.6518628342	-2.5436441895	 0.244572306	 0.203451
51.7529	73.1301	90.5083	172.8048	257.2506	275.7109	331.9835	366.9613	400.5111	480.2789	594.686	598.3288	616.4414	682.5858	695.2717	733.7105	818.7036	894.8667	929.4443	936.3312	953.1305	1009.5276	1037.7463	1070.8028	1092.4298	1127.3488	1147.2821	1193.3261	1226.4498	1254.3956	1275.8652	1282.1212	1295.5777	1323.028	1373.7161	1399.6356	1435.6508	1468.8947	1486.4508	1488.6583	2234.4679	3018.4386	3047.7656	3060.1664	3070.4084	3072.5142	3078.2042	3113.9929	3133.4614	3504.8043	3777.2401
OC1CCC1OCC#C	O[C@@H]1CC[C@@H]1OCC#C	
InChI=1S/C7H10O2/c1-2-5-9-7-4-3-6(7)8/h1,6-8H,3-5H2	InChI=1S/C7H10O2/c1-2-5-9-7-4-3-6(7)8/h1,6-8H,3-5H2/t6-,7+/m1/s1
