19
gdb 2350	2.6720552	1.7866208	1.4141037	0.9282	73.74	-0.23439	0.06966	0.30405	986.1873	0.157181	-422.529833	-422.522053	-422.521109	-422.562021	30.415	
C	-0.1303598103	 0.1759951487	-0.1279801578	-0.457939
C	 1.3569459512	-0.0495559349	 0.029572745	 0.345437
C	 2.2643969668	 1.2067920417	 0.1151653318	-0.116143
O	 2.7068439278	 0.8516408651	 1.4442811927	-0.295596
C	 1.9623349245	-0.3847362174	 1.4215293599	 0.055513
C	 2.8404142115	-1.5914673875	 1.1791197856	-0.093904
C	 2.1395739582	-2.8611644065	 0.7318868533	-0.327142
C	 2.7119160765	-1.9059967447	-0.2820491202	 0.09725
O	 1.7950986203	-1.0343849541	-0.9050504774	-0.307703
H	-0.4863848928	 0.9286757707	 0.5815107802	 0.123268
H	-0.3554309084	 0.5238849134	-1.1413212344	 0.13097
H	-0.6815316818	-0.7540950484	 0.0397005679	 0.123984
H	 3.0816658479	 1.2133411988	-0.6147950642	 0.105763
H	 1.750343943	 2.17511595	 0.1045891365	 0.099738
H	 1.2939462136	-0.469344513	 2.2861019583	 0.077467
H	 3.782409564	-1.6489535319	 1.7114801333	 0.10435
H	 2.6544669194	-3.7995295406	 0.9086055578	 0.116742
H	 1.0578960576	-2.9157211521	 0.808005232	 0.116944
H	 3.543291621	-2.1839208471	-0.9193769804	 0.100999
72.9719	197.343	212.2685	258.0883	331.3627	379.9791	407.3444	465.7152	610.9451	651.8868	719.4215	802.2843	811.4652	877.321	889.9843	893.881	940.968	948.256	993.6318	1006.0861	1017.7208	1044.1786	1059.7194	1076.0634	1101.9693	1142.1549	1150.4896	1177.8443	1195.3102	1203.5379	1213.5293	1286.0535	1312.4363	1341.1778	1366.7972	1378.1066	1411.2439	1474.6167	1482.9789	1490.8905	1513.342	3020.5649	3037.3289	3043.2916	3074.2504	3109.7817	3117.1441	3125.3046	3176.5644	3185.4089	3215.5809
CC12COC1C1CC1O2	C[C@@]12CO[C@@H]1[C@H]1C[C@H]1O2	
InChI=1S/C7H10O2/c1-7-3-8-6(7)4-2-5(4)9-7/h4-6H,2-3H2,1H3	InChI=1S/C7H10O2/c1-7-3-8-6(7)4-2-5(4)9-7/h4-6H,2-3H2,1H3/t4-,5+,6+,7+/m0/s1
