19
gdb 5950	3.0555016	1.1439023	0.9873864	2.2904	76.82	-0.2275	0.00921	0.23671	1280.3787	0.155845	-422.519184	-422.510298	-422.509354	-422.553601	32.401	
C	 2.4874808717	-0.7684972433	 0.7945373383	-0.387874
C	 1.9433259133	 0.0723912212	-0.3448738191	-0.076875
O	 2.031758262	 1.4495310498	 0.0390347815	-0.297573
C	 1.5056251336	 2.3160677447	-0.8697858732	 0.317548
C	 1.3365952361	 3.8474990902	-0.6317310878	-0.288183
C	 0.8016462591	 3.6451413704	-2.0923799047	-0.181086
C	 2.0306009728	 2.707804602	-2.3164827506	-0.300323
C	 0.1049235211	 2.3963756067	-1.5235490799	 0.391326
O	-0.9330072687	 1.8106261692	-1.5739668727	-0.339068
H	 2.4456375585	-1.8299654003	 0.5332368012	 0.11956
H	 3.5271950926	-0.5034084189	 1.0064390973	 0.127801
H	 1.9000208525	-0.6108836685	 1.7032307581	 0.13199
H	 2.5272352954	-0.0906050249	-1.2629707366	 0.097546
H	 0.8976547536	-0.1803417736	-0.5621499021	 0.127844
H	 0.6249949595	 4.162610501	 0.1331495631	 0.117332
H	 2.2785249181	 4.3970895446	-0.5718462021	 0.112165
H	 0.4169946161	 4.401284668	-2.7675267706	 0.103734
H	 1.9621511697	 1.9660898157	-3.113948141	 0.112622
H	 2.9949126631	 3.2202191558	-2.3074183692	 0.111513
60.0607	62.2988	132.4246	189.5542	235.3485	277.4896	345.0179	410.7218	508.3976	523.5124	679.6918	741.3753	768.6472	788.4298	816.0296	821.8497	906.8698	928.4483	955.714	987.2935	998.7539	1036.8662	1070.6199	1082.4346	1110.3504	1141.9992	1163.2695	1179.0302	1186.861	1195.2367	1224.3411	1299.636	1356.2524	1405.2583	1439.46	1483.2643	1492.0171	1500.9244	1525.4831	1534.7048	1909.0369	2994.2692	3046.2101	3047.1456	3068.0029	3068.7846	3121.5756	3124.7312	3142.0741	3143.3458	3190.4071
CCOC12CC(C1)C2=O	CCO[C@@]12C[C@@H](C1)C2=O	
InChI=1S/C7H10O2/c1-2-9-7-3-5(4-7)6(7)8/h5H,2-4H2,1H3	InChI=1S/C7H10O2/c1-2-9-7-3-5(4-7)6(7)8/h5H,2-4H2,1H3/t5-,7-
