19
gdb 4191	3.5061564	1.188047	1.0284773	3.305	76.66	-0.24111	-0.02455	0.21656	1207.5367	0.156113	-422.564367	-422.555794	-422.55485	-422.597485	32.245	
C	 1.3403452419	-0.7445216297	-0.8363592986	-0.405985
C	 1.3513849889	 0.1508889251	 0.3902793224	 0.127775
C	 2.0132748421	 1.5385923525	 0.1950506275	-0.255655
C	 2.6743469784	 1.8238907309	 1.5304179454	-0.096591
C	 1.8785838607	 1.6079019244	 2.7869841099	-0.344829
C	 2.7111075711	 0.4692240757	 2.2303596487	 0.335177
O	 2.0943909116	-0.5008922953	 1.4355477456	-0.317722
C	 3.91811353	-0.0007806747	 2.9437433163	 0.08707
O	 4.5358325079	 0.6667294744	 3.7395294627	-0.275127
H	 0.9046641337	-1.7181525098	-0.5964225448	 0.130934
H	 0.7454417463	-0.289669314	-1.6345542215	 0.119435
H	 2.3584624158	-0.9023611572	-1.2049265557	 0.124388
H	 0.3187815124	 0.2918887328	 0.7411948978	 0.080633
H	 2.7780962646	 1.4936762634	-0.5881635824	 0.110414
H	 1.2754230269	 2.2906322652	-0.1003698822	 0.112897
H	 3.5441803006	 2.4684403338	 1.5731974183	 0.114428
H	 2.2688544888	 2.0585853668	 3.69252453	 0.143379
H	 0.7993363192	 1.5144743464	 2.7346348285	 0.123205
H	 4.2234846489	-1.0335922307	 2.6702587019	 0.086174
94.0655	128.0073	187.1697	207.732	241.1085	309.057	374.5322	395.373	434.6845	535.2286	625.7334	699.3627	726.5263	797.7141	841.8617	867.9372	904.0362	921.0682	951.2389	995.2401	1043.5862	1054.4402	1072.5689	1085.4276	1106.9333	1149.1436	1154.216	1220.112	1235.1873	1278.0666	1310.823	1366.6987	1381.4983	1394.8861	1408.7075	1425.8401	1462.357	1484.4235	1492.4966	1498.548	1810.43	2907.6766	2990.0662	3040.5849	3044.8327	3089.7964	3115.7232	3122.0106	3136.819	3186.5882	3232.9332
CC1CC2CC2(O1)C=O	C[C@@H]1C[C@H]2C[C@]2(O1)C=O	
InChI=1S/C7H10O2/c1-5-2-6-3-7(6,4-8)9-5/h4-6H,2-3H2,1H3	InChI=1S/C7H10O2/c1-5-2-6-3-7(6,4-8)9-5/h4-6H,2-3H2,1H3/t5-,6+,7+/m1/s1
