19
gdb 649	2.2329088	1.7592952	1.5279701	3.2095	74.6	-0.22438	-0.02745	0.19693	988.7555	0.158874	-422.559146	-422.551537	-422.550593	-422.590944	29.948	
O	 1.1945838878	-0.0634345035	 0.1205187679	-0.305261
C	-0.0005276768	-0.0353253897	 0.1291916431	 0.389567
C	-1.1102192993	-1.0991489667	 0.0147263549	-0.130404
C	-2.0305432297	 0.0495216651	-0.5068455821	-0.28261
C	-1.0641815245	 1.1129618266	 0.1009523965	 0.020252
O	-1.3975716027	 1.6429647022	 1.366374814	-0.258868
C	-2.0604637028	 0.7872592916	 2.2902305852	-0.067796
C	-1.3768366018	-0.5618580081	 2.5460679156	-0.230067
C	-1.5091958918	-1.6060200095	 1.4178406391	-0.212768
H	-0.9191789458	-1.9356649674	-0.6614229337	 0.089658
H	-2.0308716597	 0.1119511666	-1.5976215536	 0.113951
H	-3.0625147421	 0.054754621	-0.1542966263	 0.111458
H	-0.8063069131	 1.970886015	-0.5248340979	 0.102825
H	-2.083084324	 1.3664260088	 3.2177684085	 0.115292
H	-3.105970098	 0.6259986953	 1.9843745374	 0.091996
H	-0.317979122	-0.3757018578	 2.7636690102	 0.129035
H	-1.8104512324	-0.9845254333	 3.4599654822	 0.102519
H	-0.8809796744	-2.4667271316	 1.6699180688	 0.1161
H	-2.5431317767	-1.9711221346	 1.3727996104	 0.105121
117.0685	195.6908	223.0538	289.2358	352.9522	376.5824	423.1874	478.9695	534.7381	622.8609	740.4807	760.0629	814.4985	844.4515	873.323	888.1678	925.106	946.686	1018.9664	1040.7798	1049.0642	1068.8859	1098.8134	1131.2302	1151.4095	1184.4883	1203.7942	1236.4545	1257.3173	1261.6143	1311.8749	1314.4889	1362.4556	1374.2022	1384.9452	1414.4034	1472.224	1477.5461	1485.4052	1511.2917	1889.8761	2984.7002	3024.8854	3031.791	3069.316	3073.639	3079.526	3085.5434	3086.6253	3091.7354	3134.3316
O=C1C2CC1OCCC2	O=C1[C@@H]2C[C@H]1OCCC2	
InChI=1S/C7H10O2/c8-7-5-2-1-3-9-6(7)4-5/h5-6H,1-4H2	InChI=1S/C7H10O2/c8-7-5-2-1-3-9-6(7)4-5/h5-6H,1-4H2/t5-,6+/m0/s1
