19
gdb 3542	2.5902285	1.5270814	1.1684373	4.3251	75.43	-0.26185	0.01593	0.27778	1114.8917	0.157624	-422.600181	-422.591797	-422.590853	-422.633374	31.69	
C	-2.6723661953	-1.2410337179	-1.203281166	-0.393638
C	-2.1997557055	-0.7719799461	 0.1666981755	 0.119365
C	-2.264354317	 0.7617016188	 0.3703964325	-0.350983
C	-0.8341889664	 1.1872886872	 0.1069215069	 0.190171
C	-0.4026252723	 2.1984314807	-0.9423647304	-0.296267
C	-0.2244319509	 2.5055364072	 0.511963554	-0.306662
C	 0.0056393245	-0.0454554759	 0.2358876863	 0.411225
O	 1.2027387655	-0.1280321546	 0.2490658206	-0.365479
O	-0.806752004	-1.1299318981	 0.3370258655	-0.238039
H	-2.4712976523	-2.3075501101	-1.3329564891	 0.136053
H	-3.7493574548	-1.0747608223	-1.3081137237	 0.120178
H	-2.1592927855	-0.693699205	-2.0007625758	 0.127774
H	-2.7443911364	-1.3039046028	 0.9513638036	 0.096894
H	-2.9914497004	 1.2243003332	-0.3017434716	 0.11279
H	-2.5592899153	 0.9984137556	 1.3977734185	 0.116212
H	 0.480927905	 1.9541023333	-1.5211505375	 0.140361
H	-1.1911552857	 2.7058467916	-1.4878260332	 0.118503
H	 0.7803511231	 2.4626376338	 0.9173536336	 0.14318
H	-0.8850190863	 3.2326720915	 0.9718599305	 0.118362
59.5588	114.6712	238.0437	246.0138	259.492	309.2469	357.8302	423.504	484.413	574.6213	693.679	731.5308	750.8825	790.789	836.4323	854.4034	913.788	944.9114	965.5052	983.6627	1005.4412	1059.7107	1066.4996	1091.2839	1113.1523	1134.3807	1142.8179	1201.8959	1221.1993	1286.4013	1311.111	1342.7142	1380.9975	1397.4455	1411.6569	1455.4651	1486.6049	1491.0341	1496.0353	1500.7408	1864.7944	3038.8806	3047.3483	3071.1243	3098.7152	3112.6952	3125.1585	3133.8406	3135.8978	3220.982	3234.9206
CC1CC2(CC2)C(=O)O1	C[C@@H]1CC2(CC2)C(=O)O1	
InChI=1S/C7H10O2/c1-5-4-7(2-3-7)6(8)9-5/h5H,2-4H2,1H3	InChI=1S/C7H10O2/c1-5-4-7(2-3-7)6(8)9-5/h5H,2-4H2,1H3/t5-/m1/s1
