19
gdb 770	2.317896	1.8871941	1.2832441	3.0438	74.33	-0.26213	-0.00841	0.25371999999999995	1027.0487	0.158754	-422.57615	-422.568346	-422.567402	-422.608326	30.377	
O	 2.4114188225	 0.318165119	 0.4847129468	-0.316081
C	 2.0924548103	 0.1448082741	-0.6579093008	 0.394111
O	 3.006568597	-0.135203219	-1.6510507639	-0.253696
C	 3.5363109155	-1.4710554034	-1.5418904976	-0.088661
C	 2.4908974798	-2.5420796486	-1.8766263055	-0.19377
C	 1.2194971158	-2.502040339	-0.9952985008	-0.238818
C	 0.2574150245	-1.3810344294	-1.373199354	 0.004918
C	-0.3907452201	-0.4881804523	-0.3365432767	-0.316368
C	 0.7031448638	 0.0607875169	-1.2015773834	-0.113971
H	 4.3693526371	-1.5110283799	-2.2471986508	 0.116609
H	 3.9320419513	-1.6153661649	-0.5285630089	 0.120181
H	 2.2087913511	-2.4534178622	-2.932738824	 0.106563
H	 2.9828240723	-3.5160320047	-1.7610164902	 0.101817
H	 0.6946907556	-3.4604691331	-1.074426568	 0.101136
H	 1.5124032959	-2.4042843711	 0.0570640162	 0.118743
H	-0.3230318547	-1.5776034598	-2.2705196813	 0.092227
H	-1.4042853605	-0.1451199406	-0.5118456858	 0.116526
H	-0.1463222949	-0.6616729707	 0.7061188343	 0.134397
H	 0.4796658778	 0.7483019088	-2.0099025357	 0.114136
92.8106	170.3525	211.5211	292.7859	312.6064	360.0144	409.262	517.3735	519.5717	616.5185	738.3413	755.3096	824.6369	834.1782	855.732	887.5098	896.0271	960.8239	978.4714	1012.065	1055.5038	1062.5213	1082.3484	1095.1404	1126.3977	1139.4214	1173.6483	1209.9313	1242.3265	1248.2084	1300.3069	1352.1615	1374.6092	1380.8037	1405.7031	1415.119	1472.674	1485.9798	1491.0145	1500.1909	1837.4255	3026.5129	3030.9114	3033.552	3068.5049	3074.0402	3109.6415	3136.2735	3143.5136	3172.9774	3223.9458
O=C1OCCCC2CC12	O=C1OCCC[C@H]2C[C@@H]12	
InChI=1S/C7H10O2/c8-7-6-4-5(6)2-1-3-9-7/h5-6H,1-4H2	InChI=1S/C7H10O2/c8-7-6-4-5(6)2-1-3-9-7/h5-6H,1-4H2/t5-,6+/m0/s1
