19
gdb 1708	2.2631062	1.5065006	1.376986	3.8729	74.14	-0.26896	0.01076	0.27971999999999997	1074.0449	0.156523	-422.572692	-422.563852	-422.562907	-422.606337	32.559	
C	-1.0180799055	 1.9054763244	-1.2944435542	-0.451304
C	-1.0548033912	 1.0400137598	-0.0322240561	 0.087069
C	-2.0607464622	-0.1393334025	-0.0610946472	-0.115721
O	-0.9536217076	-1.1001124313	-0.0915343397	-0.247959
C	-0.0207478961	-0.0998511911	-0.0522667958	 0.445053
O	 1.1649783305	-0.2096723809	-0.0434817414	-0.34047
C	-1.056110376	 1.8824626947	 1.2275776072	-0.042542
C	 0.2349386263	 2.3662453196	 1.8398258108	-0.271161
C	-0.6042890907	 1.340406891	 2.5613419045	-0.293083
H	-1.0335301082	 1.2963639286	-2.203462551	 0.126238
H	-1.8807752895	 2.5796926016	-1.319793336	 0.122173
H	-0.1101997304	 2.5144476029	-1.3066596987	 0.143627
H	-2.6602996075	-0.27684155	 0.8405265499	 0.125767
H	-2.6751610481	-0.2347229106	-0.958958388	 0.120468
H	-1.8881300534	 2.5827219491	 1.2600595896	 0.087595
H	 1.1591680607	 2.0186198528	 1.3923878289	 0.145923
H	 0.2680955221	 3.3771754249	 2.2298215183	 0.112488
H	-0.2233684865	 0.3256015095	 2.607369112	 0.132537
H	-1.1541821167	 1.6464885976	 3.444194297	 0.113303
73.6567	122.2952	143.5004	213.361	218.4933	244.6192	328.3243	379.9087	446.9101	532.5605	661.4806	742.1548	775.8012	792.4847	834.5472	862.0134	890.859	933.1125	958.8227	965.0197	989.1508	1060.6886	1077.7696	1092.3234	1116.6583	1140.9697	1157.641	1182.9927	1198.1943	1208.1613	1229.9456	1277.3576	1352.9128	1392.8179	1414.51	1469.74	1492.0545	1494.4369	1504.8	1514.5946	1920.0351	3035.9757	3070.349	3104.5483	3121.2835	3124.7192	3134.6232	3135.3026	3141.1182	3215.3172	3232.709
CC1(COC1=O)C1CC1	C[C@]1(COC1=O)C1CC1	
InChI=1S/C7H10O2/c1-7(5-2-3-5)4-9-6(7)8/h5H,2-4H2,1H3	InChI=1S/C7H10O2/c1-7(5-2-3-5)4-9-6(7)8/h5H,2-4H2,1H3/t7-/m0/s1
