19
gdb 3788	4.6546665	0.7183544	0.6584986	4.5234	80.	-0.24923	-0.01901	0.23022	1699.3524	0.154478	-422.535504	-422.526069	-422.525125	-422.570556	33.619	
C	 3.4188038126	 1.3165611141	-3.3540708617	-0.418905
C	 2.9477713154	 1.1080838657	-1.9385810235	 0.068875
O	 2.6406075743	-0.2372765456	-1.5500879673	-0.259118
C	 1.5708793847	 0.7109357053	-1.6084218235	 0.058726
C	 0.9215851032	 1.0709958841	-0.3157387644	-0.042202
C	-0.3537234817	 1.8469411372	-0.2965789414	-0.306475
C	-0.3816052799	 0.3714535052	 0.0714252598	-0.104645
C	-0.5749499672	 0.0062840558	 1.491681831	 0.169236
O	-1.1633851503	-0.9699526392	 1.8825943441	-0.264594
H	 2.8031838336	 0.7473461183	-4.0557324204	 0.128552
H	 3.3707458008	 2.3770149224	-3.6238045618	 0.123929
H	 4.4571096726	 0.9875002604	-3.4656015112	 0.133581
H	 3.4973542545	 1.6643767187	-1.1761732007	 0.0893
H	 0.8788537366	 0.5518907903	-2.4389979667	 0.089093
H	 1.6175441382	 1.249438263	 0.4994852156	 0.102195
H	-0.5021608615	 2.5695080372	 0.498920413	 0.128278
H	-0.8139130616	 2.1170035724	-1.2406704298	 0.130164
H	-0.8109194306	-0.323061266	-0.6424632222	 0.112095
H	-0.1177289338	 0.7319957607	 2.2082817312	 0.061914
52.0103	83.8056	135.8218	163.8267	201.4977	251.3765	285.4741	345.1525	387.7046	441.4875	491.5561	541.0797	781.7547	834.029	858.0497	862.6968	888.2304	951.7187	977.8232	1029.4593	1043.326	1055.1386	1077.0697	1091.5387	1119.8266	1162.5498	1169.5704	1178.4379	1207.7142	1220.0969	1273.9197	1289.8707	1348.8114	1402.4578	1417.5424	1443.6168	1475.0975	1484.3036	1493.5208	1519.3378	1825.4933	2831.7522	3037.1291	3078.9945	3086.8298	3103.0214	3123.6723	3135.05	3149.651	3180.7135	3222.0712
CC1OC1C1CC1C=O	C[C@@H]1O[C@H]1[C@H]1C[C@@H]1C=O	
InChI=1S/C7H10O2/c1-4-7(9-4)6-2-5(6)3-8/h3-7H,2H2,1H3	InChI=1S/C7H10O2/c1-4-7(9-4)6-2-5(6)3-8/h3-7H,2H2,1H3/t4-,5+,6-,7+/m0/s1
