19
gdb 5996	4.3611263	0.7538701	0.6749827	2.4257	78.66	-0.24035	-0.01627	0.22408	1632.9051	0.15571	-422.589095	-422.579693	-422.578748	-422.624491	33.511	
O	-0.4310831014	 0.0067225497	 2.310115085	-0.41629
C	-0.1250330857	 1.2226937591	 1.6480521389	-0.06731
C	-0.3219118652	 0.9856628502	 0.1480799339	-0.291163
C	-0.0123160381	 2.1857799813	-0.6947768888	 0.316781
C	-0.8836076914	 2.8747605438	-1.4408567787	-0.182001
C	-0.2602837617	 4.0198566814	-2.187985147	-0.366203
C	 1.2219284948	 3.9336519808	-1.7879734659	 0.396603
O	 2.1013178695	 4.6593268715	-2.1690015705	-0.301574
C	 1.3830422386	 2.7562735375	-0.813011326	-0.421958
H	-0.3177720146	 0.1405256997	 3.2555480341	 0.287782
H	-0.7841889652	 2.0408835021	 1.9786621449	 0.091284
H	 0.9120305524	 1.5348914458	 1.8487846814	 0.088381
H	 0.3218770291	 0.1434249819	-0.1396486302	 0.113816
H	-1.3566533373	 0.6672138749	-0.016105033	 0.112553
H	-1.93883884	 2.6344561852	-1.5163332733	 0.095436
H	-0.3592764011	 3.9480547022	-3.2791390583	 0.136556
H	-0.6625623799	 5.0040069055	-1.9128707861	 0.136179
H	 2.1142886304	 2.037430796	-1.2067069098	 0.135992
H	 1.8004437669	 3.1187863614	 0.1353997694	 0.135136
58.6267	61.7456	82.8774	134.3526	261.1136	275.2915	313.582	343.4308	453.1888	486.2668	495.0876	603.5625	705.8508	784.9031	798.4303	809.4864	853.8134	890.7839	985.9844	998.5222	1014.7864	1068.2936	1079.589	1125.957	1127.8101	1178.8432	1186.4787	1224.2879	1238.8625	1274.2173	1286.4491	1308.7025	1341.9134	1359.0939	1440.2186	1446.4729	1456.7327	1482.4213	1528.0641	1709.6127	1854.3071	2969.3423	2996.5306	3020.002	3022.287	3024.928	3048.5022	3050.3655	3080.5382	3187.2948	3831.857
OCCC1=CCC(=O)C1	OCCC1=CCC(=O)C1	
InChI=1S/C7H10O2/c8-4-3-6-1-2-7(9)5-6/h1,8H,2-5H2	InChI=1S/C7H10O2/c8-4-3-6-1-2-7(9)5-6/h1,8H,2-5H2
