19
gdb 3779	4.2027039	0.8943824	0.7924434	2.9096	79.03	-0.22312	0.01931	0.24243	1444.2071	0.156522	-422.537169	-422.528295	-422.527351	-422.571631	32.253	
O	 0.3069856412	-3.0941703071	 2.029226883	-0.421881
C	 0.1386086937	-1.7087411396	 2.0093284264	 0.108767
C	-1.1983746133	-1.1098004521	 2.3519525478	-0.333691
C	-0.7382779648	-1.1632811397	 0.9078598427	-0.141135
C	-0.3414981468	 0.041116319	 0.1534503071	 0.307995
C	-0.4572470458	 1.3304215819	 0.4669000921	-0.228987
C	 0.1227475979	 2.1848979529	-0.6227422661	-0.100172
O	 0.580458027	 1.2691336462	-1.6149403077	-0.266053
C	 0.3307329067	-0.0662972814	-1.1955623632	-0.148984
H	 0.3587359464	-3.3749557574	 2.9491871325	 0.28897
H	 1.0252583553	-1.1254206086	 2.2574367026	 0.093011
H	-1.9884989372	-1.7964996899	 2.6345823134	 0.117064
H	-1.2208853292	-0.1507809118	 2.857465096	 0.115324
H	-1.1944757786	-1.9509305166	 0.3128695385	 0.102617
H	-0.9084575172	 1.7420342569	 1.3607837651	 0.095781
H	-0.6209880428	 2.8699930665	-1.0611786643	 0.102709
H	 0.9629432115	 2.8070135405	-0.2728529857	 0.101098
H	-0.3078085235	-0.5806231569	-1.9326044192	 0.101196
H	 1.2757600896	-0.6305373628	-1.1413204711	 0.106372
46.6037	97.4856	122.4244	155.4962	274.8152	309.635	336.9924	370.1323	442.6675	508.3832	649.069	773.5105	813.6449	816.8144	879.7184	916.0134	926.3952	938.079	985.6039	992.8124	1025.3863	1057.8201	1063.1707	1094.6467	1108.4095	1116.6589	1164.4982	1173.7014	1205.0595	1222.4551	1224.9687	1279.7387	1294.0099	1349.2803	1382.8832	1395.6093	1432.8287	1487.6266	1517.4811	1530.3981	1726.6576	2961.458	2969.1303	2977.9087	2983.055	3104.3672	3136.2403	3139.7547	3214.6224	3226.6547	3800.5603
OC1CC1C1=CCOC1	O[C@@H]1C[C@H]1C1=CCOC1	
InChI=1S/C7H10O2/c8-7-3-6(7)5-1-2-9-4-5/h1,6-8H,2-4H2	InChI=1S/C7H10O2/c8-7-3-6(7)5-1-2-9-4-5/h1,6-8H,2-4H2/t6-,7+/m0/s1
