19
gdb 439	3.3033454	1.3647908	1.1852516	1.4685	74.91	-0.24332	0.05865	0.30197	1099.0691	0.157297	-422.496087	-422.48817	-422.487226	-422.52879	30.211	
C	 0.6102058321	-1.0655415921	-0.679481227	-0.264635
C	-0.8227458501	-0.9189360305	-1.1169152135	-0.271119
C	-0.266595634	-0.00019367	-0.0580444248	-0.102427
C	-0.6888684493	-0.1397796522	 1.3644134848	 0.396851
C	 0.0139897005	 0.6617051672	 2.4795400282	-0.12341
O	-1.2577088549	 0.9942378898	 3.0940031296	-0.293836
C	-1.9977472594	 0.3226501556	 2.062296357	 0.007531
C	-2.2200493861	-1.1648278373	 2.3533313259	-0.103042
O	-0.9361069097	-1.5090034696	 1.7663211463	-0.33156
H	 0.8525077293	-1.9249523618	-0.0656758668	 0.134249
H	 1.3980878326	-0.744726154	-1.3512753832	 0.112139
H	-1.02860355	-0.4990803374	-2.0949852652	 0.110352
H	-1.5146804697	-1.6871734373	-0.7920345604	 0.123281
H	-0.0675062908	 1.0256367689	-0.35476401	 0.088
H	 0.6627897689	 0.070912114	 3.1345961823	 0.112396
H	 0.5394252848	 1.5651601028	 2.1437998235	 0.099329
H	-2.8035316487	 0.9274109292	 1.6425627317	 0.087483
H	-2.2819640162	-1.4275969342	 3.4142037433	 0.114717
H	-3.0443711694	-1.6300968812	 1.7983005583	 0.103701
73.8019	132.2002	168.4413	231.6298	331.9478	360.8984	419.8778	467.4045	632.0313	714.1055	791.0285	822.0877	834.9326	874.17	905.6661	917.5186	936.4431	990.6553	996.0634	1022.8557	1046.4668	1067.1333	1072.8444	1087.5884	1107.3095	1126.2317	1132.4328	1149.5523	1168.4755	1193.8561	1203.6293	1221.2709	1273.2335	1305.6683	1340.2449	1358.6593	1433.4418	1456.9929	1500.6148	1503.1839	1504.0495	3013.7232	3019.3142	3079.5233	3084.7606	3098.6012	3139.6847	3143.1773	3150.0594	3224.2338	3238.4805
C1CC1C12COC1CO2	C1CC1[C@@]12CO[C@@H]1CO2	
InChI=1S/C7H10O2/c1-2-5(1)7-4-8-6(7)3-9-7/h5-6H,1-4H2	InChI=1S/C7H10O2/c1-2-5(1)7-4-8-6(7)3-9-7/h5-6H,1-4H2/t6-,7+/m1/s1
