19
gdb 5354	2.8367924	1.3594399	1.0828087	1.8234	76.48	-0.24412	-0.00985	0.23427	1153.1478	0.156852	-422.545382	-422.536701	-422.535757	-422.57874	32.616	
C	 2.8472899288	 0.3313395597	-0.4296556076	-0.397489
C	 2.3194177725	-0.6285498548	 0.6491065893	-0.113546
C	 3.2281855071	-0.6947765952	 1.8782099321	 0.032303
O	 3.3683911811	 0.5504517619	 2.5669915517	-0.260394
C	 2.4180148879	-0.4198933784	 3.0746831613	 0.002537
C	 1.0269564151	-0.1799463694	 2.5943693753	-0.19966
C	 0.9659754299	-0.255847072	 1.2580924663	 0.268306
C	-0.2593446935	 0.0043768809	 0.4315583637	-0.165646
O	-0.1715446862	 1.2020903939	-0.3396202875	-0.405499
H	 3.7862093661	-0.045442876	-0.8483304915	 0.108534
H	 2.1268014052	 0.4561130315	-1.2394432028	 0.13708
H	 3.039919351	 1.3132422738	 0.0111557484	 0.1287
H	 2.2405708424	-1.6355859488	 0.2125271944	 0.083032
H	 4.1110265703	-1.3294242488	 1.8806431612	 0.093546
H	 2.6385434908	-0.8039152858	 4.0657140716	 0.097284
H	 0.1929934388	 0.0426378916	 3.2504404744	 0.099205
H	-0.4061961784	-0.7959643753	-0.3034170551	 0.111708
H	-1.1451833976	 0.018101541	 1.0844885026	 0.09521
H	 0.0509484488	 1.9152690803	 0.2686332722	 0.284788
69.4867	132.4179	184.855	225.4151	241.2759	311.7045	341.1317	386.9513	458.3029	484.2951	632.385	685.627	724.6132	790.3385	828.953	854.2979	870.0942	913.7301	957.8049	993.1633	1017.933	1028.787	1053.2741	1097.5381	1112.2036	1119.3916	1184.859	1202.5874	1253.7443	1289.8313	1305.455	1322.2908	1349.8205	1369.3763	1400.7249	1417.8381	1423.825	1489.0733	1501.3884	1507.6482	1685.6592	2988.5786	2995.4838	3043.5373	3055.7548	3113.1618	3140.5462	3141.9411	3166.7281	3196.2752	3808.2302
CC1C2OC2C=C1CO	C[C@H]1[C@H]2O[C@H]2C=C1CO	
InChI=1S/C7H10O2/c1-4-5(3-8)2-6-7(4)9-6/h2,4,6-8H,3H2,1H3	InChI=1S/C7H10O2/c1-4-5(3-8)2-6-7(4)9-6/h2,4,6-8H,3H2,1H3/t4-,6+,7-/m1/s1
