19
gdb 4176	3.1354382	1.5787196	1.3728109	1.8115	74.64	-0.24327	0.01259	0.25586	994.0781	0.16007	-422.582489	-422.575279	-422.574335	-422.613773	29.514	
O	 0.4933592964	 0.7056594797	 0.5870469501	-0.445205
C	-0.638609365	-0.0247455699	 1.021175603	 0.165422
C	-1.8050453642	 0.0106509479	-0.0083416997	-0.281186
C	-2.7847377974	 1.0576838899	 0.590636434	 0.084321
C	-3.9939895347	 0.4096554761	 1.2817480583	-0.258962
C	-3.5353944152	-0.3536866848	 2.5001267011	-0.063651
C	-2.2829261348	-0.2487410668	 2.9427288699	-0.064301
C	-1.3079495056	 0.6598136109	 2.233943064	-0.014879
O	-2.0037813621	 1.7370566758	 1.5906847612	-0.278481
H	 0.2092096391	 1.6258380467	 0.5182789435	 0.281733
H	-0.2885749648	-1.0375616577	 1.2315076541	 0.086857
H	-1.4110386271	 0.3194874671	-0.9786601155	 0.111286
H	-2.276120955	-0.9674345548	-0.1298832541	 0.107329
H	-3.1024573799	 1.8097114752	-0.1348874617	 0.078912
H	-4.7260284668	 1.1769695098	 1.5672066943	 0.114369
H	-4.5089337265	-0.2599032072	 0.5798637704	 0.10566
H	-4.2574588452	-0.988075955	 3.0073347515	 0.092469
H	-1.9273480858	-0.8131294165	 3.7995027129	 0.09316
H	-0.5710647853	 1.0930803036	 2.9140075627	 0.085148
118.4076	229.1741	295.5563	334.1662	420.6211	457.5866	471.8908	490.7091	573.4986	685.5898	706.4515	788.9689	821.5426	846.6304	867.5525	902.0342	925.9541	951.3768	980.7153	992.5807	1024.7625	1031.1732	1050.8802	1061.9003	1083.511	1163.047	1183.6933	1208.5704	1222.5337	1250.2383	1294.0749	1303.9008	1324.2731	1339.489	1361.0851	1386.6225	1410.3467	1433.3067	1466.728	1487.2229	1710.2594	3014.753	3044.0869	3071.977	3085.3547	3092.1394	3099.2198	3123.9074	3155.2738	3181.1103	3777.3204
OC1CC2CC=CC1O2	O[C@@H]1C[C@H]2CC=C[C@@H]1O2	
InChI=1S/C7H10O2/c8-6-4-5-2-1-3-7(6)9-5/h1,3,5-8H,2,4H2	InChI=1S/C7H10O2/c8-6-4-5-2-1-3-7(6)9-5/h1,3,5-8H,2,4H2/t5-,6-,7+/m1/s1
