19
gdb 3085	3.0316138	1.5484112	1.4041687	1.4636	73.01	-0.2505	0.07653	0.32703	996.0786	0.159553	-422.533945	-422.526804	-422.525859	-422.564996	29.562	
O	 0.1194354002	 0.0722569528	 0.4081189407	-0.457846
C	-0.992684552	 0.8641438639	 0.0703371086	 0.164283
C	-1.2419886622	 2.035366538	 1.0428336033	 0.048136
C	-2.2024610335	 3.1000903091	 0.4941898626	-0.250887
C	-3.5045714957	 2.4669614751	-0.0010589508	-0.016172
C	-3.5787321551	 1.6291400333	-1.2539170073	-0.306667
C	-3.5781562723	 0.9571635179	 0.1006479452	-0.026015
C	-2.318867634	 0.3532094687	 0.6854000923	 0.018189
O	-1.9777168695	 1.1090673143	 1.905619078	-0.323413
H	 0.0622185188	-0.0916117957	 1.3579944013	 0.287155
H	-0.9212730408	 1.0562937686	-1.0001781177	 0.083894
H	-0.36993448	 2.4652545439	 1.5446383684	 0.075409
H	-2.4346537836	 3.7945459626	 1.3084040827	 0.112811
H	-1.7016544912	 3.6838027161	-0.2889969766	 0.10306
H	-4.4037001675	 3.0196379435	 0.2484694666	 0.090394
H	-4.5163386522	 1.6361181891	-1.7995264182	 0.11206
H	-2.7077057884	 1.5460867371	-1.8929037174	 0.118458
H	-4.5060651441	 0.507363284	 0.4383578729	 0.089362
H	-2.388437177	-0.7206560122	 0.8771654553	 0.077788
188.7728	232.9314	281.2475	319.3779	394.4415	450.2561	468.556	483.9017	554.0281	700.4098	759.3289	822.4706	836.349	867.1615	873.3282	899.8599	929.5881	951.4794	960.8949	999.1546	1026.82	1040.7976	1069.1925	1090.2808	1113.6029	1125.4959	1137.0229	1188.7571	1214.7097	1230.5153	1244.4333	1266.5805	1283.9819	1329.3654	1344.0809	1359.5352	1376.7344	1406.5448	1451.9855	1475.9643	1498.8149	3026.0984	3068.4144	3075.2466	3080.8839	3113.5158	3139.7445	3155.4393	3165.3447	3221.6992	3778.4161
OC1C2CC3CC3C1O2	O[C@@H]1[C@H]2C[C@H]3C[C@H]3[C@@H]1O2	
InChI=1S/C7H10O2/c8-6-5-2-3-1-4(3)7(6)9-5/h3-8H,1-2H2	InChI=1S/C7H10O2/c8-6-5-2-3-1-4(3)7(6)9-5/h3-8H,1-2H2/t3-,4-,5-,6-,7+/m1/s1
