19
gdb 1541	2.9906222	1.73846	1.5463518	1.987	73.15	-0.21581	0.07267	0.28848	948.3804	0.156447	-422.519041	-422.511296	-422.510352	-422.550598	31.136	
C	 2.1614882892	 1.3418062635	 0.0696312305	-0.429324
C	 1.3050923882	 0.0810712838	 0.028247996	 0.385047
C	-0.1919634135	 0.3917786343	 0.1110389732	-0.431496
O	 1.6824115936	-0.7515000629	 1.1623141264	-0.302267
C	 1.7653788681	-2.0783667066	 0.7152873301	 0.06635
C	 2.7259891376	-2.3798144333	-0.4244534932	 0.052341
O	 3.0574644402	-1.1632138874	-1.0923324397	-0.295496
C	 1.6321356718	-0.835905291	-1.1595805741	 0.031979
C	 1.243485911	-2.2539688786	-0.6825404951	-0.207017
H	 2.0048339408	 1.8686109044	 1.0150565755	 0.121609
H	 3.2159428542	 1.0776795145	-0.0192319257	 0.142899
H	 1.8917960152	 2.019267677	-0.7472501942	 0.107653
H	-0.40773449	 0.9148739364	 1.04670292	 0.128126
H	-0.5105629613	 1.0287847202	-0.7207440963	 0.112945
H	-0.785604516	-0.5269770226	 0.0921044722	 0.120041
H	 1.5921829779	-2.8204975695	 1.485732614	 0.105791
H	 3.4217738766	-3.2085091938	-0.4881624622	 0.105681
H	 1.3366502585	-0.4792344531	-2.1468768982	 0.0842
H	 0.4793013979	-2.9215900254	-1.0550012994	 0.100937
160.4959	205.4793	234.1866	241.6792	328.3608	361.6357	402.7779	506.0558	557.3956	606.0561	738.1295	753.9995	795.9247	808.8084	829.7165	877.1133	895.5902	932.1865	948.9184	952.2084	1010.8701	1016.8044	1026.4274	1042.1694	1074.0342	1102.9748	1125.8452	1170.364	1205.5036	1219.8083	1233.1647	1256.6607	1307.1471	1333.8443	1391.908	1396.881	1411.7797	1477.2306	1484.1467	1495.98	1508.2698	3036.9214	3046.2588	3107.297	3111.2676	3114.526	3119.0877	3149.1478	3178.9003	3189.3795	3208.2595
CC1(C)OC2C3OC1C23	CC1(C)O[C@@H]2[C@@H]3O[C@H]1[C@H]23	
InChI=1S/C7H10O2/c1-7(2)6-3-4(8-6)5(3)9-7/h3-6H,1-2H3	InChI=1S/C7H10O2/c1-7(2)6-3-4(8-6)5(3)9-7/h3-6H,1-2H3/t3-,4+,5-,6-/m0/s1
