19
gdb 1617	3.5765223	0.9156269	0.7934561	4.1546	77.26	-0.24539	-0.02757	0.21781999999999999	1453.3694	0.153594	-422.572721	-422.562824	-422.56188	-422.609049	34.882	
C	-2.2900908799	 0.2379975539	-0.1315705053	-0.485545
C	-1.4102458545	 1.4512423632	-0.3620712476	 0.23731
C	-2.0518484955	 2.7130922105	-0.9384646473	-0.273875
C	-1.6503222207	 2.6930313532	 0.495322753	-0.272559
C	 0.02202942	 1.2579125105	-0.7643004844	 0.318809
O	 0.7623873902	 2.2005050888	-0.9655538893	-0.326378
C	 0.5397096113	-0.1716208883	-0.9117951194	-0.413262
C	 1.9993721877	-0.220870802	-1.3226066067	 0.177135
O	 2.8182320009	-0.9177798577	-0.7826786196	-0.242278
H	-3.2971938731	 0.5525738833	 0.1563478435	 0.121941
H	-2.3886265072	-0.3768278498	-1.0329829524	 0.122353
H	-1.907698209	-0.4013678812	 0.6712562536	 0.127043
H	-1.4388363191	 3.2907627069	-1.6198579416	 0.139393
H	-3.1044685653	 2.6462503768	-1.1904546553	 0.11778
H	-0.7688001466	 3.2575958803	 0.7748129089	 0.140902
H	-2.419452257	 2.6125613445	 1.255535017	 0.1184
H	 0.4037223195	-0.7380109019	 0.0151808096	 0.148702
H	-0.0566538229	-0.6853796132	-1.6806664948	 0.145051
H	 2.2613895013	 0.4279773222	-2.1821690619	 0.099077
35.6535	44.0971	69.6135	179.4207	225.2787	279.006	291.1912	307.5653	349.7325	393.6443	473.1304	560.2707	596.0603	723.5124	793.7029	803.8717	827.5253	874.2397	948.0656	960.7691	1015.1962	1041.3103	1063.7327	1077.7125	1091.2613	1092.356	1118.47	1197.5378	1206.8691	1281.4622	1315.4388	1351.9624	1419.4034	1423.8133	1428.1698	1451.5114	1482.7184	1496.4056	1501.2368	1766.9086	1837.6748	2934.7884	3016.0093	3031.3617	3087.6831	3093.2323	3107.4045	3138.7833	3140.5369	3229.0841	3242.3709
CC1(CC1)C(=O)CC=O	CC1(CC1)C(=O)CC=O	
InChI=1S/C7H10O2/c1-7(3-4-7)6(9)2-5-8/h5H,2-4H2,1H3	InChI=1S/C7H10O2/c1-7(3-4-7)6(9)2-5-8/h5H,2-4H2,1H3
