19
gdb 4273	2.6710102	1.7218967	1.6952234	2.1572	74.27	-0.23815	0.00514	0.24329	939.9406	0.159235	-422.569216	-422.561897	-422.560953	-422.60051	29.569	
C	-0.0139941232	 0.1460873283	-0.1019892827	-0.410295
C	 1.4988913032	 0.1274561852	-0.2711931554	 0.168379
O	 1.9543227656	-1.2369606571	-0.2842157203	-0.287892
C	 2.7834487902	-1.5011215801	-1.4076988107	 0.164791
O	 3.9334738201	-0.6649309741	-1.3664785641	-0.267636
C	 3.5698471887	 0.7138000811	-1.4750031463	-0.067207
C	 2.0303923559	 0.8312682871	-1.551721981	-0.131493
C	 1.5931366477	 0.0300837272	-2.7521013637	-0.1004
C	 2.0087295232	-1.2345432504	-2.6788016635	-0.068112
H	-0.2921832755	-0.4317513921	 0.7838119468	 0.127346
H	-0.378612908	 1.1708858763	 0.0268164192	 0.107021
H	-0.5075341669	-0.3002301866	-0.9692624799	 0.12428
H	 1.9680767615	 0.6196945149	 0.593882004	 0.077168
H	 3.1405693787	-2.5243925308	-1.2969854189	 0.087902
H	 3.9464917369	 1.2399019542	-0.5878405034	 0.101749
H	 4.044055046	 1.144817692	-2.3659203624	 0.097521
H	 1.7201825603	 1.877740855	-1.5752147891	 0.074333
H	 1.0179614247	 0.455768722	-3.5660795175	 0.098281
H	 1.8339552309	-2.0104615923	-3.4140747911	 0.104268
132.4283	235.4696	260.6431	289.3746	381.6904	413.075	469.572	494.5056	630.2325	681.1611	699.3909	724.2853	792.0552	843.7424	875.7345	927.0312	955.9222	958.0973	961.2087	991.337	1016.7597	1052.6063	1063.0578	1096.007	1134.9346	1145.0081	1166.4017	1223.1481	1267.2725	1296.7248	1329.5913	1342.8922	1372.1123	1384.1607	1390.0742	1405.2522	1410.4336	1484.7034	1498.4267	1519.3578	1678.8214	2985.5973	3006.9503	3039.3751	3046.4112	3095.3025	3111.7529	3125.1909	3128.2479	3185.9652	3212.4083
CC1OC2OCC1C=C2	C[C@H]1O[C@@H]2OC[C@H]1C=C2	
InChI=1S/C7H10O2/c1-5-6-2-3-7(9-5)8-4-6/h2-3,5-7H,4H2,1H3	InChI=1S/C7H10O2/c1-5-6-2-3-7(9-5)8-4-6/h2-3,5-7H,4H2,1H3/t5-,6-,7+/m1/s1
