19
gdb 582	2.835481	1.5770176	1.0861923	2.0759	76.17	-0.24633	-0.00313	0.2432	1102.0373	0.159003	-422.519758	-422.512254	-422.511309	-422.55153	29.524	
C	-0.3697519482	 1.2400469166	 0.0314615161	-0.138006
O	 0.0929397269	-0.1271753705	 0.2098451712	-0.303672
C	 1.2657599959	 0.1867706382	-0.5740777905	 0.177178
C	 2.6254028915	-0.3763445113	-0.2126552203	-0.148969
O	 3.5622134941	 0.1459546644	-1.1467701775	-0.244071
C	 3.8545243372	 1.5420547346	-1.0550721821	-0.123033
C	 2.865675062	 2.5125480677	-1.6969051143	-0.066997
C	 1.5846773051	 2.6150187013	-1.3335760391	-0.110477
C	 1.0724436275	 1.680191734	-0.2872453921	-0.044056
H	-1.061414318	 1.3175906898	-0.8198149859	 0.101361
H	-0.8466191086	 1.63502546	 0.9327102371	 0.110112
H	 1.0805864519	-0.0345736977	-1.6360737608	 0.078887
H	 2.89771999	-0.1105989186	 0.821357774	 0.090998
H	 2.6686840994	-1.4652690916	-0.3125160676	 0.115091
H	 3.9938361628	 1.8145007636	 0.0056347628	 0.100942
H	 4.8262283986	 1.6505975342	-1.5442652788	 0.113148
H	 3.2683907123	 3.1706866848	-2.4620626687	 0.095759
H	 0.9239589951	 3.3395444591	-1.8015636208	 0.096973
H	 1.5620883843	 1.9003094012	 0.6714541373	 0.098833
132.0913	183.9451	247.3727	306.189	346.2506	360.9685	455.4179	461.7266	515.6689	652.2299	701.5123	748.7851	852.3911	875.7292	945.3018	955.8059	970.1348	981.0428	1002.5536	1019.0645	1075.7536	1106.685	1128.522	1148.2013	1163.0475	1184.278	1209.6451	1225.5515	1260.9185	1289.5083	1314.2917	1320.0383	1345.2405	1384.5261	1400.3526	1414.3618	1426.4375	1479.5673	1499.9355	1520.9014	1690.0043	2952.8831	2979.1196	2991.7014	3000.6809	3012.1992	3083.1064	3086.6325	3088.2621	3154.6596	3177.276
C1OC2COCC=CC12	C1O[C@@H]2COCC=C[C@@H]12	
InChI=1S/C7H10O2/c1-2-6-4-9-7(6)5-8-3-1/h1-2,6-7H,3-5H2	InChI=1S/C7H10O2/c1-2-6-4-9-7(6)5-8-3-1/h1-2,6-7H,3-5H2/t6-,7+/m0/s1
