19
gdb 2711	2.1710968	1.9782028	1.2402507	2.9069	75.06	-0.22513	0.0705	0.29563	1053.6082	0.154409	-422.478925	-422.470072	-422.469128	-422.511708	33.78	
C	 0.8762246569	-1.6718424382	 3.0302595244	-0.415987
C	 2.1241727051	-1.2792643255	 2.253209941	-0.145841
C	 1.97867993	-0.782037238	 0.7912262208	 0.31522
C	 1.2943923271	 0.4367730172	 0.2473565435	-0.526642
C	 1.8755438623	-2.2432270738	 0.2214381774	-0.014943
O	 2.9127758771	-2.0410206969	-0.7819239443	-0.330176
C	 3.3930864848	-1.3111174594	 0.383899049	-0.04714
C	 2.8561967044	-2.3633704349	 1.4229785963	 0.363346
O	 3.4168889934	-3.5486531527	 1.8381959989	-0.463263
H	 1.1342264512	-2.2645397492	 3.9143709501	 0.120039
H	 0.3262071326	-0.7890791548	 3.373555881	 0.117245
H	 0.1946883325	-2.2733173018	 2.4190439052	 0.117784
H	 2.7919547587	-0.6576499003	 2.8648393832	 0.059478
H	 1.743276812	 1.354886205	 0.6417951024	 0.120311
H	 1.3795985983	 0.4555496347	-0.8440708724	 0.137879
H	 0.2304283536	 0.4472427798	 0.5073290324	 0.122792
H	 1.0043245321	-2.8410324308	-0.0432101698	 0.095066
H	 4.3462682906	-0.7845636478	 0.3245317536	 0.087528
H	 4.1174648972	-3.3556804825	 2.4709445973	 0.287306
173.5336	178.6773	190.7115	208.7834	234.9402	253.0093	256.0723	323.7577	417.8485	531.3457	583.878	596.2673	722.4732	738.716	741.0197	826.0258	857.5998	905.9129	921.5345	959.1896	1015.2036	1038.1559	1061.584	1079.1634	1101.4511	1113.2417	1146.9558	1171.1495	1175.7012	1213.3913	1282.2208	1290.3183	1342.2089	1372.4235	1405.9739	1412.9718	1453.5319	1489.364	1492.0506	1493.1778	1501.5043	3014.3851	3028.4612	3030.1321	3092.6482	3094.667	3098.2405	3103.3041	3113.1848	3130.1703	3803.5683
CC1C2(C)C3OC2C13O	C[C@@H]1[C@]2(C)[C@H]3O[C@@H]2[C@@]13O	
InChI=1S/C7H10O2/c1-3-6(2)4-7(3,8)5(6)9-4/h3-5,8H,1-2H3	InChI=1S/C7H10O2/c1-3-6(2)4-7(3,8)5(6)9-4/h3-5,8H,1-2H3/t3-,4-,5+,6-,7-/m1/s1
