19
gdb 1289	3.6668344	1.2082339	1.053827	1.9222	73.77	-0.23055	0.0714	0.30195	1174.0328	0.156138	-422.489837	-422.481626	-422.480682	-422.5226	31.784	
C	 4.4204678383	-1.3579909849	-0.0972264967	-0.407236
C	 3.7400995542	-0.3024802714	-0.9694349709	 0.123771
O	 3.5651081956	-0.7722890265	-2.3071222166	-0.435912
C	 2.408045397	 0.169627978	-0.3914278808	-0.021086
C	 2.5128151413	 1.1374639877	 0.790573065	-0.129268
C	 1.2881268398	 2.060495846	 0.6341409303	 0.074302
O	 0.5218904335	 1.5974506253	-0.4756421016	-0.296199
C	 1.7963613372	 1.3818375898	-1.1475226665	 0.060171
C	 2.523232461	 2.3529016276	-0.1388762769	-0.147399
H	 4.6544130772	-0.9640519279	 0.8967818857	 0.119041
H	 3.7683740495	-2.2305404794	 0.0354121314	 0.107763
H	 5.3495396323	-1.6933640598	-0.5659286039	 0.124501
H	 4.4074638595	 0.5621461337	-1.0706612485	 0.087543
H	 3.0131596382	-1.5615781675	-2.2686705727	 0.276737
H	 1.7200219189	-0.6808035378	-0.2800398739	 0.061344
H	 3.0268981064	 1.0118793009	 1.7353826437	 0.091446
H	 0.7899884499	 2.5722682421	 1.4468148284	 0.110963
H	 1.7447654092	 1.4265040064	-2.2319734961	 0.098978
H	 3.1674714811	 3.2154629976	-0.2320350692	 0.100541
81.3451	154.767	169.4467	241.2015	292.1669	319.9316	439.7943	467.5913	513.5789	556.6336	766.422	775.7986	790.1221	811.5879	837.929	875.0908	914.1275	930.6035	960.2102	975.0253	996.4294	1025.1955	1041.5725	1062.8124	1068.6987	1086.9035	1115.1978	1156.913	1165.8182	1180.3935	1205.5444	1240.5203	1263.8623	1299.9602	1332.2609	1367.8248	1398.3934	1401.6965	1416.6	1491.4151	1494.5073	3005.0498	3025.5862	3041.5377	3096.2014	3119.3871	3164.683	3191.5875	3205.198	3220.9893	3796.1286
CC(O)C1C2C3OC1C23	C[C@@H](O)[C@H]1[C@@H]2[C@@H]3O[C@H]1[C@H]23	
InChI=1S/C7H10O2/c1-2(8)3-4-5-6(3)9-7(4)5/h2-8H,1H3	InChI=1S/C7H10O2/c1-2(8)3-4-5-6(3)9-7(4)5/h2-8H,1H3/t2-,3+,4+,5+,6-,7+/m1/s1
