19
gdb 5500	2.9652796	1.1930623	1.0332804	2.6925	77.97	-0.23354	-0.00799	0.22555	1227.2582	0.154725	-422.533952	-422.524609	-422.523665	-422.567995	33.905	
C	 1.5207216427	 0.0257986067	-0.0076724194	-0.246876
O	 0.1068564407	 0.1367071024	 0.0164757819	-0.244447
C	-0.3760899184	 0.7208885936	 1.1764746683	 0.08659
C	-1.8277601411	 0.5874826448	 1.4051835566	-0.162076
C	-2.2197541228	 1.436018048	 2.6224039392	-0.368725
C	-1.2742022652	 0.5351761966	 3.4640916402	 0.355134
O	-1.095544711	 0.4157163885	 4.6450152618	-0.318542
C	-0.8470660859	-0.2684460323	 2.2775095564	 0.178438
C	-0.4782683493	-1.7224455119	 2.2612007099	-0.507798
H	 1.8934855632	-0.6225017772	 0.7960394491	 0.120118
H	 1.7880055169	-0.4078605953	-0.9733166919	 0.134405
H	 1.9977609914	 1.0118285825	 0.0867022115	 0.11671
H	 0.1441055099	 1.6403573289	 1.4585217647	 0.090837
H	-2.4953779299	 0.2243730104	 0.6350346677	 0.113133
H	-1.9998739371	 2.5075475565	 2.5787394054	 0.118721
H	-3.2555890834	 1.2949591556	 2.9438440554	 0.135423
H	 0.4093285073	-1.901889809	 2.8774938648	 0.134293
H	-1.2873321035	-2.3397895849	 2.66463696	 0.128907
H	-0.2675010046	-2.0555359038	 1.2422494883	 0.135755
94.8738	113.2795	167.5525	170.3508	199.562	240.0193	274.0261	300.4735	417.2545	446.7667	541.5378	570.2172	642.4646	689.4711	796.979	804.0666	913.8655	950.3148	979.3685	995.8615	1037.2066	1067.8363	1094.8066	1103.4685	1134.3536	1171.5171	1184.1279	1208.0572	1218.9378	1252.0353	1289.1084	1362.6065	1407.4821	1420.8436	1460.1605	1486.3017	1487.6173	1490.3015	1495.5336	1509.2213	1868.8315	2996.4446	3036.4103	3051.3603	3053.9822	3057.9238	3094.7578	3109.4589	3124.4802	3129.3408	3210.0706
COC1C2CC(=O)C12C	CO[C@H]1[C@@H]2CC(=O)[C@]12C	
InChI=1S/C7H10O2/c1-7-4(3-5(7)8)6(7)9-2/h4,6H,3H2,1-2H3	InChI=1S/C7H10O2/c1-7-4(3-5(7)8)6(7)9-2/h4,6H,3H2,1-2H3/t4-,6-,7+/m0/s1
