19
gdb 3038	2.5299704	1.487841	1.3139071	2.7282	75.57	-0.24916	-0.03435	0.21481	1061.1494	0.156997	-422.550178	-422.541911	-422.540967	-422.583124	31.258	
C	-0.0908169587	-0.288484531	-0.1539482192	-0.438213
C	 1.4006825857	-0.0672639382	 0.0199986486	-0.017619
C	 2.192795157	-0.8604422518	 1.0969943376	 0.089549
C	 3.4665020475	-0.5636196002	 0.2734431658	-0.286218
C	 2.4584254009	-0.8074678747	-0.9047927998	 0.181355
C	 2.0964214816	-2.2725225283	-0.6419831422	-0.121788
O	 1.9036830399	-2.2334514816	 0.7932595699	-0.27877
C	 2.7288908748	-0.3549325383	-2.2966772388	 0.045314
O	 2.6228143175	-1.0535623403	-3.2755895351	-0.250066
H	-0.6476685005	 0.3054544235	 0.5784969505	 0.121701
H	-0.427819602	 0.0154699503	-1.1506688916	 0.124208
H	-0.3576900668	-1.3364741065	-0.001154826	 0.142077
H	 1.645278631	 0.9977347357	 0.0639678474	 0.081931
H	 2.1004589206	-0.6947126205	 2.1694287545	 0.083394
H	 3.8044407554	 0.4716786864	 0.3387144723	 0.108912
H	 4.3008434199	-1.2613910579	 0.3692435596	 0.112442
H	 1.1805381171	-2.5961149738	-1.1441794779	 0.115796
H	 2.90457417	-2.9642536614	-0.8993692154	 0.114224
H	 3.0395308491	 0.7120639585	-2.3843548203	 0.071771
65.984	162.1921	188.65	211.5369	278.2476	303.343	414.7868	452.2157	487.4115	586.2007	651.1141	746.0344	763.5686	793.7489	852.6267	910.888	953.6228	959.6172	991.7748	1014.6322	1034.381	1052.2764	1093.0546	1114.5406	1137.9794	1158.9242	1189.1792	1197.0457	1223.2235	1228.7177	1271.1479	1315.9929	1369.3208	1392.6156	1413.283	1425.8625	1486.8125	1492.6218	1502.7851	1534.5357	1810.5522	2863.2331	3038.7389	3050.2525	3068.9478	3077.9828	3094.378	3098.3777	3130.4037	3135.3679	3144.0703
CC1C2CC1(CO2)C=O	C[C@H]1[C@@H]2C[C@]1(CO2)C=O	
InChI=1S/C7H10O2/c1-5-6-2-7(5,3-8)4-9-6/h3,5-6H,2,4H2,1H3	InChI=1S/C7H10O2/c1-5-6-2-7(5,3-8)4-9-6/h3,5-6H,2,4H2,1H3/t5-,6-,7+/m0/s1
