19
gdb 2129	2.8418437	1.7368791	1.3617337	1.0647	73.94	-0.23855	0.06446	0.30301	981.3102	0.1586	-422.502504	-422.495317	-422.494373	-422.533419	30.183	
O	 0.3700629436	-0.1995587323	 0.3361207377	-0.478835
C	-0.6283746004	 0.7589718307	 0.199201142	 0.384001
C	-2.1382443415	 0.5069013835	 0.4011075927	-0.362342
C	-2.1433688777	 2.0756280101	 0.301407533	 0.479751
C	-1.8972128931	 2.3479380831	-1.1714110798	-0.313966
C	-0.664055422	 1.3545279572	-1.2533397421	-0.231156
O	-2.8039772854	 2.7764752434	 1.3526610859	-0.355337
C	-1.6582409295	 2.456930304	 2.2134587892	-0.16069
C	-0.7640493403	 2.0930561893	 0.9869056114	-0.167144
H	 0.3208892486	-0.5622873407	 1.2260246315	 0.27986
H	-2.6637820998	-0.0652872028	-0.3666045126	 0.094079
H	-2.4132095586	 0.1526225756	 1.3952286745	 0.097539
H	-2.7152529745	 2.0649774697	-1.839589393	 0.104859
H	-1.6149755403	 3.383734499	-1.3739760765	 0.108646
H	-0.8150857965	 0.5534227816	-1.9808611689	 0.110341
H	 0.2687697021	 1.86974816	-1.496292965	 0.108534
H	-1.3256067516	 3.3458522766	 2.7545393405	 0.117098
H	-1.8998198073	 1.6629912574	 2.9277276004	 0.106457
H	-0.054196936	 2.8847425644	 0.7385879392	 0.078306
245.52	272.7417	289.9341	308.9656	369.8596	413.3866	459.796	506.7545	553.9774	610.8387	658.8911	752.4392	784.4456	836.3457	846.1692	898.917	914.5438	940.2866	976.4784	998.6401	1027.6136	1037.5744	1053.0496	1085.6357	1101.6541	1140.1361	1157.4353	1176.6919	1200.5045	1221.2477	1234.0698	1268.512	1281.642	1317.2012	1334.0427	1361.706	1369.1272	1485.6749	1495.1023	1514.0058	1529.1619	3042.1441	3057.9716	3067.4015	3072.6969	3083.7374	3105.0708	3106.4106	3123.0388	3136.9588	3822.5348
OC12CC3(CC1)OCC23	O[C@]12C[C@@]3(CC1)OC[C@@H]23	
InChI=1S/C7H10O2/c8-6-1-2-7(4-6)5(6)3-9-7/h5,8H,1-4H2	InChI=1S/C7H10O2/c8-6-1-2-7(4-6)5(6)3-9-7/h5,8H,1-4H2/t5-,6-,7+/m0/s1
