19
gdb 3021	2.8665976	1.4457389	1.1720184	1.5654	77.18	-0.23349	0.00764	0.24113	1123.1537	0.155641	-422.5341	-422.525457	-422.524513	-422.566757	33.476	
C	 1.606869021	 1.0023092955	 0.1662576448	-0.515409
C	 0.2419206379	 0.4173822405	 0.2703993925	 0.364954
C	-0.9837137775	 0.943749017	 0.1393916173	-0.26228
C	-1.8940885908	-0.2412199668	 0.4406738713	 0.328905
C	-3.3810529382	-0.186805197	 0.2544838151	-0.513191
O	-1.2060221421	-1.3440248823	-0.2827422021	-0.348382
C	-0.1028625145	-1.0280156308	 0.6321401777	-0.106385
C	-1.1941365397	-0.8180816111	 1.7416945395	 0.162363
O	-1.7632821971	-1.9733894759	 2.2641261773	-0.448478
H	 2.1677081689	 0.8777474443	 1.1011943898	 0.131601
H	 2.1938299199	 0.5079946519	-0.6179854889	 0.134689
H	 1.5664718229	 2.0708763607	-0.0621674501	 0.129645
H	-1.2895691889	 1.9579424651	-0.0767449832	 0.104812
H	-3.7941795641	 0.6976243882	 0.7495862595	 0.125214
H	-3.6335815148	-0.1362875635	-0.8089866132	 0.135302
H	-3.8552670828	-1.0729119789	 0.6858111356	 0.126118
H	 0.6729390909	-1.7918284258	 0.6889785145	 0.077715
H	-0.9832221134	-0.1325637945	 2.565001646	 0.087302
H	-1.9088844977	-2.5564782466	 1.5053333067	 0.285505
155.4418	162.6468	183.2284	220.43	233.8011	272.5514	358.4269	429.9599	497.7406	543.7198	567.0748	591.2887	649.2345	694.4198	763.1389	813.6288	823.5579	871.2245	906.2078	918.056	976.9988	1030.9114	1059.0286	1093.9763	1109.0563	1133.2256	1160.605	1187.8436	1193.0559	1246.995	1283.8202	1306.5872	1344.071	1413.3153	1417.0647	1432.9265	1478.6077	1481.5815	1486.4902	1489.3925	1680.3107	3018.5539	3041.4873	3065.0301	3103.2194	3110.0094	3113.6281	3117.6484	3125.321	3228.0092	3745.9941
CC1=CC2(C)OC1C2O	CC1=C[C@@]2(C)O[C@@H]1[C@@H]2O	
InChI=1S/C7H10O2/c1-4-3-7(2)6(8)5(4)9-7/h3,5-6,8H,1-2H3	InChI=1S/C7H10O2/c1-4-3-7(2)6(8)5(4)9-7/h3,5-6,8H,1-2H3/t5-,6-,7+/m0/s1
