19
gdb 1878	2.4100583	1.8995604	1.5315281	3.2134	74.	-0.23545	0.07531	0.31076	970.4054	0.156102	-422.511551	-422.503517	-422.502573	-422.543488	31.584	
C	 1.385314214	 2.5276261653	 0.9266153082	-0.500894
C	 1.6953115858	 1.0972717217	 1.2418680429	 0.34872
O	 0.7772578265	 0.3559480778	 2.0590108596	-0.316416
C	 1.066774687	-0.1310880431	 0.7402562102	 0.348755
C	-0.0620818974	-0.3010175547	-0.2283563991	-0.500895
C	 2.3292963639	-1.0546658387	 0.7227146319	-0.016478
C	 3.3633918221	-0.132344374	 0.0145035826	-0.241286
C	 3.1617869342	 0.5723301307	 1.3872202295	-0.016461
O	 2.9778334252	-0.7379186966	 1.9801957488	-0.25911
H	 1.5595999286	 3.1629260249	 1.802220897	 0.134317
H	 2.0242100721	 2.8950703279	 0.1159105435	 0.123082
H	 0.3407773825	 2.6478370935	 0.6276325873	 0.132048
H	-0.6634694756	-1.1799787259	 0.0293778535	 0.134336
H	-0.7218818681	 0.5704878313	-0.2215398652	 0.132028
H	 0.3165489353	-0.4433100208	-1.246604754	 0.123078
H	 2.2163777934	-2.120390074	 0.5240587961	 0.082884
H	 4.3465009596	-0.5954678579	-0.0831493984	 0.112653
H	 3.0699891333	 0.3915086244	-0.9005325736	 0.096753
H	 3.9117655177	 1.1930502884	 1.8773459792	 0.082888
183.2957	188.7266	202.4321	206.1479	249.2534	322.1182	456.3025	507.496	516.6035	571.6585	601.7054	714.9327	728.0645	832.397	834.2665	858.5635	872.3527	932.1345	944.1453	948.0091	1024.4967	1055.3518	1067.0025	1082.8798	1128.6174	1140.3942	1172.3229	1202.6818	1213.8512	1231.7899	1261.0966	1302.7883	1305.0587	1411.825	1415.4913	1466.271	1476.2267	1483.5238	1489.7662	1498.218	1517.8624	3031.2669	3032.9021	3053.0854	3092.0242	3092.6343	3115.2222	3117.9961	3122.812	3123.9665	3136.175
CC12OC1(C)C1CC2O1	C[C@@]12O[C@]1(C)[C@H]1C[C@@H]2O1	
InChI=1S/C7H10O2/c1-6-4-3-5(8-4)7(6,2)9-6/h4-5H,3H2,1-2H3	InChI=1S/C7H10O2/c1-6-4-3-5(8-4)7(6,2)9-6/h4-5H,3H2,1-2H3/t4-,5+,6-,7+
