19
gdb 2385	2.4321604	1.7640156	1.3373794	0.947	75.46	-0.24526	0.00676	0.25202	1017.2152	0.158188	-422.556192	-422.548267	-422.547323	-422.588528	31.054	
O	 0.2427464781	 0.4011000878	-0.0523583648	-0.489178
C	-0.5770610568	 1.0121958161	 0.9238788132	 0.372875
C	-1.2527752311	 0.007929787	 1.8900837142	-0.143181
O	-2.5242806633	 0.158670476	 1.2259003325	-0.297453
C	-2.0291753785	 1.3000072178	 0.4513526533	 0.00929
C	-2.6224987887	 2.5939389325	 0.9157712058	-0.055426
C	-2.0050304034	 3.4020083174	 1.7779303963	-0.056371
C	-0.6376377639	 3.1312049127	 2.3486737691	-0.277851
C	 0.2028643498	 2.1970554905	 1.4666386951	-0.253471
H	-0.2314870493	-0.3548702724	-0.4160335469	 0.284678
H	-0.8657476843	-1.016806793	 1.8314339724	 0.097401
H	-1.2981055604	 0.3138739842	 2.9435589524	 0.098608
H	-2.1970230952	 1.1338905639	-0.6200853468	 0.0737
H	-3.6213784959	 2.8314566891	 0.5587959357	 0.092097
H	-2.5082686411	 4.3035957171	 2.1198319373	 0.094409
H	-0.0990914576	 4.0748019492	 2.4930277561	 0.10948
H	-0.7518854771	 2.7092811486	 3.358115855	 0.117771
H	 0.5692243089	 2.7538524628	 0.5967090325	 0.116981
H	 1.08601211	 1.8388439627	 2.0068137276	 0.10564
67.9165	175.8241	254.1685	302.5213	345.9652	357.9948	401.2384	472.8861	490.2512	545.8733	645.93	695.7525	759.6962	830.5545	878.9505	910.7727	939.4023	951.5011	981.2558	994.9438	1007.1051	1011.6459	1068.0671	1099.056	1134.9842	1148.225	1173.8608	1181.9693	1239.6585	1269.6526	1281.0845	1326.2207	1346.7089	1360.3703	1384.6928	1416.0324	1425.1973	1478.7226	1489.8451	1518.8423	1716.6952	3000.9514	3007.5031	3027.369	3038.7222	3054.5401	3056.8395	3082.1106	3144.8065	3168.6953	3801.8593
OC12COC1C=CCC2	O[C@]12CO[C@H]1C=CCC2	
InChI=1S/C7H10O2/c8-7-4-2-1-3-6(7)9-5-7/h1,3,6,8H,2,4-5H2	InChI=1S/C7H10O2/c8-7-4-2-1-3-6(7)9-5-7/h1,3,6,8H,2,4-5H2/t6-,7+/m0/s1
