19
gdb 2615	3.0258506	1.2971737	1.0887135	3.783	75.63	-0.23513	-0.02052	0.21461	1162.8677	0.15502	-422.547026	-422.538006	-422.537061	-422.581434	32.728	
C	-1.157467718	-2.0729257522	 1.2058768839	-0.409249
C	-1.0113353514	-1.0607759394	 0.0796918697	-0.159435
C	 0.0878587656	 0.0126646635	 0.1790544935	 0.389915
O	 1.226876083	-0.0046128925	 0.5448334048	-0.296275
C	-0.8805796966	 1.1232112976	-0.2646674619	-0.410216
C	-2.0397058843	 0.1102340652	-0.0597015287	 0.421363
C	-3.3001675511	 0.03705205	-0.9387852521	-0.363923
C	-4.0638335113	 0.272458675	 0.3781120086	-0.07043
O	-2.829501843	 0.3571996533	 1.1238159208	-0.308284
H	-0.2292240935	-2.6391788157	 1.3237937669	 0.133841
H	-1.3800653539	-1.5684328745	 2.1487904338	 0.141024
H	-1.9668124631	-2.7811598692	 1.0023067515	 0.115203
H	-0.9069522962	-1.563967532	-0.8923425736	 0.101385
H	-0.9168500118	 2.0162692765	 0.363875507	 0.141063
H	-0.7296287709	 1.4193677816	-1.3083708913	 0.12829
H	-3.3909280902	 0.8332862169	-1.6801196447	 0.115207
H	-3.4747536569	-0.925673269	-1.4235482565	 0.114232
H	-4.6393903373	 1.2028273635	 0.441206062	 0.108524
H	-4.6902044391	-0.5591997087	 0.720866196	 0.107766
52.4456	70.8855	154.7467	176.453	209.1174	258.6322	356.1786	402.3126	463.4604	520.0909	557.5335	717.9683	731.6955	786.3695	825.1905	862.6832	876.6514	934.5073	979.4802	1008.3452	1022.8432	1030.8767	1093.8696	1121.5626	1156.8325	1163.9535	1166.439	1192.9933	1213.0353	1231.521	1255.2853	1292.0673	1322.8391	1359.0741	1402.2554	1418.1372	1484.8723	1488.8702	1498.3912	1531.67	1894.3646	3013.3025	3025.4126	3044.0724	3054.1675	3067.0997	3073.2609	3110.8557	3120.8604	3127.0245	3131.7041
CC1C(=O)CC11CCO1	C[C@@H]1C(=O)C[C@]21CCO2	
InChI=1S/C7H10O2/c1-5-6(8)4-7(5)2-3-9-7/h5H,2-4H2,1H3	InChI=1S/C7H10O2/c1-5-6(8)4-7(5)2-3-9-7/h5H,2-4H2,1H3/t5-,7+/m1/s1
