19
gdb 4272	2.6579176	1.7453454	1.7255248	1.1029	74.71	-0.24165	0.00067	0.24232	932.7887	0.158915	-422.560465	-422.553074	-422.55213	-422.591813	29.757	
C	-0.0103089195	 0.1860934711	 0.1623388819	-0.407036
C	 1.505576831	 0.0343502881	 0.1889070105	 0.15283
O	 1.837440193	-1.3546390294	 0.3532489733	-0.298749
C	 2.7394632786	-1.5730855132	 1.4530482886	 0.032073
C	 2.0085265601	-1.1044367595	 2.7229394593	-0.069501
O	 1.6923078231	 0.2822416925	 2.582846041	-0.277073
C	 2.1854320601	 0.8157776375	 1.3380291584	 0.022705
C	 3.6727193826	 0.5790641885	 1.2331870758	-0.07855
C	 3.9742028826	-0.7182146733	 1.2948872185	-0.077057
H	-0.4362123882	-0.0401484311	 1.1426774115	 0.132529
H	-0.2861835612	 1.2105767367	-0.1103188901	 0.107935
H	-0.4406270468	-0.4944546467	-0.5770159934	 0.123166
H	 1.9278961441	 0.3792823514	-0.7668362628	 0.07283
H	 2.9401926206	-2.6449520208	 1.476550416	 0.081175
H	 1.0748597385	-1.6695111687	 2.8365581824	 0.103278
H	 2.6282980069	-1.2533795553	 3.6173267198	 0.097073
H	 1.9018212281	 1.8689643702	 1.3272722825	 0.079959
H	 4.3827937266	 1.3891382582	 1.1148811485	 0.101087
H	 4.9721455199	-1.1391031064	 1.2586411183	 0.101326
130.764	219.5012	258.9304	307.5934	372.0003	410.0939	419.4729	492.2839	648.9029	659.6443	690.0854	720.6621	804.6138	831.0032	870.0701	925.7618	950.6676	960.0029	975.0861	985.4938	1029.7919	1059.1881	1080.1087	1092.3602	1107.8273	1139.1995	1149.6977	1227.9719	1286.6976	1301.755	1318.1094	1334.4477	1358.65	1378.5253	1385.355	1396.7946	1402.4091	1485.8186	1493.9909	1509.4022	1677.7931	2986.5697	3005.6556	3040.8948	3049.4669	3107.4775	3109.5031	3112.9001	3133.3472	3185.4689	3209.2134
CC1OC2COC1C=C2	C[C@@H]1O[C@@H]2CO[C@H]1C=C2	
InChI=1S/C7H10O2/c1-5-7-3-2-6(9-5)4-8-7/h2-3,5-7H,4H2,1H3	InChI=1S/C7H10O2/c1-5-7-3-2-6(9-5)4-8-7/h2-3,5-7H,4H2,1H3/t5-,6-,7-/m0/s1
