19
gdb 2761	2.6652617	1.3959326	1.0407847	2.5831	77.7	-0.23844	-0.00588	0.23256000000000002	1197.94	0.154901	-422.553975	-422.544518	-422.543574	-422.587825	34.861	
C	-3.1868417654	 1.8998836919	 1.3156921068	-0.419011
C	-2.0477688009	 0.9242216725	 1.0888647605	-0.08013
C	-2.2295639657	-0.1802823615	 0.0963206219	-0.153759
C	-1.0123042881	-1.1153567489	 0.1185523985	-0.117157
C	-1.0039413094	-2.2904597148	-0.8530968399	-0.408111
C	-0.2057500136	 0.1035313421	-0.410163589	 0.30749
O	 0.7549908423	 0.1686036885	-1.1389853259	-0.352126
C	-1.2893734019	 1.0899169869	-0.2020182494	 0.317556
O	-1.4360671987	 2.2216624932	-0.9538537683	-0.450499
H	-3.8821040831	 1.5021108309	 2.0611653485	 0.121652
H	-2.8088335434	 2.8598550419	 1.6791492193	 0.133328
H	-3.7397456375	 2.0907001102	 0.3927794816	 0.132607
H	-1.4786682885	 0.694534583	 1.9905707892	 0.09051
H	-3.1751611943	-0.3996101432	-0.382913484	 0.110955
H	-0.7386483418	-1.4441753458	 1.1280842748	 0.087794
H	-1.6790796531	-3.0832170216	-0.5167603903	 0.117357
H	-1.3144459649	-1.9771870181	-1.8550476162	 0.120562
H	 0.0038209718	-2.7065116015	-0.9345058278	 0.137627
H	-0.9211400838	 2.0891712844	-1.7612263303	 0.303356
84.3535	167.8962	187.6396	192.6989	208.7344	229.6495	238.574	341.858	390.4113	408.5269	457.9524	543.6897	587.5411	682.7436	714.8717	781.3977	887.7476	906.8212	934.8258	946.7209	1011.5061	1018.9228	1052.3523	1081.2313	1109.64	1156.385	1176.5146	1208.3571	1228.3773	1247.1666	1351.3433	1357.1403	1380.8842	1408.9575	1421.346	1449.2529	1492.2831	1492.7165	1495.707	1504.3619	1824.5266	3030.5172	3039.7114	3045.6369	3085.4	3108.2669	3111.3909	3119.9169	3128.3601	3205.1489	3763.2189
CC1C2C(C)C(=O)C12O	C[C@H]1[C@@H]2[C@@H](C)C(=O)[C@]12O	
InChI=1S/C7H10O2/c1-3-5-4(2)7(5,9)6(3)8/h3-5,9H,1-2H3	InChI=1S/C7H10O2/c1-3-5-4(2)7(5,9)6(3)8/h3-5,9H,1-2H3/t3-,4+,5+,7+/m1/s1
