19
gdb 4404	3.6192115	0.8449795	0.7930249	1.0602	79.36	-0.24301	-0.03518	0.20783000000000001	1476.4701	0.155893	-422.582212	-422.572843	-422.571899	-422.618247	33.184	
O	-1.9692601819	 4.3546005865	 2.1022607536	-0.432195
C	-1.8647569675	 3.9331830154	 0.7487918472	 0.126242
C	-2.9359200461	 2.8931549344	 0.3193743746	-0.244057
C	-2.2126520089	 1.9084982088	-0.6278421673	-0.305664
C	-0.7446964701	 2.1417410646	-0.3276032946	 0.310205
C	 0.3155756549	 1.2046612307	-0.8396317219	-0.374367
C	 0.2876675638	-0.086156143	-0.0309146363	 0.158979
O	-0.0690961685	-1.1541159773	-0.4528675859	-0.231308
C	-0.5650758628	 3.239779486	 0.4102901261	-0.238886
H	-1.8219474993	 3.5794008574	 2.6560702451	 0.271999
H	-1.9643080854	 4.8654511172	 0.1776911386	 0.095631
H	-3.2709621124	 2.3686610834	 1.221520988	 0.100645
H	-3.8184936012	 3.3556557589	-0.1277712405	 0.106743
H	-2.512465503	 0.8642868861	-0.4824930575	 0.119091
H	-2.4182991206	 2.1369803161	-1.6826782489	 0.114596
H	 0.1525539312	 0.949201896	-1.8915149779	 0.126182
H	 1.3069064222	 1.6592310671	-0.7265174855	 0.120998
H	 0.6035152507	 0.0424289515	 1.0297966724	 0.079475
H	 0.392929715	 3.6446027502	 0.7199476507	 0.095691
30.725	43.6756	96.1583	128.9	243.084	278.0752	334.8897	412.4132	438.9684	502.3122	537.0792	594.6461	639.0017	825.7572	848.4557	859.676	880.5701	910.6238	972.132	1001.9762	1018.5908	1054.0586	1065.985	1086.1838	1148.7277	1166.6712	1193.0211	1238.2833	1257.0098	1282.3297	1290.9799	1311.7715	1321.9725	1361.8187	1418.9218	1428.4754	1463.076	1481.8245	1498.9189	1705.3197	1834.0461	2870.9495	3016.6445	3023.4304	3034.9701	3043.286	3059.6821	3097.2293	3108.4649	3188.1307	3792.9458
OC1CCC(CC=O)=C1	O[C@@H]1CCC(=C1)CC=O	
InChI=1S/C7H10O2/c8-4-3-6-1-2-7(9)5-6/h4-5,7,9H,1-3H2	InChI=1S/C7H10O2/c8-4-3-6-1-2-7(9)5-6/h4-5,7,9H,1-3H2/t7-/m1/s1
