19
gdb 5819	3.038554	1.1717829	1.0802872	2.2234	78.13	-0.24225	-0.05737	0.18488	1191.8332	0.15738	-422.574835	-422.566117	-422.565172	-422.608473	32.171	
C	 1.4423983322	-0.1315881289	-0.2194131089	-0.24324
O	 0.0506932313	-0.0321209934	 0.0084754512	-0.250911
C	-0.3672704158	 0.6645178676	 1.1825901424	 0.07687
C	 0.0387147469	 2.1507845557	 1.2510306839	-0.259947
C	 1.3595965828	 2.426272419	 1.9847327623	-0.323937
C	 1.4536716552	 1.7091292779	 3.3243710869	 0.37832
O	 2.0651579842	 2.1680938783	 4.267611261	-0.328031
C	 0.807345896	 0.3772272814	 3.3956430571	-0.145273
C	 0.0157553905	-0.0995431608	 2.4279191886	-0.068655
H	 1.9865499947	-0.5072420169	 0.6577342538	 0.111853
H	 1.5717736267	-0.8408196359	-1.0408123673	 0.131055
H	 1.8833453127	 0.8287272518	-0.5224362058	 0.110033
H	-1.4598598065	 0.6241053124	 1.0963478643	 0.099707
H	 0.0618624743	 2.5544033088	 0.2339305557	 0.116456
H	-0.7637808395	 2.6811462194	 1.7769052862	 0.115667
H	 2.216366306	 2.0840867028	 1.3905208926	 0.128379
H	 1.5075640794	 3.4954103408	 2.1571856269	 0.125445
H	 1.0219994931	-0.1953989573	 4.2935109251	 0.112113
H	-0.4005177341	-1.1018166928	 2.5055217741	 0.114098
64.6097	112.31	171.6611	210.4931	228.8262	306.1474	391.8405	419.0208	438.727	479.9015	568.2964	663.3523	716.5859	746.2304	775.1924	883.3072	907.3266	961.1708	986.9077	1030.5988	1036.0348	1096.7585	1122.727	1134.7697	1180.4314	1201.5617	1222.2822	1244.5494	1258.8007	1346.0518	1354.8597	1379.3691	1389.6084	1404.3292	1460.7555	1476.4821	1481.4038	1496.3663	1511.4643	1685.1388	1782.2407	2991.417	3026.7844	3035.8453	3044.6105	3046.2281	3085.3423	3102.13	3111.8787	3150.9993	3181.5402
COC1CCC(=O)C=C1	CO[C@@H]1CCC(=O)C=C1	
InChI=1S/C7H10O2/c1-9-7-4-2-6(8)3-5-7/h2,4,7H,3,5H2,1H3	InChI=1S/C7H10O2/c1-9-7-4-2-6(8)3-5-7/h2,4,7H,3,5H2,1H3/t7-/m0/s1
