19
gdb 4209	2.4974393	1.6695074	1.125923	2.0347	74.04	-0.25685	0.06874	0.32559000000000005	1085.7714	0.158399	-422.537796	-422.530055	-422.529111	-422.569829	30.739	
O	-1.1478401661	-3.1270008943	 0.5697292074	-0.439972
C	-0.1339013335	-2.2572339312	 0.0830608287	 0.105839
C	 0.0947224608	-1.0593787603	 1.025202346	-0.263564
C	 1.0669072755	-0.058971659	 0.4192544634	 0.034273
O	 0.5027348919	 1.1434149264	-0.1069815662	-0.253546
C	 1.0292175401	 0.1908395193	-1.0380661107	 0.032655
C	 0.0224186337	-0.5328767023	-1.8703619522	-0.06576
C	 0.364314304	-1.8752624825	-2.4700396611	-0.310557
C	-0.5805840931	-1.7987732216	-1.299026892	-0.004806
H	-0.8897717407	-3.4214078379	 1.4492357616	 0.280801
H	 0.8184014166	-2.8053397439	-0.0071939907	 0.064933
H	-0.8646919281	-0.5638121201	 1.2020914086	 0.126157
H	 0.4700693312	-1.4139048138	 1.9926841682	 0.086523
H	 2.0111912442	 0.0911599554	 0.9419565186	 0.089894
H	 1.9393572711	 0.5242390406	-1.5384022888	 0.090828
H	-0.6289449368	 0.111767887	-2.4533922847	 0.099943
H	-0.033311778	-2.1103419698	-3.4510222491	 0.11509
H	 1.3559276512	-2.2780263952	-2.2831549074	 0.109812
H	-1.634001494	-1.9796031368	-1.4825025697	 0.101456
98.0385	183.4646	274.9017	308.2967	340.3232	390.2218	409.3992	441.3214	508.2921	537.9623	719.7371	759.0003	815.6415	833.1038	839.0952	890.4332	953.5835	979.0576	996.4652	1018.8047	1053.3649	1072.1245	1078.3962	1101.3829	1104.722	1128.6371	1143.1959	1176.0395	1207.0069	1211.741	1273.7181	1283.5111	1308.4321	1334.1103	1365.3904	1384.0303	1401.0077	1449.3176	1452.2665	1483.1836	1492.0665	2953.7955	3032.7683	3092.004	3095.8035	3113.9885	3123.0596	3148.7355	3172.9083	3211.1499	3814.3367
OC1CC2OC2C2CC12	O[C@@H]1C[C@@H]2O[C@@H]2[C@H]2C[C@@H]12	
InChI=1S/C7H10O2/c8-5-2-6-7(9-6)4-1-3(4)5/h3-8H,1-2H2	InChI=1S/C7H10O2/c8-5-2-6-7(9-6)4-1-3(4)5/h3-8H,1-2H2/t3-,4+,5-,6+,7-/m1/s1
