19
gdb 3007	2.6439767	1.6038471	1.2739666	1.6519	76.47	-0.23371	0.00767	0.24138	1061.5396	0.155653	-422.534559	-422.525932	-422.524988	-422.567175	33.441	
C	 1.3974421465	 0.9326388461	 0.3034783661	-0.516677
C	 0.0463992323	 0.31301654	 0.2145076583	 0.322611
C	-1.1785921674	 0.8419596413	 0.085776155	-0.206629
C	-2.0540385727	-0.3968625155	 0.0087834022	-0.042321
O	-1.4768653588	-1.2654131942	 1.048698824	-0.347758
C	-0.2654985017	-1.1908479555	 0.1986983503	 0.253645
C	 0.7750104019	-2.2336155464	 0.4820505837	-0.517484
C	-1.2646235879	-1.2666957071	-1.0322999481	 0.160616
O	-1.7798269832	-2.5298694318	-1.2974922668	-0.44752
H	 1.9040878321	 0.6602243497	 1.2377030838	 0.134156
H	 2.048411903	 0.5963623629	-0.5136280759	 0.130628
H	 1.3367707118	 2.0233387705	 0.2567105183	 0.129905
H	-1.4892696648	 1.8737408841	 0.0055275354	 0.106697
H	-3.140660893	-0.3263050643	 0.0306710595	 0.080332
H	 1.0590910459	-2.2184189286	 1.5389059771	 0.134442
H	 0.3938949102	-3.2291044226	 0.2377415974	 0.12836
H	 1.6725364305	-2.0562359837	-0.1187927551	 0.124269
H	-0.965381679	-0.8084668154	-1.9771721003	 0.087098
H	-2.0573958557	-2.8819301896	-0.439580615	 0.285627
142.3776	166.4968	177.5441	224.2193	235.7322	302.1826	341.3435	435.0298	506.9612	542.3006	574.6856	595.5502	658.7909	695.9533	777.1416	790.7162	819.3121	859.8097	909.6644	929.8823	951.4032	1009.5143	1058.1922	1098.5241	1117.1397	1127.2713	1167.0968	1192.5771	1208.1179	1258.5019	1279.0161	1300.8578	1334.565	1409.8729	1415.998	1432.5707	1475.0832	1476.9032	1488.6409	1490.6543	1676.9229	3017.8028	3040.4919	3063.6907	3103.1972	3109.7991	3111.9651	3116.5318	3136.4332	3235.118	3745.8099
CC1=CC2OC1(C)C2O	CC1=C[C@@H]2O[C@@]1(C)[C@H]2O	
InChI=1S/C7H10O2/c1-4-3-5-6(8)7(4,2)9-5/h3,5-6,8H,1-2H3	InChI=1S/C7H10O2/c1-4-3-5-6(8)7(4,2)9-5/h3,5-6,8H,1-2H3/t5-,6-,7+/m0/s1
