19
gdb 541	3.1376337	1.6639951	1.341682	2.2574	74.07	-0.24295	0.06565	0.3086	991.9592	0.159185	-422.528386	-422.521243	-422.520299	-422.559856	28.442	
C	 1.81241745	 2.2833204154	 1.2815676592	-0.160316
O	 1.2888653603	 1.5261721736	 2.4027558367	-0.296456
C	 0.859620495	 0.4284040056	 1.5599816745	 0.045071
C	-0.6490666701	 0.4631682262	 1.243783152	-0.259398
C	-0.3757801409	 1.4348117696	 0.0506975697	-0.081999
C	-0.5111821819	 0.8859537606	-1.3796593625	-0.24233
C	 0.8538192337	 0.2122425748	-1.6382745785	-0.105287
O	 1.805882988	 0.9484167844	-0.8649165462	-0.287975
C	 1.1613470363	 1.3173554691	 0.30563205	 0.388226
H	 1.4666550052	 3.3237436662	 1.2786716927	 0.102315
H	 2.9097564759	 2.2586543362	 1.2536882292	 0.10784
H	 1.3453999761	-0.5152709962	 1.8232775312	 0.075204
H	-1.0443068166	-0.5087944531	 0.9297542216	 0.096494
H	-1.2721585519	 0.8579916577	 2.0488084815	 0.112617
H	-0.810440951	 2.4302668027	 0.1568908758	 0.075722
H	-1.3446009945	 0.1886470773	-1.5020823523	 0.105812
H	-0.6565774526	 1.7103155316	-2.0837753499	 0.111677
H	 0.8423784631	-0.8385420792	-1.3112821544	 0.09923
H	 1.1739847459	 0.2430572775	-2.6820070304	 0.11355
107.5669	185.5119	246.5306	338.7319	374.1982	432.4679	476.3574	624.3396	668.4937	726.8833	787.4654	825.2324	862.4281	897.9671	907.9197	941.8608	960.6916	987.8178	1009.4817	1027.7506	1068.538	1079.3784	1098.1008	1125.4207	1148.7145	1174.6593	1190.2158	1210.0162	1251.1593	1252.6439	1267.5949	1287.0805	1298.6429	1318.9339	1337.7301	1365.0608	1399.8688	1463.046	1489.2799	1516.7054	1520.3954	2991.466	3010.8406	3047.0591	3055.9669	3062.975	3071.6978	3088.1879	3099.7641	3109.9713	3118.6015
C1OC2CC3CCOC123	C1O[C@H]2C[C@@H]3CCO[C@]123	
InChI=1S/C7H10O2/c1-2-9-7-4-8-6(7)3-5(1)7/h5-6H,1-4H2	InChI=1S/C7H10O2/c1-2-9-7-4-8-6(7)3-5(1)7/h5-6H,1-4H2/t5-,6-,7-/m0/s1
