19
gdb 5409	1.8384277	1.3642004	0.9494502	1.5252	79.19	-0.23239	0.04703	0.27942	1304.8511	0.15333	-422.508404	-422.497849	-422.496904	-422.543763	38.18	
C	-3.1413191157	-1.864424235	 2.3145925484	-0.473687
C	-1.9618180803	-2.0689912848	 1.3749623224	 0.061021
C	-2.3044776599	-2.4649856267	 0.0364324934	 0.283147
C	-2.6130973859	-2.8121482108	-1.0744637491	-0.456074
C	-0.6530784452	-2.6307198388	 1.9549350852	 0.068413
O	-0.5685616666	-2.9219428088	 3.3151500947	-0.42005
C	-0.7159224341	-1.1901051811	 1.5866538513	-0.112901
C	 0.1038268121	-0.6466651482	 0.4379350277	-0.099934
O	 1.4924777802	-0.5915306754	 0.7323769509	-0.41162
H	-2.7890469927	-1.7015885506	 3.3353351768	 0.132148
H	-3.7409139308	-1.0030984089	 2.0053800776	 0.127524
H	-3.7934109797	-2.7437388256	 2.3112019619	 0.122861
H	-2.8822214836	-3.114851767	-2.0558260151	 0.191743
H	-0.0818035862	-3.285245389	 1.2981668558	 0.105424
H	-0.9183335826	-3.8086360846	 3.4557664671	 0.291752
H	-0.8157815588	-0.5220758285	 2.4403613339	 0.094215
H	 0.0083300717	-1.3021609727	-0.4315335015	 0.121987
H	-0.2823504525	 0.3407132796	 0.1403538531	 0.091401
H	 1.6109016205	-0.027455983	 1.5032420655	 0.282629
62.8136	116.8743	132.9533	174.5111	187.6636	223.6398	256.0765	303.099	311.3309	339.149	381.2625	446.6144	530.4657	532.3971	575.9601	619.9101	645.545	691.3671	817.5425	889.153	961.4729	1005.3417	1020.5952	1058.7719	1097.8921	1105.8671	1119.9823	1151.8598	1198.6508	1259.2075	1277.0391	1294.4931	1365.3937	1383.0564	1406.3921	1425.1058	1477.0395	1490.9276	1501.7971	1509.6759	2225.7058	2984.1865	3040.712	3096.8507	3104.0947	3117.0402	3129.3951	3134.6149	3502.7007	3801.8793	3815.3243
CC1(C#C)C(O)C1CO	C[C@]1(C#C)[C@H](O)[C@H]1CO	
InChI=1S/C7H10O2/c1-3-7(2)5(4-8)6(7)9/h1,5-6,8-9H,4H2,2H3	InChI=1S/C7H10O2/c1-3-7(2)5(4-8)6(7)9/h1,5-6,8-9H,4H2,2H3/t5-,6-,7-/m1/s1
