19
gdb 4896	2.5938127	0.9692399	0.8170433	2.5001	79.54	-0.2474	0.04671	0.29411	1477.6732	0.153802	-422.506309	-422.495733	-422.494789	-422.54327	36.347	
C	 1.4348204296	-0.3093681711	-0.1144162651	-0.498534
C	-0.0144122257	-0.1783919144	-0.0424354774	 0.047572
C	-1.2153751516	-0.097321546	 0.0163187121	 0.070331
C	-2.6671613491	 0.0377515149	 0.1169567988	-0.415855
C	-3.1277444943	 1.4919647794	-0.0016808225	 0.351521
C	-3.2173704362	 2.0550789598	-1.4122004703	-0.111711
O	-2.1447813196	 1.6673343901	-2.247355434	-0.410149
C	-2.9470180158	 2.3872069403	 1.149212713	-0.219726
O	-4.2375990001	 1.8583490741	 0.8198778412	-0.273222
H	 1.7878007759	-1.1374652482	 0.5100083803	 0.151837
H	 1.7680070411	-0.5027339057	-1.1399140259	 0.15177
H	 1.9366617473	 0.6009303236	 0.2319009989	 0.1469
H	-3.1563672434	-0.5628193124	-0.6596471195	 0.138348
H	-3.0169477349	-0.3428901808	 1.0834414901	 0.138607
H	-4.1258331083	 1.6598635749	-1.8826854189	 0.119101
H	-3.3307397858	 3.1486866898	-1.3559536814	 0.092067
H	-1.3240927903	 1.7422611161	-1.7479674528	 0.286723
H	-2.5054535108	 2.0015231487	 2.0670671183	 0.119277
H	-2.8289288279	 3.457948227	 0.988307845	 0.115144
41.1658	57.8842	74.6214	93.4638	204.2165	224.3773	275.808	294.9295	345.2064	375.8402	381.688	387.8129	469.0275	507.818	758.7433	773.9303	866.9102	919.4077	938.907	945.8679	1045.9084	1053.9995	1055.3608	1097.5465	1129.5873	1155.7021	1162.5316	1184.3417	1218.1443	1282.8434	1325.9502	1354.8353	1415.0688	1416.0568	1441.3777	1465.517	1478.7591	1479.7041	1507.5015	1532.0128	2366.6867	2986.11	3027.7821	3030.4759	3055.896	3070.6771	3082.5775	3088.0142	3089.802	3170.9744	3802.3738
CC#CCC1(CO)CO1	CC#CC[C@]1(CO)CO1	
InChI=1S/C7H10O2/c1-2-3-4-7(5-8)6-9-7/h8H,4-6H2,1H3	InChI=1S/C7H10O2/c1-2-3-4-7(5-8)6-9-7/h8H,4-6H2,1H3/t7-/m0/s1
