19
gdb 1751	2.4048784	1.7027689	1.642504	2.4665	73.76	-0.2281	0.07474	0.30284	960.1617	0.159083	-422.526116	-422.518714	-422.517769	-422.557451	29.979	
O	 0.5154569909	 0.6231717152	 0.3761335914	-0.458861
C	-0.7878904825	 0.4251456814	 0.7808303403	 0.394651
C	-1.5208970488	 0.7085571128	 2.0931456557	-0.161263
C	-2.2914570758	-0.601746334	 1.9615988268	-0.245042
C	-1.6392000766	-0.8421770522	 0.5516312174	-0.130799
C	-2.5573934594	-0.7633759846	-0.6786291644	-0.081991
O	-2.8238886035	 0.5656819753	-1.0947076793	-0.24454
C	-2.9942050166	 1.4900973112	-0.0278135655	-0.108327
C	-1.7469045601	 1.5630727099	 0.8459902559	-0.090396
H	 1.0645857309	-0.0594819223	 0.7780455566	 0.283314
H	-1.1601060423	 1.1562145834	 3.0110358222	 0.086239
H	-1.9705008347	-1.3530535439	 2.6872277655	 0.100455
H	-3.3847880298	-0.5442521633	 1.9850874743	 0.09707
H	-1.0607229324	-1.7692414562	 0.5297774499	 0.070716
H	-2.0903008367	-1.2480468074	-1.5420388024	 0.108365
H	-3.4998310575	-1.2975419836	-0.4668009585	 0.084611
H	-3.1772844841	 2.4536234183	-0.5099648717	 0.110886
H	-3.8912986907	 1.2424452593	 0.5629083036	 0.088549
H	-1.2555949003	 2.5290141605	 0.9044686521	 0.096364
169.769	199.0969	265.057	313.0883	344.9319	396.6209	459.9368	491.6778	560.5125	619.6633	679.5781	786.407	802.9066	840.9264	876.5457	905.8351	919.487	970.6555	1006.4205	1019.1332	1030.097	1069.9426	1079.6978	1101.8669	1135.6843	1168.5454	1170.8605	1186.057	1238.2141	1260.5824	1279.939	1297.9602	1311.3419	1327.3389	1344.6193	1384.5424	1414.6262	1478.6576	1494.1594	1501.4053	1515.4348	2952.3977	2968.5407	3046.3014	3063.331	3077.0268	3089.7936	3101.058	3167.7318	3189.4381	3788.4852
OC12C3CC1COCC23	O[C@]12[C@@H]3C[C@H]1COC[C@H]23	
InChI=1S/C7H10O2/c8-7-4-1-5(7)6(7)3-9-2-4/h4-6,8H,1-3H2	InChI=1S/C7H10O2/c8-7-4-1-5(7)6(7)3-9-2-4/h4-6,8H,1-3H2/t4-,5+,6-,7-/m0/s1
