19
gdb 6071	2.6750555	0.8236414	0.650413	1.8297	78.28	-0.25799	0.01079	0.26878	1733.2168	0.153455	-422.556733	-422.546023	-422.545079	-422.594949	36.39	
C	-3.2160360315	-3.5767350113	-0.7262093435	-0.384897
C	-1.7450319401	-3.1568431433	-0.6599319512	-0.189982
C	-1.5941174511	-1.6599874446	-0.4478450718	-0.04502
O	-0.1827826481	-1.3628238232	-0.3989990106	-0.22747
C	 0.138770995	-0.080962556	-0.1883738967	 0.444655
O	-0.6567655747	 0.8127828195	-0.0536056732	-0.357453
C	 1.6538577062	 0.1350352328	-0.1940206906	-0.467557
C	 2.447571279	-0.928776698	 0.4020896103	 0.322176
C	 3.1221882862	-1.7863464655	 0.9033880195	-0.452388
H	-3.7449467997	-3.327416036	 0.2000345304	 0.121495
H	-3.7375207768	-3.0780269204	-1.5504127557	 0.120747
H	-3.30645103	-4.6554569668	-0.880320241	 0.121627
H	-1.2357596747	-3.6826409085	 0.155459983	 0.114107
H	-1.2282012815	-3.4378389388	-1.5845905384	 0.110944
H	-2.0498981412	-1.0836932542	-1.2603098184	 0.120453
H	-2.0576136262	-1.3298640223	 0.4877618372	 0.12353
H	 1.9450431029	 0.2742435629	-1.2444539852	 0.161664
H	 1.8325837179	 1.0913067711	 0.3055019075	 0.163388
H	 3.7100637185	-2.5517258573	 1.3459737586	 0.199981
18.8463	47.9009	70.9089	95.9127	155.8321	200.0468	237.3934	293.1715	327.825	331.539	437.4286	483.9112	590.4373	626.5431	647.3963	722.5644	760.1259	890.5692	892.9611	922.2738	954.4696	997.0334	1030.6929	1056.642	1148.3362	1188.8062	1208.7838	1269.0042	1283.8502	1313.9597	1317.3873	1336.576	1413.8553	1423.032	1448.6147	1491.8059	1501.2575	1504.4528	1519.9543	1821.6521	2247.7646	3024.6572	3034.8025	3038.6487	3047.7197	3068.2176	3090.7155	3093.9143	3107.1838	3112.9938	3506.5642
CCCOC(=O)CC#C	CCCOC(=O)CC#C	
InChI=1S/C7H10O2/c1-3-5-7(8)9-6-4-2/h1H,4-6H2,2H3	InChI=1S/C7H10O2/c1-3-5-7(8)9-6-4-2/h1H,4-6H2,2H3
