19
gdb 2965	3.5306776	1.0544548	1.0334457	2.8898	76.5	-0.23631	-0.03077	0.20554	1260.0371	0.153826	-422.52821	-422.518904	-422.51796	-422.562335	34.069	
C	-0.0186695913	 0.0987175501	-0.136692569	-0.425686
C	 1.4905152155	 0.0871945767	-0.0176181427	-0.051011
C	 2.2491192295	-0.8926120697	-0.8510417511	 0.088294
O	 3.6581665342	-0.6708067504	-0.7493550074	-0.334916
C	 3.6362983699	-1.0186098125	 0.6749624595	 0.28868
C	 4.3150070176	-0.0111062728	 1.5764589824	-0.452798
C	 4.2338054752	-2.4177948599	 0.8062226818	 0.140313
O	 4.7822897616	-2.8355314065	 1.7916441988	-0.252049
C	 2.1018821681	-1.1422501164	 0.6353362914	-0.173906
H	-0.4875800637	 0.4286011906	 0.7960791439	 0.127612
H	-0.3421827394	 0.7739768761	-0.9353825638	 0.127372
H	-0.4070252613	-0.8995253881	-0.3661818422	 0.119181
H	 1.9561592188	 1.0550134329	 0.1537288435	 0.095231
H	 1.8749755542	-1.4076942976	-1.7284548151	 0.107071
H	 4.3617155929	-0.4091587946	 2.5931938765	 0.144098
H	 5.3400653414	 0.1650988461	 1.2364042001	 0.134964
H	 3.7815964099	 0.9412469513	 1.5819024393	 0.120725
H	 4.1009012995	-3.0346316966	-0.1094721608	 0.08944
H	 1.5156718473	-1.8669615185	 1.185155155	 0.107385
53.7504	138.1344	184.0875	196.769	232.0955	246.4577	280.172	318.0279	349.8535	447.5261	488.4961	559.3664	713.1541	779.7725	833.089	855.076	884.8158	902.3757	960.7735	988.8306	1020.7692	1025.733	1046.9283	1055.2607	1105.1349	1131.2351	1144.657	1169.9848	1209.7443	1255.3832	1273.6869	1286.4783	1391.6514	1412.422	1413.7652	1418.6745	1478.3838	1488.2454	1493.6496	1503.9867	1831.6641	2899.71	3031.7309	3051.7591	3096.5802	3100.3594	3123.1827	3132.6979	3140.5194	3177.0101	3198.5382
CC1C2OC(C)(C=O)C12	C[C@@H]1[C@H]2O[C@](C)(C=O)[C@@H]12	
InChI=1S/C7H10O2/c1-4-5-6(4)9-7(5,2)3-8/h3-6H,1-2H3	InChI=1S/C7H10O2/c1-4-5-6(4)9-7(5,2)3-8/h3-6H,1-2H3/t4-,5-,6+,7+/m0/s1
