19
gdb 6020	3.27508	1.0214127	0.8968164	2.5012	77.21	-0.24253	0.01205	0.25458	1358.5986	0.156247	-422.508644	-422.499902	-422.498958	-422.542836	31.705	
C	 1.376862214	 0.022298015	-0.2511175416	-0.225782
O	-0.0070721198	-0.0341045186	 0.004012489	-0.234844
C	-0.3728970693	 0.623504663	 1.198230015	-0.112647
C	-1.8751502314	 0.5058458307	 1.3483295231	 0.015434
C	-2.5176291263	-0.8616422309	 1.7803817445	-0.16368
C	-3.765815641	-0.0102038115	 2.1999074732	-0.243704
C	-2.5597697654	 0.8475323193	 2.7180643778	-0.19108
C	-2.0013204927	-0.5108421009	 3.1857844386	 0.442898
O	-1.4760263326	-1.0139339973	 4.1293401777	-0.331159
H	 1.95992781	-0.4599504546	 0.549050189	 0.109479
H	 1.558102177	-0.50784261	-1.1891011425	 0.128593
H	 1.730819904	 1.0604086569	-0.3545814362	 0.10411
H	 0.1478675508	 0.1778514589	 2.0625122437	 0.106246
H	-0.0804396284	 1.6877345153	 1.1584485779	 0.087686
H	-2.3890911003	 0.9520933774	 0.4921193003	 0.088191
H	-2.4982936268	-1.8046538259	 1.2403972539	 0.100365
H	-4.3084236664	 0.4358088284	 1.3635051303	 0.11132
H	-4.4405100559	-0.4334350722	 2.945616813	 0.115875
H	-2.5920799795	 1.8064473671	 3.2311272934	 0.0927
63.1153	91.2331	125.282	167.576	228.4272	321.6018	358.1663	385.119	449.81	582.0306	690.0226	762.7825	764.1995	820.5907	870.9948	885.8658	945.1925	993.8373	1025.4072	1027.4819	1040.8508	1061.2156	1105.3241	1108.9809	1147.3507	1170.7917	1183.5173	1188.0375	1206.3574	1221.7819	1232.9227	1245.5841	1270.3252	1371.2147	1438.2614	1482.3207	1485.2268	1503.6514	1514.9192	1525.6758	1916.2073	2946.8955	2972.1369	2981.4728	3016.4704	3067.9346	3075.399	3116.0747	3140.5676	3144.4736	3160.0412
COCC1C2CC1C2=O	COC[C@H]1[C@@H]2C[C@H]1C2=O	
InChI=1S/C7H10O2/c1-9-3-6-4-2-5(6)7(4)8/h4-6H,2-3H2,1H3	InChI=1S/C7H10O2/c1-9-3-6-4-2-5(6)7(4)8/h4-6H,2-3H2,1H3/t4-,5+,6-
