19
gdb 2167	2.9427641	1.7912756	1.6354051	2.5016	73.59	-0.24085	0.08794	0.32879	923.1255	0.159237	-422.560125	-422.553175	-422.552231	-422.590976	28.678	
C	-0.1042064308	-0.0175857143	 0.0061174655	-0.499505
C	 1.3891617356	 0.0834645342	-0.1077587535	 0.422083
C	 2.3402219536	 0.6079133823	 0.9970498398	-0.277674
C	 3.3428385256	 0.6182758799	-0.1774594551	-0.10912
C	 2.1630387278	 1.0024425154	-1.1261389074	-0.10391
C	 2.4704537595	 0.3495581902	-2.4728693868	-0.112306
O	 3.4066649619	-0.6941215051	-2.1380955738	-0.255666
C	 3.3126153703	-0.8231255117	-0.7418510825	 0.214005
O	 1.977885423	-1.2140877264	-0.3915319032	-0.316166
H	-0.3781443199	-0.7281757929	 0.7921964033	 0.132861
H	-0.5392158271	 0.9555995997	 0.2512116806	 0.11771
H	-0.5413117702	-0.36862933	-0.9339664311	 0.129514
H	 2.0932550466	 1.6158346149	 1.3403659659	 0.099028
H	 2.5232266105	-0.0594483978	 1.8425841805	 0.100515
H	 4.3024318191	 1.1314841089	-0.1699565909	 0.077528
H	 1.8572031694	 2.0476338709	-1.1381060198	 0.079914
H	 1.5802135456	-0.0833560841	-2.9458094795	 0.107077
H	 2.9455056177	 1.0351009243	-3.1828798853	 0.105236
H	 4.0382485617	-1.5631278384	-0.4070850567	 0.088876
205.9778	218.9548	243.1786	315.8188	422.3962	450.7044	537.113	591.2169	643.3709	703.4216	769.0381	827.0145	852.6084	886.2561	892.6144	908.4989	947.4214	961.5543	970.7645	987.2147	1011.7488	1040.895	1067.44	1092.0374	1115.1471	1147.8577	1187.5506	1207.7214	1211.356	1239.0006	1261.0048	1290.673	1305.5396	1336.4103	1347.9127	1389.2195	1420.5474	1481.7708	1490.8928	1491.3026	1515.1341	3023.7925	3039.7741	3060.4204	3066.472	3109.8439	3116.2598	3122.6295	3129.2644	3134.0498	3143.7779
CC12CC3C1COC3O2	C[C@]12C[C@@H]3[C@H]1CO[C@@H]3O2	
InChI=1S/C7H10O2/c1-7-2-4-5(7)3-8-6(4)9-7/h4-6H,2-3H2,1H3	InChI=1S/C7H10O2/c1-7-2-4-5(7)3-8-6(4)9-7/h4-6H,2-3H2,1H3/t4-,5-,6-,7+/m1/s1
