19
gdb 1462	2.4666555	1.7453317	1.5264356	1.8239	73.23	-0.25653	0.07282	0.32935	974.2926	0.15655	-422.538851	-422.53075	-422.529806	-422.570769	32.324	
C	-0.0721291664	-0.0219966926	-0.1579529318	-0.436113
C	 1.440533535	 0.0012549977	 0.0617350986	 0.336384
O	 2.1266746904	-0.5735579342	-1.053597119	-0.475888
C	 1.9084592707	-0.6889913974	 1.3602612637	-0.08674
C	 1.5161522718	-0.1710120076	 2.7196460969	-0.305081
C	 2.8391481	 0.2381619287	 2.1149092865	-0.0646
C	 2.8432659096	 1.5462804523	 1.3544973299	 0.028142
O	 1.5537879239	 2.1824656817	 1.2641915906	-0.264387
C	 2.0159415125	 1.4194993165	 0.1480327665	 0.022247
H	-0.589351661	 0.520855784	 0.6367285786	 0.137059
H	-0.3222045551	 0.4387117741	-1.1183931826	 0.121444
H	-0.4467103125	-1.0525575671	-0.1623199847	 0.104873
H	 1.7554797431	-1.4485320774	-1.2082510688	 0.278304
H	 2.1340741983	-1.7466679556	 1.2660987312	 0.077107
H	 0.7511330972	 0.5904659827	 2.8001725043	 0.135933
H	 1.5446403805	-0.884102383	 3.5366928978	 0.106771
H	 3.7703777407	-0.1008822536	 2.5518787093	 0.086919
H	 3.6873381962	 2.2252521407	 1.4305775799	 0.097535
H	 2.1746788852	 1.9649762101	-0.7792893869	 0.100092
151.7972	196.0822	226.4224	237.3512	330.7236	350.5239	377.2561	391.1036	529.0421	542.028	599.357	704.1641	746.9675	798.1462	823.3914	857.4206	893.7654	905.876	943.7842	971.3886	1005.3616	1030.5687	1046.1592	1077.8558	1085.2313	1098.6672	1105.0935	1118.3553	1170.459	1193.5482	1203.5176	1250.2019	1295.3463	1341.7704	1352.2785	1399.6071	1403.9429	1428.7782	1476.1185	1488.2398	1498.0409	3030.783	3098.6495	3128.6987	3139.7819	3142.8373	3154.1043	3160.5454	3188.467	3235.113	3810.9557
CC1(O)C2CC2C2OC12	C[C@]1(O)[C@@H]2C[C@@H]2[C@@H]2O[C@H]12	
InChI=1S/C7H10O2/c1-7(8)4-2-3(4)5-6(7)9-5/h3-6,8H,2H2,1H3	InChI=1S/C7H10O2/c1-7(8)4-2-3(4)5-6(7)9-5/h3-6,8H,2H2,1H3/t3-,4+,5-,6-,7-/m0/s1
