19
gdb 1191	2.4014866	1.1418558	0.8781408	2.317	78.16	-0.25316	0.02863	0.28179	1362.6194	0.153509	-422.50519	-422.494783	-422.493838	-422.541043	37.644	
C	 5.4725084416	-2.4581838907	-0.8295378924	-0.419862
C	 4.5297067022	-1.2923373938	-1.021597145	-0.047319
C	 3.2710810703	-1.4315798688	-1.8239030261	 0.095796
O	 2.9311012934	-0.3630424424	-2.6613082722	-0.426695
C	 3.1855740417	-1.2507972838	-0.3231212052	-0.082752
C	 2.6616814554	 0.0628446986	 0.2323176129	-0.06702
O	 3.1505696259	 0.344124558	 1.5400197737	-0.414719
C	 1.1919765604	 0.0930776886	 0.1816553759	 0.295369
C	-0.0103958144	 0.0798172814	 0.1433919766	-0.465592
H	 6.0536736413	-2.3474496647	 0.0920995723	 0.124267
H	 4.9253529093	-3.4045758221	-0.7636024171	 0.113449
H	 6.1763082239	-2.539540959	-1.6649130687	 0.123579
H	 5.0081232775	-0.3214654232	-1.1257500023	 0.10203
H	 3.0342416073	-2.4189288052	-2.2219940632	 0.084001
H	 1.9724923716	-0.2614468565	-2.6341368635	 0.292744
H	 2.8929366136	-2.1256289394	 0.2542241337	 0.080306
H	 3.0436100686	 0.8763859235	-0.3920890515	 0.130222
H	 2.7593298663	-0.2991702733	 2.1414345724	 0.281687
H	-1.072224756	 0.0897223127	 0.1149944898	 0.20051
27.6651	97.2385	169.9216	177.8261	202.6857	232.9738	261.8328	303.9694	307.1793	372.7805	393.527	448.4237	508.3245	567.8134	628.3747	642.1429	673.1685	805.7241	848.5925	900.6988	930.1716	1000.9177	1039.2999	1060.4078	1101.9687	1114.6091	1124.0429	1149.5792	1183.5403	1219.4913	1248.5215	1291.8476	1307.6661	1357.3882	1396.8339	1413.564	1418.6051	1475.7374	1494.2212	1503.9152	2225.7435	3029.115	3070.6974	3091.6884	3095.4268	3096.2915	3127.9028	3146.9438	3501.0033	3787.167	3805.9576
CC1C(O)C1C(O)C#C	C[C@H]1[C@H](O)[C@@H]1[C@H](O)C#C	
InChI=1S/C7H10O2/c1-3-5(8)6-4(2)7(6)9/h1,4-9H,2H3	InChI=1S/C7H10O2/c1-3-5(8)6-4(2)7(6)9/h1,4-9H,2H3/t4-,5-,6+,7+/m1/s1
