19
gdb 4097	2.954917	1.5042946	1.1774565	1.1059	76.34	-0.2424	0.00636	0.24876	1094.7062	0.157957	-422.542608	-422.534624	-422.53368	-422.575093	30.497	
C	 0.1961017976	 0.1371887141	-0.328366807	-0.411205
C	 1.0877710193	-0.1959761721	 0.8478082893	 0.11975
O	 2.4982108714	-0.0193856493	 0.552516245	-0.31646
C	 2.7279803317	 0.6638952158	 1.8219480204	 0.038391
C	 3.3542499553	-0.2332711754	 2.8433371662	-0.072581
C	 2.6283752219	-0.7963382309	 3.806697836	-0.073565
C	 1.1558690496	-0.5580133818	 3.9758107803	-0.122681
O	 0.6534579573	 0.5708278552	 3.278593873	-0.264684
C	 1.206315826	 0.8186710847	 2.0169492071	 0.057141
H	 0.3933854879	-0.5379608848	-1.1669698806	 0.128052
H	-0.8575584351	 0.0335461182	-0.0470240041	 0.121078
H	 0.3701622113	 1.1632672766	-0.6669867016	 0.119852
H	 0.8938985318	-1.2192637083	 1.2016301195	 0.074724
H	 3.3108969851	 1.5774899841	 1.6618535868	 0.080802
H	 4.4153343649	-0.445193735	 2.744487327	 0.098385
H	 3.0781284415	-1.4868685994	 4.5162187833	 0.100278
H	 0.6042799608	-1.4687852181	 3.6823323525	 0.108722
H	 0.9181090076	-0.3829269011	 5.0317953423	 0.120742
H	 0.840300984	 1.8053650875	 1.7231296748	 0.093259
91.0349	149.2693	209.4381	229.3064	293.6134	342.9015	415.356	492.954	521.3574	585.3249	694.8132	737.0311	823.4151	857.7605	894.8362	903.3503	934.9877	965.6951	1000.7416	1009.5182	1043.4391	1063.8501	1103.503	1110.1394	1144.6454	1158.928	1215.8777	1250.2556	1266.6724	1280.3147	1309.3793	1356.6872	1365.4719	1393.462	1405.7334	1415.3889	1430.2369	1482.3432	1495.1379	1497.2283	1723.3638	2948.4208	2995.6475	3033.6824	3042.8754	3048.9189	3084.242	3106.6514	3111.8088	3151.0442	3174.2186
CC1OC2C=CCOC12	C[C@H]1O[C@@H]2C=CCO[C@H]12	
InChI=1S/C7H10O2/c1-5-7-6(9-5)3-2-4-8-7/h2-3,5-7H,4H2,1H3	InChI=1S/C7H10O2/c1-5-7-6(9-5)3-2-4-8-7/h2-3,5-7H,4H2,1H3/t5-,6-,7-/m1/s1
