19
gdb 3039	2.5497969	1.5434079	1.3325708	2.7483	75.4	-0.25067	-0.03418	0.21649000000000002	1049.2934	0.156683	-422.550722	-422.542355	-422.541411	-422.584179	31.376	
C	 2.9138504432	-1.4914586928	-0.9639275224	-0.445597
C	 2.1430776293	-0.4061636987	-0.2338065342	 0.003666
C	 0.6464900568	-0.0704632207	-0.5686657394	-0.10492
C	 0.5562532041	 0.5002910562	 0.8790678101	-0.272022
C	 1.4858374286	-0.718971201	 1.1476232198	 0.347276
O	 0.6368460405	-1.8460393813	 0.8776501271	-0.324991
C	-0.0183685414	-1.4354107929	-0.3486012663	-0.086445
C	 2.2495635375	-0.8983034724	 2.4224536226	 0.058488
O	 3.1437427861	-0.1632408322	 2.7607972495	-0.262239
H	 3.9231586606	-1.5866947055	-0.5508594006	 0.129241
H	 2.4251195476	-2.4646055742	-0.8740256683	 0.134007
H	 3.0136963951	-1.251736627	-2.0281616026	 0.118136
H	 2.7242359712	 0.5155633923	-0.1641390563	 0.09602
H	 0.3532654206	 0.5011110792	-1.448756424	 0.076722
H	 1.0636409943	 1.4560841179	 1.0063464153	 0.122424
H	-0.4131672103	 0.489699273	 1.3822315055	 0.105274
H	 0.1820741748	-2.1632268042	-1.141641966	 0.10585
H	-1.1006510709	-1.3702044302	-0.1904555444	 0.105955
H	 1.9232659224	-1.7595382056	 3.0446061044	 0.093155
37.7769	158.2426	187.5669	197.7129	261.2394	308.4213	414.6543	445.0713	506.7348	595.7145	692.5193	713.7509	763.6784	797.357	857.4429	901.3096	942.5144	959.4145	968.0738	990.4192	1018.8878	1072.8813	1078.857	1097.7417	1133.7593	1154.1806	1171.0122	1187.538	1200.1141	1242.9941	1283.5507	1295.2265	1359.1787	1394.104	1406.779	1418.7675	1488.6792	1494.3879	1506.5612	1537.297	1822.5059	2903.4941	3034.8431	3039.0615	3075.4867	3078.0242	3093.701	3099.4909	3124.0169	3127.4408	3154.8407
CC1C2CC1(OC2)C=O	C[C@H]1[C@@H]2C[C@]1(OC2)C=O	
InChI=1S/C7H10O2/c1-5-6-2-7(5,4-8)9-3-6/h4-6H,2-3H2,1H3	InChI=1S/C7H10O2/c1-5-6-2-7(5,4-8)9-3-6/h4-6H,2-3H2,1H3/t5-,6+,7-/m0/s1
