19
gdb 2130	2.8184997	1.7712499	1.3695891	1.0173	74.67	-0.22937	0.05996	0.28933	981.3075	0.157991	-422.496845	-422.489542	-422.488597	-422.52787	30.519	
O	 0.2494841159	-0.3578690865	 0.3025819989	-0.480708
C	-0.6958376863	 0.548530292	 0.7703193567	 0.333525
C	-0.4188047713	 1.7833138879	 1.6669822171	-0.359182
C	-1.8860640835	 2.0815074331	 1.2025756589	 0.460536
C	-2.1722009951	 3.4408806602	 0.5787596987	-0.324472
C	-1.2817872689	 2.9319103185	-0.6261192532	-0.286496
C	-1.5264234383	 1.447916574	-0.1604460943	-0.0694
O	-2.6662476381	 1.152009323	 1.94202773	-0.338101
C	-1.9053299859	-0.0433363243	 1.6003672152	-0.145901
H	 0.6572401945	-0.7966137032	 1.0581450196	 0.279584
H	-0.2868288537	 1.6222407852	 2.7393054682	 0.09286
H	 0.3402830917	 2.4586660681	 1.2770329002	 0.108402
H	-3.2167369992	 3.5445903909	 0.2726294441	 0.11764
H	-1.8599769011	 4.3350855747	 1.1238719694	 0.103156
H	-1.688831031	 3.1389814857	-1.6161429418	 0.1112
H	-0.2508151414	 3.2850267649	-0.5961510313	 0.117573
H	-2.3179239366	 0.963056438	-0.7352063428	 0.076256
H	-1.5639039844	-0.5430621787	 2.5148027283	 0.095541
H	-2.5242162471	-0.7332023335	 1.0157171782	 0.107987
230.88	252.8108	267.6079	309.165	361.7359	409.3928	476.3731	507.2594	567.5599	606.544	645.0135	710.6073	765.5315	810.9744	858.3693	863.9805	904.6334	946.0604	969.8436	982.3506	1031.034	1039.7563	1056.0204	1096.8415	1104.1393	1140.9944	1158.3883	1170.9525	1199.16	1212.2915	1225.2048	1245.218	1252.6282	1322.3001	1335.317	1338.5534	1392.7667	1473.1735	1489.0589	1505.3038	1520.3857	3024.2858	3059.3414	3073.9535	3077.6612	3087.0306	3091.1995	3113.873	3142.8337	3158.7603	3792.4532
OC12CC3(CCC13)OC2	O[C@@]12C[C@]3(CC[C@@H]13)OC2	
InChI=1S/C7H10O2/c8-6-3-7(9-4-6)2-1-5(6)7/h5,8H,1-4H2	InChI=1S/C7H10O2/c8-6-3-7(9-4-6)2-1-5(6)7/h5,8H,1-4H2/t5-,6+,7-/m0/s1
