19
gdb 2758	2.5163799	1.4412324	1.1183042	2.7479	77.01	-0.23237	-0.01714	0.21523	1156.4669	0.155462	-422.569195	-422.560243	-422.559299	-422.602573	33.325	
C	-2.1463801279	-2.8137959242	-1.7413057842	-0.423725
C	-1.721522172	-1.4320764403	-1.2973878381	-0.082414
C	-0.8858606993	-1.3045570279	-0.001290209	-0.261679
C	 0.019696977	-0.1281598685	 0.065952061	 0.392165
O	 1.1980045624	-0.1023887097	 0.3179825062	-0.325051
C	-0.8611946346	 1.1056048795	-0.1907866601	-0.20733
O	-2.2132753901	 0.6789433003	-0.1475077603	-0.302173
C	-2.2891296911	-0.739947933	-0.1016463738	 0.429508
C	-3.483578993	-1.199888095	 0.6838848527	-0.467875
H	-2.3923374121	-3.4595724532	-0.8937754684	 0.122608
H	-3.028010797	-2.7606896999	-2.3891263629	 0.128964
H	-1.3448435124	-3.302604675	-2.3047596355	 0.131216
H	-1.4271790845	-0.773968293	-2.1116261343	 0.100198
H	-0.6259856561	-2.2071285294	 0.5373606061	 0.109576
H	-0.6832566827	 1.8612625751	 0.5821192499	 0.137572
H	-0.6102176356	 1.5535178011	-1.1630827199	 0.12711
H	-3.4199989848	-0.8440309066	 1.7162524442	 0.131661
H	-4.3990506849	-0.7942150375	 0.241040995	 0.135458
H	-3.5625402111	-2.288872063	 0.6956201314	 0.124212
108.8857	142.4472	175.4172	180.16	226.9932	249.7979	309.1552	402.7502	437.3781	474.9999	537.2388	621.8944	645.9927	697.9109	806.0847	849.0857	891.4927	929.6597	946.7346	1012.7333	1023.62	1080.8416	1090.2023	1100.4167	1118.8599	1125.1118	1182.5039	1203.163	1216.1212	1251.1386	1337.5127	1349.2713	1413.244	1422.6921	1445.8492	1477.5982	1488.2442	1492.54	1495.2114	1510.431	1839.4114	3007.1135	3034.8272	3045.9415	3067.8654	3097.3245	3107.5301	3109.6749	3134.552	3137.7696	3197.7342
CC1C2C(=O)COC12C	C[C@@H]1[C@H]2C(=O)CO[C@@]12C	
InChI=1S/C7H10O2/c1-4-6-5(8)3-9-7(4,6)2/h4,6H,3H2,1-2H3	InChI=1S/C7H10O2/c1-4-6-5(8)3-9-7(4,6)2/h4,6H,3H2,1-2H3/t4-,6+,7+/m1/s1
