19
gdb 1158	3.5494054	0.9286474	0.8519356	1.1382	78.76	-0.23178	-0.01726	0.21452000000000002	1399.0359	0.155176	-422.574273	-422.564734	-422.56379	-422.610658	32.949	
C	-3.6340444425	 0.4511713376	 0.8229400652	-0.478992
C	-2.9139758502	 1.3867960426	-0.1302805495	 0.395032
O	-3.4908524424	 1.966632944	-1.018207719	-0.29103
C	-1.3995146823	 1.568396679	 0.0717821553	-0.407476
C	-1.0271878823	 2.0380908129	 1.4513917271	 0.278903
C	-1.0369490653	 3.281101684	 1.9290100797	-0.198109
C	-0.5805182728	 3.2917231971	 3.3586845452	-0.101696
O	-0.3403165922	 1.9231861128	 3.6844373822	-0.262635
C	-0.5477545335	 1.1081696035	 2.5403648432	-0.153335
H	-3.1529899571	-0.5330606632	 0.8379590695	 0.135449
H	-3.5874638307	 0.8469043221	 1.8431049421	 0.153236
H	-4.6765531928	 0.3498587331	 0.5198239859	 0.144237
H	-0.9143652488	 0.6051327226	-0.1369140893	 0.119472
H	-1.0703464616	 2.2796052737	-0.6888183661	 0.135362
H	-1.3110015813	 4.1779059705	 1.3869635558	 0.111235
H	 0.340001537	 3.8815625462	 3.4992775877	 0.106695
H	-1.3352934694	 3.7063941641	 4.044968657	 0.108555
H	 0.3903172353	 0.6034387778	 2.2505157167	 0.102792
H	-1.274058667	 0.3145355497	 2.7781534013	 0.102303
29.9047	44.0973	92.2654	128.0005	150.3082	255.1079	282.8712	375.6509	457.2737	481.1275	555.5189	682.7714	767.056	779.9077	837.9367	858.3211	914.3414	926.3733	968.4788	1008.4831	1029.1803	1049.1536	1065.6596	1113.1841	1157.6169	1172.983	1199.9365	1224.1284	1233.9936	1295.3026	1315.1505	1368.387	1379.9811	1396.0714	1462.5441	1466.4861	1479.0857	1516.7005	1529.3216	1719.7821	1817.9171	2952.2821	2970.0825	2979.8743	2989.8896	3022.9202	3040.1713	3102.6437	3109.7858	3154.3477	3213.1242
CC(=O)CC1=CCOC1	CC(=O)CC1=CCOC1	
InChI=1S/C7H10O2/c1-6(8)4-7-2-3-9-5-7/h2H,3-5H2,1H3	InChI=1S/C7H10O2/c1-6(8)4-7-2-3-9-5-7/h2H,3-5H2,1H3
