19
gdb 1707	2.7037575	1.2889836	1.1375603	1.3837	75.54	-0.24197	-0.02654	0.21542999999999998	1159.5859	0.15501	-422.540576	-422.531409	-422.530465	-422.575377	33.211	
C	-0.4725889689	 1.7926682611	 0.8165096618	-0.468647
C	-0.9971078778	 0.7653239916	-0.192717801	 0.180102
C	-2.2607377559	-0.0282668172	 0.303968535	-0.285953
C	-1.4020588452	-1.305779726	 0.5458328546	-0.345951
C	-0.2205577417	-0.5771695011	-0.1084289669	 0.368743
O	 0.8721155893	-0.9070426249	-0.4674009519	-0.298015
C	-1.1038254757	 1.3073048606	-1.602813992	 0.05498
C	-0.2336896556	 2.3486126231	-2.1609980432	-0.184241
O	-1.5783661894	 2.646498245	-1.7719114123	-0.24358
H	-0.5390283667	 1.4050789398	 1.8372991818	 0.116898
H	 0.5762454916	 2.0349468637	 0.6231696934	 0.133391
H	-1.0633235866	 2.7104006539	 0.7524741315	 0.145111
H	-2.7427152759	 0.390915604	 1.188069464	 0.112048
H	-3.0146965262	-0.1596097377	-0.4750865719	 0.114342
H	-1.217295835	-1.5443174307	 1.5980923627	 0.136279
H	-1.7129513937	-2.2243279068	 0.0407864339	 0.133731
H	-1.5413562017	 0.6031905544	-2.3135855465	 0.091416
H	 0.5401436586	 2.8040353632	-1.5481018316	 0.11984
H	-0.0435238235	 2.363651614	-3.2329815714	 0.119506
45.7802	53.3836	138.0955	211.4035	236.2804	268.4456	316.2341	377.3328	410.302	503.4888	567.3865	662.6497	712.5608	747.9082	843.2076	872.2239	874.432	929.0694	945.8589	968.6815	1019.7288	1039.1342	1068.7583	1103.2681	1149.7231	1155.9863	1175.2513	1180.5977	1206.275	1221.3258	1254.1002	1277.7578	1315.1536	1397.3664	1432.2949	1437.6092	1486.5409	1493.136	1507.2975	1532.6939	1884.9054	3043.2113	3058.6981	3077.3256	3084.8921	3096.8166	3107.6987	3112.6756	3125.3913	3134.6813	3184.6798
CC1(CCC1=O)C1CO1	C[C@@]1(CCC1=O)[C@@H]1CO1	
InChI=1S/C7H10O2/c1-7(6-4-9-6)3-2-5(7)8/h6H,2-4H2,1H3	InChI=1S/C7H10O2/c1-7(6-4-9-6)3-2-5(7)8/h6H,2-4H2,1H3/t6-,7-/m0/s1
