19
gdb 5224	3.738522	1.3928001	1.2525262	1.2823	74.51	-0.24188	0.07079	0.31267	1052.3423	0.157114	-422.497192	-422.489514	-422.48857	-422.529196	30.056	
C	 1.5079957755	-0.0834870179	-0.0946982022	-0.26599
O	 0.099567829	-0.038494831	 0.0279809401	-0.291948
C	-0.3418206351	 0.6484167992	 1.152232105	 0.430533
C	-0.1537971112	-0.0003306399	 2.5562318427	-0.306549
C	-1.5639421493	 0.5120617502	 2.9404432335	 0.103824
O	-1.5535148836	 1.9233587054	 3.2528101125	-0.306266
C	-1.6024382491	 2.2710561963	 1.8506183303	 0.103822
C	-0.2019434654	 2.1996043977	 1.1932054853	-0.306552
C	-1.879406905	 0.7965203705	 1.4455913876	-0.173036
H	 1.976666771	-0.5931326455	 0.7596044114	 0.112283
H	 1.732373419	-0.6428625613	-1.0054988908	 0.128693
H	 1.9432799413	 0.9227624082	-0.1796177267	 0.112285
H	-0.1629913285	-1.0908542337	 2.4533093877	 0.106887
H	 0.6798409232	 0.31353501	 3.1894986803	 0.100245
H	-2.1703111501	-0.0601294441	 3.6438349139	 0.081421
H	-2.240255975	 3.1359642095	 1.6636180893	 0.081421
H	-0.2436067009	 2.5921789553	 0.1714080456	 0.106887
H	 0.6286392686	 2.6532213596	 1.739881442	 0.100246
H	-2.6939484843	 0.4057753016	 0.8436919827	 0.081795
96.585	181.0195	192.2421	307.3722	323.0784	370.3552	430.872	464.0205	626.1203	648.2601	758.0616	823.1456	829.7997	861.3875	874.8864	924.5897	927.0083	960.3394	986.7611	993.8594	1042.6668	1084.9717	1097.8682	1133.8147	1135.507	1166.1577	1173.7185	1182.2239	1200.8914	1217.2693	1248.3096	1249.8545	1276.7722	1292.8156	1312.8639	1351.6187	1457.7256	1468.5852	1487.1528	1490.4021	1507.8988	2987.93	3037.3768	3045.5017	3046.6532	3097.7001	3101.1364	3110.1562	3113.1177	3120.6028	3167.7395
COC12CC3OC(C1)C23	CO[C@@]12C[C@H]3O[C@@H](C1)[C@@H]23	
InChI=1S/C7H10O2/c1-8-7-2-4-6(7)5(3-7)9-4/h4-6H,2-3H2,1H3	InChI=1S/C7H10O2/c1-8-7-2-4-6(7)5(3-7)9-4/h4-6H,2-3H2,1H3/t4-,5+,6+,7+
