19
gdb 5366	3.1149247	1.1729503	0.9205846	1.9679	83.43	-0.21982	-0.03333	0.18649	1281.8213	0.157839	-422.550008	-422.541324	-422.54038	-422.583846	32.207	
O	 1.0667290486	 0.2128439595	-0.5532729128	-0.409381
C	 0.8296292251	 0.300842327	 0.8496003201	-0.159549
C	-0.6201411024	 0.5526629388	 1.1709818896	 0.247825
C	-1.0044686542	 1.6365256669	 1.8645173137	-0.163715
C	-2.3555437487	 1.9901813653	 2.2849229878	-0.067113
C	-3.5290989558	 1.4808754145	 1.8811894632	-0.087498
C	-3.7996172911	 0.4700328928	 0.8045440831	-0.135415
O	-2.7184002599	 0.1195152238	-0.0221411235	-0.235429
C	-1.6058862794	-0.464201333	 0.6434974088	-0.196118
H	 0.7196064509	 1.0189215737	-0.9510390058	 0.285075
H	 1.1531354275	-0.6697918254	 1.2477550873	 0.113095
H	 1.458258264	 1.0716319709	 1.3198444501	 0.092814
H	-0.2254754413	 2.3182670793	 2.2025725163	 0.082997
H	-2.3985458585	 2.7631276601	 3.0495257315	 0.088439
H	-4.4347856764	 1.8513628328	 2.3595769059	 0.094104
H	-4.2594074479	-0.4271220732	 1.2610436346	 0.09817
H	-4.5569934018	 0.8801746281	 0.122624516	 0.122168
H	-1.9507458466	-1.1159601329	 1.4629174697	 0.102163
H	-1.107368342	-1.0929746491	-0.0993315458	 0.127366
57.3949	83.2644	175.1005	239.7273	291.6385	316.8803	379.2513	399.5672	429.4097	484.7537	571.8769	615.5827	725.3785	819.4514	843.7835	896.8084	916.1464	946.3709	992.4331	998.8258	1007.8806	1028.5352	1048.9677	1084.8618	1153.6824	1196.9693	1209.5525	1251.8518	1273.3752	1331.9675	1349.4453	1381.7354	1403.3449	1413.2575	1423.0011	1443.2563	1469.8741	1481.0047	1499.4917	1686.633	1717.2192	2923.1138	2970.4685	2990.9418	3030.905	3041.1544	3091.2969	3127.0331	3135.648	3156.2635	3803.3241
OCC1=CC=CCOC1	OCC1=CC=CCOC1	
InChI=1S/C7H10O2/c8-5-7-3-1-2-4-9-6-7/h1-3,8H,4-6H2	InChI=1S/C7H10O2/c8-5-7-3-1-2-4-9-6-7/h1-3,8H,4-6H2
