19
gdb 4309	2.4627138	1.7359956	1.276891	2.2124	77.15	-0.23731	0.00476	0.24207	1040.7916	0.156294	-422.530314	-422.521777	-422.520832	-422.562851	32.874	
C	-0.0936096608	 1.6110237905	-0.1445282606	-0.43663
C	 0.036948779	 0.1057677028	 0.0015930586	 0.391937
O	-1.2523791953	-0.4812086727	 0.4380347109	-0.348335
C	-0.7249797477	-0.7215506024	 1.7783024593	-0.169657
C	 0.6571835193	-0.49766768	 1.2246784383	 0.163436
C	 1.841630957	-1.059293901	 1.0075519963	-0.213839
C	 2.2409866191	-0.7820753527	-0.4392391461	-0.2915
C	 0.8405959341	-0.5807975308	-1.1240575215	 0.057469
O	 0.8539126263	 0.1764992765	-2.3151294783	-0.436725
H	 0.8749520126	 2.0680143864	-0.3658589292	 0.12383
H	-0.7677072645	 1.84105804	-0.9740862692	 0.137894
H	-0.4947126301	 2.0546295865	 0.7705009213	 0.110966
H	-1.0965300261	 0.0274409605	 2.489683067	 0.108363
H	-0.9538802018	-1.7247425565	 2.1531171368	 0.117701
H	 2.3862303675	-1.728075005	 1.6636755374	 0.099886
H	 2.8526794077	 0.1203508274	-0.5683854737	 0.114829
H	 2.8006247227	-1.6149453479	-0.8792372687	 0.098931
H	 0.391030624	-1.5716234857	-1.2831322149	 0.084501
H	 1.2860259269	-0.3417228859	-3.0003184536	 0.286945
118.0233	211.8597	219.7769	239.8138	259.5598	264.2591	295.5898	372.6382	477.8859	513.2649	549.8975	631.0731	704.3926	787.7586	819.4908	866.1472	892.5269	919.2289	945.7502	972.7716	1007.5749	1017.812	1065.5207	1096.251	1119.0026	1137.8014	1166.5775	1195.0756	1221.4091	1257.6411	1269.3685	1305.767	1318.7897	1346.4077	1404.2739	1423.013	1480.9037	1484.2446	1488.3229	1511.1398	1741.2102	3003.4991	3013.892	3021.886	3046.8903	3068.2264	3071.8833	3122.1357	3124.9018	3197.8163	3830.6175
CC12OCC1=CCC2O	C[C@]12OC[C]1[CH]C[C@@H]2O	
InChI=1S/C7H10O2/c1-7-5(4-9-7)2-3-6(7)8/h2,6,8H,3-4H2,1H3	InChI=1S/C7H10O2/c1-7-5(4-9-7)2-3-6(7)8/h2,6,8H,3-4H2,1H3/t6-,7-/m0/s1
