19
gdb 3019	2.1653923	1.6162037	1.4443101	2.5322	76.18	-0.25744	-0.03373	0.22371	1039.1373	0.155388	-422.521608	-422.512814	-422.51187	-422.554938	33.064	
C	-0.1480673901	 0.0370090923	-0.036359837	-0.450803
C	 1.3731002977	 0.0384022194	-0.0294238069	-0.007122
C	 2.2127667264	 1.3214082416	-0.3113153964	-0.111451
C	 3.442704106	 0.3734002698	-0.504386889	-0.269159
C	 2.2768219002	-0.2803105737	-1.2889528113	 0.39358
O	 2.344147653	-1.4425617119	-2.0197686481	-0.475306
C	 1.968017366	 1.1385866521	-1.8477153659	-0.112237
C	 0.6901897151	 1.3441938322	-2.6055562326	 0.091317
O	 0.2025529908	 0.470699696	-3.2895381677	-0.26252
H	-0.5233331562	 0.3014253628	 0.9580946209	 0.117515
H	-0.5980696238	 0.7375284502	-0.742695069	 0.12363
H	-0.5326626843	-0.960004407	-0.2783912057	 0.12987
H	 1.7257250792	-0.5048470798	 0.8542837638	 0.072251
H	 2.1977087449	 2.2563443617	 0.2440980513	 0.084774
H	 4.2732557832	 0.7608570929	-1.0990582577	 0.094919
H	 3.7879974382	-0.1495907904	 0.3899543715	 0.10029
H	 1.6109038237	-1.4107769762	-2.6491055621	 0.295001
H	 2.7675477028	 1.5771360397	-2.4640697199	 0.098611
H	 0.2396732072	 2.3618651183	-2.5837923883	 0.086839
87.6889	119.6309	149.8531	194.3277	248.3565	328.5168	359.7573	417.2397	452.371	486.3087	577.1993	652.3991	710.6018	757.2455	767.6346	829.1583	845.8023	936.3372	963.1019	1010.1585	1019.3614	1027.675	1071.5999	1097.5918	1111.8101	1130.1927	1150.0734	1168.23	1181.5041	1219.3655	1241.2754	1300.2654	1366.8666	1390.4031	1412.4565	1419.3276	1434.714	1485.1807	1503.3302	1529.7021	1786.2687	2878.3312	2998.1342	3035.3974	3043.1273	3062.8569	3093.3589	3123.4596	3132.0464	3145.141	3765.411
CC1C2CC1(O)C2C=O	C[C@@H]1[C@H]2C[C@]1(O)[C@H]2C=O	
InChI=1S/C7H10O2/c1-4-5-2-7(4,9)6(5)3-8/h3-6,9H,2H2,1H3	InChI=1S/C7H10O2/c1-4-5-2-7(4,9)6(5)3-8/h3-6,9H,2H2,1H3/t4-,5-,6+,7-/m1/s1
