19
gdb 5921	2.6781587	0.8819693	0.7041947	2.9844	79.29	-0.24333	-0.0279	0.21542999999999998	1616.2593	0.15197	-422.518468	-422.507543	-422.506599	-422.556165	37.001	
C	 6.6200066538	 0.4939506365	 1.1514259585	-0.385981
C	 5.1204003278	 0.6322359284	 1.3479162676	-0.046419
O	 4.5161813389	-0.6167329603	 1.0443805105	-0.256514
C	 3.1173993813	-0.6676774121	 1.2269990041	 0.032667
C	 2.3768689625	-0.2055315866	-0.0606627453	-0.387234
C	 0.9363649578	-0.0922423899	 0.1043604119	 0.313178
C	-0.2509570472	 0.0047632203	 0.2586404288	-0.439616
C	 2.7892250488	-2.1241949019	 1.5353016886	 0.153205
O	 1.8471140729	-2.4886694213	 2.1843300905	-0.234764
H	 7.021331863	-0.2870459783	 1.8030497815	 0.131547
H	 6.8495323109	 0.2286998294	 0.115649079	 0.129826
H	 7.1209234531	 1.437222862	 1.387826626	 0.120513
H	 4.8869410287	 0.9141451025	 2.3868166437	 0.099509
H	 4.7213180992	 1.4263933445	 0.698124282	 0.094197
H	 2.7926463187	-0.0502165934	 2.0752151096	 0.104088
H	 2.7961805522	 0.7636479755	-0.3557519094	 0.139368
H	 2.620418964	-0.9047780063	-0.8705073775	 0.140451
H	-1.3011710428	 0.0800199252	 0.3957060572	 0.201331
H	 3.5185954964	-2.834578834	 1.0849389926	 0.090648
45.1916	54.5009	61.2839	91.3091	134.1938	183.1737	245.1573	268.0042	339.2633	349.4588	375.1242	425.1097	499.6311	590.0564	634.754	650.5941	820.1858	852.1686	882.5292	950.6457	981.0532	1046.3643	1070.1539	1083.5387	1138.5142	1153.2616	1186.6127	1203.6288	1294.4902	1300.3962	1328.1323	1348.6113	1400.2833	1409.2618	1440.0786	1469.9667	1483.3202	1499.4409	1527.8258	1847.5802	2243.695	2886.9628	2974.245	3003.7041	3023.662	3030.8933	3047.3751	3064.9131	3122.7009	3125.1481	3507.1721
CCOC(CC#C)C=O	CCO[C@@H](CC#C)C=O	
InChI=1S/C7H10O2/c1-3-5-7(6-8)9-4-2/h1,6-7H,4-5H2,2H3	InChI=1S/C7H10O2/c1-3-5-7(6-8)9-4-2/h1,6-7H,4-5H2,2H3/t7-/m0/s1
