19
gdb 4175	3.1613928	1.628028	1.4026938	1.1581	75.31	-0.24262	0.01295	0.25557	995.8344	0.159017	-422.579618	-422.572199	-422.571255	-422.611125	29.609	
C	 0.3140788508	 0.1740494374	 0.3974885824	-0.408502
C	 0.9459909191	-0.3567017923	-0.8827620327	 0.143063
O	 2.3763002462	-0.4375284958	-0.746449656	-0.295077
C	 2.7314993974	-1.8179238537	-0.7127415007	 0.182922
C	 3.2442628464	-2.2716305375	-2.0885623478	-0.274462
C	 2.0928978643	-2.3653390709	-3.059143843	-0.059532
C	 0.8405694398	-2.1541391884	-2.6568809092	-0.065236
C	 0.5867278275	-1.828732649	-1.2030248648	-0.00879
O	 1.5477675803	-2.5109494448	-0.3848286745	-0.253637
H	 0.460106436	-0.5365439658	 1.2159055571	 0.131054
H	 0.775007725	 1.1253064463	 0.6773122593	 0.125309
H	-0.7600535878	 0.3401610665	 0.260000549	 0.108554
H	 0.7252267924	 0.302462042	-1.7291804959	 0.08434
H	 3.4644064949	-1.983030787	 0.0827627683	 0.087129
H	 3.9922077021	-1.5498749732	-2.4380432074	 0.119165
H	 3.7573136368	-3.2393004219	-1.9994217048	 0.110076
H	 2.3164414588	-2.6173935308	-4.0921296626	 0.094589
H	-0.0021343945	-2.1907514061	-3.3399754516	 0.090922
H	-0.4098010454	-2.1193115851	-0.8663582649	 0.088116
123.3651	215.9048	247.0852	268.0693	343.5199	413.859	479.7624	497.3053	608.5883	689.3944	713.2329	765.9779	840.1675	863.5127	870.6637	912.0403	927.5096	963.6678	983.0337	1003.2627	1016.5907	1031.9059	1069.4927	1091.4185	1127.6042	1143.2786	1183.9308	1198.837	1263.4007	1296.2638	1318.412	1339.8741	1363.5298	1382.4656	1389.7559	1404.1646	1413.56	1460.3468	1486.0776	1497.6158	1709.5435	3015.4425	3036.7731	3050.5981	3059.3805	3070.5514	3104.4451	3110.3684	3125.3001	3158.7176	3184.8716
CC1OC2CC=CC1O2	C[C@H]1O[C@@H]2CC=C[C@H]1O2	
InChI=1S/C7H10O2/c1-5-6-3-2-4-7(8-5)9-6/h2-3,5-7H,4H2,1H3	InChI=1S/C7H10O2/c1-5-6-3-2-4-7(8-5)9-6/h2-3,5-7H,4H2,1H3/t5-,6-,7+/m1/s1
