19
gdb 743	2.5313672	1.7491527	1.2718184	3.4891	74.17	-0.23182	-0.02366	0.20816	1028.4847	0.159233	-422.569303	-422.561756	-422.560811	-422.601285	29.597	
O	 2.7736427339	 2.1516263249	 1.1088837092	-0.311351
C	 1.9224988627	 1.3145753948	 0.9152944479	 0.402327
C	 1.9487069215	-0.0340622274	 1.6364697337	-0.309426
C	 0.5933534656	-0.6254441754	 2.0663608137	-0.198961
C	-0.3511935619	-1.05609121	 0.9308613714	-0.223989
C	-0.6121473756	 0.0507375084	-0.0994436548	 0.119377
C	 0.5545281808	 0.3795100248	-1.0583456082	-0.293234
C	 0.8042196945	 1.5629496463	-0.0987963634	 0.014075
O	-0.5011314709	 1.3731873704	 0.5021481873	-0.289289
H	 2.4657575559	-0.7408853707	 0.9700721763	 0.120794
H	 2.602083899	 0.0977633647	 2.5031271773	 0.126855
H	 0.7888685524	-1.4980621175	 2.6991740135	 0.099854
H	 0.0739770282	 0.1062258391	 2.6918831554	 0.124713
H	 0.0448748405	-1.935077885	 0.404798117	 0.100509
H	-1.3016114002	-1.3674058811	 1.3788177573	 0.107334
H	-1.5898114973	-0.0798389913	-0.5739482277	 0.083284
H	 1.3456979933	-0.3630337239	-1.1762492928	 0.110108
H	 0.2166124259	 0.709553711	-2.041492886	 0.120477
H	 0.9262628417	 2.5625669978	-0.522400327	 0.096542
79.9844	214.6139	233.8656	303.4457	349.4842	372.5845	435.7018	493.6181	564.9606	650.2184	729.0104	777.0363	837.8623	875.4937	884.9688	893.8781	921.4557	950.6638	988.5564	1028.1296	1053.7013	1069.6152	1105.7585	1136.8278	1167.7295	1209.0425	1234.3717	1253.7073	1267.1279	1282.9496	1320.1309	1329.9433	1349.4852	1365.9432	1383.1354	1396.2126	1460.1758	1477.7053	1488.1929	1496.3769	1807.9821	3007.309	3020.8431	3045.101	3051.2608	3067.3093	3079.6853	3090.0459	3093.1552	3097.5153	3137.0498
O=C1CCCC2CC1O2	O=C1CCC[C@@H]2C[C@H]1O2	
InChI=1S/C7H10O2/c8-6-3-1-2-5-4-7(6)9-5/h5,7H,1-4H2	InChI=1S/C7H10O2/c8-6-3-1-2-5-4-7(6)9-5/h5,7H,1-4H2/t5-,7-/m1/s1
