19
gdb 4405	2.4816764	1.262694	1.0985965	1.786	76.24	-0.24766	0.0409	0.28856	1192.9852	0.153769	-422.513725	-422.503847	-422.502903	-422.548593	36.154	
C	 2.8619779373	 2.4930475753	-0.5623084741	-0.434705
C	 3.112183477	 1.051477124	-0.971226943	 0.376134
C	 2.5999604991	 0.0359084456	 0.0668911643	-0.404806
C	 1.1458435233	 0.0294241727	 0.1640791265	 0.302744
C	-0.0564106904	 0.0411501335	 0.1997941162	-0.46018
O	 4.5229754918	 0.8126092395	-1.2318777774	-0.326349
C	 4.2906629572	 0.6503432741	-2.6476795763	-0.094594
C	 2.7708243581	 0.6974866523	-2.4539602981	 0.026965
O	 2.1382590452	 1.6630164688	-3.2529577467	-0.421007
H	 3.4472536846	 2.7238586907	 0.3335313504	 0.122044
H	 3.1548282339	 3.1767901135	-1.3610540969	 0.132137
H	 1.8041771501	 2.6572609164	-0.3360082555	 0.124036
H	 2.9611446295	-0.9589361639	-0.2191637427	 0.133391
H	 3.0485992403	 0.261441299	 1.0423231476	 0.136376
H	-1.1167159994	 0.0403083233	 0.2583300464	 0.198841
H	 4.6666280949	 1.4993312562	-3.2317082864	 0.112342
H	 4.7193928908	-0.2800571959	-3.0342878634	 0.10537
H	 2.2816676027	-0.2804214387	-2.5442202012	 0.080187
H	 1.1932577942	 1.6296416236	-3.0711411998	 0.291074
55.5325	76.7723	135.5225	199.2256	238.7973	273.51	317.1968	330.8253	358.0495	382.0347	431.5047	486.8642	545.3503	627.0719	648.2072	692.9324	781.9246	875.0439	918.8325	948.8634	956.8297	974.5323	1006.7443	1034.4417	1122.5417	1132.8319	1151.0125	1169.3659	1219.9437	1242.9458	1296.1788	1311.7853	1327.2363	1343.6328	1403.4356	1446.2098	1466.5873	1483.1017	1493.5407	1518.1536	2232.8029	3022.157	3025.7833	3029.633	3044.3234	3065.8769	3078.7147	3113.5185	3138.0913	3504.7452	3816.0278
CC1(CC#C)OCC1O	C[C@]1(CC#C)OC[C@@H]1O	
InChI=1S/C7H10O2/c1-3-4-7(2)6(8)5-9-7/h1,6,8H,4-5H2,2H3	InChI=1S/C7H10O2/c1-3-4-7(2)6(8)5-9-7/h1,6,8H,4-5H2,2H3/t6-,7+/m0/s1
