19
gdb 3103	2.9824008	1.2485765	1.0533203	3.2576	76.51	-0.25326	0.07238	0.32564	1188.9741	0.157265	-422.478484	-422.470431	-422.469487	-422.51141	30.942	
O	 0.8957259245	-2.7091532476	-2.3123810711	-0.432897
C	 0.3944912647	-1.9010244922	-3.3477053652	 0.155095
C	 0.5589323499	-2.4247475674	-4.7963926111	-0.098982
C	 0.2688325709	-0.9570283652	-5.232897343	-0.230469
C	 1.2913806456	-0.8392046182	-4.0646565656	-0.128276
C	 2.070722534	-2.0066214212	-4.7640131422	 0.051257
C	 3.1396114003	-2.8205662796	-4.085933586	 0.011999
C	 4.555472883	-2.4877195102	-4.3063514407	-0.182545
O	 3.9595181753	-3.5871316523	-4.9873855198	-0.239579
H	 0.8313448491	-2.2156347375	-1.4889506338	 0.285813
H	-0.6160391573	-1.5470322542	-3.1018644203	 0.066248
H	 0.1334449539	-3.3358081425	-5.2179242036	 0.080971
H	 0.632186752	-0.6698321871	-6.2205301108	 0.102555
H	-0.7393923012	-0.5779274535	-5.0475138218	 0.092078
H	 1.708270301	 0.0780445273	-3.6441534731	 0.068319
H	 2.4551646897	-1.7305948039	-5.7527328065	 0.070562
H	 2.8736042925	-3.3448834071	-3.1761415497	 0.115325
H	 4.8149359921	-1.6340905294	-4.9330781186	 0.103496
H	 5.2960378602	-2.7450247182	-3.549624257	 0.109031
58.0317	158.9299	195.2789	261.9628	297.3481	343.0849	374.5798	478.0966	528.7384	628.0839	752.4423	828.014	840.2056	855.8159	891.7862	895.1295	899.3063	931.3231	998.2948	1025.4104	1034.9032	1076.5569	1084.1665	1104.181	1110.159	1150.9535	1160.4105	1166.0113	1177.9852	1192.2672	1212.4828	1225.9907	1233.1263	1269.0075	1285.7535	1319.5423	1342.0038	1453.0464	1463.8359	1520.7527	1528.5938	3005.7196	3040.1128	3062.129	3072.9796	3094.4762	3114.5148	3133.735	3155.5301	3198.7404	3822.753
OC1C2CC1C2C1CO1	O[C@@H]1[C@H]2C[C@@H]1[C@H]2[C@@H]1CO1	
InChI=1S/C7H10O2/c8-7-3-1-4(7)6(3)5-2-9-5/h3-8H,1-2H2	InChI=1S/C7H10O2/c8-7-3-1-4(7)6(3)5-2-9-5/h3-8H,1-2H2/t3-,4+,5-,6-,7+/m0/s1
