19
gdb 5185	3.5618516	1.400311	1.3684141	0.5916	73.	-0.22906	0.0689	0.29796	1014.2253	0.158846	-422.562401	-422.554917	-422.553972	-422.594245	29.909	
O	 1.2844014363	 0.4890726107	-0.2360083043	-0.426585
C	-0.0967090604	 0.2295851866	-0.028484146	-0.192072
C	-0.7534607975	 0.1768270138	-1.385773488	 0.384813
C	-0.7436159995	 1.4476358709	-2.2704764082	-0.247397
C	-1.6657338718	 0.8872820517	-3.3448516381	-0.116919
C	-1.3927398931	-0.6202745973	-3.4182459089	-0.116925
C	-0.314799362	-0.9211116221	-2.3857291645	-0.247377
C	-2.5444548037	-0.0884848327	-2.5980231522	 0.090231
O	-2.1631284849	-0.0857773263	-1.23375476	-0.305555
H	 1.7142972976	 0.5254875719	 0.6228491506	 0.292758
H	-0.2589951884	-0.7288972258	 0.4872573135	 0.096784
H	-0.574498242	 1.0182704799	 0.5721002835	 0.096774
H	-1.1731388511	 2.3066693283	-1.7459987238	 0.097252
H	 0.2587006382	 1.6983093519	-2.6236599073	 0.113382
H	-2.0141688852	 1.4591172032	-4.194122082	 0.085607
H	-1.5335019324	-1.195249921	-4.3233717173	 0.085608
H	-0.407753984	-1.9213646722	-1.951717274	 0.097261
H	 0.7057325967	-0.7709993438	-2.7437582257	 0.113387
H	-3.594796833	-0.2700735277	-2.7748688974	 0.098972
84.6392	177.7954	228.14	299.8658	377.2038	444.5726	468.38	557.5642	642.5846	685.8853	710.4099	797.1199	806.6175	810.978	877.8727	921.2564	959.074	972.4048	981.309	988.4696	1012.8938	1045.2104	1048.3907	1078.3456	1088.6322	1103.0911	1128.6052	1167.8956	1178.3592	1192.8629	1248.9553	1249.1607	1259.4272	1303.0173	1309.2739	1360.4871	1382.6797	1474.749	1477.0737	1500.1433	1522.3117	2981.1861	3015.013	3057.9601	3062.0406	3117.7335	3123.0002	3203.591	3209.0923	3226.2614	3838.9567
OCC12CC3C(C1)C3O2	OC[C@@]12C[C@H]3[C@@H](C1)[C@H]3O2	
InChI=1S/C7H10O2/c8-3-7-1-4-5(2-7)6(4)9-7/h4-6,8H,1-3H2	InChI=1S/C7H10O2/c8-3-7-1-4-5(2-7)6(4)9-7/h4-6,8H,1-3H2/t4-,5+,6-,7+
