19
gdb 1592	2.2555012	1.5737202	1.1724933	1.3222	76.75	-0.24622	0.04201	0.28823	1116.9123	0.155305	-422.534593	-422.525244	-422.5243	-422.568509	35.11	
C	-0.9790163228	 2.4123605876	 0.3105869389	-0.436826
C	-1.2788874763	 1.4503397994	 1.4460877136	 0.388406
O	-2.5796617771	 1.753641714	 1.9184748955	-0.465799
C	-0.2929086134	 1.4756117589	 2.6211825728	-0.131893
O	-0.6327193885	 0.3090544756	 3.3602914731	-0.266324
C	-0.8176455051	-0.745631711	 2.4135516753	-0.106437
C	-1.154063257	-0.0652260381	 1.0463427732	-0.27106
C	-2.3157027177	-0.6130348567	 0.3716248472	 0.343549
C	-3.2669400937	-1.0869591932	-0.1901256558	-0.459334
H	 0.0297042927	 2.2575233586	-0.0829477702	 0.112402
H	-1.6974973711	 2.2677885769	-0.5008157018	 0.141371
H	-1.0666899453	 3.4445702657	 0.6608827921	 0.127987
H	-2.7094397366	 1.2548184891	 2.7345406801	 0.286533
H	 0.7532543977	 1.443797263	 2.2749703994	 0.086314
H	-0.4346812545	 2.3448156737	 3.2671691136	 0.119043
H	 0.0964696623	-1.3482911475	 2.3298701596	 0.105361
H	-1.625831539	-1.3869372859	 2.7719838461	 0.124114
H	-0.2852826444	-0.1601727871	 0.3845349078	 0.107012
H	-4.1143574205	-1.4925920833	-0.6847614805	 0.19558
56.1456	133.0312	198.0045	202.2886	215.7478	276.8347	343.8273	370.3141	423.3026	435.5775	493.4634	560.841	608.2695	623.5237	633.5804	719.84	754.7529	866.4928	936.6579	946.341	957.7284	998.282	1047.6805	1057.7821	1102.3546	1116.2091	1180.8826	1189.3828	1236.9015	1251.4074	1291.3307	1326.7831	1351.5322	1382.0868	1403.786	1431.07	1482.35	1498.5282	1503.0754	1523.1404	2237.7806	2971.7296	3011.8035	3036.9418	3046.2295	3103.006	3109.9904	3121.3116	3123.0814	3504.8245	3783.4473
CC1(O)COCC1C#C	C[C@]1(O)COC[C@H]1C#C	
InChI=1S/C7H10O2/c1-3-6-4-9-5-7(6,2)8/h1,6,8H,4-5H2,2H3	InChI=1S/C7H10O2/c1-3-6-4-9-5-7(6,2)8/h1,6,8H,4-5H2,2H3/t6-,7+/m1/s1
