19
gdb 1807	2.8517375	1.4321049	1.3312213	1.9006	75.15	-0.23846	0.07717	0.31563	1056.8384	0.155777	-422.471215	-422.462962	-422.462017	-422.504045	31.272	
C	-1.3759658215	 2.4306823432	 2.2446903611	-0.516581
C	-1.3067799783	 2.231076704	 0.764307649	 0.329658
C	-2.4294827756	 1.9017408479	-0.257739974	-0.273549
C	-1.1452437585	 2.2686717087	-1.0314249936	-0.029643
O	-0.92816046	 3.3958984114	-0.0934555305	-0.351907
C	-0.3235861461	 1.3807967285	-0.0823470687	 0.337485
C	 1.1992602021	 1.4304339048	 0.0558597601	-0.162371
O	 1.2686099504	-0.0158656262	 0.0464940882	-0.278486
C	-0.1600288316	-0.1465965234	-0.0966859676	-0.17884
H	-1.6675086448	 1.498607961	 2.7392430446	 0.130369
H	-0.4039558572	 2.7429953019	 2.6386298736	 0.137106
H	-2.1135474641	 3.1995222993	 2.4930178892	 0.138198
H	-2.7944783303	 0.8720813601	-0.3116546951	 0.099091
H	-3.2290244294	 2.6417358836	-0.3157167511	 0.107335
H	-1.0018801454	 2.4648276616	-2.0942122734	 0.09628
H	 1.7414212123	 1.8754439832	-0.7872265224	 0.107505
H	 1.5858194729	 1.854489577	 0.990927185	 0.105097
H	-0.4384650167	-0.6513886794	-1.0314224664	 0.102708
H	-0.6121749684	-0.688104007	 0.7453369022	 0.100546
75.531	173.6529	190.2728	206.1796	217.4417	335.0997	393.5619	437.96	550.6988	637.4539	652.9885	710.3306	778.8509	860.0631	875.1467	907.1806	946.7036	958.8311	982.9024	1012.7725	1021.8574	1029.6089	1103.547	1131.4251	1144.0815	1150.2836	1159.2202	1167.9952	1181.6548	1215.9141	1233.3958	1293.3941	1305.7935	1347.8204	1393.7954	1420.4948	1475.6725	1487.8685	1493.1952	1504.9395	1529.6253	2997.1836	3017.1304	3037.6815	3039.5747	3057.1289	3057.4658	3112.9556	3116.3094	3118.9956	3141.5706
CC12CC(O1)C21COC1	C[C@@]12C[C@@H](O1)C12COC1	
InChI=1S/C7H10O2/c1-6-2-5(9-6)7(6)3-8-4-7/h5H,2-4H2,1H3	InChI=1S/C7H10O2/c1-6-2-5(9-6)7(6)3-8-4-7/h5H,2-4H2,1H3/t5-,6+/m1/s1
