19
gdb 537	3.1511553	1.6871439	1.3585515	1.2861	74.01	-0.2456	0.07872	0.32432	985.7435	0.158989	-422.532963	-422.525773	-422.524828	-422.564562	28.563	
C	 2.5876883383	-0.2266031654	-0.0666357661	-0.227865
C	 1.1856360065	 0.166372379	 0.5043199251	-0.319338
C	 0.5902695431	-0.0834647436	-0.8757541184	 0.437703
O	-0.6940380424	-0.6192444928	-0.9939015	-0.287373
C	-1.0737636819	-0.3846973873	-2.334512799	-0.005953
O	-0.5034322627	 0.8480858398	-2.7272994369	-0.261419
C	 0.6995031699	 0.9982688325	-1.9905169245	 0.041195
C	 1.9673533891	 0.2965904894	-2.5675294716	-0.267569
C	 1.9392234239	-0.7203496039	-1.3986027732	-0.110118
H	 3.2727186504	 0.6154713478	-0.1975386156	 0.10219
H	 3.1044562617	-1.0008075855	 0.5029025482	 0.109086
H	 0.8201024597	-0.5694610943	 1.22528173	 0.117054
H	 1.0609058729	 1.1666214493	 0.9288315284	 0.101062
H	-0.7117890217	-1.2043562883	-2.9797918197	 0.088153
H	-2.1629842155	-0.3122636213	-2.3941009201	 0.121334
H	 0.7965617745	 2.0496761567	-1.7082224715	 0.083156
H	 1.7659460321	-0.1490169411	-3.5452772005	 0.109333
H	 2.8618789555	 0.9213550736	-2.6454912976	 0.098835
H	 2.0596366866	-1.7794626644	-1.627213197	 0.070535
89.1073	201.0757	220.3432	324.7845	402.2467	438.6884	470.8137	633.6719	701.3241	735.6479	765.8765	796.5366	852.4687	870.493	891.2271	924.5291	965.3991	972.6723	1015.4773	1027.8201	1072.8399	1078.8848	1099.5888	1132.6545	1167.0519	1185.5662	1194.2579	1217.5405	1224.8171	1234.1676	1244.7727	1270.6334	1288.6826	1293.6746	1312.237	1353.3514	1431.0722	1469.3155	1477.9699	1495.1407	1542.3164	2948.0237	3053.4614	3055.007	3064.0449	3075.2866	3093.8833	3101.1689	3106.6682	3112.4214	3125.4398
C1CC23OCOC2CC13	C1C[C@@]23OCO[C@@H]2C[C@@H]13	
InChI=1S/C7H10O2/c1-2-7-5(1)3-6(7)8-4-9-7/h5-6H,1-4H2	InChI=1S/C7H10O2/c1-2-7-5(1)3-6(7)8-4-9-7/h5-6H,1-4H2/t5-,6-,7+/m1/s1
