19
gdb 6074	2.1487917	0.885156	0.6837588	1.0812	77.97	-0.24349	-0.02559	0.2179	1639.8585	0.15327	-422.535256	-422.524409	-422.523465	-422.573275	37.047	
O	 0.2931559441	-1.7049494797	-1.1521160476	-0.41645
C	-0.0587048491	-0.333092113	-1.171559124	-0.05464
C	-1.0375203799	 0.0424643274	-0.0560359314	-0.211329
C	-1.4547341632	 1.5228865187	-0.1365693041	-0.296828
C	-2.4058266852	 1.9629811095	 0.9639527234	 0.375118
O	-2.1187734272	 2.8146665188	 1.7666719561	-0.286693
C	-3.7983722739	 1.2844413748	 1.012227385	-0.417261
C	-3.786995445	 0.1044449502	 1.8666366735	 0.312275
C	-3.7586800666	-0.862671135	 2.5796109012	-0.45912
H	 0.7660548989	-1.8776791709	-0.3317324798	 0.282947
H	 0.8326809027	 0.3133574382	-1.1219521325	 0.090699
H	-0.5238664677	-0.1613688232	-2.1491325674	 0.111856
H	-1.9094823063	-0.6158089104	-0.1172275254	 0.126698
H	-0.5696948919	-0.1490862177	 0.9184586237	 0.107329
H	-0.5780859332	 2.1748356471	-0.0814560877	 0.123234
H	-1.947359477	 1.703351472	-1.1027912859	 0.116721
H	-4.4980225973	 2.0273150409	 1.4088979275	 0.15676
H	-4.1242916031	 1.0120546894	 0.0013859907	 0.134779
H	-3.745904129	-1.7167728971	 3.2104293449	 0.203906
27.6062	46.4709	81.0884	106.4927	131.0573	151.7624	264.4186	305.9463	326.9454	377.9763	401.0077	437.8162	539.6227	624.7595	636.9035	666.7341	752.0803	821.5923	869.2537	922.8492	965.4315	1021.6358	1040.2751	1060.2091	1083.3031	1133.6831	1183.0997	1237.3832	1260.8158	1290.9734	1301.0722	1324.0362	1359.09	1399.2085	1424.8129	1455.2922	1472.3434	1489.0908	1513.8623	1822.4731	2236.884	2973.5673	3012.0782	3029.3911	3035.0961	3061.7716	3083.8525	3086.4385	3103.3835	3506.0174	3815.739
OCCCC(=O)CC#C	OCCCC(=O)CC#C	
InChI=1S/C7H10O2/c1-2-4-7(9)5-3-6-8/h1,8H,3-6H2	InChI=1S/C7H10O2/c1-2-4-7(9)5-3-6-8/h1,8H,3-6H2
