19
gdb 1326	2.4098363	1.2224322	0.9088328	0.8848	78.35	-0.25077	-0.04866	0.20210999999999998	1323.4	0.15415	-422.57297	-422.563031	-422.562087	-422.608931	34.554	
C	 0.9600999478	 2.0553080259	 1.0237263913	-0.41023
C	 0.6780834221	 0.6175374558	 0.5926285367	-0.17183
C	 1.395887307	-0.3920109478	 1.4823724611	 0.151183
O	 1.7430323364	-1.4901862272	 1.131470935	-0.245097
C	-0.8368126762	 0.2984586856	 0.6088369587	 0.358713
O	-1.6319602728	 1.089978766	 1.0665549797	-0.325772
C	-1.2397117928	-1.0053243236	 0.0221219774	-0.096456
C	-2.5411950587	-1.0318698114	-0.7739652149	-0.256022
C	-2.4991997648	-1.6609775578	 0.5733068118	-0.251765
H	 0.6091444216	 2.228947957	 2.0444142207	 0.138836
H	 2.0313787516	 2.2729708988	 0.9793028429	 0.117646
H	 0.4333586143	 2.7601883058	 0.3774341327	 0.137483
H	 1.0245454511	 0.4179630598	-0.4287762921	 0.12002
H	 1.5688679675	-0.0375579373	 2.5235915235	 0.091846
H	-0.4349974574	-1.6537053521	-0.3000523965	 0.116173
H	-3.0538615405	-0.0813776705	-0.867039276	 0.138004
H	-2.5628287377	-1.6653373354	-1.6530593928	 0.12327
H	-2.9838393472	-1.1335984081	 1.3866976211	 0.139108
H	-2.4902699314	-2.7418134235	 0.6506699697	 0.12489
51.328	63.2111	80.5734	158.9298	173.8175	220.9249	257.39	304.7073	323.0435	371.3658	503.5858	642.3032	710.3347	757.0162	808.4668	831.6906	874.7726	893.7023	913.5278	969.7998	1024.6109	1067.7903	1075.6629	1096.0641	1112.2826	1135.7795	1138.8195	1152.3616	1210.6113	1222.8815	1234.9482	1326.7731	1407.2447	1410.3905	1422.9349	1454.5807	1484.9098	1487.3787	1491.8739	1781.7271	1822.9296	2879.9827	3045.8169	3050.5148	3121.9739	3135.1884	3141.9371	3144.3524	3199.0893	3229.7893	3244.7307
CC(C=O)C(=O)C1CC1	C[C@@H](C=O)C(=O)C1CC1	
InChI=1S/C7H10O2/c1-5(4-8)7(9)6-2-3-6/h4-6H,2-3H2,1H3	InChI=1S/C7H10O2/c1-5(4-8)7(9)6-2-3-6/h4-6H,2-3H2,1H3/t5-/m0/s1
