19
gdb 2589	2.0991002	1.6562212	1.0196556	4.2037	78.21	-0.23844	0.00251	0.24095000000000003	1190.2675	0.157091	-422.592094	-422.583266	-422.582322	-422.626074	32.418	
C	 1.4807820498	 0.7056226029	-1.0118320205	-0.47948
C	 0.169401398	 0.2537474568	-0.4356607909	 0.320506
C	-0.8586167658	 1.070364464	-0.2065080626	-0.165157
C	-2.1696756617	 0.5554095221	 0.3303111568	-0.280833
C	-2.8694532992	-0.3926923094	-0.6423938179	-0.04028
O	-2.2742555026	-1.677640222	-0.8948812949	-0.234465
C	-0.9643900799	-2.0235163114	-0.9060418474	 0.398839
O	-0.6489144676	-3.0262703279	-1.4885113821	-0.308096
C	 0.0457538839	-1.2198775419	-0.0902029582	-0.422928
H	 2.3090460614	 0.4893392866	-0.3249053583	 0.129592
H	 1.7047397629	 0.172948966	-1.9445926542	 0.138046
H	 1.4804278587	 1.7785021012	-1.2207177982	 0.123781
H	-0.7769765484	 2.1289680425	-0.4372907731	 0.088545
H	-2.0362462808	 0.0548003503	 1.2997228321	 0.116798
H	-2.863416132	 1.3840376272	 0.507395558	 0.111599
H	-3.8691259331	-0.6382828997	-0.2709044608	 0.119215
H	-2.9833179491	 0.1054491975	-1.6131527723	 0.117405
H	-0.2364987847	-1.3285961607	 0.9664062308	 0.134727
H	 0.9964106603	-1.736487194	-0.2248525064	 0.132185
69.2985	72.9202	146.9966	214.4201	293.3912	302.6294	350.6422	386.1606	476.0842	496.6143	565.9133	588.3977	648.8127	791.8516	833.6466	850.2605	897.9089	949.9391	958.7286	1010.8388	1055.675	1067.3769	1083.2565	1117.2695	1146.4102	1210.6803	1228.8847	1262.8095	1302.263	1322.2548	1358.2187	1369.598	1414.1183	1440.3745	1461.8344	1477.6414	1481.7431	1490.2724	1506.4844	1743.9124	1826.5101	3008.7114	3016.0517	3018.6424	3029.2342	3066.2705	3075.4276	3083.0812	3115.0737	3127.4969	3163.4394
CC1=CCCOC(=O)C1	CC1=CCCOC(=O)C1	
InChI=1S/C7H10O2/c1-6-3-2-4-9-7(8)5-6/h3H,2,4-5H2,1H3	InChI=1S/C7H10O2/c1-6-3-2-4-9-7(8)5-6/h3H,2,4-5H2,1H3
