19
gdb 3006	2.6059013	1.6179992	1.2735559	1.9813	76.37	-0.21958	0.01947	0.23904999999999998	1054.0608	0.155731	-422.541646	-422.532727	-422.531782	-422.574584	34.152	
C	 1.4794935223	 0.6983912999	 0.1323983645	-0.516238
C	 0.0627591429	 0.2443169108	 0.1450484345	 0.27503
C	-1.1026538512	 0.8812846564	-0.0282897551	-0.209482
C	-2.1457693179	-0.2365552292	 0.0542411868	-0.100798
C	-1.6161818115	-1.0584646211	 1.2770994497	-0.286858
C	-0.3902836205	-1.2178570528	 0.3153276151	 0.258379
O	 0.5523949909	-2.2437274545	 0.4056587642	-0.494403
C	-1.4334475136	-1.3040517631	-0.8519026914	 0.14824
O	-2.1163940897	-2.5270054787	-0.9482273884	-0.456606
H	 1.9747799525	 0.5073033258	 1.0936274417	 0.118362
H	 2.0600789258	 0.1571345379	-0.6243286628	 0.136389
H	 1.5533100556	 1.7693472724	-0.0758889874	 0.126383
H	-1.2925006561	 1.9274756752	-0.2261999231	 0.097172
H	-3.1995500854	 0.0014043379	-0.0707153461	 0.072507
H	-1.4544075971	-0.5156791349	 2.2113674036	 0.084498
H	-2.1578161686	-1.9932446741	 1.4298690966	 0.108673
H	 0.8608584895	-2.3044366806	 1.3154607721	 0.285359
H	-1.0871762399	-0.9461157752	-1.8305062829	 0.063246
H	-1.4472501682	-3.2216240522	-0.9675782313	 0.290146
143.2395	154.1687	159.8811	201.1766	225.3843	303.6183	320.0081	396.5731	455.1062	482.6485	531.9747	580.1957	624.4903	669.9825	784.3438	811.3081	860.8242	889.9556	935.6932	957.9944	971.3976	1008.6699	1049.981	1063.3736	1090.3739	1128.3333	1148.4768	1170.7298	1204.5781	1234.985	1247.7423	1258.9315	1294.6978	1334.9134	1357.051	1384.4258	1412.7738	1476.0721	1481.8985	1484.8759	1690.0137	3015.4338	3019.559	3062.6616	3066.4298	3109.924	3141.7655	3146.4243	3219.5825	3788.8933	3817.2632
CC1=CC2CC1(O)C2O	CC1=C[C@@H]2C[C@@]1(O)[C@H]2O	
InChI=1S/C7H10O2/c1-4-2-5-3-7(4,9)6(5)8/h2,5-6,8-9H,3H2,1H3	InChI=1S/C7H10O2/c1-4-2-5-3-7(4,9)6(5)8/h2,5-6,8-9H,3H2,1H3/t5-,6+,7+/m1/s1
