19
gdb 1465	2.2114559	1.7605715	1.407609	3.637	74.4	-0.23201	-0.02438	0.20762999999999998	1021.71	0.155957	-422.58241	-422.573674	-422.57273	-422.61531	33.598	
C	-0.3692179194	 2.3087979985	-1.2013499135	-0.414231
C	-0.7824289925	 1.2570892649	-0.1890040175	 0.295166
O	-0.5522818866	 1.8221215263	 1.1116828369	-0.468204
C	-2.2001609378	 0.728860696	-0.2838822348	-0.096878
C	-2.529999851	-0.2399248741	-1.3912419402	-0.30654
C	-2.1934890928	-0.7750291185	-0.0239227146	-0.053466
C	-0.7588597088	-1.2322285126	 0.1703572113	-0.340366
C	 0.0904100364	-0.0322536193	-0.2756274575	 0.346436
O	 1.2411918988	-0.0667803788	-0.6197129679	-0.312417
H	-0.5668898482	 1.9655029562	-2.2200528289	 0.117369
H	-0.9227222934	 3.2348786177	-1.0252257276	 0.118991
H	 0.7009178757	 2.5070516248	-1.1051738312	 0.143526
H	-1.0032697315	 1.2706287912	 1.760695655	 0.281241
H	-2.9882987378	 1.3651380502	 0.104254147	 0.094049
H	-3.5639470577	-0.2839804251	-1.7140057634	 0.120583
H	-1.8126340457	-0.38592192	-2.19501936	 0.122406
H	-2.9789124558	-1.2386152029	 0.561067842	 0.091744
H	-0.5423637662	-1.4408164975	 1.2266071332	 0.127975
H	-0.4785715256	-2.1246131873	-0.3962011784	 0.132617
82.057	181.9233	203.1612	220.3095	275.8596	306.3491	340.0542	357.8144	451.6638	504.3703	553.3222	602.7475	665.2202	693.0025	809.8184	826.7883	865.8114	889.3755	932.727	958.6397	1012.2529	1033.0785	1064.2412	1068.1597	1085.5532	1110.2638	1138.4767	1151.3356	1180.6709	1198.9275	1234.665	1275.5736	1329.9968	1372.1972	1393.0082	1413.6597	1456.9388	1481.9739	1488.318	1493.9369	1852.8019	3029.9565	3051.1311	3092.9177	3119.2918	3127.5045	3134.5107	3167.0287	3179.4969	3210.8809	3801.5749
CC1(O)C2CC2CC1=O	C[C@@]1(O)[C@H]2C[C@H]2CC1=O	
InChI=1S/C7H10O2/c1-7(9)5-2-4(5)3-6(7)8/h4-5,9H,2-3H2,1H3	InChI=1S/C7H10O2/c1-7(9)5-2-4(5)3-6(7)8/h4-5,9H,2-3H2,1H3/t4-,5-,7+/m0/s1
