19
gdb 2336	2.61571	1.5997602	1.2705568	2.2064	74.68	-0.23724	-0.02692	0.21032	1055.5826	0.156437	-422.573784	-422.565473	-422.564528	-422.606745	31.653	
C	-3.2087287842	-1.3368024739	 1.1522134304	-0.45445
C	-2.2929327052	-0.7055337123	 0.1265205084	 0.433969
C	-2.5323754637	-1.1348305042	-1.3596995476	-0.283037
C	-1.1710045309	-1.8847339531	-1.3482408142	-0.230137
C	-0.8299500449	-1.2080157635	 0.0148537027	-0.213857
C	-0.0286546658	 0.0786836732	-0.1315226645	 0.377944
O	 1.1575419798	 0.1846238849	-0.3005361295	-0.306798
C	-1.0252416657	 1.2430602076	-0.0481282712	-0.202716
O	-2.2648990702	 0.7063834104	 0.3635958385	-0.299898
H	-3.2690816397	-2.419579219	 1.0059040612	 0.116898
H	-2.8468727643	-1.1387792593	 2.1654895392	 0.123487
H	-4.2173048812	-0.921394865	 1.0601673488	 0.129933
H	-3.4224169364	-1.7401225067	-1.544811366	 0.105651
H	-2.5529383805	-0.2756098469	-2.0344382136	 0.11183
H	-1.2780688018	-2.9663517949	-1.2443249817	 0.114779
H	-0.4798788699	-1.6839122178	-2.1694950954	 0.118248
H	-0.4090965556	-1.8380047095	 0.8013698846	 0.098804
H	-0.6882616957	 1.9953376212	 0.6726434061	 0.137131
H	-1.0858977843	 1.7303474188	-1.035058036	 0.12222
64.922	131.7301	201.4231	232.8486	279.6476	325.7948	398.5939	464.7729	540.473	573.1922	637.2211	658.877	725.8725	775.851	867.1489	893.396	912.4832	915.6188	944.3181	967.9524	990.8733	1080.8218	1100.7477	1117.9196	1153.4998	1177.1688	1201.921	1210.3745	1211.9739	1233.7276	1261.5732	1285.3501	1328.1603	1339.3582	1410.5484	1474.4263	1482.1751	1484.6284	1492.7715	1497.1647	1850.1177	2977.3608	3037.4347	3066.5043	3072.1042	3072.7508	3092.5197	3111.1504	3112.5137	3115.3053	3130.235
CC12CCC1C(=O)CO2	C[C@]12CC[C@H]1C(=O)CO2	
InChI=1S/C7H10O2/c1-7-3-2-5(7)6(8)4-9-7/h5H,2-4H2,1H3	InChI=1S/C7H10O2/c1-7-3-2-5(7)6(8)4-9-7/h5H,2-4H2,1H3/t5-,7-/m0/s1
