19
gdb 4009	3.598987	1.2339637	1.052991	2.9108	76.75	-0.24273	0.00345	0.24618	1180.8857	0.157474	-422.557289	-422.54904	-422.548096	-422.589979	31.627	
C	 0.3054837341	 0.5619192311	 0.1557154659	-0.404689
C	 0.8354368954	-0.7330440506	-0.4301651046	 0.157984
O	 2.1789782894	-0.5879471169	-0.9528532371	-0.306273
C	 2.7312946242	-1.4679533016	 0.0494564805	 0.07737
C	 1.3161104672	-1.8152554685	 0.5810685536	-0.143472
C	 1.1205988675	-3.2387408064	 0.1454485046	-0.088484
C	 2.179514621	-3.7264063802	-0.5070752074	-0.120812
C	 3.3374741705	-2.7563103757	-0.5458066887	 0.071103
O	 4.4755850293	-3.2379577029	 0.1639168143	-0.428129
H	 0.9571858344	 0.9268984792	 0.9559214273	 0.120123
H	 0.250785774	 1.3329748044	-0.6188497881	 0.128724
H	-0.7002218533	 0.4145070223	 0.5652097575	 0.113691
H	 0.1578548717	-1.1102693613	-1.2067926136	 0.078007
H	 3.4432686802	-0.9556716224	 0.7051271659	 0.079959
H	 1.0616276134	-1.6169871958	 1.6252065959	 0.078026
H	 0.1935932163	-3.7768438883	 0.3164335171	 0.101634
H	 2.2536178058	-4.7200235479	-0.9354604768	 0.102612
H	 3.6923438684	-2.5484854733	-1.5609057388	 0.106358
H	 4.1584580205	-3.6174450653	 0.9909152627	 0.276267
86.4753	154.1017	219.6707	241.6966	310.8009	322.5032	344.5112	366.4204	496.62	565.3657	691.3847	746.7156	800.0185	825.8141	860.0487	895.1076	914.2682	931.3357	981.6143	1014.3652	1032.9347	1051.1301	1064.8289	1078.4971	1099.1173	1125.1495	1132.6958	1219.4837	1235.7033	1244.0811	1282.7563	1292.0696	1303.3395	1343.0188	1376.7561	1384.1047	1406.1728	1415.9913	1484.0327	1493.5686	1664.6753	3020.8686	3031.9606	3053.5438	3064.0802	3078.1813	3103.8811	3112.9485	3176.9201	3204.12	3801.5794
CC1OC2C1C=CC2O	C[C@H]1O[C@H]2[C@@H]1C=C[C@@H]2O	
InChI=1S/C7H10O2/c1-4-5-2-3-6(8)7(5)9-4/h2-8H,1H3	InChI=1S/C7H10O2/c1-4-5-2-3-6(8)7(5)9-4/h2-8H,1H3/t4-,5-,6+,7+/m1/s1
