19
gdb 5991	4.4114058	0.9399684	0.8940582	1.9389	77.76	-0.22824	-0.00025	0.22799	1373.5552	0.156696	-422.493676	-422.485246	-422.484302	-422.527604	30.954	
C	 1.6522567396	-0.2628470455	 0.6255933497	-0.219369
O	 0.3314705379	-0.0845355101	 1.079665398	-0.23896
C	-0.3615700596	 0.9228919761	 0.362864678	-0.222536
C	-1.7632945707	 0.9693957169	 0.8508080589	 0.388518
C	-2.5520315974	 1.96439074	 1.2631455192	-0.227279
C	-3.8627051276	 1.2108695303	 1.5605837133	 0.029204
C	-3.3400239577	-0.0106115578	 2.3771449692	-0.213861
C	-2.721998111	-0.2377291356	 0.9672117238	-0.021429
O	-3.9605275028	 0.313413755	 0.403020319	-0.289692
H	 2.2532454895	 0.6526007239	 0.7450252074	 0.104941
H	 2.0990763255	-1.0586992671	 1.2261185554	 0.128899
H	 1.6841070816	-0.5560171454	-0.4360242622	 0.104896
H	 0.1279918891	 1.9028798812	 0.4872851383	 0.095839
H	-0.3421006022	 0.6881111618	-0.717712187	 0.098554
H	-2.3587688578	 3.021866956	 1.3702126067	 0.109048
H	-4.774062733	 1.760581396	 1.791264598	 0.080064
H	-2.6719134818	 0.1646923345	 3.2223287263	 0.102857
H	-4.1290995749	-0.7292364816	 2.6099755661	 0.106645
H	-2.4251040666	-1.2078443085	 0.572989422	 0.083659
63.0627	85.4276	98.0672	222.0968	256.1482	327.2923	386.4433	490.7512	561.6089	641.1101	702.4035	790.4449	798.35	838.8461	851.1369	888.1799	914.7658	934.7969	981.3055	1018.5444	1022.3745	1058.5861	1093.3713	1147.3853	1157.5671	1180.6243	1198.9095	1210.7017	1222.369	1233.2171	1250.4252	1260.536	1294.0037	1315.5609	1404.4901	1478.5979	1484.5173	1485.9048	1499.9469	1518.9435	1696.0672	2930.0066	2968.5088	2979.8226	3012.8668	3067.0521	3116.2311	3135.5968	3140.692	3145.4641	3239.6125
COCC1=CC2CC1O2	COCC1=C[C@@H]2C[C@H]1O2	
InChI=1S/C7H10O2/c1-8-4-5-2-6-3-7(5)9-6/h2,6-7H,3-4H2,1H3	InChI=1S/C7H10O2/c1-8-4-5-2-6-3-7(5)9-6/h2,6-7H,3-4H2,1H3/t6-,7-/m1/s1
