19
gdb 4962	2.4480392	1.5826963	1.3164959	1.4709	74.92	-0.22988	0.07062	0.3005	1058.8137	0.155893	-422.49826	-422.489657	-422.488713	-422.531385	32.615	
C	 2.2277915053	-3.7650613379	 1.3580359572	-0.502078
C	 0.8341534672	-3.3780249501	 1.7386147259	 0.374726
C	-0.4332702281	-4.2376219322	 1.4655886969	-0.265869
C	-1.2105880337	-2.9391566546	 1.6731659686	-0.187811
C	-0.4027020044	-2.1852770557	 2.7428357274	 0.032945
O	 0.6757709964	-3.018548494	 3.1519225529	-0.331931
C	 0.0077976419	-2.0896485131	 1.309886546	 0.228917
C	 0.2557298159	-0.9646037757	 0.3655726486	-0.217773
O	 1.4682704219	-0.2745447899	 0.6443881842	-0.41196
H	 2.5584511776	-4.618555711	 1.9598486877	 0.13133
H	 2.2716342123	-4.0501207412	 0.3025963499	 0.122917
H	 2.9158387261	-2.931666862	 1.5204933209	 0.13921
H	-0.4789956032	-4.5706779424	 0.4253343562	 0.101568
H	-0.6056154194	-5.0760304567	 2.1479676577	 0.09892
H	-2.2528157427	-2.7259860382	 1.470694094	 0.091693
H	-0.8149346816	-1.4674811858	 3.4409587012	 0.104372
H	 0.3598375474	-1.3303890069	-0.6625224097	 0.113629
H	-0.6125295695	-0.2843660256	 0.375615363	 0.091963
H	 1.4470824707	-0.026408127	 1.5748797212	 0.285231
90.1251	111.3726	182.2928	195.2331	295.0501	311.5148	337.7212	414.1442	487.9794	551.8704	624.6692	638.2959	764.275	788.4098	818.6797	871.5039	880.8746	928.8607	964.1865	981.4323	993.7422	1023.9285	1035.2395	1047.6704	1101.7362	1118.4891	1145.0225	1163.8148	1217.5665	1237.2975	1247.1032	1285.7484	1333.1276	1364.4055	1415.6275	1418.2836	1451.1219	1478.1864	1485.4267	1488.5104	1498.965	2964.2336	3039.3156	3046.9851	3055.3234	3107.8489	3111.5419	3125.5179	3192.3229	3202.0317	3808.5074
CC12CC3C(O1)C23CO	C[C@@]12C[C@H]3[C@@H](O1)[C@@]23CO	
InChI=1S/C7H10O2/c1-6-2-4-5(9-6)7(4,6)3-8/h4-5,8H,2-3H2,1H3	InChI=1S/C7H10O2/c1-6-2-4-5(9-6)7(4,6)3-8/h4-5,8H,2-3H2,1H3/t4-,5+,6-,7-/m0/s1
