19
gdb 5461	2.9000877	1.3725285	1.1650518	1.4088	75.6	-0.2341	0.08085	0.31495	1130.0864	0.156532	-422.487992	-422.479685	-422.47874	-422.520793	31.847	
C	 1.4251978279	-0.0563813835	 0.0761377778	-0.239926
O	 0.0262815842	-0.1316037486	 0.233786186	-0.259367
C	-0.4789640007	 0.7550371922	 1.2084449779	 0.156928
C	-0.2715752309	 0.2689589857	 2.6442358021	-0.19223
C	-1.5258195088	 0.7247491831	 3.4515076544	-0.122929
C	-2.4222990057	 1.5034201639	 2.4883694036	-0.240896
C	-1.985000022	 0.4753338584	 1.4121975456	-0.173324
C	-1.56576166	-0.5076647907	 2.6062843322	 0.390104
O	-1.9081095567	-1.7855069218	 2.9473921665	-0.454448
H	 1.9648626304	-0.3540018249	 0.9875193871	 0.104983
H	 1.6981425863	-0.7400934198	-0.7315810039	 0.125267
H	 1.7483825081	 0.96036729	-0.1970432772	 0.105055
H	-0.1906420051	 1.7902736584	 0.9643439872	 0.054866
H	 0.6479209445	 0.0288207482	 3.1623037518	 0.087431
H	-1.4727731549	 0.7848836202	 4.531233951	 0.091207
H	-3.4777168916	 1.3972993601	 2.7526222156	 0.105812
H	-2.1967680484	 2.5577199305	 2.2912194325	 0.089477
H	-2.6011051051	 0.2390351427	 0.5477706617	 0.07849
H	-1.4602326114	-2.3851392341	 2.3388343282	 0.293499
88.3873	135.0161	191.9329	235.1186	290.089	370.6207	388.546	407.1638	468.2383	520.5359	624.0863	725.4822	790.7435	855.1797	869.0507	901.1426	929.0646	956.5315	978.5437	996.2586	1008.8485	1022.3015	1068.1773	1099.9371	1116.5009	1140.8146	1158.9173	1183.0707	1203.7211	1218.5667	1229.6815	1253.2948	1284.3888	1297.8217	1318.8964	1380.3423	1480.9542	1486.7568	1487.923	1509.2113	1509.8464	2967.9837	2978.6811	3023.9685	3035.7654	3099.2884	3111.7126	3149.3077	3194.1578	3203.8338	3781.2413
COC1C2C3CC1C23O	CO[C@@H]1[C@H]2[C@H]3C[C@@H]1[C@@]23O	
InChI=1S/C7H10O2/c1-9-6-4-2-3-5(6)7(3,4)8/h3-6,8H,2H2,1H3	InChI=1S/C7H10O2/c1-9-6-4-2-3-5(6)7(3,4)8/h3-6,8H,2H2,1H3/t3-,4+,5-,6+,7-/m1/s1
