19
gdb 2998	4.7520973	0.8659894	0.8238833	2.527	76.29	-0.24909	-0.02151	0.22758	1397.6169	0.157062	-422.566114	-422.557576	-422.556632	-422.599567	31.997	
O	 2.2664380071	 5.05852063	-3.1819370871	-0.434118
C	 1.9424392789	 3.9158782585	-2.4441123734	 0.096148
C	 2.2108853654	 3.9296576312	-0.9559905519	-0.091888
C	 1.479404467	 2.9189471953	-0.0866859507	-0.254129
C	 1.6337288078	 1.5570756218	-0.8236445663	-0.071562
C	 2.9633286389	 1.6825823876	-1.6208380794	-0.256358
C	 3.123800303	 3.1677052016	-1.901707394	-0.052585
C	 1.6652730526	 0.3987995125	 0.1443876012	 0.149252
O	 0.8946445154	-0.5248738983	 0.1592649147	-0.248616
H	 1.5926684876	 5.7246970363	-3.0094258276	 0.286169
H	 1.0872446421	 3.3539102034	-2.8232767368	 0.08384
H	 2.5280640443	 4.8716963372	-0.5221375794	 0.089265
H	 1.964229012	 2.8720550296	 0.8978109634	 0.105046
H	 0.4250829333	 3.1584582122	 0.0858535424	 0.112095
H	 0.793762521	 1.3914117192	-1.5022287832	 0.098281
H	 3.8059200935	 1.3404871355	-1.0052024725	 0.105016
H	 2.9476170785	 1.0603116761	-2.5210822398	 0.116899
H	 4.1009839874	 3.5570974612	-2.1628229951	 0.099153
H	 2.4989791042	 0.4647963291	 0.8866373752	 0.068092
73.095	87.7343	232.4218	255.06	293.4983	319.3175	353.5358	358.1743	371.6176	509.7635	651.5977	674.8753	832.0855	851.2809	853.1906	888.9896	912.863	954.2757	1012.3891	1030.6438	1046.4486	1050.3019	1080.2392	1107.4478	1115.4879	1153.0387	1184.9003	1185.7192	1242.1478	1278.4527	1288.4973	1301.2143	1311.1233	1326.73	1337.7679	1368.7583	1428.2295	1468.5601	1486.9134	1498.3285	1836.0975	2828.6941	3018.16	3022.6724	3068.5456	3075.636	3081.6028	3095.6435	3171.5322	3185.3323	3802.8878
OC1C2CC(CC12)C=O	O[C@@H]1[C@H]2C[C@@H](C[C@@H]12)C=O	
InChI=1S/C7H10O2/c8-3-4-1-5-6(2-4)7(5)9/h3-7,9H,1-2H2	InChI=1S/C7H10O2/c8-3-4-1-5-6(2-4)7(5)9/h3-7,9H,1-2H2/t4-,5-,6+,7+
