19
gdb 5226	3.6862423	1.3116463	1.1919234	1.5225	74.2	-0.23997	0.06152	0.30149	1078.1387	0.157733	-422.507687	-422.499984	-422.49904	-422.539865	30.236	
O	 1.665423945	 0.5645090353	 0.2526416916	-0.416487
C	 0.4684940591	-0.1577285004	 0.5139054467	-0.177836
C	-0.522423413	 0.6452940549	 1.3211593026	 0.314732
C	-0.2367652617	 0.8696500266	 2.8385926713	-0.305014
C	-1.7522878816	 0.7536438039	 3.1259619994	 0.111714
O	-2.4567438708	 1.9648723103	 2.7801394621	-0.304399
C	-2.4894624818	 1.5922587159	 1.3825509291	 0.106979
C	-1.1538463754	 1.911735421	 0.6740639748	-0.277787
C	-1.9805244229	 0.1591919983	 1.7081863913	-0.163086
H	 2.0666490442	 0.7800770788	 1.1010158149	 0.285813
H	 0.049944656	-0.3975881654	-0.4705728694	 0.105743
H	 0.6808683942	-1.1145930576	 1.0204841746	 0.081635
H	 0.2978646631	 0.0105279718	 3.2627314764	 0.095517
H	 0.2523238593	 1.7968835726	 3.1504907227	 0.10384
H	-2.0906960066	 0.3390378395	 4.0773325059	 0.078848
H	-3.4353107939	 1.8631075294	 0.9100473091	 0.078923
H	-1.2480691819	 1.7794669631	-0.4095574833	 0.10163
H	-0.7023850614	 2.8848739723	 0.8817661809	 0.104766
H	-2.44967504	-0.7873851702	 1.4523532394	 0.074472
81.083	148.5408	261.9632	311.3067	327.0242	358.6198	397.4646	463.6394	657.57	665.8196	751.9697	821.5755	830.961	856.0745	875.0504	915.7626	952.0217	958.4907	971.9348	979.3332	992.3287	1035.9348	1063.6947	1096.9056	1141.231	1150.1672	1152.7999	1161.6119	1195.5111	1239.6196	1257.0266	1268.0794	1271.4448	1301.4012	1325.5795	1354.5561	1374.5325	1419.2131	1462.3619	1473.7244	1502.5402	2959.6472	3027.3496	3044.0469	3057.4215	3089.3932	3093.2204	3095.3433	3109.2131	3148.7796	3811.5559
OCC12CC3OC(C1)C23	OC[C@@]12C[C@H]3O[C@@H](C1)[C@@H]23	
InChI=1S/C7H10O2/c8-3-7-1-4-6(7)5(2-7)9-4/h4-6,8H,1-3H2	InChI=1S/C7H10O2/c8-3-7-1-4-6(7)5(2-7)9-4/h4-6,8H,1-3H2/t4-,5+,6+,7-
