19
gdb 2524	2.1708099	1.5506519	0.9454047	3.3446	81.43	-0.23781	-0.04908	0.18873	1241.1228	0.157069	-422.577258	-422.568487	-422.567543	-422.61109	32.27	
C	 1.4970836284	 0.8458888518	 0.534449263	-0.463415
C	 0.1813301504	 0.2075076717	 0.1623283932	 0.262686
C	 0.132888533	-1.1059166957	-0.1199487919	-0.231348
C	-0.9844597101	-2.0207041561	-0.4495885678	 0.353494
O	-0.7285757715	-3.19880041	-0.627319668	-0.329376
C	-2.4285872665	-1.5520957236	-0.5779198996	-0.297344
C	-2.8124917818	-0.2851018557	 0.1738328125	-0.111209
O	-2.1776146326	 0.8502099169	-0.3895254243	-0.237129
C	-0.9559825208	 1.2017671448	 0.1971448126	-0.156209
H	 1.4202470071	 1.3735834296	 1.4935065443	 0.133598
H	 2.296655207	 0.1074523048	 0.6126137259	 0.138147
H	 1.7899188721	 1.5964906259	-0.2105065145	 0.137849
H	 1.0675831939	-1.6610751277	-0.0822193285	 0.09728
H	-2.6168185631	-1.379528165	-1.6456243041	 0.137844
H	-3.0616719608	-2.393829107	-0.2796735152	 0.122689
H	-3.8905450135	-0.11715314	 0.0790466936	 0.114199
H	-2.5833749015	-0.3668351955	 1.2470943134	 0.0979
H	-0.6313324922	 2.1124683682	-0.3218452896	 0.124443
H	-1.1002172975	 1.4919002522	 1.2563608848	 0.105901
54.5469	131.5123	152.4124	197.9927	278.7013	304.0004	349.6022	422.6697	450.5965	493.1038	513.9376	581.7713	660.8972	775.9801	854.9497	877.0257	916.2279	954.685	994.6984	1032.0766	1036.9403	1071.8319	1096.9585	1125.5356	1196.0391	1227.5604	1281.7357	1286.8285	1324.3293	1359.7161	1370.7144	1403.4732	1410.4259	1422.8863	1441.3031	1467.9397	1478.7175	1486.6148	1504.2858	1697.2623	1744.7242	2918.6955	2994.7897	3021.8103	3034.8663	3045.6717	3069.5789	3070.5519	3091.0831	3132.7941	3153.8287
CC1=CC(=O)CCOC1	CC1=CC(=O)CCOC1	
InChI=1S/C7H10O2/c1-6-4-7(8)2-3-9-5-6/h4H,2-3,5H2,1H3	InChI=1S/C7H10O2/c1-6-4-7(8)2-3-9-5-6/h4H,2-3,5H2,1H3
