19
gdb 4828	3.1018286	1.4755705	1.2705307	2.4436	73.88	-0.24421	0.06376	0.30797	1041.5829	0.157309	-422.508267	-422.500332	-422.499388	-422.54036	31.757	
O	 1.0164704738	 0.9794750678	 0.3033085203	-0.422408
C	 0.2699324783	-0.1996613615	 0.5273897281	-0.117651
C	-1.189196388	 0.1238219469	 0.8203706307	 0.394899
O	-1.6738598711	 0.95354873	-0.2458972892	-0.494224
C	-2.1827686554	-0.9707938883	 1.1945136015	-0.153539
C	-2.1640398638	-1.1162041834	 2.7285582587	-0.073125
C	-1.145550314	-0.1192784728	 3.2813812372	-0.250423
C	-1.6173492949	 0.8220761144	 2.1434500218	-0.089497
C	-2.9593040202	-0.0189914136	 2.0715176243	-0.074377
H	 0.4443630869	 1.5370348815	-0.2401450126	 0.284119
H	 0.3053118382	-0.8760801685	-0.3481471674	 0.065144
H	 0.7384790393	-0.7335461129	 1.3585344238	 0.109328
H	-1.8292374982	 0.3905491168	-1.0127352136	 0.28017
H	-2.5667494167	-1.7635272356	 0.5625574164	 0.080101
H	-2.5387122904	-2.0201252705	 3.1926507143	 0.087539
H	-1.4621462261	 0.2555634283	 4.2587614622	 0.102415
H	-0.0855143249	-0.3895830419	 3.3259687398	 0.09725
H	-1.5302646832	 1.9029990642	 2.2152187258	 0.081168
H	-4.0061750096	 0.2418123491	 2.0978479279	 0.093114
98.935	162.7554	248.7607	284.8892	329.8293	392.5784	426.0267	473.3896	516.0636	539.7359	691.3992	753.2075	789.0718	802.2729	818.7058	858.9323	904.0795	936.1421	946.2727	997.1282	1000.6547	1028.171	1035.2391	1052.3996	1063.2076	1096.0404	1117.66	1128.9075	1157.1709	1179.7782	1203.2961	1209.9259	1225.8448	1274.0453	1315.2968	1339.0725	1356.8111	1389.6116	1444.9719	1494.6778	1517.974	2920.8303	3044.1242	3089.5378	3098.6003	3155.6911	3177.0588	3192.5689	3235.0473	3764.6251	3794.8876
OCC1(O)C2C3CC1C23	OC[C@@]1(O)[C@H]2[C@H]3C[C@@H]1[C@@H]23	
InChI=1S/C7H10O2/c8-2-7(9)4-1-3-5(4)6(3)7/h3-6,8-9H,1-2H2	InChI=1S/C7H10O2/c8-2-7(9)4-1-3-5(4)6(3)7/h3-6,8-9H,1-2H2/t3-,4+,5-,6-,7-/m0/s1
