19
gdb 4677	2.8971225	1.2517232	1.0119682	1.8764	76.05	-0.23358	-0.02084	0.21274	1215.7746	0.156614	-422.515289	-422.506615	-422.50567	-422.550346	31.766	
O	 0.981055231	-0.1072206227	 0.5284556138	-0.404205
C	 0.4136494142	-0.5978547443	-0.6711426262	-0.163099
C	-0.4569109551	 0.3967423562	-1.4555158833	 0.27732
O	-1.1769928054	-0.0177091733	-2.3378801613	-0.304327
C	-0.3375375305	 1.8542266789	-1.0885952689	-0.03675
C	-1.0158296513	 2.9472093861	-1.9628986819	-0.05263
C	-0.0307510973	 3.962676318	-1.3086353524	-0.22248
C	 0.8342850576	 2.7249869036	-1.6815917528	-0.051483
C	 0.0825572431	 2.7064323071	-3.0440099753	-0.220749
H	 0.3004103839	-0.1107476995	 1.2080598437	 0.29102
H	 1.2548662427	-0.8561471333	-1.3272371558	 0.143548
H	-0.1684871894	-1.5182225404	-0.5291491054	 0.122469
H	-0.4430585557	 1.9741806981	-0.0053116518	 0.069812
H	-2.0858332987	 3.0715316869	-2.1271179997	 0.07971
H	 0.1677719881	 4.876361634	-1.8749244518	 0.093171
H	-0.1632056044	 4.1697527156	-0.2429731328	 0.089383
H	 1.8991493026	 2.5793161975	-1.4983030127	 0.082015
H	 0.2903838863	 3.5480427074	-3.7099098756	 0.089926
H	 0.0386036984	 1.7654173241	-3.5908826697	 0.117348
19.7637	64.5009	133.8825	200.0604	254.116	307.6274	402.9367	524.3411	540.6375	543.746	607.6076	772.7468	790.2009	838.3404	884.6663	901.3836	908.8066	949.1041	964.0322	1012.6317	1023.4511	1049.8261	1080.8564	1094.3427	1113.9372	1114.7131	1128.8898	1180.8466	1189.0773	1194.6084	1207.6163	1237.0494	1246.1252	1264.1409	1359.9503	1388.9972	1398.8767	1459.5971	1502.5526	1540.7543	1793.5285	3016.5076	3048.9231	3053.2936	3062.804	3067.4726	3111.0676	3115.7771	3119.3882	3149.9901	3828.126
OCC(=O)C1C2CC1C2	OCC(=O)[C@@H]1[C@H]2C[C@@H]1C2	
InChI=1S/C7H10O2/c8-3-6(9)7-4-1-5(7)2-4/h4-5,7-8H,1-3H2	InChI=1S/C7H10O2/c8-3-6(9)7-4-1-5(7)2-4/h4-5,7-8H,1-3H2/t4-,5+,7-
