19
gdb 2311	2.2241517	1.5398363	1.4708697	2.7273	75.68	-0.24359	-0.03836	0.20523	1045.7492	0.155082	-422.538099	-422.529192	-422.528248	-422.571913	32.652	
C	 0.006303362	 0.4303915389	-0.0602735263	-0.498639
C	 1.4707211367	 0.0794363229	 0.0451983846	 0.242817
C	 2.0437118447	-1.0146923217	-0.9011204202	-0.281218
C	 2.6344666641	-1.7821722153	 0.3184930851	-0.271375
C	 2.1499335813	-0.6672249779	 1.2703529588	 0.311609
O	 3.0864005876	 0.409145163	 1.4452464234	-0.339406
C	 2.4905577065	 1.186888471	 0.3802223763	-0.121625
C	 1.4162564489	-1.0281449081	 2.5237797774	 0.083784
O	 0.7194319168	-2.0085224898	 2.6300263376	-0.262157
H	-0.3085676478	 1.1088405719	 0.7395546443	 0.122021
H	-0.2004354834	 0.9226759206	-1.0184826801	 0.124914
H	-0.6181872666	-0.4671036123	-0.0070778309	 0.13676
H	 1.2702490579	-1.5713999507	-1.435134047	 0.109863
H	 2.7693601287	-0.6476325946	-1.6317515091	 0.104147
H	 2.1265866281	-2.7267053863	 0.5238902516	 0.129753
H	 3.7155098684	-1.9312186805	 0.3346058729	 0.114864
H	 2.0453678808	 2.1124703301	 0.7682937359	 0.102927
H	 3.2135055591	 1.4384688984	-0.4055413225	 0.10356
H	 1.539514886	-0.2944199897	 3.3510485483	 0.087402
69.8764	79.7328	178.4627	212.084	233.9992	265.624	331.2408	370.148	432.2304	494.1329	619.1452	651.227	727.7829	754.8177	833.4332	877.2478	914.5254	955.0199	964.0414	995.2305	1015.6184	1040.3873	1095.6072	1141.0424	1152.0758	1161.7037	1215.0249	1233.0604	1242.7348	1261.2225	1281.6994	1297.288	1362.138	1398.1255	1413.8393	1457.0876	1483.6646	1490.3823	1492.8201	1524.0506	1808.5373	2892.0476	3005.6431	3024.5475	3053.9793	3060.0275	3075.4919	3088.7842	3103.665	3109.6969	3139.8536
CC12CCC1(OC2)C=O	C[C@]12CC[C@]1(OC2)C=O	
InChI=1S/C7H10O2/c1-6-2-3-7(6,4-8)9-5-6/h4H,2-3,5H2,1H3	InChI=1S/C7H10O2/c1-6-2-3-7(6,4-8)9-5-6/h4H,2-3,5H2,1H3/t6-,7+/m1/s1
