19
gdb 4326	2.8976986	1.1986197	1.0041995	3.1017	76.67	-0.25226	0.00931	0.26156999999999997	1229.9045	0.157125	-422.544046	-422.535562	-422.534618	-422.577683	31.778	
O	 3.3990538642	 2.0931220033	-2.2264534882	-0.436041
C	 2.5055829296	 1.1837076308	-1.601394904	 0.116596
C	 1.9103490858	 1.7786947659	-0.2996360231	-0.282654
C	 2.8047206706	 1.2037625609	 0.7744248032	-0.07367
C	 3.5466993754	 0.1943224235	 0.3158924459	-0.099617
C	 3.2487125514	-0.1069153374	-1.1397872496	-0.094392
C	 2.4042030039	-1.3584245042	-1.281053386	 0.092321
C	 2.9825068833	-2.6630787902	-1.6254838711	-0.184626
O	 2.2693452304	-1.8969872691	-2.5979456882	-0.23823
H	 4.0878737062	 2.3064356615	-1.5861469669	 0.278617
H	 1.7477290434	 0.9655393444	-2.3569584276	 0.100772
H	 1.9158312669	 2.8729500863	-0.3465909268	 0.11204
H	 0.8655149507	 1.4758739098	-0.1471900745	 0.112162
H	 2.8135009141	 1.5722784113	 1.7944944079	 0.098051
H	 4.2443162167	-0.3912425926	 0.9045033338	 0.096914
H	 4.1462183223	-0.2351670578	-1.7555697096	 0.082435
H	 1.4752692659	-1.3550493024	-0.706871059	 0.091945
H	 4.0561985341	-2.7447574333	-1.7927720784	 0.112442
H	 2.493331825	-3.5800789407	-1.2997111978	 0.114938
66.4365	85.9052	165.5514	195.0209	302.4116	356.5886	388.9672	431.4138	483.7334	493.274	726.0616	758.6251	793.2802	847.2776	864.5433	877.0654	914.5539	947.8196	971.5304	981.2782	992.3633	1048.2434	1064.815	1100.9206	1131.1276	1133.5691	1159.7886	1167.3859	1174.7067	1221.1764	1263.7097	1288.4706	1293.6035	1308.499	1318.3819	1379.153	1435.6452	1438.5994	1475.1498	1528.7202	1672.0602	3018.8492	3045.8503	3070.4829	3079.1581	3089.2394	3096.7387	3165.6969	3181.2062	3206.1312	3791.0042
OC1CC=CC1C1CO1	O[C@@H]1CC=C[C@H]1[C@@H]1CO1	
InChI=1S/C7H10O2/c8-6-3-1-2-5(6)7-4-9-7/h1-2,5-8H,3-4H2	InChI=1S/C7H10O2/c8-6-3-1-2-5(6)7-4-9-7/h1-2,5-8H,3-4H2/t5-,6-,7+/m1/s1
