19
gdb 1221	3.3276833	0.9274709	0.8811521	2.5654	77.39	-0.2534	-0.02714	0.22626000000000002	1382.734	0.151284	-422.520699	-422.509892	-422.508948	-422.557476	38.011	
C	-3.9861739922	 0.6004502164	-1.0815324638	-0.422894
C	-3.0210684484	 1.3641879036	-0.1679059565	 0.264011
C	-3.1199686801	 0.8843563997	 1.2915113423	-0.424117
O	-1.6798724947	 1.3635776396	-0.6698039983	-0.279451
C	-0.9718319846	 0.1354434022	-0.7000235413	-0.246142
C	-0.1987792274	-0.1354644031	 0.5149815466	 0.329715
C	 0.4600910484	-0.3586635853	 1.4949513122	-0.463392
C	-3.3766008916	 2.8569578535	-0.1720280948	 0.144041
O	-4.4999229605	 3.2815885993	-0.1172242251	-0.258667
H	-3.8772599463	-0.4826982968	-0.9745100237	 0.11516
H	-5.0120421021	 0.8697571034	-0.8197129532	 0.146151
H	-3.8134285095	 0.8714715092	-2.1267077875	 0.126666
H	-2.8681147607	-0.176243271	 1.3741995651	 0.128298
H	-2.4375858084	 1.4451870803	 1.9356304569	 0.133764
H	-4.1432291164	 1.0274967058	 1.6491876303	 0.135828
H	-1.6384143792	-0.7106691652	-0.9118803786	 0.126353
H	-0.2823464296	 0.2112265813	-1.5489323627	 0.143434
H	 1.0384793362	-0.5573676736	 2.3633773044	 0.204453
H	-2.4855854731	 3.5200108107	-0.2037997123	 0.096789
27.861	54.0138	94.5066	195.951	210.3642	225.9601	264.544	294.0407	297.8647	327.0505	365.5306	385.185	437.422	595.4437	607.7782	621.2893	679.4043	752.4625	862.8956	911.5751	931.8728	952.0888	983.8136	1035.7953	1041.0382	1088.7728	1193.5614	1202.4761	1258.6041	1306.9098	1380.271	1389.3894	1396.1391	1412.338	1475.4837	1478.8818	1482.8188	1499.8315	1505.3401	1839.3087	2235.1019	2911.0245	3020.6552	3043.9105	3047.8154	3059.6613	3117.2334	3122.1682	3128.3251	3135.357	3502.8687
CC(C)(OCC#C)C=O	CC(C)(OCC#C)C=O	
InChI=1S/C7H10O2/c1-4-5-9-7(2,3)6-8/h1,6H,5H2,2-3H3	InChI=1S/C7H10O2/c1-4-5-9-7(2,3)6-8/h1,6H,5H2,2-3H3
