19
gdb 5651	2.7888397	1.3434242	1.0085647	4.472	75.52	-0.26042	0.01182	0.27224	1212.8222	0.15771	-422.59689	-422.58853	-422.587586	-422.63005	31.381	
C	 2.9672583899	 1.6139596649	-0.2392137398	-0.38606
C	 1.9611648723	 0.460030574	-0.2140893084	-0.18622
C	 2.2263137563	-0.5899065638	-1.2866289306	 0.111844
O	 2.1459754793	 0.0178272204	-2.5973499964	-0.245452
C	 1.5420330062	-0.8076057197	-3.5085001262	 0.440477
O	 1.5787757333	-0.5939331355	-4.6852121602	-0.345483
C	 0.8751826668	-1.9305970388	-2.7786242512	-0.187776
C	-0.1450116834	-1.4728911749	-1.7497894831	-0.291322
C	 1.2612324154	-1.7688756756	-1.3294141203	-0.069809
H	 2.7450582469	 2.3428500728	 0.5453949216	 0.114978
H	 3.9888070234	 1.2516416177	-0.0793456056	 0.115381
H	 2.9420065215	 2.1286990485	-1.202993994	 0.143316
H	 1.9912408201	-0.0484159939	 0.7580518444	 0.101879
H	 0.9419423603	 0.8430241252	-0.3360013471	 0.106019
H	 3.2521370049	-0.968718938	-1.1751170858	 0.091031
H	 0.7530289084	-2.8737261623	-3.2924530204	 0.119597
H	-0.4915719045	-0.4458045391	-1.7883012523	 0.13539
H	-0.9063187369	-2.1966262991	-1.4828727881	 0.127835
H	 1.4667189297	-2.6214614528	-0.6942251266	 0.104375
95.4864	120.6976	153.4187	206.3441	237.5901	320.3948	399.5566	474.1116	499.7547	618.3898	682.1115	767.5189	781.2455	814.3949	834.8803	847.7012	921.8995	968.4482	980.5355	989.9633	1007.3632	1059.8147	1072.935	1088.8715	1100.922	1128.6624	1164.7986	1194.6689	1198.5941	1290.9761	1317.9066	1331.1242	1363.3976	1389.5793	1406.6135	1413.2611	1475.3622	1489.379	1497.5482	1508.4542	1880.8833	3006.0352	3031.1187	3039.3477	3072.8256	3106.1937	3126.6891	3138.1389	3190.9577	3217.3092	3228.1956
CCC1OC(=O)C2CC12	CC[C@@H]1OC(=O)[C@@H]2C[C@H]12	
InChI=1S/C7H10O2/c1-2-6-4-3-5(4)7(8)9-6/h4-6H,2-3H2,1H3	InChI=1S/C7H10O2/c1-2-6-4-3-5(4)7(8)9-6/h4-6H,2-3H2,1H3/t4-,5+,6-/m0/s1
