19
gdb 2975	2.474647	1.5674134	1.2849896	2.7387	74.58	-0.23338	-0.01495	0.21843	1057.9406	0.157316	-422.564003	-422.555607	-422.554662	-422.596529	32.338	
C	-2.9651050425	 1.4210161405	-1.6624999847	-0.431967
C	-1.6507382024	 0.7000520065	-1.3575543885	 0.035627
C	-1.751999652	-0.8583476841	-1.1378273271	-0.273282
C	-1.0147560101	-1.0065878741	 0.2156245426	-0.195142
C	-1.6496450912	 0.1594466738	 1.0492440713	 0.15647
O	-3.0299849233	 0.1897213291	 1.2843784678	-0.439236
C	-0.9633171914	 1.0936717387	-0.0200647798	-0.204587
C	 0.1268022639	 0.0082266143	 0.0122272336	 0.434532
O	 1.3207488988	-0.0277087483	-0.0077783486	-0.321791
H	-3.6724282916	 1.360021479	-0.8320205605	 0.125979
H	-2.7858963216	 2.4833043082	-1.8576079532	 0.123404
H	-3.4380578486	 0.995976049	-2.5549656094	 0.116445
H	-0.9602709265	 0.8988717273	-2.1843953692	 0.092666
H	-2.7927009499	-1.2044168295	-1.0839211348	 0.095718
H	-1.2724354688	-1.4303413535	-1.935190812	 0.120382
H	-0.8572112951	-2.0041644118	 0.6204371691	 0.087285
H	-1.1663131189	 0.2712610461	 2.0227745875	 0.107141
H	-3.4842612542	-0.2649509108	 0.5689093001	 0.287209
H	-0.7529224445	 2.1452242596	 0.1629773958	 0.083149
142.9002	159.6316	195.2999	228.4657	255.6377	303.6665	315.421	416.3287	512.4202	535.9645	646.5891	682.2323	737.2455	773.5699	787.0831	821.9578	893.6795	929.7093	964.8055	1010.2841	1014.1498	1049.6385	1082.1994	1095.2691	1128.5017	1138.5341	1172.0799	1183.1123	1197.3426	1240.8241	1251.4931	1288.0953	1316.7097	1327.925	1382.1822	1411.881	1448.9299	1492.0423	1509.5985	1510.5633	1906.0752	3015.2821	3034.4035	3039.0408	3088.3166	3097.0307	3099.6588	3122.9294	3144.7347	3148.185	3827.1117
CC1CC2C(O)C1C2=O	C[C@@H]1C[C@@H]2[C@H](O)[C@H]1C2=O	
InChI=1S/C7H10O2/c1-3-2-4-6(8)5(3)7(4)9/h3-6,8H,2H2,1H3	InChI=1S/C7H10O2/c1-3-2-4-6(8)5(3)7(4)9/h3-6,8H,2H2,1H3/t3-,4-,5+,6+/m1/s1
