19
gdb 3633	3.566734	1.0881908	0.9701955	2.972	77.87	-0.22646	-0.01918	0.20728	1278.6799	0.154705	-422.583155	-422.573759	-422.572815	-422.618174	33.725	
C	-3.075040167	-2.7661030341	 2.32742361	-0.389021
C	-2.1919027205	-2.6246506377	 1.0877703392	 0.085918
O	-1.7146294162	-1.2721840608	 0.9727776542	-0.284183
C	-0.2942386633	-1.2328617984	 0.9460944882	-0.020189
C	 0.1363667225	-2.6746324781	 1.0564989166	-0.100662
C	-0.9357691483	-3.4550430591	 1.1143497524	-0.097512
C	 0.2638161355	-0.5955941163	-0.3433540442	 0.353179
C	-0.6771064299	-0.487250065	-1.5210682919	-0.474626
O	 1.4172147452	-0.2366824283	-0.3713606353	-0.304567
H	-3.4905838609	-3.777430477	 2.3895810254	 0.114028
H	-2.4975804073	-2.5682883003	 3.2350744293	 0.123792
H	-3.905305112	-2.0561268768	 2.2792373619	 0.128542
H	-2.7988009772	-2.8525673641	 0.1962317871	 0.08479
H	 0.0879772272	-0.6249871453	 1.7797235007	 0.111284
H	 1.1775810305	-2.966946402	 1.0652858064	 0.126495
H	-0.9487303102	-4.5350111912	 1.1900252269	 0.111797
H	-1.0753241586	-1.4756108641	-1.7756451613	 0.140925
H	-1.5381061818	 0.1329796945	-1.2548268196	 0.154372
H	-0.1482772877	-0.0641447261	-2.3757032959	 0.135636
45.1303	61.559	144.4864	158.0972	222.1842	234.8988	302.2749	358.3371	436.8722	508.6704	516.7319	597.5279	726.9911	755.1168	796.3786	812.9662	857.4117	899.8524	953.184	965.6837	1002.5674	1021.9819	1042.3757	1087.8256	1116.3845	1126.7627	1132.4556	1231.2234	1256.509	1303.6368	1326.3275	1358.2516	1373.9801	1378.5694	1400.5149	1455.0586	1466.4026	1486.2064	1494.0656	1684.7094	1814.8839	2963.9128	2995.7346	3038.2961	3045.0624	3109.3729	3112.2659	3123.2717	3157.1716	3212.4038	3241.1144
CC1OC(C=C1)C(C)=O	C[C@H]1O[C@@H](C=C1)C(=O)C	
InChI=1S/C7H10O2/c1-5-3-4-7(9-5)6(2)8/h3-5,7H,1-2H3	InChI=1S/C7H10O2/c1-5-3-4-7(9-5)6(2)8/h3-5,7H,1-2H3/t5-,7+/m1/s1
