19
gdb 2576	2.7453877	1.718389	1.3761121	1.5144	76.06	-0.23611	0.01861	0.25472	1008.2987	0.158948	-422.57866	-422.571081	-422.570137	-422.610445	29.671	
C	 1.1159579866	 1.2888667911	-0.0114915955	-0.496129
C	-0.1201719802	 0.4478071846	 0.111551624	 0.335809
C	-0.1367663145	-0.8279970066	 0.5035725425	-0.159492
C	-1.4246333972	-1.6025066743	 0.6415410748	-0.275806
C	-2.6195903728	-0.6798054427	 0.3669198123	 0.1869
O	-2.8052373748	 0.2243773637	 1.4581765192	-0.278336
C	-2.2209775969	 1.470399045	 1.075488007	-0.081967
C	-1.4564501356	 1.0952744899	-0.2092403235	-0.050701
O	-2.3548457905	 0.1248234922	-0.7596595541	-0.247445
H	 1.0591455974	 2.1821588865	 0.6249286644	 0.124074
H	 2.0101267144	 0.7295703516	 0.2762945129	 0.125684
H	 1.2524405776	 1.6484512493	-1.0396823873	 0.127396
H	 0.7920127597	-1.3463524498	 0.7307632316	 0.084145
H	-1.4425317651	-2.4553860182	-0.0514466454	 0.108282
H	-1.5264273836	-2.016428545	 1.652002674	 0.117486
H	-3.5495709783	-1.229190914	 0.1935138466	 0.087052
H	-3.0044785487	 2.2127332065	 0.874767668	 0.099722
H	-1.5719366715	 1.8327586547	 1.8786196671	 0.10794
H	-1.3646346059	 1.9163797356	-0.9233330684	 0.085387
122.5896	182.3727	218.7624	279.1091	320.9535	359.4335	471.0957	482.9637	569.2258	679.9758	737.7041	805.1393	826.4381	844.7898	888.4325	919.9468	948.3534	967.6542	1003.3919	1020.9415	1027.8635	1060.588	1073.7649	1097.2089	1136.1691	1183.6505	1193.0888	1210.7318	1270.9569	1297.8422	1326.3903	1356.082	1379.8897	1382.3411	1392.0155	1414.9679	1463.2728	1478.5906	1490.1463	1517.7977	1735.878	3011.4381	3012.1308	3015.1247	3056.0416	3056.4226	3073.4718	3080.8083	3096.9184	3111.3394	3151.6057
CC1=CCC2OCC1O2	CC1=CC[C@H]2OC[C@@H]1O2	
InChI=1S/C7H10O2/c1-5-2-3-7-8-4-6(5)9-7/h2,6-7H,3-4H2,1H3	InChI=1S/C7H10O2/c1-5-2-3-7-8-4-6(5)9-7/h2,6-7H,3-4H2,1H3/t6-,7-/m0/s1
