19
gdb 4992	2.6712783	1.3180384	0.990665	3.8594	77.56	-0.2398	-0.00779	0.23201000000000002	1227.1396	0.154723	-422.532743	-422.523468	-422.522524	-422.566751	33.886	
C	 1.4450042589	-0.0894743027	 0.0118401569	-0.261902
O	 0.0241741695	-0.0493625464	 0.026338215	-0.279536
C	-0.4881109978	 0.6353425617	 1.1018699509	 0.43827
C	-0.4998629969	 2.172637189	 1.2185500954	-0.438005
C	-1.9807725358	 2.0382223299	 1.6755186255	 0.432256
O	-2.8430950814	 2.8452064526	 1.8778629066	-0.317355
C	-1.9484173984	 0.5451721521	 1.589639299	-0.281338
C	-0.7633035052	 0.0089282607	 2.4273379201	-0.080225
C	-0.6890307569	-1.4979546712	 2.5565778375	-0.426946
H	 1.8431316702	-0.5883123263	 0.9053018907	 0.116749
H	 1.7350431223	-0.6541810645	-0.8762032158	 0.135031
H	 1.8735510311	 0.9201149344	-0.0494212036	 0.119901
H	 0.2099497069	 2.6466633978	 1.9026767409	 0.115275
H	-0.4618334066	 2.6669074487	 0.2428587764	 0.136194
H	-2.7526257433	-0.1228893234	 1.3064239944	 0.113236
H	-0.4959639887	 0.5562671985	 3.3298155184	 0.091781
H	-1.410796109	-1.8650250521	 3.2927929427	 0.127595
H	-0.8930693304	-1.9849551336	 1.5995848228	 0.136015
H	 0.3085667715	-1.8077332754	 2.8851148261	 0.123005
85.6945	108.8542	174.6124	189.2152	211.2729	242.3014	260.1192	362.214	410.4554	483.6262	495.4922	552.1078	644.6723	686.6657	792.946	826.7767	923.4232	939.4455	982.5981	1014.8811	1036.2825	1052.5891	1083.373	1112.0224	1133.0344	1143.6817	1179.9925	1189.3795	1214.9979	1224.3235	1243.3925	1348.9651	1412.3797	1415.8582	1454.4644	1487.5441	1489.6243	1496.0775	1501.5659	1507.727	1883.5818	3000.4344	3038.9084	3052.9724	3057.7721	3099.5946	3107.3801	3111.74	3127.3991	3130.6846	3196.6806
COC12CC(=O)C1C2C	CO[C@@]12CC(=O)[C@@H]1[C@H]2C	
InChI=1S/C7H10O2/c1-4-6-5(8)3-7(4,6)9-2/h4,6H,3H2,1-2H3	InChI=1S/C7H10O2/c1-4-6-5(8)3-7(4,6)9-2/h4,6H,3H2,1-2H3/t4-,6+,7-/m1/s1
