19
gdb 577	3.6040133	1.5800194	1.4746109	1.6483	73.32	-0.24078	0.08919	0.32997	955.5988	0.161064	-422.545473	-422.538939	-422.537995	-422.57597	27.203	
C	 1.1225430344	 0.1624998866	-1.7705347635	-0.244046
C	-0.0953537988	 1.1366048931	-1.933512333	-0.237702
C	-0.3697906728	 1.4318405596	-0.4582363566	-0.05983
C	 1.0583244508	 1.6524988082	 0.1352405016	 0.1385
O	 1.0222864846	 1.9115732177	 1.5296742898	-0.283556
C	 0.6143764769	 0.7737737593	 2.2507930924	 0.019124
O	-0.4443101037	 0.093166523	 1.6207557719	-0.283556
C	-0.251978805	 0.027877369	 0.2166157148	 0.1385
C	 1.2413972051	 0.1432402737	-0.2412561439	-0.102837
H	 0.9239873667	-0.8326715574	-2.1786361532	 0.104328
H	 2.0314372434	 0.5404355178	-2.2474134482	 0.104328
H	 0.1613000106	 2.0371778769	-2.4988528876	 0.102931
H	-0.9471430272	 0.6628395574	-2.4300144221	 0.102931
H	-1.1847752811	 2.1026505936	-0.1886748844	 0.07041
H	 1.7138839516	 2.4002844491	-0.318855361	 0.076669
H	 1.4697888171	 0.0903109255	 2.3795931817	 0.087076
H	 0.2600009066	 1.1085692262	 3.2286912277	 0.118267
H	-0.8642842551	-0.7963401099	-0.1587405203	 0.076669
H	 2.0323647555	-0.4733309897	 0.185319194	 0.071795
255.2528	264.6035	289.639	314.8429	400.4468	499.8732	529.4635	643.9012	695.8677	815.9585	818.2182	888.4952	903.6849	939.6478	953.9217	963.9907	964.7944	988.4838	1012.4726	1024.5229	1041.7412	1069.9528	1102.7762	1143.1955	1144.8869	1202.728	1204.2953	1226.931	1240.5195	1250.7962	1262.3207	1271.0236	1281.3729	1319.891	1323.107	1356.6043	1401.9884	1445.5063	1492.2915	1512.6305	1529.898	2960.4142	3049.0008	3057.568	3074.4073	3077.5008	3084.071	3099.0385	3103.662	3119.3242	3128.7358
C1CC2C3OCOC2C13	C1C[C@@H]2[C@H]3OCO[C@@H]2[C@@H]13	
InChI=1S/C7H10O2/c1-2-5-6-4(1)7(5)9-3-8-6/h4-7H,1-3H2	InChI=1S/C7H10O2/c1-2-5-6-4(1)7(5)9-3-8-6/h4-7H,1-3H2/t4-,5+,6-,7+
