19
gdb 944	3.9550961	0.9518533	0.8463425	2.894	75.56	-0.2495	-0.02305	0.22644999999999998	1364.0335	0.156894	-422.563296	-422.554802	-422.553858	-422.597631	30.903	
O	 1.6178270987	 0.2680109937	-0.3097527089	-0.239484
C	 0.4261347189	 0.2496388791	-0.1345207616	 0.151578
C	-0.2752284976	 0.8280116623	 1.0722852479	-0.288215
C	-1.2533465021	 1.9654116353	 0.7120600569	-0.020847
C	-1.8563955596	 2.6448857937	 1.9729500776	-0.235513
C	-3.2512086848	 3.1666219223	 1.5555910036	-0.248683
C	-3.6660056584	 2.2298297264	 0.4397300674	 0.053831
O	-3.4497848908	 0.840787765	 0.7384555534	-0.262932
C	-2.4836154897	 1.5283095194	-0.0708892825	 0.036359
H	-0.2500348659	-0.2106687718	-0.8924564873	 0.074541
H	-0.8520637205	 0.0271793855	 1.5551476636	 0.131559
H	 0.4873934484	 1.1815312344	 1.7722539695	 0.119719
H	-0.7236685363	 2.7136781085	 0.10637058	 0.087901
H	-1.9678703515	 1.8962644493	 2.7611883908	 0.120165
H	-1.2083484181	 3.4343456305	 2.3604163531	 0.105851
H	-3.9604098012	 3.1779294676	 2.3887718402	 0.113851
H	-3.1983530866	 4.1865621687	 1.155359547	 0.106891
H	-4.5360460183	 2.4394100663	-0.1774480019	 0.096049
H	-2.4063617448	 1.1822706638	-1.0987954888	 0.097378
45.7793	67.6003	130.8009	187.0506	264.5273	335.609	384.8815	458.2416	545.9512	632.8007	666.8744	821.3597	828.1952	847.1288	850.8271	886.8823	930.4439	948.5243	990.2993	1023.8035	1039.3184	1049.4238	1090.8592	1117.2752	1129.7195	1187.5324	1214.5006	1226.644	1257.7857	1280.9741	1314.2944	1328.0367	1339.0212	1344.444	1376.8981	1433.2002	1438.2427	1465.4666	1481.8219	1494.481	1832.7938	2858.172	3012.8792	3026.2607	3037.8568	3069.4894	3086.9974	3099.1775	3116.4929	3138.5094	3152.7298
O=CCC1CCC2OC12	O=CC[C@@H]1CC[C@@H]2O[C@H]12	
InChI=1S/C7H10O2/c8-4-3-5-1-2-6-7(5)9-6/h4-7H,1-3H2	InChI=1S/C7H10O2/c8-4-3-5-1-2-6-7(5)9-6/h4-7H,1-3H2/t5-,6-,7+/m0/s1
