19
gdb 6049	4.1515741	0.6319592	0.5695831	0.9686	77.98	-0.26236	0.04662	0.30898	1901.1202	0.153853	-422.501153	-422.490871	-422.489927	-422.537575	35.997	
O	 3.8282071908	 5.7307906696	 2.4904924429	-0.42072
C	 4.0972380792	 4.3397559736	 2.4187184533	-0.066663
C	 3.0228397238	 3.7070474611	 1.5391784138	-0.215088
C	 3.1859361276	 2.2132102254	 1.4287949456	 0.063044
O	 4.2717305921	 1.7422707085	 0.6069624292	-0.26283
C	 2.9353615042	 1.4739579416	 0.1877084424	 0.06017
C	 2.5261624046	 0.009287456	 0.1874217872	-0.381272
C	 1.0816362657	-0.1588173319	 0.0813043577	 0.298565
C	-0.111671668	-0.26546213	-0.0104890774	-0.452692
H	 4.5337296636	 6.1481354874	 2.9929790809	 0.287007
H	 5.0868218394	 4.1395030466	 1.9816756286	 0.105642
H	 4.0789887088	 3.876623944	 3.4195130545	 0.083313
H	 2.0373518085	 3.93526668	 1.963174668	 0.115281
H	 3.0647911315	 4.1615407939	 0.5441326743	 0.113964
H	 3.0839329616	 1.6582638841	 2.364249368	 0.090124
H	 2.6116037355	 2.0386098515	-0.6873652533	 0.103368
H	 3.023096814	-0.496655448	-0.6506564717	 0.141409
H	 2.9029503733	-0.4639916568	 1.1016921314	 0.137936
H	-1.1651083763	-0.3723166468	-0.0893863753	 0.199443
47.2025	81.6285	85.2603	111.6735	151.9163	258.7099	267.7067	327.5244	340.0549	352.6633	447.7868	502.7636	556.6324	626.5946	651.952	777.7171	830.7767	863.2074	957.7283	964.4768	1006.7426	1028.3034	1064.1088	1084.6686	1099.9072	1137.5762	1171.9948	1223.0493	1232.7707	1243.8995	1280.5934	1314.164	1322.7522	1327.055	1386.4119	1462.6885	1468.2241	1477.1714	1504.9877	1528.8072	2241.7738	2961.9206	3007.3347	3025.1268	3040.7717	3062.9062	3079.8065	3096.5343	3110.2015	3506.3598	3831.8561
OCCC1OC1CC#C	OCC[C@@H]1O[C@H]1CC#C	
InChI=1S/C7H10O2/c1-2-3-6-7(9-6)4-5-8/h1,6-8H,3-5H2	InChI=1S/C7H10O2/c1-2-3-6-7(9-6)4-5-8/h1,6-8H,3-5H2/t6-,7-/m0/s1
