19
gdb 3443	2.7285585	1.3120158	0.9635474	3.3828	77.89	-0.23719	-0.02317	0.21402000000000002	1241.7096	0.156223	-422.597605	-422.588722	-422.587778	-422.631187	33.401	
C	 1.3910119349	 0.4520511598	-0.4669281972	-0.484069
C	-0.0089884378	 0.1946463602	 0.0107106431	 0.329885
C	-1.0869485819	 0.7988973653	-0.4932269588	-0.208203
C	-2.4627716893	 0.5325349622	 0.0747833669	 0.013348
O	-3.4914765232	 1.0219005217	-0.7376377074	-0.44133
C	-2.6084798958	-0.9765097844	 0.2812425191	 0.369902
O	-3.6111145526	-1.5393496263	-0.1005786404	-0.336287
C	-1.4326076476	-1.6934798988	 0.9162609228	-0.307455
C	-0.2071316007	-0.7881733258	 1.1504166119	-0.321493
H	 2.0257103336	 0.8190475287	 0.3503120709	 0.127028
H	 1.8605500239	-0.469876717	-0.8336897193	 0.125651
H	 1.4132171244	 1.1912438996	-1.2716795185	 0.127417
H	-1.0355499631	 1.5157320315	-1.3065637706	 0.104274
H	-2.5284653989	 0.9880587535	 1.0847234939	 0.098069
H	-4.0989893385	 0.2725788935	-0.8516149889	 0.291846
H	-1.7762548207	-2.1593832358	 1.8467753145	 0.135826
H	-1.1767243937	-2.5188173009	 0.2425802881	 0.145243
H	-0.3315103989	-0.232204012	 2.0908683445	 0.120616
H	 0.682853876	-1.409930265	 1.2875381855	 0.109734
67.1923	123.8343	173.5481	211.283	286.6263	331.2178	367.6003	413.014	441.6488	469.3778	502.3286	556.8928	610.0527	649.1399	769.8953	776.2102	868.5181	908.1113	977.8147	1020.9164	1030.4357	1062.7032	1069.0509	1115.2141	1155.8357	1168.1559	1208.1176	1223.3491	1261.8116	1307.1248	1321.7304	1356.256	1374.0717	1413.7447	1427.4796	1444.1999	1477.9986	1486.2417	1488.1722	1726.6343	1801.4501	2883.0079	3005.4279	3014.7029	3046.1522	3059.7967	3074.1954	3086.6436	3115.5085	3184.4973	3675.0376
CC1=CC(O)C(=O)CC1	CC1=C[C@@H](O)C(=O)CC1	
InChI=1S/C7H10O2/c1-5-2-3-6(8)7(9)4-5/h4,7,9H,2-3H2,1H3	InChI=1S/C7H10O2/c1-5-2-3-6(8)7(9)4-5/h4,7,9H,2-3H2,1H3/t7-/m1/s1
