19
gdb 4739	2.1292516	1.4155791	1.0500418	2.6486	78.84	-0.26026	-0.0591	0.20116	1226.08	0.151585	-422.523376	-422.512439	-422.511495	-422.560685	38.396	
C	 1.4372527762	-0.0977697196	-0.1271550925	-0.250486
O	 0.0527734143	-0.0142860421	 0.1301744265	-0.281327
C	-0.3632121402	 0.7305296386	 1.2660564051	 0.270668
C	 0.1446414703	 0.1218385813	 2.5852622884	-0.425286
C	 0.0066737044	 2.2205309692	 1.1587334496	-0.425324
C	-1.9055029867	 0.6358881085	 1.276798918	 0.172857
O	-2.5543412936	 1.1848388497	 2.1416436622	-0.314719
C	-2.5511763593	-0.1263152967	 0.2266802339	 0.345317
C	-3.1646367954	-0.7391776023	-0.6082211463	-0.437726
H	 1.9884453591	-0.5883855754	 0.6866070504	 0.11094
H	 1.5437425876	-0.7040215569	-1.0299103478	 0.132748
H	 1.8912084094	 0.8848901794	-0.314257374	 0.110959
H	-0.0524932996	-0.9540050106	 2.6093776193	 0.127701
H	 1.2189499325	 0.2838384086	 2.706984982	 0.116454
H	-0.371721649	 0.5922610874	 3.4246137038	 0.145388
H	-0.5166191974	 2.7812532837	 1.9360081051	 0.145456
H	 1.0815982687	 2.3709316002	 1.2896008518	 0.11637
H	-0.2862593604	 2.6164441157	 0.1818421319	 0.127651
H	-3.6958014309	-1.2832407386	-1.3508004376	 0.212359
10.6	71.9117	133.0709	182.153	201.4192	222.6015	249.7279	264.8291	299.0235	330.2708	342.1799	408.9403	426.1079	482.4306	621.744	632.8349	691.8796	716.8657	765.209	819.7897	926.4635	944.8839	1010.8798	1100.2275	1115.072	1172.624	1181.8199	1199.3644	1230.766	1284.4652	1382.3991	1401.0567	1473.9053	1478.6511	1482.0568	1500.0723	1501.2748	1508.6323	1515.9033	1759.99	2210.3087	2997.6243	3043.0317	3049.1956	3052.2672	3114.9755	3118.4216	3121.5118	3136.0179	3140.3278	3496.001
COC(C)(C)C(=O)C#C	COC(C)(C)C(=O)C#C	
InChI=1S/C7H10O2/c1-5-6(8)7(2,3)9-4/h1H,2-4H3	InChI=1S/C7H10O2/c1-5-6(8)7(2,3)9-4/h1H,2-4H3
