19
gdb 1455	2.6848745	1.6624873	1.5358109	1.5556	74.69	-0.23552	-0.00124	0.23428000000000002	971.329	0.157439	-422.553627	-422.545785	-422.54484	-422.585204	31.785	
C	-0.205044948	-0.068049715	 0.0653676029	-0.462261
C	 1.303097302	-0.0947293847	-0.0275852628	 0.467969
O	 1.7742541898	-0.854613786	 1.068335068	-0.496082
C	 2.061422789	-0.4958734934	-1.328341509	 0.013339
C	 1.475399046	 0.0931997793	-2.618374729	-0.278456
C	 1.25352117	 1.5786820249	-2.4272852112	-0.070611
C	 1.5663898725	 2.1257779435	-1.2523831765	-0.053063
C	 2.1619117054	 1.2002838296	-0.2201780567	-0.036093
O	 3.1666333343	 0.3555286403	-0.8842139569	-0.325214
H	-0.5064216665	 0.3269731797	 1.0403675055	 0.12806
H	-0.6504271489	 0.5491033168	-0.7154030807	 0.124392
H	-0.5991300953	-1.0859917725	-0.0148314678	 0.125533
H	 2.7370057635	-0.8697674503	 0.993812632	 0.285991
H	 2.3581283428	-1.5449309086	-1.4221625268	 0.075953
H	 2.1577882761	-0.0916940588	-3.4586799491	 0.11864
H	 0.5337556344	-0.4134493863	-2.8707718901	 0.112617
H	 0.85143493	 2.1594597013	-3.2520294893	 0.097772
H	 1.415785314	 3.1758098825	-1.0266365887	 0.095552
H	 2.557187399	 1.6893628279	 0.6728367261	 0.075961
179.4053	203.4247	217.2066	283.8129	368.7481	382.7167	423.2506	490.816	503.2481	516.3562	582.2903	637.8182	705.0565	781.1405	863.7349	872.8162	882.4975	927.795	958.8072	968.5669	972.4927	988.8373	1009.1564	1065.229	1121.6427	1136.3771	1161.0443	1177.171	1186.6745	1229.6174	1287.9906	1316.1677	1337.5934	1362.5156	1384.4365	1401.1895	1436.9642	1467.3123	1486.9791	1495.943	1695.8651	3013.3829	3041.5551	3047.957	3068.7105	3092.2191	3109.7476	3148.26	3167.7037	3194.888	3776.4645
CC1(O)C2CC=CC1O2	C[C@@]1(O)[C@H]2CC=C[C@@H]1O2	
InChI=1S/C7H10O2/c1-7(8)5-3-2-4-6(7)9-5/h2-3,5-6,8H,4H2,1H3	InChI=1S/C7H10O2/c1-7(8)5-3-2-4-6(7)9-5/h2-3,5-6,8H,4H2,1H3/t5-,6+,7-/m0/s1
