19
gdb 506	3.2282626	1.7219077	1.4406996	1.8781	73.86	-0.24563	0.06784	0.31346999999999997	947.2884	0.159712	-422.501678	-422.494884	-422.49394	-422.532421	28.105	
C	 0.2981045697	 0.912887214	-1.1648241665	-0.155802
O	 0.4119733122	-0.3822206682	-0.4829936766	-0.356919
C	 1.0353689973	 0.284834473	 0.6110794913	 0.451133
C	 0.0773336966	 1.1020805294	 1.5479746257	-0.292755
C	 0.9510557557	 2.3118404545	 1.1280381712	-0.085185
C	 2.2564393832	 2.1764644197	 1.9571853929	-0.058109
O	 2.5647592973	 0.8208027673	 2.3120746701	-0.276649
C	 2.2254052701	-0.220470389	 1.3840372748	-0.150435
C	 1.3017854112	 1.5753807288	-0.182818048	-0.072965
H	 0.6454819935	 0.8384355133	-2.1986858261	 0.115383
H	-0.7316095793	 1.2874523571	-1.1532592372	 0.109243
H	-0.9358795272	 1.1331156785	 1.1471367965	 0.107447
H	 0.055704148	 0.8417296602	 2.6070226538	 0.108732
H	 0.5568937515	 3.3320480938	 1.1480097182	 0.065432
H	 3.0974523458	 2.6318087074	 1.4109319198	 0.093494
H	 2.1543177485	 2.6966829942	 2.9152402497	 0.110136
H	 3.062645945	-0.4452252305	 0.7064536435	 0.097819
H	 2.0165700583	-1.109453125	 1.9902449639	 0.112858
H	 2.2800045628	 1.7740541215	-0.6266153069	 0.077141
181.459	274.2995	297.0338	337.9966	410.8739	450.1495	467.8706	576.4738	652.8284	784.2979	792.8266	819.673	875.0441	882.6548	901.0345	937.0766	948.6074	963.7322	1019.2566	1039.7595	1051.8786	1089.7013	1106.761	1125.758	1141.123	1152.3218	1173.4638	1208.9908	1234.6741	1240.9723	1279.1943	1296.2702	1317.3996	1334.5605	1352.4342	1377.2124	1406.9123	1489.936	1509.0233	1515.2715	1516.462	2980.1627	2993.7886	3034.9488	3059.4467	3060.2878	3071.9836	3075.8257	3088.1296	3098.3169	3147.8165
C1OC23CC(COC2)C13	C1O[C@@]23C[C@@H](COC2)[C@H]13	
InChI=1S/C7H10O2/c1-5-2-8-4-7(1)6(5)3-9-7/h5-6H,1-4H2	InChI=1S/C7H10O2/c1-5-2-8-4-7(1)6(5)3-9-7/h5-6H,1-4H2/t5-,6-,7-/m0/s1
