19
gdb 973	3.4237606	0.6470245	0.5711664	3.0207	79.37	-0.25372	-0.02797	0.22575	1868.1552	0.154156	-422.563698	-422.553854	-422.55291	-422.600291	33.815	
O	 0.5222477459	-1.0143484285	 0.1057774821	-0.23197
C	 0.5499902892	 0.1690868148	-0.1095691413	 0.158086
C	-0.1858539979	 0.8665395957	-1.231112094	-0.268738
C	-1.1363798758	 1.9557353088	-0.6988256242	-0.229487
C	-1.7978098406	 2.746163692	-1.8079421082	-0.001328
C	-2.2824979417	 4.1379462136	-1.5942317005	-0.314116
C	-1.0396428136	 3.9072261008	-2.4477368674	-0.090771
C	-1.142800344	 4.0944100439	-3.9105400996	 0.163531
O	-0.2541121674	 4.4895440666	-4.622993267	-0.265828
H	 1.1434135613	 0.8552147584	 0.5412219079	 0.071057
H	 0.564382482	 1.3372421517	-1.8823187341	 0.129084
H	-0.7239806735	 0.1157818838	-1.8169520239	 0.124454
H	-1.9099745333	 1.4903470039	-0.0753760766	 0.122304
H	-0.5827379203	 2.6414087035	-0.0445280324	 0.106337
H	-2.3814851185	 2.1451847289	-2.5023358248	 0.1009
H	-3.1871488453	 4.4565861976	-2.1017601614	 0.128187
H	-2.1201730501	 4.6053175716	-0.6292009865	 0.129801
H	-0.0780812296	 4.1753887596	-2.0223513447	 0.105153
H	-2.1445586068	 3.8294824032	-4.3290794134	 0.063341
44.4291	63.4667	77.174	111.8096	152.0712	238.5514	269.4151	311.2789	405.321	429.1767	509.2039	526.1459	754.1458	785.7714	860.5408	868.245	881.2934	948.0019	994.1436	1032.466	1049.0901	1054.5651	1077.8666	1094.2591	1128.2781	1167.0689	1181.1023	1217.5425	1230.8618	1268.4584	1300.4432	1323.9359	1361.8637	1420.8064	1430.7897	1446.883	1464.8461	1490.665	1493.4299	1823.1123	1838.9309	2833.6735	2846.2726	3016.6625	3024.5045	3058.726	3101.2498	3131.4782	3134.7677	3172.734	3221.7616
O=CCCC1CC1C=O	O=CCC[C@H]1C[C@@H]1C=O	
InChI=1S/C7H10O2/c8-3-1-2-6-4-7(6)5-9/h3,5-7H,1-2,4H2	InChI=1S/C7H10O2/c8-3-1-2-6-4-7(6)5-9/h3,5-7H,1-2,4H2/t6-,7+/m0/s1
