19
gdb 2278	2.6190064	1.9521744	1.518955	0.9762	75.12	-0.24071	0.01447	0.25518	948.6095	0.158366	-422.583912	-422.57641	-422.575466	-422.615287	30.222	
C	 0.1370298203	-0.4208467645	 0.3089832714	-0.446073
C	 1.5833552742	-0.1131043766	-0.0194062839	 0.444355
C	 2.0420073869	-0.6316006325	-1.3989080391	-0.281025
C	 3.5463244156	-0.5987002627	-1.5020591791	-0.058939
C	 4.2998865402	-0.2396624024	-0.4645499904	-0.064242
C	 3.6180888474	 0.1260519614	 0.8334153198	-0.002825
C	 3.0037734799	 1.5372895554	 0.7657712099	-0.084741
O	 1.8040970348	 1.3090586852	 0.0297174618	-0.308704
O	 2.4250578077	-0.6518346679	 0.9839110366	-0.277327
H	-0.1122705049	-0.0019960435	 1.2861065575	 0.128256
H	-0.5200975305	 0.0210098488	-0.4445878208	 0.125903
H	-0.0265298932	-1.5013941263	 0.3300179215	 0.124972
H	 1.6679783753	-1.6507756495	-1.5670462403	 0.107091
H	 1.5904855239	 0.000148592	-2.173261765	 0.11788
H	 3.9942736382	-0.8840520614	-2.4501090247	 0.09357
H	 5.3821135983	-0.1840139334	-0.5239450409	 0.090564
H	 4.2471646344	-0.0409624508	 1.7095047966	 0.087132
H	 2.7740207316	 1.919937364	 1.7695104624	 0.097082
H	 3.6276877698	 2.2613264446	 0.2332957068	 0.107072
156.1053	203.9692	264.5916	285.2273	331.0934	392.5539	456.5468	510.2696	533.3916	646.1993	683.2604	734.6044	814.9021	834.7838	862.0296	896.6126	902.9628	956.6375	965.4425	986.9259	991.4383	1034.2292	1056.0401	1083.1249	1115.4764	1175.4275	1199.647	1210.9668	1230.7391	1244.6693	1284.1987	1356.397	1366.8693	1371.0405	1402.4156	1414.2119	1458.9343	1482.2252	1486.386	1514.4444	1711.381	3008.776	3016.2642	3053.7385	3057.6848	3082.5327	3103.6054	3130.5648	3139.6313	3157.8703	3185.5852
CC12CC=CC(CO1)O2	C[C@@]12CC=C[C@@H](CO1)O2	
InChI=1S/C7H10O2/c1-7-4-2-3-6(9-7)5-8-7/h2-3,6H,4-5H2,1H3	InChI=1S/C7H10O2/c1-7-4-2-3-6(9-7)5-8-7/h2-3,6H,4-5H2,1H3/t6-,7+/m0/s1
