19
gdb 3971	2.4179475	1.4350772	1.2205301	3.9894	75.69	-0.23524	-0.01392	0.22132000000000002	1109.6	0.155418	-422.556352	-422.547534	-422.54659	-422.589701	33.513	
C	-3.059170516	-0.0307854323	 1.2359659041	-0.50335
C	-2.0719497174	 0.1196464838	 0.0995875288	 0.310617
C	-0.9467692577	-0.9571904241	-0.0072150035	-0.416803
C	 0.0960825184	 0.1665743911	 0.1462778456	 0.424254
O	 1.272228108	 0.1724032525	 0.3712377242	-0.309426
C	-0.9635561022	 1.2571367379	 0.0381971193	-0.202668
C	-1.374095069	 1.5248268361	-1.4505454685	-0.263586
C	-2.5888824482	 0.5851298477	-1.2941253131	 0.081356
O	-2.6975363875	-0.361359002	-2.3331334849	-0.421891
H	-3.7086577135	-0.901823568	 1.0822732956	 0.115714
H	-2.548449753	-0.1707430104	 2.1951576533	 0.123779
H	-3.7022579465	 0.8515737268	 1.3273238857	 0.117551
H	-0.9191762025	-1.6892393268	 0.8053294595	 0.12556
H	-0.9150867836	-1.4872759072	-0.9634574726	 0.139929
H	-0.9075907187	 2.1203706703	 0.7019601519	 0.08454
H	-1.6108870513	 2.5646013895	-1.679766214	 0.116008
H	-0.6511276102	 1.1633623047	-2.1856044211	 0.126652
H	-3.5239766048	 1.1529085055	-1.1801654587	 0.066369
H	-3.5005328243	-0.8752885051	-2.1990254816	 0.285395
62.5804	144.2354	211.4368	240.2687	267.9901	301.4206	314.3973	404.1015	424.2297	511.3291	528.4719	584.8132	631.3278	743.9183	762.5918	838.494	875.1776	916.6129	943.8124	970.4745	1004.432	1029.1847	1077.4091	1112.0563	1117.8862	1136.3964	1158.5832	1200.0444	1221.9647	1244.7354	1257.0696	1262.5534	1271.2194	1353.6138	1413.1667	1422.36	1437.0884	1483.0765	1490.661	1495.076	1884.0538	2987.4522	3017.8575	3058.2553	3073.9357	3079.5282	3092.1018	3111.5616	3114.12	3131.7433	3814.7052
CC12CC(=O)C1CC2O	C[C@]12CC(=O)[C@H]1C[C@H]2O	
InChI=1S/C7H10O2/c1-7-3-5(8)4(7)2-6(7)9/h4,6,9H,2-3H2,1H3	InChI=1S/C7H10O2/c1-7-3-5(8)4(7)2-6(7)9/h4,6,9H,2-3H2,1H3/t4-,6-,7+/m1/s1
