19
gdb 5922	2.1105361	0.9883776	0.7016382	1.599	79.22	-0.24972	-0.02668	0.22304	1594.1219	0.152662	-422.517604	-422.506878	-422.505934	-422.55443	36.531	
C	 1.3168806254	-0.0277844674	-0.1398003266	-0.228962
O	-0.08121569	-0.0341414486	 0.0339449999	-0.24236
C	-0.5068404	 0.8015760546	 1.0887490827	-0.07003
C	-2.0238122822	 0.6909899373	 1.1991022272	-0.117476
C	-2.4747300876	-0.7647620953	 1.5035117535	-0.369245
C	-3.9164718009	-0.9593561166	 1.4231066867	 0.293789
C	-5.1074713341	-1.1019406777	 1.3428103667	-0.437727
C	-2.5787675021	 1.6590793739	 2.2248367001	 0.145926
O	-1.9155444602	 2.4705385658	 2.8220057032	-0.249116
H	 1.8407823951	-0.3832564385	 0.7611974608	 0.107733
H	 1.5458387983	-0.6986097961	-0.9711368956	 0.129512
H	 1.6923083448	 0.9789957472	-0.3795730949	 0.109573
H	-0.0333047241	 0.5047446219	 2.0394371044	 0.096949
H	-0.2219874825	 1.8477593063	 0.9051386194	 0.108992
H	-2.4691401651	 0.9672131698	 0.2322147559	 0.122294
H	-1.9675602823	-1.4163583377	 0.7852382758	 0.162258
H	-2.1127872504	-1.0561794693	 2.4984623966	 0.135251
H	-6.1579760931	-1.2422493194	 1.2763385154	 0.1996
H	-3.672025799	 1.5676410098	 2.3985444487	 0.103039
61.0425	77.7361	91.5507	114.8964	142.1187	155.8619	229.2111	258.6367	330.0261	345.8929	365.1132	430.7256	550.0908	621.4905	646.7998	668.2732	815.0688	876.9623	908.1919	978.8685	996.3863	1072.7585	1110.3529	1127.6227	1164.7736	1184.5253	1202.2682	1228.7418	1246.639	1303.6124	1323.6675	1350.3345	1414.2603	1431.5041	1480.0964	1480.8014	1485.0591	1502.9928	1522.1978	1820.1374	2237.5995	2914.4944	2967.0286	2978.3485	3010.7207	3019.2979	3022.3422	3029.5855	3083.9811	3117.6749	3505.3181
COCC(CC#C)C=O	COC[C@@H](CC#C)C=O	
InChI=1S/C7H10O2/c1-3-4-7(5-8)6-9-2/h1,5,7H,4,6H2,2H3	InChI=1S/C7H10O2/c1-3-4-7(5-8)6-9-2/h1,5,7H,4,6H2,2H3/t7-/m0/s1
