19
gdb 2173	2.623396	1.7726664	1.6146759	1.6379	74.32	-0.24271	0.08584	0.32855	948.0214	0.158684	-422.518677	-422.511297	-422.510353	-422.550105	29.397	
C	 2.7647664529	 1.1561864873	-0.0837471448	-0.523594
C	 1.7122312805	 0.0952310645	 0.1175322114	 0.224797
C	 0.6312303268	-0.3286235946	-0.9154571452	-0.287377
C	 0.344707888	-1.2395153498	 0.2976507382	-0.125918
C	 0.5658944987	 0.0101200117	 1.194244496	 0.123403
O	 0.9135696595	-0.2282978637	 2.540057783	-0.281833
C	 2.1743244165	-0.8447315548	 2.6466816602	 0.014872
O	 2.3741771702	-1.8417133936	 1.6735698451	-0.281832
C	 1.8808262497	-1.4423721323	 0.4141787597	 0.123403
H	 3.4099051145	 1.2699613228	 0.7920888337	 0.127856
H	 3.4041371304	 0.90982776	-0.938787121	 0.123984
H	 2.3009550965	 2.1283833804	-0.284479057	 0.123984
H	-0.1262515655	 0.4235574666	-1.1520968473	 0.096733
H	 0.9996504152	-0.8201304892	-1.8200239476	 0.096733
H	-0.428716752	-1.9982147006	 0.4066197252	 0.078319
H	-0.2018375197	 0.7877303117	 1.181028263	 0.080236
H	 2.9651315045	-0.0818822922	 2.5592744306	 0.087
H	 2.2292492825	-1.3220529551	 3.6280466102	 0.118998
H	 2.3718728508	-2.0552208891	-0.3457914132	 0.080235
146.6498	203.5508	228.8526	263.6991	349.0941	425.6198	467.4133	545.881	568.0555	657.5419	726.896	785.9918	800.4177	875.996	909.6741	943.8272	969.8182	1007.6955	1011.8523	1020.9449	1040.2095	1086.1296	1094.0942	1101.2862	1146.6118	1175.1638	1194.9848	1205.4375	1227.4595	1239.3133	1239.937	1277.0674	1324.5589	1365.0594	1410.0344	1413.1501	1451.1992	1487.3207	1489.0202	1517.5224	1531.5086	2966.5884	3029.8574	3051.8933	3082.3556	3086.1644	3092.6329	3098.4903	3106.5696	3113.944	3131.0371
CC12CC3C1OCOC23	C[C@]12C[C@@H]3[C@H]1OCO[C@H]23	
InChI=1S/C7H10O2/c1-7-2-4-5(7)8-3-9-6(4)7/h4-6H,2-3H2,1H3	InChI=1S/C7H10O2/c1-7-2-4-5(7)8-3-9-6(4)7/h4-6H,2-3H2,1H3/t4-,5-,6+,7+
