19
gdb 1411	2.3307084	1.8623091	1.6105546	2.3147	74.03	-0.24339	0.06369	0.30708	952.9992	0.155828	-422.522611	-422.514254	-422.513309	-422.554613	33.524	
C	-0.1496102232	 0.0526048231	 0.2344231983	-0.474116
C	 1.3459827142	 0.0637930323	-0.0377601219	 0.357036
O	 2.0272033487	-0.7683950642	 0.9054682887	-0.50016
C	 1.8871683649	-0.1008718558	-1.4576068604	-0.127798
C	 1.977906532	 1.3064227498	-2.0778024247	-0.075714
C	 1.5079388176	 2.3253001965	-1.0326300648	-0.294697
C	 2.1638656403	 1.3934008098	-0.0013886423	 0.387151
O	 2.5556880187	 1.8901836174	 1.2175979072	-0.487378
C	 3.0712352627	 0.7864739979	-1.1834746622	-0.169978
H	-0.3589414211	 0.4222773999	 1.2431648699	 0.127634
H	-0.6966697617	 0.6648490216	-0.4863058772	 0.126996
H	-0.5450947667	-0.9685122534	 0.1590992463	 0.102945
H	 1.6380645175	-1.6476669868	 0.8820615032	 0.280445
H	 1.8510519028	-0.9876484414	-2.0789930481	 0.078444
H	 2.0057361411	 1.4317412313	-3.1521154013	 0.087846
H	 2.0718891843	 3.2577021455	-1.1230610895	 0.108393
H	 0.4416421355	 2.5499407123	-0.9195655027	 0.088317
H	 2.7367727379	 1.1196002682	 1.774178769	 0.292878
H	 4.1323533744	 0.650414946	-1.3265342279	 0.091755
178.0823	186.1963	195.2982	258.4329	278.3686	334.6531	397.4105	443.8216	471.9246	507.0797	555.0168	636.8438	675.8477	739.1686	796.6941	805.7747	821.7088	896.7844	918.2556	946.5363	967.8721	997.7284	1002.989	1020.8953	1048.7563	1094.07	1102.0107	1134.0064	1147.7894	1181.1814	1202.7694	1237.2525	1281.264	1316.267	1343.9629	1389.7914	1404.9564	1421.5079	1485.8847	1490.8262	1516.8787	3025.0686	3041.0182	3090.7189	3101.3065	3127.0335	3183.9067	3201.8825	3235.2117	3749.0536	3826.2631
CC1(O)C2C3CC1(O)C23	C[C@@]1(O)[C@H]2[C@H]3C[C@]1(O)[C@@H]23	
InChI=1S/C7H10O2/c1-6(8)4-3-2-7(6,9)5(3)4/h3-5,8-9H,2H2,1H3	InChI=1S/C7H10O2/c1-6(8)4-3-2-7(6,9)5(3)4/h3-5,8-9H,2H2,1H3/t3-,4+,5-,6-,7+/m1/s1
