19
gdb 5676	2.8978087	1.0008143	0.8494846	3.223	78.29	-0.2393	-0.02726	0.21204	1378.3824	0.156252	-422.577007	-422.567752	-422.566808	-422.612454	32.94	
O	-1.8841108211	 1.5340463111	 0.4719613466	-0.418979
C	-0.9506976119	 0.6752031987	-0.1644994693	-0.085186
C	-1.0537922106	 0.9140049113	-1.6727818833	-0.0115
C	-0.6146188275	 2.3460272409	-2.0990535131	-0.267237
C	 0.6782020713	 2.1930964122	-2.9570127202	-0.105314
C	 1.911450861	 2.7228639117	-2.2416148204	 0.157105
O	 2.7521450474	 3.4267981919	-2.7354757984	-0.249255
C	 0.7924308132	 0.6932036778	-3.1442717752	-0.095745
C	-0.1282828796	 0.0185888134	-2.4591479169	-0.087025
H	-1.7849885305	 1.438328081	 1.4235940477	 0.289346
H	 0.0791469995	 0.8814224431	 0.1704216385	 0.086645
H	-1.1631618519	-0.3827587321	 0.0587733096	 0.086893
H	-2.102372208	 0.732734895	-1.941838991	 0.089909
H	-1.3912157314	 2.8300701231	-2.6944158473	 0.116678
H	-0.4592810373	 2.9802231708	-1.2210609224	 0.118051
H	 0.6191703215	 2.7215434084	-3.914217932	 0.095903
H	 1.9908818855	 2.3836852847	-1.1804758265	 0.069151
H	 1.5627346357	 0.2539864845	-3.7683316903	 0.109904
H	-0.2217196752	-1.0626533976	-2.4491340461	 0.100656
30.7948	66.3085	115.5631	165.5685	250.371	276.1269	311.1116	345.0983	441.7646	445.4448	517.0014	710.4831	780.8404	796.0775	810.8392	874.1724	935.1303	957.3262	985.2967	1013.314	1015.7924	1058.7513	1077.5392	1090.9376	1133.901	1141.115	1206.4383	1225.372	1252.3156	1265.4158	1287.5246	1306.5925	1311.0927	1353.4538	1379.31	1422.0209	1452.7123	1491.7121	1519.5698	1683.4924	1833.19	2841.0579	2960.604	2989.9949	3025.2105	3055.1797	3066.7296	3109.9036	3178.8084	3206.5394	3832.1653
OCC1CC(C=O)C=C1	OC[C@H]1C[C@@H](C=O)C=C1	
InChI=1S/C7H10O2/c8-4-6-1-2-7(3-6)5-9/h1-2,4,6-7,9H,3,5H2	InChI=1S/C7H10O2/c8-4-6-1-2-7(3-6)5-9/h1-2,4,6-7,9H,3,5H2/t6-,7+/m0/s1
