19
gdb 2587	2.2381499	1.8196539	1.2223445	1.8675	77.44	-0.23053	0.01418	0.24471	1072.1754	0.15612	-422.543005	-422.534308	-422.533364	-422.575785	33.355	
C	 1.4383156308	 0.4654356234	-0.0962738188	-0.503555
C	 0.0051014868	 0.0438882357	 0.0582551487	 0.278009
C	-1.0275692608	 0.886008652	 0.1011721117	-0.174289
C	-2.4447783366	 0.3942858043	 0.2647282697	-0.125332
O	-2.5300086374	-0.8238139532	 0.9941500812	-0.258715
C	-1.6536737588	-1.8196368817	 0.559976315	 0.058982
C	-0.4709703602	-2.1301934414	 1.4522747596	-0.37033
C	-0.2805768026	-1.4243428843	 0.1198447104	 0.257164
O	 0.250895964	-2.1854610028	-0.9379445778	-0.46337
H	 2.0473221911	 0.1206168941	 0.7497502748	 0.122518
H	 1.8744909183	 0.0307235559	-1.0034811944	 0.129619
H	 1.5313449752	 1.5524262982	-0.1610302349	 0.124117
H	-0.8795649651	 1.9600553836	 0.0198052865	 0.08802
H	-3.0388404092	 1.1163099212	 0.8339965992	 0.114934
H	-2.9267305627	 0.2889747552	-0.7230583833	 0.104282
H	-2.1243254526	-2.644750333	 0.029237111	 0.100605
H	-0.3826810145	-1.5430575977	 2.359215516	 0.122639
H	-0.1458613567	-3.163606476	 1.5161507614	 0.109761
H	 1.1585959509	-2.4139315936	-0.7105020158	 0.28494
109.1708	174.6993	198.3414	244.6607	263.1662	278.9002	324.683	388.8941	435.1941	479.4243	541.2865	599.8491	657.2422	741.9013	802.2709	820.0341	902.5213	922.4956	940.2879	996.6236	1018.652	1039.3309	1048.9005	1067.8116	1076.9316	1092.9589	1162.1462	1181.5537	1231.565	1269.0074	1275.965	1331.7506	1372.796	1390.6032	1401.7044	1415.1404	1468.4164	1476.566	1496.2508	1496.3928	1736.4602	2951.7982	3017.1819	3068.6848	3070.7497	3115.1964	3126.605	3131.4099	3157.1328	3230.3434	3802.3319
CC1=CCOC2CC12O	CC1=CCO[C@@H]2C[C@]12O	
InChI=1S/C7H10O2/c1-5-2-3-9-6-4-7(5,6)8/h2,6,8H,3-4H2,1H3	InChI=1S/C7H10O2/c1-5-2-3-9-6-4-7(5,6)8/h2,6,8H,3-4H2,1H3/t6-,7+/m1/s1
