19
gdb 3571	2.1980707	1.7141349	1.1957966	3.1407	74.24	-0.23958	-0.02018	0.21939999999999998	1079.4156	0.157687	-422.578539	-422.570187	-422.569243	-422.612152	31.94	
O	-0.8399726605	-1.8488075255	 2.2953400629	-0.430027
C	-1.7828902937	-1.427752102	 1.3138415343	 0.09781
C	-1.1326588902	-1.3557395836	-0.0825640825	-0.332671
C	-0.1698619459	-0.1854375776	-0.2027469359	 0.368063
O	 0.9600812698	-0.3180743462	-0.6115986578	-0.304826
C	-0.6949193325	 1.1872858309	 0.222477932	-0.327915
C	-1.8799057963	 1.1875536501	 1.1824380686	-0.035408
C	-3.2398024231	 0.7013571076	 0.7470430003	-0.308324
C	-2.4311770895	-0.1187107122	 1.7210694512	-0.046169
H	-0.1899773744	-1.1468064993	 2.4126008781	 0.283153
H	-2.5338431711	-2.2257163378	 1.3078858401	 0.096069
H	-0.5912788906	-2.2803690759	-0.2906273509	 0.130481
H	-1.9128238359	-1.2378593522	-0.8457965975	 0.120777
H	 0.1566408378	 1.7210710943	 0.6553887452	 0.131923
H	-0.9458201721	 1.7312625346	-0.6996165359	 0.135309
H	-1.8845786093	 2.0291691398	 1.8679507102	 0.095123
H	-4.1137936696	 1.2194924106	 1.1255857924	 0.116755
H	-3.354366731	 0.3401196262	-0.2699907152	 0.112942
H	-2.7716527321	-0.1247870219	 2.7520401704	 0.096936
29.522	120.1604	213.9645	276.8572	313.0963	380.4799	410.1843	449.8628	471.3821	530.9204	558.745	692.9174	747.8703	790.5931	815.5238	855.3556	877.7398	929.6395	939.1144	1017.6927	1032.0284	1063.8974	1070.056	1098.0611	1120.6796	1138.0234	1167.1107	1205.6935	1235.547	1242.0916	1268.2787	1295.2854	1326.7897	1371.6612	1378.4748	1408.6217	1426.2422	1451.7948	1456.7263	1497.0572	1811.7868	3014.9393	3033.5576	3048.6267	3082.3287	3122.7936	3131.5327	3148.8238	3158.5116	3213.5153	3799.8864
OC1CC(=O)CC2CC12	O[C@@H]1CC(=O)C[C@H]2C[C@@H]12	
InChI=1S/C7H10O2/c8-5-1-4-2-6(4)7(9)3-5/h4,6-7,9H,1-3H2	InChI=1S/C7H10O2/c8-5-1-4-2-6(4)7(9)3-5/h4,6-7,9H,1-3H2/t4-,6+,7+/m0/s1
