19
gdb 3939	3.3274118	1.4331642	1.2899365	1.4005	73.67	-0.21904	0.06777	0.28681	1038.4785	0.158019	-422.516052	-422.508244	-422.5073	-422.547943	30.95	
O	 0.4113466964	-0.0770106489	 0.2502637267	-0.427672
C	-0.8142894945	 0.433000328	 0.7100975656	 0.0873
C	-2.1598504606	 0.0400028093	-0.016038784	-0.344294
C	-2.4529604382	 1.5365415622	-0.1345128201	 0.392888
C	-1.4248172151	 2.2682695828	-0.9348326525	-0.412965
C	-1.1425520187	 1.9269586477	 0.5236369813	 0.162037
C	-1.5188342901	 2.9407251121	 1.58140172	-0.324734
C	-2.9996442664	 3.2920307928	 1.206166013	-0.097656
O	-3.5324639408	 2.1974106042	 0.4376297849	-0.292029
H	 0.5778839269	 0.2863451177	-0.6258221898	 0.280537
H	-0.8647316322	 0.1625633539	 1.7680984743	 0.09638
H	-2.0688446661	-0.5088058555	-0.9583310207	 0.098197
H	-2.853045468	-0.4868576144	 0.6414847083	 0.116186
H	-0.8896392672	 1.7624768785	-1.7355090822	 0.101105
H	-1.6174956218	 3.3150462893	-1.140141079	 0.124768
H	-1.4723881229	 2.4717509084	 2.5697663866	 0.111782
H	-0.9030385379	 3.844686506	 1.6145711102	 0.108043
H	-3.6471148265	 3.4343894423	 2.0759036024	 0.115108
H	-3.0329859365	 4.2124150938	 0.6080437851	 0.105019
126.1467	186.4896	217.9058	266.3999	309.2257	381.5014	423.7981	466.133	574.6186	646.0629	654.2641	708.3502	809.7624	832.6064	847.5715	854.9924	910.8267	928.7082	950.9237	961.359	1011.8373	1030.966	1059.4947	1089.808	1115.5081	1151.925	1189.8651	1219.0703	1229.795	1240.2138	1267.279	1285.4094	1318.3154	1325.2535	1361.2517	1393.6812	1433.6782	1472.1116	1490.8195	1496.7396	1525.5992	3013.2161	3046.7181	3055.303	3075.0828	3081.6542	3095.5499	3108.0473	3127.9526	3209.7991	3810.3002
OC1CC23CC12CCO3	O[C@@H]1C[C@]23C[C@]12CCO3	
InChI=1S/C7H10O2/c8-5-3-7-4-6(5,7)1-2-9-7/h5,8H,1-4H2	InChI=1S/C7H10O2/c8-5-3-7-4-6(5,7)1-2-9-7/h5,8H,1-4H2/t5-,6-,7+/m1/s1
