19
gdb 5555	3.09	1.3900494	1.1223354	1.0505	74.55	-0.24543	0.07628	0.32171	1131.7668	0.157326	-422.514731	-422.506757	-422.505813	-422.547321	30.556	
C	 1.4125489631	-0.0095859086	-0.1384331662	-0.23854
O	 0.0495581624	-0.1576290082	 0.1932968284	-0.245476
C	-0.3681949445	 0.6460974688	 1.2851159045	 0.082388
C	-1.8935351428	 0.7518085328	 1.2206694818	-0.06351
C	-2.638338324	 1.5526066823	 2.2539386054	-0.302101
C	-2.4929947032	 0.0600758279	 2.4325720357	-0.061662
C	-1.3288662664	-0.3991996787	 3.2808789957	 0.038833
O	-0.4920449469	 0.6621961223	 3.7774330474	-0.259158
C	-0.0635645077	-0.0558962171	 2.6154853795	 0.003432
H	 2.0832425822	-0.3130118496	 0.6791007453	 0.107193
H	 1.6049062266	-0.6518813951	-1.0012221163	 0.129283
H	 1.6513958111	 1.0309162872	-0.4075153015	 0.109224
H	 0.1201319382	 1.6319315711	 1.2360641684	 0.077129
H	-2.3213995129	 0.6400610249	 0.2315583275	 0.09711
H	-2.0803340161	 2.1898929785	 2.9287197894	 0.135288
H	-3.6159457334	 1.9255138111	 1.9681241593	 0.10935
H	-3.3584105696	-0.5870800044	 2.3605958681	 0.086703
H	-1.4391296679	-1.2483721507	 3.9489903551	 0.097443
H	 0.8591102618	-0.6220866943	 2.7232233925	 0.097071
92.974	131.5392	177.5409	261.9346	304.2986	340.8023	395.4232	499.3778	532.0687	697.982	728.4702	790.9583	798.8953	854.9503	867.9017	894.0878	961.8235	977.4802	987.1694	1030.8548	1055.6272	1065.6313	1087.3202	1103.7002	1105.4363	1129.4671	1147.2537	1183.9336	1191.5913	1222.7891	1253.3414	1294.7482	1299.3922	1335.6904	1354.9585	1395.2983	1425.1784	1479.7438	1480.7924	1489.9066	1509.2128	2976.4048	2985.7834	3025.6712	3115.2883	3135.7678	3139.829	3158.1687	3181.7703	3191.2574	3233.6851
COC1C2CC2C2OC12	CO[C@H]1[C@@H]2C[C@@H]2[C@@H]2O[C@H]12	
InChI=1S/C7H10O2/c1-8-5-3-2-4(3)6-7(5)9-6/h3-7H,2H2,1H3	InChI=1S/C7H10O2/c1-8-5-3-2-4(3)6-7(5)9-6/h3-7H,2H2,1H3/t3-,4+,5+,6+,7-/m1/s1
