19
gdb 3131	2.2455745	1.3046785	1.2084789	2.6998	77.36	-0.2571	-0.03785	0.21925	1179.2225	0.154323	-422.536104	-422.52686	-422.525916	-422.570024	33.761	
C	-1.4708456527	-0.8566596386	 2.3323163056	-0.414759
C	 0.0246778089	-0.591931186	 2.2232264169	-0.018691
C	 0.5149415455	 0.670262558	 2.955458163	-0.042558
O	 1.8883046124	 0.8582682784	 2.6707342875	-0.278219
C	 0.9501886435	 1.2912634958	 1.6688373284	 0.312086
C	 0.9461502999	 2.7191296145	 1.3095313284	 0.062647
O	 0.5100017534	 3.1457402817	 0.2673124239	-0.263947
C	 0.4914075559	 0.0656758828	 0.8660366801	-0.071366
C	 1.5386090529	-0.6487939234	 0.0249884214	-0.420626
H	-1.7456640826	-1.1767883002	 3.3432053811	 0.120336
H	-2.053095108	 0.0409095709	 2.0953469979	 0.123059
H	-1.7766228292	-1.6445063718	 1.6366796041	 0.127188
H	 0.6019896465	-1.478334199	 2.5046288518	 0.088042
H	 0.118796758	 1.1417516237	 3.8497327458	 0.114896
H	 1.370984169	 3.379466058	 2.0967543149	 0.086247
H	-0.3823927536	 0.3344702705	 0.2651511242	 0.098235
H	 2.4344423849	-0.8535689092	 0.6180776032	 0.131174
H	 1.1522960075	-1.6021913662	-0.3503744803	 0.116535
H	 1.8288708579	-0.04142106	-0.838257938	 0.129721
77.6305	144.3687	156.6668	211.4443	224.1817	231.9739	276.5065	309.2697	365.1456	484.5203	510.5504	569.4118	676.4272	734.4667	810.9432	841.3199	881.2971	902.8605	979.4607	996.3253	1030.672	1066.9086	1085.8268	1111.0287	1119.6173	1160.872	1198.006	1230.2134	1256.4091	1282.008	1324.2389	1366.083	1388.8386	1404.2359	1413.8172	1438.4974	1493.456	1495.7282	1500.0773	1502.5943	1804.8796	2899.7176	3029.2523	3036.0701	3058.075	3072.5775	3096.8317	3102.0526	3103.694	3117.6313	3169.1528
CC1C2OC2(C=O)C1C	C[C@@H]1[C@H]2O[C@@]2(C=O)[C@H]1C	
InChI=1S/C7H10O2/c1-4-5(2)7(3-8)6(4)9-7/h3-6H,1-2H3	InChI=1S/C7H10O2/c1-4-5(2)7(3-8)6(4)9-7/h3-6H,1-2H3/t4-,5-,6+,7-/m0/s1
