19
gdb 2080	2.3058687	1.8951446	1.2278525	4.4994	75.36	-0.25577	0.01568	0.27144999999999997	1052.0295	0.158258	-422.59425	-422.586109	-422.585165	-422.62662	31.409	
C	-0.8035572867	 2.1638670789	-1.2010505397	-0.453607
C	-0.9360961339	 1.2011820041	-0.0386955394	 0.161453
C	-1.0772263533	 1.7851656536	 1.3641285959	-0.32809
C	-2.2458679491	 1.0961587621	 0.7229859224	-0.062443
C	-2.6601989734	-0.2870086197	 1.1715513536	-0.247711
C	-1.4455732727	-1.1189307796	 1.5650420233	-0.079178
O	-0.4230745707	-1.1389301152	 0.5606777131	-0.237649
C	-0.1365514313	-0.0567974311	-0.2114776809	 0.390527
O	 0.7334692932	-0.1602394856	-1.0366209431	-0.334869
H	-1.1291539302	 1.6990439008	-2.1363544648	 0.129878
H	-1.4137975574	 3.0557375221	-1.0287675016	 0.10508
H	 0.2365283144	 2.4715051707	-1.3332254684	 0.140857
H	-0.5587129471	 1.3128556487	 2.1898460505	 0.125936
H	-1.0898502145	 2.8679474336	 1.41906728	 0.122776
H	-3.0483511253	 1.7317468625	 0.3601997202	 0.095343
H	-3.3410564206	-0.2406898811	 2.0301086055	 0.112165
H	-3.1983134855	-0.7883058117	 0.3580462085	 0.118461
H	-1.0123326142	-0.7593610116	 2.5058135815	 0.116203
H	-1.7205884818	-2.1660888415	 1.7130543835	 0.124868
106.897	160.7276	205.6937	279.6546	294.0188	323.4555	397.0225	425.0745	504.2043	524.0451	629.0148	669.5568	750.1336	795.5907	845.9723	881.1178	921.5462	949.4456	960.6351	993.6765	1051.6443	1071.9954	1098.1022	1121.067	1127.9066	1134.3518	1160.6737	1248.2287	1262.7709	1290.1161	1336.8765	1376.3371	1407.49	1420.6308	1432.8934	1481.0471	1484.0086	1493.1478	1500.3369	1527.1553	1823.2115	3029.5179	3034.9666	3042.0885	3069.3061	3098.6571	3110.5332	3123.655	3143.5291	3150.4754	3226.1298
CC12CC1CCOC2=O	C[C@@]12C[C@@H]1CCOC2=O	
InChI=1S/C7H10O2/c1-7-4-5(7)2-3-9-6(7)8/h5H,2-4H2,1H3	InChI=1S/C7H10O2/c1-7-4-5(7)2-3-9-6(7)8/h5H,2-4H2,1H3/t5-,7+/m0/s1
