19
gdb 1210	2.3473362	1.2967307	1.0960999	1.6461	77.21	-0.23761	-0.02723	0.21037999999999998	1205.9637	0.152076	-422.55106	-422.540466	-422.539522	-422.586628	38.622	
C	-3.6034340717	 2.6466104997	-0.7295397631	-0.42151
C	-2.0806132419	 2.5739412294	-0.9309626878	 0.245932
C	-1.4309114193	 3.9525071977	-0.7658793186	-0.388911
O	-1.7508689468	 2.1378078421	-2.2430819659	-0.463721
C	-1.4911200929	 1.6333819218	 0.1470436605	 0.36464
O	-1.570395268	 1.8932801289	 1.3213538367	-0.312465
C	-0.777922983	 0.3514702124	-0.3352476396	-0.423271
C	-1.6870185414	-0.5471501702	-1.0358547632	 0.276649
C	-2.4704084329	-1.2623495116	-1.6043907162	-0.4539
H	-3.8400209546	 2.9791920049	 0.2838164355	 0.140538
H	-4.0334722161	 3.346638154	-1.451252809	 0.123599
H	-4.0626210668	 1.6637877819	-0.8808104206	 0.120439
H	-1.5695887248	 4.315138342	 0.2539874565	 0.138304
H	-0.3595531411	 3.8962395363	-0.9793829136	 0.122466
H	-1.8823281924	 4.6556656692	-1.4706747201	 0.12291
H	-2.2264575312	 1.3171136019	-2.4213476357	 0.285874
H	 0.0365174673	 0.6442020562	-1.0083371376	 0.161059
H	-0.3531419477	-0.1332698217	 0.5478455424	 0.152309
H	-3.1420830348	-1.9206765647	-2.0982876005	 0.209059
39.9517	79.5746	133.249	208.7567	237.4556	244.8056	273.8517	302.6513	339.5197	362.3726	411.0328	437.1381	449.1759	496.3457	546.2606	622.4426	644.3043	656.5835	735.4478	850.4299	921.3336	941.9149	968.6403	985.5329	1019.8135	1097.6915	1118.6846	1205.1893	1225.4696	1260.9526	1285.3255	1371.9935	1387.6914	1406.6904	1440.9645	1478.8838	1483.065	1495.7917	1508.0356	1815.5261	2226.5753	3038.0817	3043.2701	3049.9064	3104.3363	3110.1662	3120.5774	3134.2461	3148.3557	3500.4022	3776.2515
CC(C)(O)C(=O)CC#C	CC(C)(O)C(=O)CC#C	
InChI=1S/C7H10O2/c1-4-5-6(8)7(2,3)9/h1,9H,5H2,2-3H3	InChI=1S/C7H10O2/c1-4-5-6(8)7(2,3)9/h1,9H,5H2,2-3H3
