19
gdb 5184	3.5885885	1.4876591	1.4389722	1.4728	73.13	-0.23226	0.09079	0.32305	990.395	0.158631	-422.552898	-422.545513	-422.544569	-422.584584	29.513	
C	 0.6090071216	 0.1134307815	-0.6882505083	-0.262143
O	 0.5065741036	-0.3083986847	 0.6662521335	-0.302487
C	-0.1498363534	 0.5476864223	 1.5057331681	 0.470071
C	-0.256370967	 0.0505598789	 2.9627430657	-0.265353
C	-1.1738204049	 1.1676301306	 3.4343510089	-0.117644
C	-0.8074781447	 2.4176839677	 2.6210846617	-0.115163
C	 0.3173035021	 2.0234112829	 1.6788624638	-0.28954
C	-1.9631408528	 1.5372925605	 2.1979773465	 0.09406
O	-1.5426802365	 0.7153469192	 1.1314040556	-0.295256
H	 1.2705471341	 0.9831961217	-0.7915013824	 0.113013
H	 1.0398265163	-0.7249082486	-1.2387665259	 0.128857
H	-0.374740575	 0.3559927597	-1.1023083035	 0.137056
H	-0.7168868393	-0.9394799126	 3.0043621633	 0.112265
H	 0.7159792824	 0.0283710062	 3.4607289943	 0.104721
H	-1.5847166892	 1.2234352588	 4.4329897618	 0.089189
H	-0.9439317728	 3.4207891414	 3.0019799417	 0.088706
H	 0.2951039732	 2.582488876	 0.7400463365	 0.103154
H	 1.3154954191	 2.0831717368	 2.1203479913	 0.104975
H	-3.0040337967	 1.8265418019	 2.1692668975	 0.101519
95.1331	160.7192	219.8302	352.8274	390.8794	461.7531	479.2146	565.0942	637.2406	665.4226	707.7037	789.0653	805.9415	808.8097	879.1387	912.8338	975.1608	978.7914	1000.0807	1001.7208	1039.2163	1050.3496	1057.8883	1093.494	1100.3042	1117.4507	1172.3375	1180.7095	1190.3081	1214.5899	1238.0122	1257.8794	1302.2842	1311.2942	1362.0458	1386.097	1475.9655	1480.413	1489.8297	1500.0561	1509.7018	3015.534	3062.5059	3069.9449	3088.822	3115.9185	3123.3404	3133.7532	3202.2892	3209.2174	3223.5129
COC12CC3C(C1)C3O2	CO[C@@]12C[C@H]3[C@@H](C1)[C@H]3O2	
InChI=1S/C7H10O2/c1-8-7-2-4-5(3-7)6(4)9-7/h4-6H,2-3H2,1H3	InChI=1S/C7H10O2/c1-8-7-2-4-5(3-7)6(4)9-7/h4-6H,2-3H2,1H3/t4-,5+,6-,7+
