19
gdb 5532	2.7909079	1.3161807	1.0505437	3.4364	75.46	-0.24259	0.06365	0.30624	1198.2199	0.155431	-422.454118	-422.445706	-422.444762	-422.487401	31.819	
C	-0.3311918599	 0.4017285629	-0.1438771048	-0.37287
C	 0.2384073849	 1.4255830718	-1.1336739217	-0.236262
C	 0.6759315385	 0.7811361507	-2.4411128378	 0.049501
C	 1.5730232585	 1.4911077864	-3.4983000617	-0.105768
O	 1.8702891766	 0.1528038161	-4.0708457563	-0.311161
C	 1.9970638816	-0.0348769948	-2.6028662036	-0.087424
C	 2.78541629	 1.2845801028	-2.5753069358	 0.554056
C	 3.6140889945	 2.054073379	-1.6576748722	-0.309962
O	 4.1300631005	 1.4779746012	-2.8814147515	-0.279678
H	-0.6739468815	 0.8879277112	 0.7742708683	 0.116492
H	-1.1825937368	-0.1348512228	-0.5760721939	 0.120909
H	 0.4214626059	-0.343716501	 0.134313507	 0.11803
H	-0.5270474497	 2.1791172879	-1.3593111139	 0.104309
H	 1.0708794841	 1.9640518778	-0.6698848569	 0.103399
H	-0.1434362671	 0.2572771398	-2.9413162215	 0.088658
H	 1.3396248588	 2.2988181482	-4.1913340763	 0.100286
H	 2.2656489398	-1.0270450413	-2.2420806503	 0.101106
H	 3.5563038324	 3.1414333499	-1.6473929307	 0.1233
H	 3.9854326888	 1.5991470142	-0.7406257465	 0.123078
60.0674	146.4369	171.4377	224.3183	277.5914	320.4782	353.198	413.6057	506.0648	607.9117	673.1412	748.9073	764.9926	806.1334	849.8274	869.2986	893.3909	912.2729	968.6441	1013.2274	1028.0501	1065.0731	1103.3249	1113.9521	1119.8729	1124.2421	1139.7278	1166.7165	1174.375	1226.7663	1241.2317	1252.3201	1289.3666	1339.7368	1397.4582	1414.0415	1463.0855	1487.1848	1499.3505	1506.7737	1556.3834	3028.8742	3034.0729	3069.0155	3084.6157	3085.139	3103.8967	3108.3962	3128.3873	3133.5628	3171.3564
CCC1C2OC1C21CO1	CC[C@H]1[C@@H]2O[C@H]1[C@@]12CO1	
InChI=1S/C7H10O2/c1-2-4-5-7(3-8-7)6(4)9-5/h4-6H,2-3H2,1H3	InChI=1S/C7H10O2/c1-2-4-5-7(3-8-7)6(4)9-5/h4-6H,2-3H2,1H3/t4-,5-,6+,7-
