19
gdb 5538	1.932868	1.8472812	1.1204792	3.8501	77.23	-0.23589	-0.00754	0.22835	1132.7683	0.155739	-422.500824	-422.492182	-422.491238	-422.53462	31.548	
C	 1.3838034628	-0.2909257063	-0.0903273906	-0.249382
O	-0.0196709355	-0.2138514749	 0.0651219673	-0.245409
C	-0.422054031	 0.577356009	 1.1432936066	 0.182679
C	-1.9235935519	 0.5015918954	 1.4986753962	-0.095681
C	-1.5198132703	 1.0597315511	 2.8940041024	-0.237335
C	-0.4633268003	-0.0393105843	 2.5838258563	-0.127744
C	-1.6505041651	-0.9237217386	 2.0904596447	-0.053314
C	-1.4424075303	-2.1064434153	 1.1687700203	 0.127178
O	-2.3228963384	-2.5642247815	 0.4848821679	-0.264048
H	 1.8662991097	-0.7731066552	 0.7719269121	 0.111484
H	 1.5769115137	-0.8859980048	-0.9850723402	 0.137897
H	 1.8255837954	 0.7077961686	-0.2223516023	 0.112758
H	 0.0110268172	 1.5854362656	 1.0715546902	 0.068303
H	-2.764580993	 0.796303285	 0.8727196211	 0.091616
H	-1.1618412514	 2.092145877	 2.9261470019	 0.097531
H	-2.2085100627	 0.8475362268	 3.713476148	 0.104417
H	 0.3756707887	-0.3405061435	 3.2122058024	 0.075918
H	-2.3595083306	-1.2189552539	 2.8734056414	 0.095997
H	-0.439655147	-2.5868130701	 1.2139898243	 0.067134
76.3199	88.6315	143.3134	176.8498	229.4461	288.4691	368.9914	436.0978	451.5341	584.3771	648.4043	767.7329	795.6019	864.0621	895.5274	913.0072	928.4299	999.5842	1014.6078	1022.1403	1061.7322	1078.4989	1095.1424	1107.5455	1135.9782	1154.945	1180.0224	1186.0337	1209.88	1227.2171	1228.6775	1249.3999	1279.4934	1341.1875	1408.5791	1422.6638	1483.1819	1489.6773	1504.9486	1519.2711	1818.363	2872.1024	2985.588	3003.7825	3038.1374	3041.371	3061.508	3106.8247	3127.0506	3130.3163	3132.2206
COC1C2CC1C2C=O	CO[C@H]1[C@@H]2C[C@H]1[C@@H]2C=O	
InChI=1S/C7H10O2/c1-9-7-4-2-5(7)6(4)3-8/h3-7H,2H2,1H3	InChI=1S/C7H10O2/c1-9-7-4-2-5(7)6(4)3-8/h3-7H,2H2,1H3/t4-,5+,6-,7+
