19
gdb 971	3.9267672	0.943751	0.8601409	1.68	76.14	-0.26003	0.00954	0.26957	1378.0849	0.157424	-422.548913	-422.540439	-422.539495	-422.582817	30.965	
O	 0.9863266456	 0.9432684425	-0.2867916648	-0.307277
C	 0.0710590335	 0.1731098934	-0.4038734888	 0.191527
O	-1.2336965963	 0.4658735424	-0.3905143588	-0.208568
C	-1.5987149213	 1.8614147603	-0.2131307968	-0.123487
C	-1.8486815278	 2.5380684104	-1.5325825947	-0.019822
C	-0.6609599251	 3.1274832255	-2.250474111	-0.043196
C	-1.0923891153	 3.6646079704	-3.6206133274	-0.240511
C	-2.1331225603	 4.5947317011	-2.9096814597	-0.239017
C	-1.6777654178	 4.035612654	-1.5563305295	-0.061121
H	 0.1825764592	-0.9148547884	-0.5329354376	 0.110837
H	-2.5062294047	 1.8263331301	 0.3947696933	 0.119573
H	-0.8046147952	 2.363872947	 0.3441012996	 0.133545
H	-2.6539665683	 2.0936226297	-2.1177094795	 0.080559
H	 0.3461164432	 2.8736744524	-1.9459737607	 0.115314
H	-0.3079658218	 4.2349159252	-4.1223622615	 0.107411
H	-1.4870074428	 2.9235506061	-4.3237108869	 0.096533
H	-1.8920513909	 5.6522952511	-3.0358383009	 0.106604
H	-3.1885352748	 4.4458544468	-3.16090038	 0.095957
H	-1.5725822793	 4.6061422799	-0.6404313744	 0.085139
60.9697	86.8163	137.4051	216.6809	265.7991	292.3521	343.8904	392.2541	525.2774	715.8682	753.8089	776.2912	805.855	851.1424	918.948	924.3291	938.9625	965.5416	998.9348	1022.4691	1039.8478	1048.9684	1081.9296	1095.1442	1121.7995	1155.2929	1186.2844	1220.9093	1225.1247	1242.4649	1261.2994	1292.7062	1293.8149	1326.574	1398.6661	1411.1553	1443.3254	1480.6593	1484.9345	1501.5594	1813.8067	3027.5987	3042.6843	3050.9664	3066.9823	3098.2862	3098.6194	3116.7203	3125.7111	3171.4451	3205.916
O=COCC1C2CCC12	O=COC[C@@H]1[C@H]2CC[C@@H]12	
InChI=1S/C7H10O2/c8-4-9-3-7-5-1-2-6(5)7/h4-7H,1-3H2	InChI=1S/C7H10O2/c8-4-9-3-7-5-1-2-6(5)7/h4-7H,1-3H2/t5-,6+,7+
