19
gdb 5382	2.7420164	1.5564568	1.1151599	3.449	76.63	-0.24427	0.00338	0.24764999999999998	1108.2764	0.158563	-422.548428	-422.54033	-422.539386	-422.581391	30.536	
O	 1.238828681	 1.5710628549	-0.12755634	-0.431415
C	 0.547919592	 0.3313028076	-0.0553018478	-0.143543
C	-0.3653442388	 0.1331008874	-1.226322891	 0.275931
C	-1.6140236603	-0.3420054082	-1.244868689	-0.184447
C	-2.2407437206	-0.3448689603	-2.6216374229	-0.279972
C	-1.2189315155	 0.4389317955	-3.4657028433	-0.075146
C	-1.2714756315	 1.9827484188	-3.3913026606	-0.083716
O	 0.0071276375	 2.0542541876	-2.7123698139	-0.299376
C	 0.0535395691	 0.5977318317	-2.5997738753	 0.029112
H	 0.7309535139	 2.1607653655	-0.6996754847	 0.295122
H	 1.3172831522	-0.454994638	-0.0357874087	 0.106729
H	-0.0200483313	 0.2422348692	 0.8841287441	 0.091301
H	-2.1486694479	-0.6931352903	-0.3673391775	 0.09724
H	-2.3852838377	-1.3655022296	-2.9996466167	 0.112204
H	-3.2332728674	 0.1242673982	-2.6247903988	 0.109061
H	-1.0805007501	 0.0478426882	-4.4732975809	 0.082906
H	-1.2423750833	 2.5190654747	-4.3456055001	 0.109449
H	-2.0874848113	 2.3836164907	-2.7765026911	 0.102876
H	 1.0208187999	 0.2169454864	-2.9428606519	 0.085685
70.5776	112.6981	177.519	249.7786	306.7692	362.6796	390.537	412.0789	541.4184	674.6081	728.1703	775.4063	825.9557	858.0981	884.9434	920.9008	949.5656	969.9605	979.5893	1000.7732	1021.7733	1063.0164	1078.1789	1081.3485	1161.1428	1171.8412	1198.0394	1233.5667	1240.062	1258.731	1289.9437	1316.2434	1326.3818	1336.1329	1360.5917	1377.6543	1454.3889	1486.7156	1511.2802	1518.0647	1711.1371	2977.3049	3004.1458	3015.8125	3018.3092	3042.397	3060.1082	3070.8141	3115.5812	3178.99	3760.5356
OCC1=CCC2COC12	OCC1=CC[C@H]2CO[C@@H]12	
InChI=1S/C7H10O2/c8-3-5-1-2-6-4-9-7(5)6/h1,6-8H,2-4H2	InChI=1S/C7H10O2/c8-3-5-1-2-6-4-9-7(5)6/h1,6-8H,2-4H2/t6-,7-/m0/s1
