19
gdb 1286	2.6529589	1.3323894	0.9809837	4.2983	78.1	-0.26628	-0.03557	0.23071000000000003	1242.8471	0.156733	-422.614405	-422.605452	-422.604507	-422.648262	32.879	
C	-4.8211961892	 0.5566947524	-0.0451574178	-0.401589
C	-3.6754264844	 1.0138661616	-0.9535725417	-0.069993
C	-4.0665789497	 0.9350196773	-2.4440775121	-0.396337
C	-2.4024795918	 0.2571052928	-0.7056679553	 0.179861
C	-2.1492767051	-0.8545035792	-0.0108413073	-0.228084
C	-0.6885972497	-1.1796818594	-0.0958606091	-0.130358
O	-0.1232769335	-0.1480519026	-0.9011434285	-0.226694
C	-1.1078519091	 0.7276774726	-1.2796905844	 0.406763
O	-0.8862955879	 1.6936864821	-1.956960366	-0.3553
H	-5.0976240468	-0.4842918868	-0.2490696621	 0.11544
H	-4.5533746024	 0.6350630294	 1.0132869277	 0.116053
H	-5.7104851214	 1.1708528066	-0.2148946045	 0.118857
H	-3.4542671337	 2.0684117598	-0.7391914157	 0.103428
H	-4.3006483935	-0.0964984686	-2.7295698081	 0.111832
H	-4.9519009295	 1.54922689	-2.6353208219	 0.114323
H	-3.2528148807	 1.2961188839	-3.0763480047	 0.149412
H	-2.8500269275	-1.4604391366	 0.5483074467	 0.122877
H	-0.1940945645	-1.1795757381	 0.884084246	 0.13481
H	-0.4940383592	-2.1507874971	-0.5691941711	 0.134698
55.1451	142.1784	179.2981	212.7639	245.5069	271.9047	303.2582	324.8765	397.2026	488.6221	581.9725	598.065	756.5369	795.6141	799.8866	850.4311	882.8171	930.9183	957.8735	971.7495	1028.6142	1035.3139	1085.3228	1112.4838	1131.1936	1175.2626	1201.0999	1223.7202	1296.9482	1327.87	1371.164	1381.8039	1397.2102	1417.9834	1491.0014	1491.3544	1494.7524	1504.3904	1515.4569	1706.4163	1856.2821	3015.6231	3021.9107	3029.8338	3037.0894	3052.6306	3095.4335	3103.7379	3109.4621	3135.1839	3223.8291
CC(C)C1=CCOC1=O	CC(C)C1=CCOC1=O	
InChI=1S/C7H10O2/c1-5(2)6-3-4-9-7(6)8/h3,5H,4H2,1-2H3	InChI=1S/C7H10O2/c1-5(2)6-3-4-9-7(6)8/h3,5H,4H2,1-2H3
