19
gdb 4973	2.3051174	1.5547965	1.2699396	2.8852	74.55	-0.22125	0.05354	0.27479	1096.1524	0.156001	-422.490764	-422.482249	-422.481305	-422.523885	32.484	
C	 2.5570273852	-1.1059304632	 1.1220039708	-0.372346
C	 1.8831818199	-0.1564127645	 0.1210818021	-0.341689
C	 2.1054845056	-0.5383538648	-1.3073570337	 0.233538
C	 1.5236871686	-0.1014703792	-2.6190359496	-0.018746
O	 2.771702874	 0.1880823821	-3.2481129627	-0.293983
C	 3.366399489	-0.6943869816	-2.2529939041	 0.012344
C	 2.8797316746	-2.1071863482	-2.6769293147	-0.300661
C	 1.5049628231	-1.5911789913	-2.2573704017	 0.289274
O	 0.3013406597	-2.2553309941	-2.1786073976	-0.458345
H	 2.3701981754	-0.7883325706	 2.1522149729	 0.116508
H	 2.1824921572	-2.1294391648	 1.0128522467	 0.108255
H	 3.6416922184	-1.1320632336	 0.9729785739	 0.119819
H	 0.8010801407	-0.1351454206	 0.3041735546	 0.110085
H	 2.2394067911	 0.8682132333	 0.2905851769	 0.111258
H	 0.6421513303	 0.4745314034	-2.8704030098	 0.110309
H	 4.4081473659	-0.47324313	-2.0304770261	 0.08776
H	 3.0529812321	-2.3881490374	-3.7205154776	 0.104241
H	 3.2483764581	-2.8819754197	-1.9974617085	 0.094128
H	 0.3781992109	-2.9543808652	-1.5195262718	 0.288252
74.6602	128.5631	161.1828	246.7934	300.4426	329.1936	375.85	418.3336	447.3894	562.1776	625.6219	655.3139	730.2302	779.8991	817.5813	836.7058	916.3179	930.1223	953.442	966.2151	999.2298	1021.2015	1045.002	1086.0418	1111.3369	1134.8499	1144.394	1170.5344	1219.4743	1230.7982	1275.9217	1301.1853	1322.0126	1346.954	1388.1137	1411.2171	1460.8479	1477.7417	1498.4292	1499.4426	1505.3712	3015.3521	3032.8992	3042.8169	3046.8552	3099.8976	3103.1009	3107.2782	3143.5354	3204.7262	3788.6939
CCC12C3OC1CC23O	CC[C@@]12[C@H]3O[C@@H]1C[C@@]23O	
InChI=1S/C7H10O2/c1-2-6-4-3-7(6,8)5(6)9-4/h4-5,8H,2-3H2,1H3	InChI=1S/C7H10O2/c1-2-6-4-3-7(6,8)5(6)9-4/h4-5,8H,2-3H2,1H3/t4-,5-,6+,7+/m1/s1
