19
gdb 3532	2.1482405	1.3800801	0.8947657	4.2914	76.56	-0.24095	-0.02083	0.22011999999999998	1302.3781	0.154971	-422.538577	-422.529448	-422.528504	-422.573234	32.935	
C	-3.0973955536	-0.0557696844	 1.1015132149	-0.41253
C	-2.0846768757	 0.1684201047	-0.010944457	 0.007422
C	-0.9782517813	 1.2506821047	 0.1992417504	-0.361077
C	 0.0226676973	 0.2460132351	-0.3866455777	 0.382743
O	 1.0921914947	 0.3456951807	-0.9122676007	-0.291009
C	-0.9751524514	-0.9208877409	-0.2219831988	-0.129467
C	-1.1103775005	-1.9240048799	-1.3322341669	 0.073012
C	-1.7698118272	-3.2234859899	-1.1301499186	-0.184166
O	-0.3498017023	-3.127034697	-1.2195451406	-0.226039
H	-3.7337347615	-0.9219469099	 0.8909496588	 0.121724
H	-2.5949056204	-0.2339002102	 2.0592171919	 0.117492
H	-3.7508434955	 0.8143316538	 1.2243404319	 0.123644
H	-2.6000854148	 0.3513790475	-0.9603459199	 0.085183
H	-1.0711179748	 2.2105358511	-0.3138238396	 0.128645
H	-0.7774590364	 1.4366746261	 1.260912633	 0.128822
H	-0.7700419927	-1.4466434015	 0.719183771	 0.10605
H	-1.1208588773	-1.5032416615	-2.3389427081	 0.099746
H	-2.1608065295	-3.4808951798	-0.1461833915	 0.112093
H	-2.261844337	-3.7159241585	-1.9677659825	 0.117713
59.0355	76.3493	121.2208	186.0329	230.3264	257.1044	334.849	374.5509	415.6873	465.5032	584.0068	645.1239	744.4542	808.6846	863.7792	884.4982	892.3942	913.4456	968.9263	1017.4472	1048.6596	1083.8296	1103.0525	1106.3753	1154.0587	1162.7708	1169.1784	1181.6318	1209.25	1232.1086	1245.8984	1287.6746	1304.3472	1372.0167	1413.534	1440.3213	1449.5531	1494.0538	1498.3181	1526.673	1891.1265	3027.1173	3036.412	3043.7614	3050.8855	3079.4734	3095.4092	3098.8338	3099.9332	3116.2939	3166.1953
CC1CC(=O)C1C1CO1	C[C@H]1CC(=O)[C@@H]1[C@@H]1CO1	
InChI=1S/C7H10O2/c1-4-2-5(8)7(4)6-3-9-6/h4,6-7H,2-3H2,1H3	InChI=1S/C7H10O2/c1-4-2-5(8)7(4)6-3-9-6/h4,6-7H,2-3H2,1H3/t4-,6-,7+/m0/s1
