19
gdb 1342	3.0562938	0.9628419	0.7738499	3.3143	77.02	-0.24798	-0.03177	0.21621	1442.1518	0.15364	-422.575538	-422.56583	-422.564886	-422.611491	34.237	
C	-4.1454637101	-0.7922914083	 1.6255810573	-0.417121
C	-3.2208356376	 0.3630055284	 1.2135822814	-0.082701
C	-4.0408488472	 1.5819458309	 0.8330974171	 0.169634
O	-3.876980231	 2.6914781432	 1.2698927447	-0.251466
C	-2.3275079334	-0.0174272541	 0.0232023064	 0.016677
C	-1.2327079408	 1.014210103	-0.4042389375	-0.374754
C	-0.2062279219	-0.1267816883	-0.3468377324	 0.407127
O	 0.9251141663	-0.2455244563	-0.7138356637	-0.284731
C	-1.2227321932	-1.0926958996	 0.2873407382	-0.370604
H	-4.7358936404	-0.5338070382	 2.5095534927	 0.131794
H	-4.8403553037	-1.0480198982	 0.8175529823	 0.123971
H	-3.5627651715	-1.6881758653	 1.8588122009	 0.131772
H	-2.5840364153	 0.6594261587	 2.0556040809	 0.093632
H	-4.8320905036	 1.3759264278	 0.0717545156	 0.071568
H	-2.9521339288	-0.3035970215	-0.8293536752	 0.085236
H	-1.3423683958	 1.506910953	-1.373543352	 0.13523
H	-1.0424244462	 1.7841185014	 0.3517601519	 0.147728
H	-1.3237215933	-2.0664212209	-0.1982970993	 0.133322
H	-1.0170789927	-1.2553617159	 1.3516532908	 0.133685
39.7216	55.5713	80.4002	167.9887	211.3355	267.738	281.0578	359.7146	389.6957	429.7175	488.8642	525.7749	660.6108	676.0349	762.4674	886.6806	908.5991	926.4967	960.8058	988.4435	995.7335	1031.1767	1085.8504	1122.215	1134.0355	1158.6977	1194.6383	1208.5108	1239.8568	1265.069	1281.3114	1323.0727	1377.9126	1406.6226	1425.8234	1427.5694	1446.4381	1495.6219	1499.596	1832.9204	1898.0422	2839.0868	3034.0891	3041.5485	3048.1672	3055.1317	3058.1305	3103.336	3112.9053	3114.1685	3114.5374
CC(C=O)C1CC(=O)C1	C[C@H](C=O)C1CC(=O)C1	
InChI=1S/C7H10O2/c1-5(4-8)6-2-7(9)3-6/h4-6H,2-3H2,1H3	InChI=1S/C7H10O2/c1-5(4-8)6-2-7(9)3-6/h4-6H,2-3H2,1H3/t5-/m1/s1
