19
gdb 3180	2.3020101	1.9461085	1.2869347	2.4988	73.46	-0.25654	0.07591	0.33245	1014.317	0.159116	-422.539937	-422.532347	-422.531403	-422.572068	30.206	
O	 5.3200040727	 1.1854269656	 0.2308701563	-0.433909
C	 4.5098080574	 1.3598362987	 1.3845561359	 0.098524
C	 3.3710093831	 2.3311861366	 1.1171637247	-0.053824
C	 2.4162554778	 2.7003254944	 2.2232431089	-0.302702
C	 1.9258178658	 1.8889065073	 1.0502699644	-0.022156
C	 1.5319431722	 0.4366689312	 1.2599703302	-0.266108
C	 2.6436116797	-0.4516372204	 1.7800853112	 0.061982
O	 3.6194220464	-0.8703451108	 0.8178541451	-0.265336
C	 4.048528153	-0.0075743947	 1.8801172053	-0.012633
H	 4.8602237331	 0.5322944789	-0.313115661	 0.289319
H	 5.171200796	 1.7985737929	 2.1410130789	 0.087005
H	 3.6709017354	 3.1274172666	 0.4433051035	 0.094732
H	 2.5264510356	 2.1834441087	 3.1733970092	 0.10731
H	 2.1028669369	 3.73407969	 2.3164553181	 0.113312
H	 1.3015975297	 2.4166191293	 0.3358457945	 0.086885
H	 0.6855170054	 0.3815323872	 1.9555671956	 0.106293
H	 1.1834753487	 0.0008904819	 0.3158913609	 0.119287
H	 2.3273792793	-1.2591374186	 2.4411975387	 0.094452
H	 4.7010487918	-0.4965110946	 2.6027313894	 0.09757
58.1898	221.1365	261.195	301.17	388.2031	406.4004	457.65	478.6916	505.9798	662.7758	738.2567	757.7196	782.8177	825.7147	837.4661	872.2555	927.8706	950.4903	970.7917	1036.3244	1058.8814	1065.8292	1078.9056	1092.177	1125.8858	1142.3882	1142.9172	1168.9552	1220.5034	1266.0714	1280.4264	1293.5686	1341.7791	1353.945	1368.1098	1392.0855	1412.9109	1443.3164	1465.3021	1478.9685	1499.1404	3025.7693	3037.9616	3060.0857	3101.2999	3117.8307	3119.2903	3149.0586	3161.9775	3207.153	3764.8744
OC1C2CC2CC2OC12	O[C@H]1[C@@H]2C[C@@H]2C[C@H]2O[C@@H]12	
InChI=1S/C7H10O2/c8-6-4-1-3(4)2-5-7(6)9-5/h3-8H,1-2H2	InChI=1S/C7H10O2/c8-6-4-1-3(4)2-5-7(6)9-5/h3-8H,1-2H2/t3-,4-,5-,6+,7-/m1/s1
