19
gdb 531	2.4648106	2.0398722	1.4268554	1.8619	73.72	-0.23328	0.06984	0.30312	960.2708	0.15926	-422.533947	-422.52682	-422.525876	-422.565288	28.507	
C	 0.6356212617	 1.0356524761	 1.2469600307	-0.273142
C	-0.2311234728	 1.5368195739	 0.0494297165	-0.325327
C	 0.2119149661	 0.2869832164	-0.715565976	 0.453258
O	 0.3778365569	 0.2195398129	-2.1309445515	-0.329772
C	-0.1087473292	-1.1434887222	-2.1526642539	-0.101645
C	-0.5146119289	-1.0790960441	-0.6624377366	-0.158476
C	 0.2482312038	-1.9176991561	 0.3665346916	-0.106435
O	 1.5220035577	-1.2938764974	 0.5488034391	-0.265566
C	 1.386990677	 0.0804065169	 0.2578543462	 0.065124
H	 1.2466814629	 1.7786649316	 1.7606825477	 0.109135
H	 0.0547474499	 0.4834644109	 1.9891286411	 0.110619
H	-1.3021253859	 1.6836585894	 0.2065715062	 0.102048
H	 0.1868917586	 2.4398786609	-0.4044906094	 0.119173
H	-0.925835379	-1.2681812339	-2.8708244225	 0.106147
H	 0.6906096641	-1.8594265436	-2.3804760873	 0.108529
H	-1.5916204213	-1.0619935673	-0.4923883664	 0.085858
H	-0.3069801761	-1.9493646424	 1.3158983589	 0.097216
H	 0.4297394318	-2.9493382238	 0.0486353182	 0.111344
H	 2.3587935326	 0.4628740016	-0.0604445823	 0.091914
132.1803	186.9826	247.8423	300.3232	377.46	425.0824	512.2873	623.6314	695.3344	716.9169	787.9768	816.0283	846.141	876.0158	916.4578	925.8379	938.4948	968.049	1008.3679	1049.7617	1069.003	1092.9941	1120.4302	1130.5835	1161.5616	1167.4274	1170.7092	1212.2564	1224.242	1238.402	1240.5288	1273.4197	1288.4133	1333.4176	1347.0856	1352.5076	1401.2119	1475.8711	1492.4116	1516.9808	1523.5592	2992.2552	3022.8057	3061.4103	3072.3981	3075.0382	3078.5603	3098.137	3108.9246	3112.1061	3137.118
C1CC23OCC2COC13	C1C[C@]23OC[C@H]2CO[C@H]13	
InChI=1S/C7H10O2/c1-2-7-5(4-9-7)3-8-6(1)7/h5-6H,1-4H2	InChI=1S/C7H10O2/c1-2-7-5(4-9-7)3-8-6(1)7/h5-6H,1-4H2/t5-,6-,7+/m1/s1
