19
gdb 989	4.1033221	0.6676103	0.5917928	4.6235	84.3	-0.25311	-0.05793	0.19518	1870.9825	0.1532	-422.553035	-422.542105	-422.541161	-422.591871	37.083	
C	 1.6060804397	-0.5142850424	 0.7010954749	-0.505629
C	 0.277584449	-0.1108067569	 0.2757365876	 0.190764
C	-0.8265486834	 0.2401643385	-0.0637069241	-0.032042
C	-2.149866809	 0.6377491161	-0.4860417047	 0.202731
O	-2.6973009225	 1.622323751	-0.017782125	-0.320807
C	-2.8077567724	-0.2484421582	-1.531467614	-0.309634
C	-4.0447605849	 0.3928163818	-2.1828602622	 0.137154
C	-4.6670762272	-0.5221279818	-3.2299905626	-0.389955
O	-5.0415348611	 0.6726899526	-1.2167910584	-0.442872
H	 1.5930407054	-0.8374294738	 1.7477472959	 0.16714
H	 1.9896509733	-1.3411866178	 0.0949368071	 0.159773
H	 2.3086567653	 0.3223401238	 0.6227650038	 0.166637
H	-2.0564577512	-0.5232169642	-2.2816873407	 0.120107
H	-3.0974950094	-1.1833327943	-1.0302580502	 0.139254
H	-3.7189201201	 1.3252663593	-2.6742476861	 0.069754
H	-3.9568378398	-0.7473572452	-4.0314899961	 0.107151
H	-4.9885007134	-1.4629070809	-2.7713208922	 0.119911
H	-5.5459018833	-0.0405642972	-3.6665041334	 0.126756
H	-4.6252277049	 1.2736215696	-0.5836165096	 0.293807
11.2475	36.8846	73.2181	113.5009	149.5749	210.1163	228.9753	283.8295	334.8689	368.3716	382.9364	455.8641	469.4895	578.1826	594.2836	603.8251	788.232	854.431	914.0785	944.2659	992.9409	1043.1352	1054.5295	1061.1955	1094.0663	1159.3381	1199.1961	1221.2895	1308.9042	1346.0942	1385.7386	1401.8288	1409.2821	1427.2396	1455.9296	1468.908	1472.5918	1483.2931	1500.619	1734.2942	2338.373	2955.9378	3018.7451	3032.8105	3039.2357	3066.1686	3096.8358	3101.2221	3110.9857	3122.1421	3744.487	11.2452	36.8835	73.2183	113.5006	149.5747	210.1162	228.9748	283.8293	334.8688	368.3713	382.9351	455.8639	469.4893	578.1825	594.2834	603.8248	788.232	854.4311	914.0786	944.2659	992.9409	1043.135	1054.5294	1061.1955	1094.0665	1159.3381	1199.1962	1221.2899	1308.9045	1346.0944	1385.739	1401.829	1409.2821	1427.24	1455.9298	1468.908	1472.5918	1483.2934	1500.6192	1734.2942	2338.3729	2955.9378	3018.7451	3032.8106	3039.2356	3066.1685	3096.8358	3101.2221	3110.9857	3122.142	3744.4868
CC#CC(=O)CC(C)O	CC#CC(=O)C[C@@H](C)O	
InChI=1S/C7H10O2/c1-3-4-7(9)5-6(2)8/h6,8H,5H2,1-2H3	InChI=1S/C7H10O2/c1-3-4-7(9)5-6(2)8/h6,8H,5H2,1-2H3/t6-/m1/s1
