19
gdb 1085	3.1951804	1.4229081	1.1747846	2.4134	75.66	-0.2443	-0.01827	0.22602999999999998	1095.0231	0.156665	-422.558839	-422.550545	-422.549601	-422.592576	31.34	
C	-0.7203982432	-3.361418262	-4.8609189105	-0.479948
C	-0.4796708717	-2.1439034871	-4.0002230495	 0.269617
O	-1.3656190981	-1.4072510048	-3.6261171218	-0.311244
C	 0.9436948649	-1.8435073548	-3.596332399	 0.36876
C	 1.3750289058	-1.6578050132	-2.112869129	-0.257791
C	 2.6225631929	-1.0364292731	-2.8131987544	-0.093716
C	 1.6218938274	-0.469398375	-3.8667808893	-0.257762
C	 3.1439404396	-2.2644421895	-3.5718970016	-0.08023
O	 1.9016199777	-2.7891266195	-4.1022673186	-0.330508
H	-0.3474503513	-4.2570121511	-4.3528726837	 0.149674
H	-1.7851272662	-3.4570374724	-5.0760450421	 0.133876
H	-0.1448951865	-3.2817469253	-5.7892329564	 0.149707
H	 0.7602856368	-0.9266788373	-1.5891347907	 0.12452
H	 1.5060510486	-2.5685188509	-1.5233435364	 0.101519
H	 3.3500712327	-0.416754719	-2.2909283269	 0.079558
H	 1.0290327839	 0.3669921962	-3.4983725395	 0.124524
H	 1.9790670631	-0.291389953	-4.8840553742	 0.101521
H	 3.8253151109	-2.0164070561	-4.3937500179	 0.103961
H	 3.6186353228	-3.0113590522	-2.9253565886	 0.103963
25.6494	141.6967	179.2173	182.3222	343.5801	359.649	433.3568	467.8347	545.1863	587.3265	614.0111	667.5623	825.6351	863.7602	880.4496	892.389	937.9279	948.5606	958.5016	981.8124	989.7057	1017.1701	1066.3921	1087.4696	1100.3942	1113.5089	1151.5791	1169.8369	1185.7141	1232.9702	1246.9064	1289.2393	1334.0368	1359.5989	1386.758	1453.0384	1462.8245	1475.2619	1506.4129	1531.0076	1802.1559	3026.9697	3043.868	3068.0152	3072.4121	3075.251	3104.8797	3129.004	3152.1528	3157.02	3159.1057
CC(=O)C12CC(C1)CO2	CC(=O)[C@]12C[C@H](C1)CO2	
InChI=1S/C7H10O2/c1-5(8)7-2-6(3-7)4-9-7/h6H,2-4H2,1H3	InChI=1S/C7H10O2/c1-5(8)7-2-6(3-7)4-9-7/h6H,2-4H2,1H3/t6-,7+
