19
gdb 5013	2.2445264	1.7796618	1.3245571	0.6518	75.8	-0.23802	0.0882	0.32622	1045.1332	0.156229	-422.471866	-422.463557	-422.462613	-422.504622	31.628	
C	 1.4455404639	-0.0852398569	-0.1479148978	-0.270115
O	 0.0266160086	-0.0719200193	-0.0470409179	-0.291522
C	-0.4422666574	 0.6241824992	 1.0360145328	 0.342353
C	-0.2031631932	 2.1285801087	 1.440810208	-0.302447
C	-1.1874544555	 1.5545217764	 2.5088688747	-0.164111
C	-1.9448902034	 0.854420249	 1.3344864247	-0.283002
C	-0.2964548199	 0.3067862237	 2.5415456948	 0.475814
C	-0.1765625097	-0.8852741166	 3.3619698759	-0.321624
O	 0.8879886224	 0.1038074991	 3.2728081075	-0.309351
H	 1.910034724	-0.4668938546	 0.7687575826	 0.135552
H	 1.6961428595	-0.7387700245	-0.9857586193	 0.127702
H	 1.8387953905	 0.9208320953	-0.3479260027	 0.116204
H	 0.7930314522	 2.4004252685	 1.7936441292	 0.112581
H	-0.6212125365	 2.8742880115	 0.7604165678	 0.096014
H	-1.623859017	 2.0842777888	 3.3504529873	 0.091368
H	-2.5416970705	-0.0272963292	 1.5789482205	 0.099471
H	-2.4625489581	 1.5245977924	 0.6454751691	 0.101735
H	-0.6671564473	-0.937979683	 4.33254802	 0.120689
H	 0.0522914275	-1.8462743087	 2.9045061927	 0.122689
90.8817	159.7754	188.7005	210.0837	235.6674	308.0358	431.7761	447.8876	474.724	623.2061	638.1289	670.8449	757.5397	819.4063	890.6552	908.6467	944.4995	960.0423	975.5606	1036.6052	1047.4885	1059.1475	1071.6784	1108.4377	1114.0627	1139.427	1159.1957	1163.4028	1183.983	1198.6845	1203.1432	1227.552	1241.0422	1332.208	1455.6097	1486.7737	1489.2915	1490.2494	1512.2559	1525.8665	1568.696	3006.8514	3063.1812	3066.426	3072.5683	3087.9	3130.0462	3135.0759	3139.545	3165.8193	3174.2769
COC12CC(C1)C21CO1	CO[C@@]12C[C@@H](C1)[C@]12CO1	
InChI=1S/C7H10O2/c1-8-6-2-5(3-6)7(6)4-9-7/h5H,2-4H2,1H3	InChI=1S/C7H10O2/c1-8-6-2-5(3-6)7(6)4-9-7/h5H,2-4H2,1H3/t5-,6-,7-/m0/s1
