19
gdb 4815	2.093669	0.9440227	0.6782887	2.8434	79.17	-0.25724	-0.02787	0.22937000000000002	1636.8603	0.151899	-422.518362	-422.507507	-422.506563	-422.555743	36.9	
C	-3.2832759504	 0.0876440273	-1.1714168397	-0.391306
C	-3.0096483931	-0.958065864	-0.0889722337	-0.185101
C	-1.6015487383	-1.5614307123	-0.1890712379	-0.051049
O	-0.6711512479	-0.500471896	 0.0001931793	-0.249959
C	 0.6723902115	-0.8441296027	-0.2430362462	-0.152935
C	 1.5259742188	 0.3801227805	 0.0326442088	 0.141674
O	 2.6986304054	 0.4452414124	-0.2229250948	-0.238283
C	-1.3995007391	-2.6397687118	 0.7873332414	 0.331027
C	-1.2356738053	-3.5174799234	 1.592260996	-0.455673
H	-2.5620584505	 0.9059537058	-1.1124839027	 0.134973
H	-3.2155786315	-0.3518548673	-2.1729454705	 0.113936
H	-4.2876098833	 0.5057315859	-1.0586817772	 0.116519
H	-3.1151394879	-0.5186521312	 0.9086355232	 0.119528
H	-3.7306297067	-1.7795614661	-0.1536732811	 0.112767
H	-1.4646671334	-1.9804201032	-1.2013752329	 0.095728
H	 1.0090355006	-1.6615437243	 0.4146357426	 0.136667
H	 0.8351771922	-1.171884535	-1.2824192344	 0.121833
H	 0.966297939	 1.217153124	 0.5053351671	 0.095701
H	-1.0927596202	-4.2963211286	 2.3005324026	 0.203952
49.5468	56.4729	101.4056	111.3879	128.5321	145.6368	215.616	243.7842	302.3678	360.5259	409.5795	506.9892	564.4934	604.2023	633.6007	681.1835	743.5975	777.7188	873.6951	961.3232	984.3404	1050.2916	1058.6186	1113.7798	1115.6585	1149.4267	1165.5597	1238.1213	1285.8637	1316.5612	1337.6393	1376.2493	1383.8965	1407.6827	1414.6283	1477.6035	1481.445	1496.3879	1509.4987	1844.4738	2230.8584	2899.0596	2949.7261	2976.8608	3011.02	3039.3091	3050.3587	3088.1001	3107.5708	3130.9628	3500.7571
CCC(OCC=O)C#C	CC[C@@H](OCC=O)C#C	
InChI=1S/C7H10O2/c1-3-7(4-2)9-6-5-8/h1,5,7H,4,6H2,2H3	InChI=1S/C7H10O2/c1-3-7(4-2)9-6-5-8/h1,5,7H,4,6H2,2H3/t7-/m0/s1
