19
gdb 5573	3.3070427	1.5024837	1.2715863	2.5507	74.6	-0.23199	0.08021	0.31220000000000003	1046.1294	0.158182	-422.499386	-422.491993	-422.491049	-422.531315	28.965	
C	 1.4351492628	-0.3826716891	-0.0362512152	-0.24094
O	 0.1036391554	 0.0753799004	 0.0127875877	-0.251447
C	-0.1846424117	 0.8472009481	 1.1439764573	 0.197019
C	 0.2560784129	 2.3377994333	 1.1313743049	-0.152022
C	-0.2020899866	 2.7712876831	 2.5481059879	-0.258059
C	-1.6198501433	 2.5664173174	 1.9829835509	-0.077347
C	-1.1199860481	 2.9373657701	 0.5692369584	 0.122878
O	-1.8724783268	 1.8999534262	-0.061055431	-0.277723
C	-1.684998681	 1.1945780241	 1.1969203743	 0.019959
H	 1.691276104	-0.9901544527	 0.8466208064	 0.101814
H	 1.5286736149	-1.0038467754	-0.9301512219	 0.129407
H	 2.159022024	 0.4430270836	-0.1045451516	 0.105826
H	 0.1655229106	 0.3398736502	 2.0564393533	 0.059847
H	 1.2325123681	 2.5922721397	 0.7250567526	 0.071567
H	 0.137010191	 2.1713356522	 3.3977955614	 0.097107
H	-0.0189611821	 3.8297054787	 2.7527999944	 0.104187
H	-2.5373746434	 2.9477271894	 2.4275152514	 0.08004
H	-1.1493026558	 3.9123173352	 0.0855087492	 0.08572
H	-2.4156145248	 0.4080147354	 1.3771723796	 0.082167
93.3729	166.9896	180.9118	287.9303	383.3344	413.4461	500.9223	573.3682	707.0886	747.1394	794.2835	843.4953	850.0269	865.4584	906.2134	931.9281	957.8604	975.016	984.3443	1019.1192	1039.2721	1065.5359	1076.972	1107.0259	1160.7095	1167.3878	1182.1996	1185.9754	1204.4243	1209.7589	1236.8794	1245.9516	1270.0545	1296.8333	1307.8859	1338.4604	1406.1798	1482.6496	1487.1094	1501.2323	1509.002	2970.8351	2982.9066	3020.5585	3050.6404	3103.7996	3115.6469	3129.3139	3135.6624	3141.8964	3147.451
COC1C2CC3C2OC13	CO[C@H]1[C@@H]2C[C@H]3[C@@H]2O[C@@H]13	
InChI=1S/C7H10O2/c1-8-6-3-2-4-5(3)9-7(4)6/h3-7H,2H2,1H3	InChI=1S/C7H10O2/c1-8-6-3-2-4-5(3)9-7(4)6/h3-7H,2H2,1H3/t3-,4+,5-,6+,7-/m1/s1
