19
gdb 4681	4.0180147	0.8307109	0.8045323	3.8159	77.62	-0.24672	-0.02573	0.22099	1488.8008	0.154492	-422.582533	-422.57289	-422.571946	-422.618757	33.904	
C	 2.5737277899	-0.888024892	-1.1046555279	-0.384901
C	 1.4364382186	-0.2330072537	-0.2975851481	-0.274534
C	 1.7350915975	 1.2340767774	-0.0320270038	 0.379865
O	 2.2148187187	 1.6101799588	 1.0147460214	-0.315444
C	 1.3894959679	 2.2187775464	-1.1361977878	-0.102218
C	 0.0178185963	 2.964944666	-0.9138916268	-0.351309
C	 0.7716824526	 4.2766645327	-1.2000091196	 0.401294
O	 0.4136662085	 5.3788694286	-1.4920737518	-0.285308
C	 2.1329500926	 3.584907655	-1.0989399549	-0.351992
H	 2.3510233165	-1.9421692649	-1.2901233984	 0.129076
H	 2.7147009931	-0.4014196494	-2.0751286657	 0.124764
H	 3.5182464381	-0.829961872	-0.5563498619	 0.139996
H	 0.4933386606	-0.3239332147	-0.8495653049	 0.109853
H	 1.3259971032	-0.7338426379	 0.667579827	 0.125063
H	 1.4149951687	 1.74029204	-2.1173691225	 0.088135
H	-0.8156529103	 2.7231078221	-1.5767298539	 0.13348
H	-0.3206890133	 2.9163822403	 0.1264932263	 0.146306
H	 2.8642787955	 3.8074168046	-1.8786431519	 0.128664
H	 2.5869660751	 3.7376741227	-0.1131753747	 0.159211
29.9375	52.4913	72.747	175.2549	195.0859	236.3697	266.7162	368.6172	425.1555	477.139	569.3484	633.4984	676.6979	726.4222	741.4079	811.7565	871.3505	915.7522	939.599	988.1604	1005.0002	1026.0447	1073.1449	1079.4213	1106.1932	1176.6002	1194.8702	1204.34	1233.2879	1242.7176	1278.7409	1324.8546	1369.2992	1409.875	1424.9483	1442.6327	1477.2278	1499.6602	1506.2317	1800.2228	1899.3836	3038.2476	3042.3842	3053.5997	3059.117	3087.2193	3098.3231	3117.2426	3123.3383	3124.7966	3126.2177
CCC(=O)C1CC(=O)C1	CCC(=O)C1CC(=O)C1	
InChI=1S/C7H10O2/c1-2-7(9)5-3-6(8)4-5/h5H,2-4H2,1H3	InChI=1S/C7H10O2/c1-2-7(9)5-3-6(8)4-5/h5H,2-4H2,1H3
