19
gdb 1365	3.3324237	0.8884439	0.8606147	1.765	77.52	-0.26041	0.02603	0.28644	1421.6691	0.152887	-422.501417	-422.491153	-422.490209	-422.537014	37.037	
C	 2.7838682069	-2.0632657176	-0.6688349218	-0.467148
C	 3.0517044764	-2.3375981133	-2.1333521461	 0.401867
C	 3.3988030014	-1.1447674489	-3.0089349673	-0.267295
C	 2.2168376605	-0.1755769993	-3.2374701833	-0.097411
O	 1.1265485738	-0.8125612081	-3.8998600346	-0.425048
C	 2.637428872	 0.9630830178	-4.0511720118	 0.358338
C	 3.0211504594	 1.8965362366	-4.7019219219	-0.434571
C	 2.4941230663	-3.5512402827	-2.7643568885	-0.240796
O	 3.8671846622	-3.4910952517	-2.3781340763	-0.281795
H	 2.5969045565	-2.9970351044	-0.1335312544	 0.13224
H	 3.6480008672	-1.5719220929	-0.2087901861	 0.132414
H	 1.9169726973	-1.4078213769	-0.5305970049	 0.12151
H	 4.2253254285	-0.5869461046	-2.553123995	 0.114041
H	 3.74254263	-1.5075218667	-3.9812358829	 0.127442
H	 1.884421779	 0.2159316648	-2.2618893356	 0.099656
H	 0.8001646262	-1.5025648488	-3.312952817	 0.289701
H	 3.3469809095	 2.7255890407	-5.2802519463	 0.200307
H	 1.875359983	-4.2299594774	-2.177832008	 0.11205
H	 2.3096620537	-3.5645836767	-3.837543648	 0.124498
43.5514	84.5767	119.9654	185.5865	188.6459	249.219	261.0346	330.1674	368.672	370.4214	390.5561	480.9742	547.9783	570.6598	627.7478	676.3849	739.2954	827.2921	861.8245	920.9576	942.8888	943.342	1010.5735	1058.7061	1071.4162	1116.4086	1139.7139	1161.67	1196.6203	1253.9573	1277.2093	1313.8169	1355.0255	1398.0819	1420.6725	1432.4221	1471.2749	1484.0843	1496.2686	1529.7904	2245.7883	2963.5497	3034.5313	3044.5584	3079.0227	3095.9898	3106.3074	3125.455	3166.8098	3504.5549	3817.9421
CC1(CC(O)C#C)CO1	C[C@]1(C[C@H](O)C#C)CO1	
InChI=1S/C7H10O2/c1-3-6(8)4-7(2)5-9-7/h1,6,8H,4-5H2,2H3	InChI=1S/C7H10O2/c1-3-6(8)4-7(2)5-9-7/h1,6,8H,4-5H2,2H3/t6-,7+/m1/s1
