19
gdb 861	3.3341727	1.2533914	1.1021469	2.4357	75.25	-0.24568	-0.02805	0.21763000000000002	1134.5317	0.158433	-422.550349	-422.542616	-422.541671	-422.582994	29.691	
O	 1.3989046615	-0.0715341841	-0.8607597003	-0.244253
C	 0.5061599013	 0.1441037452	-0.0828176894	 0.139709
C	 0.3598497158	 1.4015883768	 0.746453461	-0.088474
C	-0.958784865	 2.1267307261	 0.3603760993	-0.094695
O	-1.5235686869	 2.8960460395	 1.4143227377	-0.275132
C	-1.2896186714	 2.3623821141	 2.7116395747	 0.138153
C	 0.2260185934	 2.4091765475	 3.0353422551	-0.23879
C	 0.3098594552	 1.064904371	 2.2573339452	-0.043505
C	-1.1651809706	 0.8138493039	 2.6999140996	-0.263734
H	-0.3001027602	-0.6096020889	 0.085617516	 0.074852
H	 1.2312636776	 2.0309009186	 0.5417322785	 0.098314
H	-0.7920262225	 2.8119662238	-0.4744456076	 0.124737
H	-1.6924891481	 1.3779177548	 0.0225457965	 0.09716
H	-2.0044520439	 2.8483327488	 3.3774935046	 0.080289
H	 0.785231779	 3.2660610153	 2.6520365377	 0.102523
H	 0.4246183532	 2.2750377028	 4.1018648871	 0.101956
H	 1.0782060763	 0.3417446904	 2.539964669	 0.077294
H	-1.8365020268	 0.2380595356	 2.0590451371	 0.10422
H	-1.2107385177	 0.4148480386	 3.7156620785	 0.109379
61.3018	119.2574	235.7426	305.8866	366.4402	385.9413	433.2388	461.4343	518.1296	628.5934	804.7748	828.9678	835.5958	879.1704	894.5344	926.3973	939.3497	969.4462	996.0976	1036.3269	1057.631	1064.6439	1112.6782	1132.4387	1142.5823	1154.1785	1195.9446	1243.5525	1254.4623	1266.2926	1274.6184	1299.5101	1327.4621	1337.4894	1373.7453	1420.4776	1430.516	1471.9088	1499.0425	1520.2361	1833.1084	2846.3854	2974.8503	3058.362	3065.7121	3068.416	3081.7679	3093.2305	3101.392	3120.8213	3124.1482
O=CC1COC2CC1C2	O=C[C@H]1CO[C@@H]2C[C@H]1C2	
InChI=1S/C7H10O2/c8-3-6-4-9-7-1-5(6)2-7/h3,5-7H,1-2,4H2	InChI=1S/C7H10O2/c8-3-6-4-9-7-1-5(6)2-7/h3,5-7H,1-2,4H2/t5-,6-,7+/m0/s1
