19
gdb 5413	2.4976573	1.1660686	0.9841248	0.3326	79.85	-0.23347	0.03785	0.27132	1295.4241	0.152246	-422.493191	-422.482419	-422.481475	-422.528745	38.089	
C	 1.4159436029	 0.1224662566	-0.3118808979	-0.235854
O	 0.0675028389	 0.0019453357	 0.107938207	-0.239707
C	-0.1627263806	 0.5852809644	 1.3450647878	 0.03689
C	-0.4426565967	 2.0596620896	 1.4510337099	 0.040182
O	 0.0266160332	 2.7889598365	 2.5357317655	-0.427015
C	-1.5917033232	 1.0514468345	 1.6168549318	 0.022124
C	-2.6325677698	 0.9351590908	 0.5137258245	-0.460618
C	-2.071514619	 0.9082124879	 2.9629455269	 0.239609
C	-2.4568759273	 0.8687467791	 4.1039472376	-0.427263
H	 2.0987408962	-0.3914699541	 0.3801286373	 0.113746
H	 1.4866242279	-0.3462990911	-1.2957343864	 0.130304
H	 1.7237484227	 1.1744976671	-0.3862100103	 0.117776
H	 0.3707362803	 0.1385949393	 2.1858420409	 0.101392
H	-0.4601018759	 2.6215346193	 0.5188724622	 0.106443
H	-0.6178737994	 2.7093160593	 3.2519268655	 0.290931
H	-3.1289096643	-0.0388190393	 0.5550729668	 0.131908
H	-3.3943271159	 1.712967151	 0.6207152657	 0.12497
H	-2.1598608365	 1.0290048207	-0.4649085777	 0.135008
H	-2.8086670835	 0.7851665328	 5.1025797329	 0.199173
77.0545	120.4449	128.3947	161.4594	174.9795	186.186	207.2401	242.4661	299.7608	313.16	387.5436	417.9313	508.0608	549.1353	597.5887	640.0225	657.5797	690.0161	841.2619	944.5887	981.9533	1027.2789	1044.7008	1076.2605	1112.3125	1155.6797	1167.5517	1181.8321	1225.2802	1251.2772	1274.7873	1335.9148	1377.2026	1408.2426	1436.8775	1484.0547	1485.9762	1487.9096	1501.1912	1508.311	2220.7543	2991.955	3046.096	3046.964	3095.536	3111.5394	3124.0868	3127.1849	3144.5525	3499.7495	3740.3492
COC1C(O)C1(C)C#C	CO[C@H]1[C@H](O)[C@]1(C)C#C	
InChI=1S/C7H10O2/c1-4-7(2)5(8)6(7)9-3/h1,5-6,8H,2-3H3	InChI=1S/C7H10O2/c1-4-7(2)5(8)6(7)9-3/h1,5-6,8H,2-3H3/t5-,6-,7-/m0/s1
