19
gdb 1526	2.5798284	1.1296312	0.9574028	1.9053	79.3	-0.24584	-0.08991	0.15593	1308.8153	0.15386	-422.571562	-422.561746	-422.560801	-422.606419	35.286	
C	-2.9979928852	 2.7111740151	 1.737940714	-0.444123
C	-1.5098704374	 2.7467081186	 1.4436955562	 0.335043
C	-0.6262363469	 2.7043550528	 2.6739772484	-0.467654
C	-1.0510749689	 3.4999505781	 0.2443507262	-0.323762
C	-1.0837247343	 1.9780965541	 0.1629813524	-0.168492
C	 0.1848714638	 1.2386317084	 0.1000821355	 0.283014
O	 1.2726431834	 1.6324982398	 0.4780403569	-0.31726
C	 0.1294054674	-0.1720809301	-0.5077186513	 0.095359
O	-0.8662419955	-0.6840226703	-0.9472651638	-0.222979
H	-3.2816678954	 3.5679093803	 2.3602615418	 0.123159
H	-3.5939719604	 2.7502714181	 0.8214817493	 0.119267
H	-3.2712130365	 1.8006014768	 2.2819987394	 0.12522
H	-0.8534798531	 1.8277656556	 3.2911089704	 0.116128
H	 0.432579213	 2.676602089	 2.4137011717	 0.154584
H	-0.8071341458	 3.5947615189	 3.2869516396	 0.118531
H	-1.778254531	 4.0352946231	-0.3569507071	 0.119435
H	-0.0571713422	 3.9349706341	 0.2692204744	 0.135983
H	-1.8917913009	 1.5092692148	-0.3852310809	 0.113221
H	 1.1228318757	-0.6689140373	-0.5029067634	 0.105326
54.627	125.8357	135.5177	176.0477	210.8374	245.3027	250.1037	313.4951	362.1611	391.7066	415.2694	522.0699	597.4426	641.0787	689.2811	776.1372	823.2687	925.8547	954.1102	971.007	978.8121	1033.5413	1059.9595	1076.173	1091.2136	1124.5983	1145.8852	1173.445	1293.8303	1334.6211	1364.2416	1411.4119	1421.6018	1429.8901	1476.3243	1484.9217	1490.0551	1509.777	1511.3843	1766.7771	1824.048	2922.425	3027.0203	3032.6503	3086.1818	3091.2799	3107.9509	3129.3289	3143.0222	3191.6956	3221.9676
CC1(C)CC1C(=O)C=O	CC1(C)C[C@H]1C(=O)C=O	
InChI=1S/C7H10O2/c1-7(2)3-5(7)6(9)4-8/h4-5H,3H2,1-2H3	InChI=1S/C7H10O2/c1-7(2)3-5(7)6(9)4-8/h4-5H,3H2,1-2H3/t5-/m0/s1
