19
gdb 5337	3.3568058	0.9138588	0.8173519	3.6797	79.89	-0.2314	-0.03026	0.20113999999999999	1460.5817	0.155209	-422.569456	-422.560005	-422.559061	-422.604893	33.053	
C	 2.2370540902	-0.9679340111	 0.6995589826	-0.376774
C	 1.3357678437	 0.0002827512	-0.0887780724	-0.293539
C	 1.7997823888	 1.4244561501	-0.039527126	 0.311857
C	 1.1855324811	 2.4782543907	 0.4951947774	-0.236528
C	 2.0163818627	 3.7210145378	 0.3034841034	 0.00931
O	 3.1754357644	 3.2852506367	-0.3951781225	-0.277074
C	 3.0942554177	 1.8860247111	-0.6644486214	-0.158521
C	 2.423161935	 4.3104955183	 1.65513988	 0.138248
O	 1.7685653255	 5.1125416955	 2.2654696544	-0.242415
H	 2.2902235353	-0.6804271941	 1.7539354946	 0.126588
H	 1.8437225425	-1.9870805985	 0.644058895	 0.121552
H	 3.2573923265	-0.983916718	 0.304201738	 0.123523
H	 1.294003583	-0.3284735591	-1.1364379735	 0.111754
H	 0.3124719088	-0.056997575	 0.2964526629	 0.112711
H	 0.2309299796	 2.4903783219	 1.0049778791	 0.117707
H	 1.4880458893	 4.5030027005	-0.262451456	 0.107951
H	 3.1073381399	 1.7102351794	-1.7524174943	 0.107626
H	 3.9771157834	 1.3814797574	-0.2458967527	 0.112217
H	 3.3845926328	 3.8973372852	 2.0366277712	 0.083808
48.4904	73.7673	98.9949	134.1974	209.6657	232.7586	289.3332	350.583	399.4488	477.1767	519.8745	605.732	786.0062	788.5855	852.9855	898.3797	919.1449	954.9007	974.8615	1024.6437	1035.0439	1063.2972	1074.381	1101.8371	1114.1336	1203.542	1205.5425	1257.2069	1271.4936	1301.2008	1327.3498	1353.2398	1388.3358	1393.6044	1410.1279	1481.7443	1499.3886	1506.4277	1522.6288	1716.6731	1836.0363	2881.2111	2973.182	2995.6253	3008.3053	3014.9909	3041.3599	3070.0486	3113.3872	3115.5004	3222.1194
CCC1=CC(OC1)C=O	CCC1=C[C@H](OC1)C=O	
InChI=1S/C7H10O2/c1-2-6-3-7(4-8)9-5-6/h3-4,7H,2,5H2,1H3	InChI=1S/C7H10O2/c1-2-6-3-7(4-8)9-5-6/h3-4,7H,2,5H2,1H3/t7-/m0/s1
