19
gdb 2886	2.222201	1.7216391	1.5586787	1.7359	75.44	-0.25112	0.06592	0.31704	1000.3114	0.155543	-422.499558	-422.490929	-422.489985	-422.531958	33.672	
C	 0.8256692127	 0.8912096939	-0.1186083613	-0.439843
C	 0.8418876203	-0.6304248618	-0.0693535931	-0.063907
C	 1.6344578063	-1.3678119914	 1.0399026294	-0.133545
C	 1.8300651403	-2.6441095083	 0.1535538373	-0.087017
C	 3.3528439107	-2.7061587593	 0.400121296	-0.338513
C	 3.0203509132	-1.2036729288	 0.3067304946	 0.318591
O	 3.8856707692	-0.1210973626	 0.3151461328	-0.477679
C	 1.9449911749	-1.4266916216	-0.8128769583	 0.363069
O	 2.178428085	-1.5559216777	-2.168876652	-0.480485
H	 0.1528330091	 1.3007023859	 0.6432019816	 0.111708
H	 1.8226112681	 1.3069428382	 0.0485916885	 0.131952
H	 0.4647931171	 1.244748915	-1.0915746183	 0.11114
H	-0.163733172	-1.0404186709	-0.2281668442	 0.063487
H	 1.4712755465	-1.3700464089	 2.1164056163	 0.07138
H	 1.1137728343	-3.4570320816	 0.0627240405	 0.083326
H	 3.6766926864	-3.0858311099	 1.3749996807	 0.084606
H	 3.9610894138	-3.1220178052	-0.4074950363	 0.106117
H	 4.3793020064	-0.1279577257	 1.142534653	 0.2848
H	 2.5774646678	-0.7370943296	-2.4838709171	 0.290812
175.3907	192.0911	200.8631	218.0805	262.758	271.0852	304.7032	381.2387	464.037	501.1404	517.0157	672.2573	680.4998	709.824	755.1528	845.2125	887.4613	913.8959	936.9687	975.5884	994.7211	1021.1685	1043.1304	1080.7836	1087.579	1105.4345	1140.5619	1143.6421	1184.4649	1205.1053	1220.0932	1251.8961	1273.092	1292.0055	1345.5408	1387.4048	1410.8666	1422.0593	1501.1349	1505.9336	1508.5773	3023.9173	3030.518	3042.1025	3083.869	3108.2154	3122.1851	3130.1407	3151.439	3801.7982	3802.6247
CC1C2C3CC2(O)C13O	C[C@@H]1[C@H]2[C@@H]3C[C@@]2(O)[C@]13O	
InChI=1S/C7H10O2/c1-3-5-4-2-6(5,8)7(3,4)9/h3-5,8-9H,2H2,1H3	InChI=1S/C7H10O2/c1-3-5-4-2-6(5,8)7(3,4)9/h3-5,8-9H,2H2,1H3/t3-,4+,5+,6+,7+/m1/s1
