19
gdb 4296	3.2764291	1.3243379	1.0253606	2.0685	78.89	-0.23372	0.01736	0.25108	1165.1488	0.158274	-422.540052	-422.532056	-422.531112	-422.57239	30.994	
O	-0.1477309443	 1.4553346574	 0.0563221607	-0.428117
C	 0.0221429131	 0.0624436269	-0.0005678722	 0.04744
C	 0.2476923447	-0.6476558867	-1.3898535008	-0.300461
C	-0.7699499482	-1.7445134699	-0.9431715442	-0.06358
C	-1.9680254093	-2.1668878853	-1.78705295	-0.105977
O	-3.0211396382	-2.5540410696	-0.9094124943	-0.254892
C	-3.5490276589	-1.5006864666	-0.1167040259	-0.099421
C	-2.5085599127	-0.5462530766	 0.4161611958	-0.253444
C	-1.2395866137	-0.7522341953	 0.0991299728	 0.299617
H	 0.7186958387	 1.8657172707	 0.1362043287	 0.285471
H	 0.7830475094	-0.2773007116	 0.7194593187	 0.07621
H	-0.1593632138	-0.0218059476	-2.1886382929	 0.11281
H	 1.2634419834	-0.9617873602	-1.6417763378	 0.094696
H	-0.2658784908	-2.6217003623	-0.5238528987	 0.081887
H	-2.2828951205	-1.3320492747	-2.4339866706	 0.086498
H	-1.7733794912	-3.0386687766	-2.4182557959	 0.104128
H	-4.2906885023	-0.9219406604	-0.6976420855	 0.097588
H	-4.0997220269	-1.9916359067	 0.6951801802	 0.118102
H	-2.8482928085	 0.3323574951	 0.9563232119	 0.101446
110.4372	155.7752	249.5051	255.3414	281.998	332.4808	418.5639	444.1841	499.5826	569.0743	646.6884	706.024	796.8707	831.991	854.1003	900.9089	928.7667	972.1225	1005.3398	1020.1821	1044.6649	1069.8242	1102.8871	1134.7178	1140.3432	1165.4285	1198.7942	1225.0076	1237.113	1253.2958	1281.3002	1303.5649	1313.4008	1356.5594	1367.9327	1405.9993	1438.25	1477.8779	1486.8069	1500.1732	1777.5944	2937.1603	2974.5871	2975.8841	3041.8385	3046.2574	3058.5135	3084.846	3122.4218	3176.7139	3824.1052
OC1CC2COCC=C12	O[C@@H]1C[C@@H]2COC[CH][C]12	
InChI=1S/C7H10O2/c8-7-3-5-4-9-2-1-6(5)7/h1,5,7-8H,2-4H2	InChI=1S/C7H10O2/c8-7-3-5-4-9-2-1-6(5)7/h1,5,7-8H,2-4H2/t5-,7-/m1/s1
