19
gdb 2920	2.2577326	1.8270219	1.3978527	1.0921	74.19	-0.2253	0.07405	0.29935	1016.6702	0.157471	-422.529888	-422.521932	-422.520988	-422.561831	31.355	
C	 1.0260166546	 1.1506694268	 0.039207576	-0.414115
C	 1.0266922471	-0.3733434015	 0.0617130762	 0.000151
C	 1.8584882285	-1.0023963194	-1.0633944096	-0.126107
C	 2.2526562092	-2.4403084983	-0.6805477718	-0.176904
C	 1.4925796823	-3.1192521806	 0.451752662	-0.107077
O	 1.6414611189	-2.2463911455	 1.5830109631	-0.269838
C	 2.0592531734	-0.988215454	 1.0738946926	-0.004492
C	 3.0091252407	-1.2722751753	-0.1257020505	 0.383528
O	 4.3463948591	-0.9777636924	-0.2721792213	-0.467811
H	 0.5726548066	 1.5552433743	 0.9505227742	 0.115545
H	 2.0470811166	 1.5419395776	-0.0345191611	 0.12411
H	 0.461256867	 1.5356005576	-0.8167311578	 0.114977
H	 0.0083969429	-0.7578612129	 0.1903353528	 0.070428
H	 1.8869828932	-0.6843338923	-2.099719252	 0.088441
H	 2.7085414206	-3.0308036264	-1.4665825165	 0.095088
H	 0.4273332239	-3.2652056349	 0.2252929278	 0.099732
H	 1.920447895	-4.0963662045	 0.7060405183	 0.102183
H	 2.3918457324	-0.3590066537	 1.899535584	 0.083317
H	 4.859942058	-1.6557386846	 0.1818480135	 0.288842
140.0084	229.4775	233.0237	262.5182	273.6222	294.8541	373.1287	442.8747	497.7378	599.2441	688.9548	724.6301	765.0927	839.241	840.5155	913.1168	921.4285	950.3461	978.536	1008.7789	1017.7475	1045.5848	1074.8578	1086.0502	1106.5975	1140.5865	1155.3877	1182.3559	1218.9498	1223.2237	1261.2309	1294.1859	1303.903	1315.2245	1370.983	1381.5964	1409.9858	1479.0303	1494.7829	1499.8897	1525.8202	3002.1766	3025.6602	3037.5829	3047.4125	3094.1494	3097.2476	3122.3318	3175.4181	3192.1283	3786.8071
CC1C2C3COC1C23O	C[C@H]1[C@@H]2[C@@H]3CO[C@H]1[C@]23O	
InChI=1S/C7H10O2/c1-3-5-4-2-9-6(3)7(4,5)8/h3-6,8H,2H2,1H3	InChI=1S/C7H10O2/c1-3-5-4-2-9-6(3)7(4,5)8/h3-6,8H,2H2,1H3/t3-,4-,5+,6+,7+/m0/s1
