19
gdb 3504	2.2235304	1.8922991	1.255239	2.5636	76.18	-0.2318	0.0022	0.234	1039.0886	0.158132	-422.562276	-422.554204	-422.55326	-422.594306	32.455	
O	 0.429284831	 0.4926318897	 0.6466092894	-0.442232
C	-0.8658042474	 1.1248786176	 0.5131173851	-0.001021
C	-1.9176462057	 0.0934759923	 0.2156064058	-0.105978
C	-2.4276080922	-0.1159945617	-0.9992599946	-0.052686
C	-2.0877808267	 0.6911205175	-2.2227249992	-0.286176
C	-1.3491949992	 1.9793232837	-1.9132849951	-0.10901
C	-1.9714899154	 2.9878571299	-0.9592574842	-0.344176
C	-0.7634894865	 2.2205757263	-0.5348833683	 0.417568
O	 0.4147038781	 2.9601925548	-0.421399748	-0.480386
H	 0.4921230164	-0.160230036	-0.0606614344	 0.279956
H	-1.0318805875	 1.5819560484	 1.4957894684	 0.09743
H	-2.2054748064	-0.5459117023	 1.0456209561	 0.096569
H	-3.1412510794	-0.924909266	-1.1405298332	 0.096325
H	-1.4880147687	 0.0641403578	-2.8995906434	 0.112787
H	-3.011122851	 0.9057885274	-2.7802339507	 0.113431
H	-0.7843186037	 2.4096564814	-2.7339120038	 0.0911
H	-1.8153116413	 4.0381544723	-1.1774954285	 0.122131
H	-2.9288226801	 2.7485464785	-0.5069439541	 0.112792
H	 1.0840539057	 2.3180692883	-0.1446920173	 0.281578
107.68	207.3227	254.8534	299.8587	355.6005	377.4561	400.9682	430.2295	493.4446	535.8065	541.616	586.0053	703.0181	738.135	787.0242	849.0565	908.5843	912.3439	931.2559	961.5013	1003.0653	1012.2489	1030.2903	1045.0303	1066.4747	1101.7658	1129.4548	1196.4427	1234.7807	1244.8976	1256.6109	1268.2551	1336.8333	1367.2544	1392.3471	1406.3435	1426.2153	1435.966	1475.2007	1503.1404	1716.7521	2994.11	3013.4854	3041.2978	3130.3979	3145.6209	3161.7356	3172.3644	3222.7476	3735.151	3792.4955
OC1C=CCC2CC12O	O[C@@H]1C=CC[C@H]2C[C@@]12O	
InChI=1S/C7H10O2/c8-6-3-1-2-5-4-7(5,6)9/h1,3,5-6,8-9H,2,4H2	InChI=1S/C7H10O2/c8-6-3-1-2-5-4-7(5,6)9/h1,3,5-6,8-9H,2,4H2/t5-,6+,7-/m0/s1
