19
gdb 2085	2.6896673	1.5378653	1.1904788	1.2603	77.41	-0.24463	0.00591	0.25054	1096.4293	0.157128	-422.535175	-422.526934	-422.52599	-422.567698	31.658	
C	-0.0476384699	-0.1288541139	 0.1963497856	-0.464761
C	 1.4264587612	 0.0936397248	-0.0681080887	 0.37151
O	 2.2969584235	-0.473228352	 0.945983123	-0.295175
C	 2.2049632499	 0.9509493341	 0.8355435159	-0.016744
C	 3.4231140469	 1.709302399	 0.3395411684	-0.131855
O	 3.0897602411	 2.5307967385	-0.7695023943	-0.23918
C	 3.2868619968	 1.9135567088	-2.0198777088	-0.139506
C	 2.5985512779	 0.6023639443	-2.2771207698	-0.055709
C	 1.8459076028	-0.1536455367	-1.4785338156	-0.128163
H	-0.2701720295	-0.0053550742	 1.2589130896	 0.127904
H	-0.6550134168	 0.5780932425	-0.3783382965	 0.128076
H	-0.3411400217	-1.1421454655	-0.0993069876	 0.124828
H	 1.664204127	 1.4228308694	 1.6574358512	 0.086698
H	 3.7981096282	 2.3793148878	 1.1198151793	 0.108036
H	 4.2180438954	 0.9948365993	 0.0885120396	 0.111057
H	 2.956326591	 2.6457443925	-2.7679442928	 0.123375
H	 4.3680289212	 1.7585257758	-2.2012981567	 0.102354
H	 2.7962848416	 0.228348829	-3.2819686037	 0.096276
H	 1.4565189636	-1.0842674234	-1.8898884683	 0.090982
98.6257	161.7034	207.3356	264.7652	292.9916	342.8035	389.2041	415.4563	462.3144	490.1334	600.2672	681.3357	734.1636	782.6283	836.5442	876.2779	915.3536	936.7774	994.1965	1010.5902	1035.1073	1063.5592	1085.2719	1102.204	1121.1996	1168.307	1229.0275	1253.5342	1274.9147	1321.7807	1349.9316	1392.4466	1409.4891	1412.6524	1435.3866	1466.7803	1473.1344	1487.1813	1493.2625	1506.7294	1740.334	2922.9385	3019.2205	3035.0697	3040.8656	3075.5814	3099.0772	3100.3541	3117.9352	3125.1917	3141.0825
CC12OC1COCC=C2	C[C@]12O[C@H]1COCC=C2	
InChI=1S/C7H10O2/c1-7-3-2-4-8-5-6(7)9-7/h2-3,6H,4-5H2,1H3	InChI=1S/C7H10O2/c1-7-3-2-4-8-5-6(7)9-7/h2-3,6H,4-5H2,1H3/t6-,7+/m0/s1
