19
gdb 5028	2.1292235	1.636606	1.1368707	2.8236	76.31	-0.24858	-0.0066	0.24198	1153.5937	0.154509	-422.511478	-422.502218	-422.501274	-422.54555	33.821	
C	 1.4099691239	 0.8663785575	 0.290714197	-0.388584
C	 0.9231674582	-0.5303464849	-0.1171558682	-0.331984
C	 1.7784649543	-1.1456058779	-1.1783420015	 0.277552
O	 1.9652768315	-0.4096303113	-2.4785585191	-0.338349
C	 2.741970928	-1.6573733514	-2.6971244049	-0.089338
C	 1.6047232843	-2.4610117067	-2.0078480886	-0.033907
C	 0.304039648	-2.6447280541	-2.772407782	-0.435136
C	 3.3150423781	-1.3553908579	-1.2918211321	 0.449628
O	 4.3303418132	-1.2126241368	-0.6920704078	-0.324256
H	 0.7639849076	 1.2904406385	 1.0641724412	 0.115149
H	 2.4308725125	 0.8232648059	 0.6807599223	 0.142073
H	 1.4065043438	 1.5415322996	-0.5690515639	 0.139594
H	 0.9320594302	-1.206942473	 0.7467335943	 0.118007
H	-0.1140380013	-0.4891874032	-0.47183286	 0.116708
H	 3.2094877871	-1.7932328592	-3.6700008064	 0.110209
H	 1.924624959	-3.3755715355	-1.4954578056	 0.086507
H	-0.5052766812	-2.9331213387	-2.0935855308	 0.122096
H	 0.0196276108	-1.7216062406	-3.2809040591	 0.141359
H	 0.405506802	-3.4378404903	-3.5199114247	 0.122673
67.7014	133.476	146.4929	191.5429	222.6557	224.6827	271.7053	316.0741	410.6873	516.6529	553.8558	650.7622	694.0292	759.6746	774.1405	805.1533	818.2356	872.4551	909.7672	975.9718	1002.9686	1035.3132	1063.8277	1092.7864	1109.5582	1140.2111	1174.5637	1202.0651	1220.0808	1287.1643	1316.6857	1371.607	1400.5328	1408.8566	1416.7498	1470.4525	1495.0916	1497.0574	1503.1191	1508.8688	1925.2709	3027.8376	3040.3018	3048.1964	3050.1781	3062.8113	3100.3578	3121.4337	3126.5487	3137.8521	3152.5942
CCC12OC(C1C)C2=O	CC[C@]12O[C@H]([C@@H]1C)C2=O	
InChI=1S/C7H10O2/c1-3-7-4(2)5(9-7)6(7)8/h4-5H,3H2,1-2H3	InChI=1S/C7H10O2/c1-3-7-4(2)5(9-7)6(7)8/h4-5H,3H2,1-2H3/t4-,5+,7-/m0/s1
