19
gdb 4360	2.4102278	1.4657033	1.0792999	5.3068	79.17	-0.25709	-0.03925	0.21783999999999998	1174.139	0.157142	-422.612078	-422.603223	-422.602279	-422.645439	32.798	
C	-1.5695770055	-1.5672144545	-1.2277090263	-0.397813
C	-1.0628644028	-1.0751623279	 0.1425066318	-0.097665
C	-2.1600741793	-0.3902723604	 0.9555470978	-0.089801
O	-2.533377287	 0.8820551828	 0.4112930325	-0.239913
C	-1.5340188125	 1.7582312935	 0.1047394082	 0.417197
O	-1.8061910565	 2.908571608	-0.1246230262	-0.342229
C	-0.1654817005	 1.2081981285	 0.0202732528	-0.296368
C	 0.0929175517	-0.106413986	-0.0014069623	 0.306065
C	 1.4708145436	-0.6667962386	-0.1899469906	-0.484754
H	-2.3403325932	-2.3333789648	-1.0970818362	 0.121722
H	-2.0021273056	-0.7400133602	-1.7969244874	 0.143952
H	-0.761351168	-2.0034016197	-1.8214638983	 0.121136
H	-0.7239500385	-1.9457148616	 0.7196250285	 0.085361
H	-3.0798634866	-0.9806756544	 0.9663223337	 0.118718
H	-1.8267705862	-0.2490085824	 1.9919586658	 0.110692
H	 0.611637585	 1.9536473866	-0.1071985358	 0.112565
H	 1.767174769	-1.2645738098	 0.6812056389	 0.136575
H	 1.5060990276	-1.3408531506	-1.0544760068	 0.139054
H	 2.2127736152	 0.1210544715	-0.3381437398	 0.135505
94.194	146.1013	198.7625	207.5837	220.9199	251.8738	299.2826	364.2381	446.0127	496.0412	552.8869	594.3683	698.2037	745.8943	809.4658	852.9348	894.4408	903.6456	969.899	1002.0713	1035.6795	1054.2368	1098.8755	1135.1551	1146.9137	1164.0146	1229.5427	1284.3432	1314.4288	1339.108	1371.9538	1404.2182	1413.1296	1431.2068	1477.2195	1481.3518	1494.5012	1500.2912	1506.1643	1703.1338	1825.4461	3015.1829	3023.8512	3029.2432	3042.7784	3073.4709	3097.8025	3111.3809	3123.6412	3125.4058	3196.6814
CC1COC(=O)C=C1C	C[C@@H]1COC(=O)C=C1C	
InChI=1S/C7H10O2/c1-5-3-7(8)9-4-6(5)2/h3,6H,4H2,1-2H3	InChI=1S/C7H10O2/c1-5-3-7(8)9-4-6(5)2/h3,6H,4H2,1-2H3/t6-/m1/s1
