19
gdb 2789	3.4220441	1.145198	1.0061891	1.6043	75.34	-0.20706	0.06694	0.274	1222.0228	0.154675	-422.476164	-422.467101	-422.466157	-422.509096	34.867	
C	-1.0555891808	 2.3620665187	 4.6630771975	-0.497595
C	-1.4441392605	 1.8573604614	 3.3055216121	 0.335778
C	-2.6208204873	 2.3842973337	 2.5299342444	 0.018866
O	-3.4972576924	 3.1402998398	 3.3199074304	-0.438572
C	-2.5634821686	 0.9061659128	 2.8748045535	-0.172004
C	-1.5685363257	 0.0923148532	 2.0184382684	-0.130922
C	-0.8430941818	 0.8863673834	 0.9647975628	 0.131188
O	 0.0557497294	 0.1917771804	 0.1467770844	-0.448428
C	-0.4480847355	 1.0678344	 2.4108796099	-0.194539
H	-0.6321841002	 1.5596990767	 5.2782521852	 0.112421
H	-0.2990507271	 3.1529371408	 4.5831587081	 0.117366
H	-1.9245393218	 2.7755022524	 5.1786824144	 0.141035
H	-2.5324587003	 2.7513305305	 1.5094015504	 0.085175
H	-4.3953550154	 2.9463420181	 3.0316057438	 0.288467
H	-3.343631319	 0.4648961765	 3.4841786627	 0.088502
H	-1.5526828611	-0.9918476301	 1.9980670097	 0.087036
H	-1.313232632	 1.6592353585	 0.3691044492	 0.106501
H	 0.4756360516	-0.5006833068	 0.6690954982	 0.284255
H	 0.5666320185	 0.8517158099	 2.7280319049	 0.085471
178.3643	186.7864	204.0615	212.8206	254.1712	265.1574	294.8379	306.91	350.4249	417.2242	442.7445	564.6333	664.8973	766.5617	783.9507	836.749	855.2616	885.9831	915.404	936.1966	968.8905	1002.2288	1052.1188	1060.1296	1096.4661	1109.6064	1119.5962	1130.0948	1144.1231	1204.163	1224.2568	1260.2254	1266.4316	1298.5781	1326.407	1359.6913	1409.3553	1458.758	1463.5908	1489.8483	1498.3004	3020.8211	3073.2142	3105.7238	3132.3366	3159.5963	3169.5676	3180.7213	3184.6205	3802.6934	3805.036
CC12C(O)C1C1C(O)C21	C[C@]12[C@H](O)[C@H]1[C@H]1[C@H](O)[C@@H]21	
InChI=1S/C7H10O2/c1-7-3-2(5(3)8)4(7)6(7)9/h2-6,8-9H,1H3	InChI=1S/C7H10O2/c1-7-3-2(5(3)8)4(7)6(7)9/h2-6,8-9H,1H3/t2-,3-,4+,5-,6+,7+/m0/s1
