19
gdb 1002	3.014952	0.8664086	0.7059828	3.2343	80.22	-0.24319	0.03153	0.27471999999999996	1606.0778	0.154739	-422.502976	-422.492584	-422.49164	-422.540883	34.971	
C	 1.5167196237	-0.0695363193	 0.1212426051	-0.499989
C	 0.0620984869	-0.0734637682	 0.0685427034	 0.086187
C	-1.1418621322	-0.0978782412	 0.0261334933	 0.032807
C	-2.6060826597	-0.0648399751	-0.0072156657	-0.069669
O	-3.1727948685	 0.1293396097	 1.2879170159	-0.421562
C	-3.1169840008	 0.9927844571	-0.992464625	-0.029777
C	-4.6241241968	 0.902562652	-1.3053644481	-0.090703
O	-4.3600156959	 0.4575161429	-2.6538789703	-0.274255
C	-2.9408620415	 0.654371947	-2.4879777235	-0.08346
H	 1.8741398101	-0.2128338799	 1.1467814795	 0.153782
H	 1.9352803142	-0.8762412709	-0.490288259	 0.154538
H	 1.9292973259	 0.8761131417	-0.246717684	 0.150064
H	-2.9850195741	-1.0433674032	-0.3307893324	 0.119475
H	-2.7013290125	 0.8616502296	 1.7003319619	 0.282517
H	-2.7546183024	 1.9783258053	-0.689477561	 0.075548
H	-5.187997114	 0.164757842	-0.723113641	 0.114268
H	-5.1627958193	 1.8584043042	-1.2885952375	 0.095441
H	-2.365088308	-0.2526313009	-2.7107924436	 0.105999
H	-2.563101975	 1.4753675073	-3.1104320079	 0.09879
18.5896	58.4402	63.2862	91.0974	148.5853	202.4226	272.0327	303.4861	318.5637	363.2531	430.5751	485.1895	571.0865	776.1443	837.3446	872.442	886.9269	955.5145	1022.0483	1039.4288	1051.3989	1054.2442	1057.6447	1081.3197	1137.8409	1156.6057	1158.9568	1179.6109	1244.9309	1264.4182	1295.5738	1306.7642	1369.7486	1388.5753	1413.1539	1420.6768	1476.308	1477.9965	1513.2695	1538.4884	2364.2754	3007.2594	3017.2287	3024.564	3029.0578	3051.1899	3061.8133	3081.2689	3090.8821	3091.8356	3805.368	18.5934	58.4404	63.2871	91.0975	148.5855	202.4227	272.0324	303.486	318.5635	363.253	430.5751	485.1894	571.0864	776.1442	837.3446	872.4421	886.9269	955.5148	1022.0485	1039.429	1051.3989	1054.2442	1057.6448	1081.3199	1137.8409	1156.6058	1158.957	1179.611	1244.931	1264.4181	1295.5739	1306.7644	1369.7488	1388.5753	1413.1539	1420.6767	1476.3079	1477.9965	1513.2698	1538.4887	2364.2753	3007.2595	3017.2288	3024.564	3029.0578	3051.1899	3061.8133	3081.2689	3090.8821	3091.8356	3805.3682
CC#CC(O)C1COC1	CC#C[C@@H](O)C1COC1	
InChI=1S/C7H10O2/c1-2-3-7(8)6-4-9-5-6/h6-8H,4-5H2,1H3	InChI=1S/C7H10O2/c1-2-3-7(8)6-4-9-5-6/h6-8H,4-5H2,1H3/t7-/m1/s1
