19
gdb 841	3.938702	1.0832061	0.9921263	3.2974	75.48	-0.25112	-0.02595	0.22517	1231.7241	0.157409	-422.561332	-422.553185	-422.55224	-422.594827	30.205	
O	 1.4531818259	 0.0175774788	 0.0789817893	-0.248641
C	 0.2865625531	-0.0797366497	-0.1950335092	 0.148511
C	-0.4095466378	 0.7248216845	-1.2745421736	 0.033497
C	-1.0583888291	 2.008894778	-0.7001796852	-0.25344
C	-2.2516013145	 2.2288637331	-1.6349761826	-0.040893
C	-1.9436923	 2.8064019877	-3.0497004096	-0.236201
C	-2.2429179113	 1.4178666254	-3.6864124453	-0.238353
C	-2.4960113879	 0.8244441892	-2.2714987518	 0.117343
O	-1.4871690291	-0.0475510743	-1.781037573	-0.275691
H	-0.4051470748	-0.7580893365	 0.3541245357	 0.086467
H	 0.3206458838	 0.9730702112	-2.0577903824	 0.093097
H	-1.4073013774	 1.8230935724	 0.32212172	 0.108878
H	-0.3546964423	 2.8440071451	-0.6734983539	 0.121546
H	-3.0998077999	 2.6889587542	-1.126324874	 0.077097
H	-2.617361641	 3.6069042311	-3.3619883639	 0.106223
H	-0.9170058283	 3.1611521643	-3.177456247	 0.102298
H	-3.1233059243	 1.3997628781	-4.3332106476	 0.10451
H	-1.4143065612	 0.9439385372	-4.2176015618	 0.111882
H	-3.4572379439	 0.3290938203	-2.1192712441	 0.081871
75.9267	89.414	93.6696	233.4449	319.6348	365.0555	415.1834	481.9723	620.508	669.6044	738.9426	749.9546	847.8684	856.4565	886.3067	912.871	934.5528	958.821	985.6829	1036.387	1052.9352	1067.544	1095.037	1136.5262	1139.6934	1191.3388	1208.1093	1223.6844	1255.9268	1259.6974	1276.4089	1298.4344	1314.7862	1325.6846	1350.7358	1366.3486	1405.28	1470.9869	1483.0475	1493.1712	1840.8457	2884.5493	3008.2056	3041.8263	3058.5067	3066.7764	3083.979	3098.0488	3108.3579	3112.4362	3127.0391
O=CC1CC2CCC2O1	O=C[C@@H]1C[C@H]2CC[C@H]2O1	
InChI=1S/C7H10O2/c8-4-6-3-5-1-2-7(5)9-6/h4-7H,1-3H2	InChI=1S/C7H10O2/c8-4-6-3-5-1-2-7(5)9-6/h4-7H,1-3H2/t5-,6+,7-/m1/s1
