19
gdb 1440	2.597008	1.8184918	1.469585	0.8714	76.	-0.24219	0.02274	0.26493	974.7287	0.154158	-422.388768	-422.380484	-422.37954	-422.420789	32.825	
C	-0.0259204277	 1.2153126831	 0.6457181317	-0.469468
C	 1.3358359164	 0.5820926999	 0.3670704438	 0.319193
C	 2.0450752777	 0.2375911687	 1.6752366977	-0.464488
C	 1.447794324	-0.4538402883	-0.7631625644	-0.047259
O	 2.9449877493	-0.222440231	-0.8309807278	-0.365517
C	 2.2799913211	 1.1348945547	-0.778921978	 0.263531
C	 2.1185316444	 2.5640158131	-1.3265862791	-0.190435
O	 0.8426326975	 2.0856772494	-1.9138487553	-0.302316
C	 1.3815874695	 0.7019224912	-1.8616753191	 0.069368
H	-0.586637349	 0.5712837729	 1.3327256053	 0.11147
H	 0.0975386223	 2.1827848207	 1.145644985	 0.115716
H	-0.6234679031	 1.3761535222	-0.2494878763	 0.143109
H	 1.4518669212	-0.4822907758	 2.2504015686	 0.112974
H	 3.0312041632	-0.1897213752	 1.4959465921	 0.139417
H	 2.1535307973	 1.1340022596	 2.2959769135	 0.11224
H	 1.1570667426	-1.5082678081	-0.8045568368	 0.092734
H	 1.956684257	 3.3721047425	-0.6080116448	 0.12671
H	 2.8247851065	 2.860342391	-2.1091939318	 0.128641
H	 1.8001923199	 0.4195960094	-2.8278616442	 0.104381
164.9914	178.4075	208.0414	254.8078	290.5563	351.1905	386.7276	399.5413	447.0337	527.0158	583.5231	644.2812	691.7685	778.1299	816.5985	830.3689	867.0418	885.2698	902.6457	957.0885	969.435	1002.3595	1013.3671	1078.9523	1118.8363	1131.8743	1157.0222	1179.1935	1191.3549	1236.3462	1273.5183	1293.7172	1304.2553	1353.593	1399.2731	1422.9585	1483.0594	1485.7832	1493.7315	1507.9311	1513.8944	3031.5461	3037.116	3042.2362	3068.9675	3083.7136	3089.7577	3112.1983	3113.6394	3151.9956	3163.4942
CC1(C)C2OC11COC21	CC1(C)[C@@H]2O[C@@]31CO[C@H]23	
InChI=1S/C7H10O2/c1-6(2)4-5-7(6,9-4)3-8-5/h4-5H,3H2,1-2H3	InChI=1S/C7H10O2/c1-6(2)4-5-7(6,9-4)3-8-5/h4-5H,3H2,1-2H3/t4-,5-,7+/m1/s1
