19
gdb 4101	2.0338954	1.6241156	1.5750918	4.1005	74.54	-0.26489	0.01203	0.27692	1036.5982	0.156186	-422.579695	-422.570901	-422.569957	-422.61296	32.614	
C	-0.7081626748	-1.5638991061	-2.4728385063	-0.415558
C	-1.6649601738	-1.5063556956	-1.2903040909	-0.024583
C	-2.7001295909	-0.3358401961	-1.2149976664	-0.261259
C	-2.1396919932	 0.0644584659	 0.1606306911	 0.069024
O	-1.0528367277	 1.0388784315	 0.0335877424	-0.264028
C	-0.09785786	 0.0462090277	 0.0299358824	 0.436362
O	 1.0831549415	 0.1786281689	-0.0285254923	-0.341378
C	-1.1069698297	-1.0976110936	 0.1270068318	 0.112369
C	-0.8746283296	-2.1645067161	 1.1711523259	-0.501018
H	 0.0426665159	-2.349656255	-2.3391858909	 0.125675
H	-1.2551575945	-1.7774046682	-3.3973986331	 0.118669
H	-0.1766298681	-0.6169288532	-2.609079984	 0.138183
H	-2.1773688867	-2.4680918384	-1.1863565911	 0.083264
H	-2.5960131905	 0.4468614437	-1.9699487306	 0.120745
H	-3.7401249612	-0.6688598742	-1.1897725222	 0.111006
H	-2.7933261482	 0.3120800569	 0.9958896963	 0.096736
H	-0.0081003892	-2.7765132604	 0.8989894422	 0.142339
H	-0.6760123729	-1.7297641376	 2.1558969254	 0.132229
H	-1.7422364565	-2.8265407204	 1.2571857402	 0.121222
92.4844	134.8726	181.3025	204.2391	220.7914	241.6247	345.0711	375.3752	411.386	520.9034	630.5301	679.2731	718.4316	774.9974	837.8041	866.1767	879.5534	903.0739	935.7972	973.955	1037.8317	1083.1795	1098.437	1114.8469	1150.0959	1173.0676	1189.5768	1215.5483	1236.8778	1272.5073	1317.0567	1340.0082	1372.5785	1411.634	1417.3635	1469.834	1489.1199	1491.7013	1492.2456	1496.2053	1923.9442	3032.5678	3033.2764	3048.4755	3069.2875	3099.6158	3103.0896	3104.8136	3108.2268	3122.5253	3130.4551
CC1CC2OC(=O)C12C	C[C@@H]1C[C@@H]2OC(=O)[C@]12C	
InChI=1S/C7H10O2/c1-4-3-5-7(4,2)6(8)9-5/h4-5H,3H2,1-2H3	InChI=1S/C7H10O2/c1-4-3-5-7(4,2)6(8)9-5/h4-5H,3H2,1-2H3/t4-,5+,7-/m1/s1
