19
gdb 3755	2.7346338	1.4964771	1.141864	3.4892	76.34	-0.23831	-0.02531	0.213	1110.3316	0.157544	-422.581544	-422.57336	-422.572416	-422.614182	31.821	
O	 0.8787279041	 2.7882522554	-0.2408111806	-0.426849
C	-0.4869641738	 2.6001193524	-0.1524568336	 0.103707
C	-1.3065399855	 2.123200663	-1.2969861928	-0.365399
C	-1.0874515702	 1.1872431577	-0.0958827367	 0.172663
C	-2.1941034033	 0.7235681902	 0.8410440902	-0.315822
C	-2.1604294737	-0.8209554725	 0.7126958631	-0.218969
C	-0.6782578112	-1.1541735037	 0.4695448214	-0.316562
C	-0.1413189203	 0.0568981658	-0.2875399334	 0.381789
O	 0.8993036225	 0.1066399797	-0.9190012216	-0.382126
H	 1.2498575268	 2.0002300537	-0.6747290219	 0.303843
H	-0.9352792069	 3.3209749905	 0.525959079	 0.112379
H	-2.312297863	 2.5099167009	-1.4275611088	 0.120141
H	-0.7834175756	 1.8534270345	-2.2093613693	 0.133385
H	-1.9724076604	 1.0203001602	 1.8740119297	 0.109518
H	-3.1731042118	 1.1395093558	 0.5881844116	 0.105649
H	-2.5753793762	-1.324258078	 1.5888674019	 0.106557
H	-2.7534628365	-1.1306910644	-0.1548249733	 0.111979
H	-0.1247961647	-1.2203242135	 1.4165049928	 0.134458
H	-0.4896113505	-2.0801892378	-0.0779279779	 0.12966
80.0368	165.955	190.1427	244.2837	282.7157	396.6363	449.9037	464.9789	534.8006	568.7354	591.4271	669.3223	675.518	768.6301	840.668	856.523	872.9647	914.1264	931.8376	967.9479	1009.3174	1041.3828	1071.0413	1084.1583	1109.1793	1154.2617	1181.789	1193.2806	1243.369	1257.8379	1297.8161	1303.5568	1338.3472	1359.3883	1368.2018	1449.423	1452.1912	1487.9825	1493.0627	1505.0816	1777.8777	3026.9356	3027.3718	3048.7308	3087.6406	3104.5724	3112.7823	3121.4093	3152.4711	3218.2379	3632.5461
OC1CC11CCCC1=O	O[C@H]1C[C@@]21CCCC2=O	
InChI=1S/C7H10O2/c8-5-2-1-3-7(5)4-6(7)9/h6,9H,1-4H2	InChI=1S/C7H10O2/c8-5-2-1-3-7(5)4-6(7)9/h6,9H,1-4H2/t6-,7-/m0/s1
