19
gdb 1799	2.8294552	1.8994865	1.4779999	2.5342	73.93	-0.23755	0.08048	0.31803000000000003	947.1014	0.158306	-422.525473	-422.518238	-422.517294	-422.556663	29.262	
C	 0.0436674114	-0.4336369565	-0.3825935575	-0.510302
C	 1.4988219488	-0.2462587104	-0.0683909071	 0.390491
C	 2.6124570249	 0.1251403603	-1.0904468845	-0.27785
C	 3.1850102174	 0.7351114506	 0.2113133718	 0.051511
O	 1.8199452701	 0.9983171898	 0.6430187091	-0.317639
C	 3.5584720241	-0.5156734565	 1.0320617798	-0.099443
C	 3.115555696	-0.5367671124	 2.5101424998	-0.085219
O	 1.9094275073	-1.2735234052	 2.1906021775	-0.295729
C	 2.2405981888	-1.2997919657	 0.7950799582	 0.096196
H	-0.5240665652	-0.5369024411	 0.5473683744	 0.146427
H	-0.3514689525	 0.4192869044	-0.9407185414	 0.126669
H	-0.1044701003	-1.3408496887	-0.9775544571	 0.12076
H	 3.1650479738	-0.6735706675	-1.5948220538	 0.095107
H	 2.2769604133	 0.8865545103	-1.7955177903	 0.112593
H	 3.8336391167	 1.6106535566	 0.2357966892	 0.081287
H	 4.5188284125	-0.9651693978	 0.7817073912	 0.081021
H	 3.7652399125	-1.1140913718	 3.1782250475	 0.096517
H	 2.8915727492	 0.4384496503	 2.9535771403	 0.112878
H	 2.2338285512	-2.3100652487	 0.3735082628	 0.074727
182.239	204.5629	232.8812	294.2409	322.187	439.5255	459.1608	580.613	644.0159	710.3888	790.6117	810.8114	836.5143	873.1353	882.9714	884.5712	940.9746	958.6109	986.9048	1019.8187	1025.0957	1034.4441	1066.1173	1093.9985	1119.3002	1162.1276	1169.7793	1210.2787	1215.5857	1226.1261	1252.2421	1292.0625	1304.1858	1320.9329	1348.7122	1362.0703	1413.02	1478.6946	1486.4295	1495.0375	1506.6494	3026.9831	3039.5915	3054.6333	3061.0329	3083.569	3111.0925	3116.9059	3120.3111	3126.4698	3139.7181
CC12CC(O1)C1COC21	C[C@@]12C[C@@H](O1)[C@H]1CO[C@@H]21	
InChI=1S/C7H10O2/c1-7-2-5(9-7)4-3-8-6(4)7/h4-6H,2-3H2,1H3	InChI=1S/C7H10O2/c1-7-2-5(9-7)4-3-8-6(4)7/h4-6H,2-3H2,1H3/t4-,5-,6-,7+/m1/s1
