19
gdb 589	2.85631	2.0109255	1.7177741	1.8833	71.84	-0.25106	0.07675	0.32781	877.0445	0.161862	-422.59226	-422.58596	-422.585016	-422.622837	26.353	
C	 1.5393646577	-0.0557514969	 0.8680029145	-0.230881
C	 1.7822246957	 1.4138616835	 1.3231684358	-0.230953
C	 0.5490056159	 2.197969014	 0.8590968854	 0.104501
O	-0.5014158763	 2.1796417907	 1.851813977	-0.289163
C	-1.5099525545	 1.3372672597	 1.3015999923	 0.176882
C	-1.0258094649	-0.1218441993	 1.3506407913	-0.247178
C	 0.1157655994	-0.0736920289	 0.2838482089	-0.028516
C	-0.1167758652	 1.3641574737	-0.2689593961	 0.035711
O	-1.5048652906	 1.6281639668	-0.0834401434	-0.24692
H	 2.2634738324	-0.3373644961	 0.0964369005	 0.099083
H	 1.6559091537	-0.7748637704	 1.6831565535	 0.104325
H	 1.89278946	 1.5115572295	 2.4055218573	 0.116543
H	 2.6883880889	 1.8244481876	 0.8668203482	 0.099539
H	 0.7592456739	 3.2398682966	 0.6023146164	 0.077884
H	-2.4723314894	 1.5745791704	 1.7535251725	 0.089744
H	-0.675652311	-0.4030113562	 2.3462332652	 0.105848
H	-1.8294676037	-0.8011937395	 1.054508138	 0.105245
H	-0.0165426381	-0.8473831669	-0.4736861823	 0.072645
H	 0.1871714962	 1.5740039016	-1.292709155	 0.08566
104.4322	318.6379	332.9864	429.078	556.6817	580.4402	635.1778	702.9594	763.2493	810.3004	815.6753	844.0254	864.5396	891.2171	895.5369	929.2868	971.5416	982.6372	995.4902	1027.3353	1044.7892	1068.5368	1085.6256	1103.6785	1157.9648	1174.4927	1195.531	1249.237	1258.865	1265.4645	1281.0016	1292.9218	1316.3112	1330.3564	1342.1148	1345.4793	1363.1645	1378.4686	1478.5799	1480.4956	1504.5439	3045.05	3056.5647	3063.8067	3072.4518	3086.3374	3095.7216	3111.3713	3119.9792	3136.4873	3145.1377
C1CC2OC3CC1C2O3	C1C[C@@H]2O[C@@H]3C[C@H]1[C@H]2O3	
InChI=1S/C7H10O2/c1-2-5-7-4(1)3-6(8-5)9-7/h4-7H,1-3H2	InChI=1S/C7H10O2/c1-2-5-7-4(1)3-6(8-5)9-7/h4-7H,1-3H2/t4-,5-,6-,7+/m0/s1
