19
gdb 1789	3.333317	1.3862938	1.1778543	2.9279	74.65	-0.23676	-0.00891	0.22785	1061.4563	0.157915	-422.5878	-422.579793	-422.578849	-422.620182	31.497	
O	-4.1552144217	-0.7258867163	-0.0010712122	-0.485445
C	-2.7753968194	-0.4758532337	 0.0527817989	 0.426816
C	-1.9573287635	-1.2330183519	-1.0126611968	-0.264424
C	-0.7998185384	-1.2781330409	 0.0383861054	-0.123823
C	-1.9058134618	-1.1845488202	 1.1344042094	-0.302093
C	-0.0443799331	 0.0294500206	-0.0520024998	 0.415032
O	 1.1436844909	 0.1039415754	-0.2538469867	-0.330732
C	-0.9175485489	 1.2773580717	 0.1479265124	-0.324687
C	-2.4384865649	 1.0214347992	-0.0004584355	-0.282792
H	-4.5994903704	-0.1399147805	 0.6214366988	 0.275981
H	-2.3686179629	-2.2311268774	-1.1783305488	 0.118658
H	-1.775746487	-0.743790762	-1.9736764752	 0.104468
H	-0.1161410409	-2.1256257741	 0.0320536327	 0.087659
H	-2.3107610297	-2.1733558357	 1.3608613472	 0.114789
H	-1.6785594046	-0.656001103	 2.0649346362	 0.094573
H	-0.6886212069	 1.6327823369	 1.1600683243	 0.13698
H	-0.5571658624	 2.0576327003	-0.526371926	 0.133332
H	-2.9838754139	 1.5410286841	 0.798286691	 0.089908
H	-2.8107576506	 1.4215055374	-0.9494455754	 0.115798
69.9949	168.3786	254.892	306.5266	330.6508	408.9187	418.8318	435.7989	468.0173	538.6012	599.8479	669.8602	724.5622	800.4649	866.6148	889.3255	913.1154	941.9291	952.8399	972.6248	1018.7445	1040.7154	1049.5682	1083.7212	1149.0807	1173.2784	1202.8183	1208.5967	1241.2478	1248.4418	1259.4384	1273.9938	1309.7801	1321.5239	1358.4047	1394.4253	1454.5294	1478.5019	1492.5809	1515.5693	1821.0198	3016.0045	3042.5856	3053.31	3059.234	3070.3673	3106.4268	3117.6517	3120.3145	3128.3441	3801.4659	69.9953	168.3786	254.8912	306.5264	330.6508	408.9187	418.8317	435.7989	468.0172	538.6013	599.8479	669.8602	724.5622	800.4649	866.6147	889.3255	913.1154	941.9291	952.8399	972.6248	1018.7445	1040.7154	1049.5682	1083.7212	1149.0807	1173.2783	1202.8183	1208.5967	1241.2478	1248.4417	1259.4384	1273.9938	1309.78	1321.5239	1358.4047	1394.4254	1454.5293	1478.502	1492.5811	1515.5694	1821.0198	3016.0045	3042.5856	3053.31	3059.234	3070.3673	3106.4268	3117.6517	3120.3145	3128.3441	3801.4657
OC12CC(C1)C(=O)CC2	O[C@]12C[C@H](C1)C(=O)CC2	
InChI=1S/C7H10O2/c8-6-1-2-7(9)3-5(6)4-7/h5,9H,1-4H2	InChI=1S/C7H10O2/c8-6-1-2-7(9)3-5(6)4-7/h5,9H,1-4H2/t5-,7-
