19
gdb 4414	3.4201433	1.2704037	1.1153797	2.1709	75.16	-0.23489	0.06763	0.30252	1144.978	0.156386	-422.483246	-422.474996	-422.474052	-422.516232	30.911	
C	 0.0544826202	 0.112737131	 0.0610719435	-0.403052
C	 1.5418549203	-0.069979278	-0.1734631053	 0.074075
O	 1.8255268839	-1.1248261369	-1.1273980212	-0.298915
C	 2.7023232848	-1.8160610894	-0.2066888907	-0.144257
C	 2.3865938283	-0.7973522865	 0.8786029066	 0.268931
C	 3.2388075559	-0.1531423935	 1.940320252	-0.225746
C	 4.0502977875	-1.2354289613	 2.6457918924	-0.091191
O	 2.8589351667	-2.0409566085	 2.8729820692	-0.287909
C	 2.04188138	-1.0096337676	 2.3107958558	 0.020212
H	-0.1287080914	 0.8986059733	 0.8026630552	 0.113859
H	-0.434947079	 0.4088194737	-0.871936678	 0.129655
H	-0.4020897528	-0.817413427	 0.4106902378	 0.124003
H	 1.9914423922	 0.8772294754	-0.5081897664	 0.074116
H	 2.3759136282	-2.8438938886	-0.0117722107	 0.115241
H	 3.7414252057	-1.8265169294	-0.5622629734	 0.09878
H	 3.3973773268	 0.9158395299	 2.0044204492	 0.101485
H	 4.8102327201	-1.7684726531	 2.0621634149	 0.109272
H	 4.4769211898	-0.9109163392	 3.6010451359	 0.113909
H	 1.089218473	-0.7973811643	 2.7829190132	 0.107532
82.0239	141.6227	158.5507	226.2645	233.1994	293.2562	418.4763	462.2434	499.5167	599.5223	760.5739	782.4685	825.8228	882.217	901.8928	941.2833	960.2797	990.6631	1000.5082	1013.4581	1032.3479	1066.3539	1069.4806	1084.6002	1097.3433	1141.6504	1154.957	1161.9258	1187.3036	1239.0379	1252.9181	1284.9985	1327.2612	1353.2855	1382.8914	1403.5918	1453.0643	1484.1642	1493.1776	1516.5615	1523.0891	2982.2157	3007.1489	3025.8374	3033.8965	3059.5848	3075.7932	3103.9138	3119.9959	3175.8409	3194.4298
CC1OCC11C2COC12	C[C@@H]1OC[C@]21[C@@H]1CO[C@H]21	
InChI=1S/C7H10O2/c1-4-7(3-9-4)5-2-8-6(5)7/h4-6H,2-3H2,1H3	InChI=1S/C7H10O2/c1-4-7(3-9-4)5-2-8-6(5)7/h4-6H,2-3H2,1H3/t4-,5+,6-,7-/m0/s1
