19
gdb 3513	2.2158775	1.7474401	1.0620137	3.1739	75.89	-0.24894	0.00766	0.2566	1129.6869	0.157883	-422.543968	-422.53586	-422.534916	-422.576427	31.642	
O	-2.5890254697	 1.4000431798	 1.119803898	-0.433292
C	-1.8043026419	 0.8450722324	 0.0689774059	 0.051981
C	-2.340882924	-0.5153768416	-0.3411383938	-0.103137
C	-1.7721315834	-1.459049592	-1.0949692213	-0.042822
C	-0.4414725692	-1.4623040704	-1.8081928952	-0.253167
C	 0.2920576398	-0.1136014639	-1.8725946876	-0.252793
C	 0.6939671382	 0.3544926377	-0.4920636012	 0.0627
O	 0.5530505977	 1.7443215361	-0.1735413984	-0.259286
C	-0.3284331633	 0.8078862374	 0.4525252291	 0.028252
H	-2.5772839479	 0.7772749788	 1.8553054082	 0.276335
H	-1.9141851006	 1.5600882246	-0.7538698928	 0.121104
H	-3.3459662309	-0.6981120317	 0.0350576284	 0.092636
H	-2.3517633859	-2.3677128709	-1.2531492187	 0.091627
H	 0.2097601772	-2.2178896666	-1.3419675866	 0.112298
H	-0.6070436926	-1.8302198479	-2.8294240424	 0.11193
H	 1.1768264664	-0.2042403264	-2.5122939464	 0.10195
H	-0.3536181074	 0.6414384811	-2.3310637405	 0.1198
H	 1.5964974766	-0.1044831476	-0.0843572011	 0.088806
H	-0.155436239	 0.6734892211	 1.5223406263	 0.085079
84.0059	194.8294	248.0666	291.6001	305.8696	351.7468	376.519	402.6179	453.5599	532.1836	604.9876	670.097	767.8197	790.8308	845.9099	871.0513	906.6853	946.9021	993.9746	1014.807	1046.1503	1051.8831	1081.5811	1093.2504	1117.54	1148.7341	1202.0158	1227.3842	1254.093	1264.5505	1284.4469	1302.2417	1346.2868	1379.64	1394.488	1410.1432	1424.4296	1471.0554	1490.9412	1496.7308	1720.2345	2993.8624	3029.698	3046.5796	3051.9033	3080.8952	3088.5026	3103.0875	3125.0616	3150.464	3797.4543
OC1C=CCCC2OC12	O[C@@H]1C=CCC[C@H]2O[C@@H]12	
InChI=1S/C7H10O2/c8-5-3-1-2-4-6-7(5)9-6/h1,3,5-8H,2,4H2	InChI=1S/C7H10O2/c8-5-3-1-2-4-6-7(5)9-6/h1,3,5-8H,2,4H2/t5-,6-,7+/m1/s1
