19
gdb 646	3.18468	1.0002803	0.842584	2.1229	77.38	-0.24227	-0.01578	0.22649000000000002	1400.033	0.155882	-422.535502	-422.526393	-422.525449	-422.570772	32.49	
O	-1.9622838211	-1.471356993	-0.8295038526	-0.336169
C	-1.348984623	-0.4238950246	-0.8561165494	 0.367239
C	-0.8797020939	 0.2495842817	 0.4345037242	-0.328745
C	 0.629708735	 0.3302528413	 0.5373421505	 0.088237
C	 1.3033621932	 1.4475675654	 1.2105199897	-0.17873
O	 1.2792771288	 1.3593547067	-0.2158096027	-0.226483
C	-1.0196022795	 0.2724637613	-2.1307308186	-0.097545
C	-0.7978146899	-0.5986830989	-3.3605879656	-0.249146
C	-2.0541083193	 0.1898575281	-3.2484748854	-0.252974
H	-1.2873418033	 1.2669438857	 0.4759739172	 0.118643
H	-1.2795602992	-0.327132966	 1.2735943045	 0.124697
H	 1.1478854729	-0.6291066259	 0.5058303386	 0.107668
H	 0.705207558	 2.2503799518	 1.6397793018	 0.117358
H	 2.2783888041	 1.2966237837	 1.6708338966	 0.120413
H	-0.4354830618	 1.1798203129	-2.0455213362	 0.113696
H	-0.0325605142	-0.2756950457	-4.0566576143	 0.120298
H	-0.8632499417	-1.6673558276	-3.192273193	 0.136645
H	-2.1812431939	 1.0719243054	-3.8653684796	 0.118594
H	-2.9622030314	-0.3496235123	-3.0048688556	 0.136306
46.8648	60.4673	84.5815	161.0479	238.1377	263.9515	322.9934	350.1289	458.8958	591.6905	718.5748	752.073	798.3808	813.2196	832.4206	857.816	899.0973	920.1143	939.1799	962.1526	1059.0372	1078.596	1092.9951	1100.0931	1112.6145	1140.0163	1151.129	1162.2976	1179.3823	1211.8757	1222.5985	1247.112	1286.7137	1304.8593	1412.5281	1432.8598	1453.8468	1454.7795	1485.5221	1527.6915	1786.1609	3037.7684	3085.1214	3098.202	3111.7845	3140.8908	3143.4876	3173.4294	3200.2509	3228.9071	3243.9447
O=C(CC1CO1)C1CC1	O=C(C[C@@H]1CO1)C1CC1	
InChI=1S/C7H10O2/c8-7(5-1-2-5)3-6-4-9-6/h5-6H,1-4H2	InChI=1S/C7H10O2/c8-7(5-1-2-5)3-6-4-9-6/h5-6H,1-4H2/t6-/m1/s1
