19
gdb 4229	2.2875761	2.0438808	1.5381375	2.4062	73.21	-0.23222	0.07724	0.30946	950.6574	0.157945	-422.534046	-422.526426	-422.525482	-422.565591	30.758	
C	 0.8258022444	 0.2769986836	-3.3631258066	-0.507115
C	 0.0483856571	 0.3376805304	-2.0736076474	 0.295959
C	-1.0152759057	-0.7165176903	-1.8228077901	 0.047897
O	-1.396510478	-0.7340374923	-0.4414215118	-0.32823
C	-1.6422510598	 0.7223379738	-0.5218709535	 0.077235
C	-0.42774331	 1.4261007214	 0.0609374147	-0.250495
C	 0.7355876613	 0.8338473546	-0.7867651898	 0.071245
O	 1.4430608392	-0.1978505805	-0.1192806323	-0.445844
C	-1.4297319168	 0.7008246999	-2.0514788034	-0.197889
H	 1.7249309317	-0.3350148029	-3.2356217479	 0.136911
H	 0.2324916187	-0.1620101607	-4.1725738827	 0.115215
H	 1.1406939639	 1.2753474927	-3.6879738416	 0.119466
H	-1.1381284381	-1.6281035497	-2.3967020216	 0.104253
H	-2.623281885	 0.9761104574	-0.1182684861	 0.084755
H	-0.5200453641	 2.5089363162	-0.0833466942	 0.101312
H	-0.2770938042	 1.2277952627	 1.125479022	 0.112366
H	 1.4865624803	 1.5939509582	-1.0221694596	 0.079666
H	 0.7732091619	-0.8480778364	 0.1298165646	 0.28596
H	-2.0040373069	 1.1841278919	-2.8299674626	 0.097335
138.4555	214.8944	236.4771	270.1879	325.1372	411.4253	459.246	522.8899	559.3733	575.3296	690.1389	750.1693	810.8234	837.527	839.8414	894.2223	895.4841	904.6685	954.7775	982.7109	1008.9792	1021.3207	1044.6186	1066.7479	1091.6791	1113.5691	1158.6853	1172.5573	1219.3348	1237.8136	1269.9444	1273.0435	1314.8963	1329.9421	1337.6347	1415.0379	1416.0237	1448.5024	1469.9952	1490.2954	1501.943	3024.7224	3040.3544	3066.5072	3087.2466	3098.158	3104.2485	3108.709	3176.7489	3205.9603	3768.0923
CC12C3OC(CC1O)C23	C[C@@]12[C@H]3O[C@@H](C[C@H]1O)[C@@H]23	
InChI=1S/C7H10O2/c1-7-4(8)2-3-5(7)6(7)9-3/h3-6,8H,2H2,1H3	InChI=1S/C7H10O2/c1-7-4(8)2-3-5(7)6(7)9-3/h3-6,8H,2H2,1H3/t3-,4+,5+,6-,7+/m0/s1
