19
gdb 1033	4.6431996	0.7972876	0.7126114	1.9919	81.3	-0.24597	0.04081	0.28678	1607.3401	0.156939	-422.529268	-422.520045	-422.519101	-422.565829	32.633	
C	 1.5247819736	-0.0123351304	 0.0253006063	-0.502623
C	 0.0695237087	-0.0152140407	 0.0229353543	 0.171157
C	-1.1337219763	-0.0246044493	 0.0338253565	-0.004742
C	-2.5898345273	-0.0081156237	 0.0121537441	-0.074808
C	-3.1672920671	 1.3123107088	-0.5348476307	-0.204694
C	-4.6896786963	 1.2873064796	-0.3799312954	-0.09598
O	-5.0516202172	 0.9832551825	 0.960272568	-0.232535
C	-4.484036153	-0.2321026947	 1.3678205072	 0.024878
O	-3.0804317596	-0.2212875206	 1.3418182941	-0.247997
H	 1.9131948032	 0.0051194079	 1.0494294957	 0.155138
H	 1.9276704647	-0.9037550682	-0.467679387	 0.149616
H	 1.9224072679	 0.86603548	-0.4947551161	 0.14936
H	-2.9516047885	-0.8354307998	-0.6260705065	 0.088785
H	-2.7470036336	 2.1409000734	 0.0423745628	 0.122674
H	-2.8845099127	 1.4421987911	-1.5843803599	 0.106276
H	-5.1342434472	 2.2581840191	-0.6128125443	 0.114379
H	-5.1270439615	 0.5390795283	-1.0639631448	 0.088553
H	-4.7795982319	-0.3943338898	 2.4059562323	 0.120033
H	-4.8629237362	-1.0540589036	 0.7279292435	 0.072529
7.4047	82.0369	87.644	204.3113	259.8392	296.3994	331.0824	372.4861	417.6079	470.9244	524.7414	534.9345	650.0216	820.2085	849.7948	903.0045	931.3754	997.5752	1044.7837	1051.2875	1054.3155	1057.1749	1103.5366	1136.1688	1184.362	1197.498	1231.7345	1267.4119	1309.799	1333.3165	1363.9453	1390.0933	1399.5333	1413.884	1444.6469	1467.5704	1476.366	1478.2974	1496.2314	1507.8113	2378.6843	2904.6195	2929.1471	2958.9979	3029.0054	3054.9122	3090.1118	3092.0953	3094.1606	3109.2559	3116.6113
CC#CC1CCOCO1	CC#C[C@@H]1CCOCO1	
InChI=1S/C7H10O2/c1-2-3-7-4-5-8-6-9-7/h7H,4-6H2,1H3	InChI=1S/C7H10O2/c1-2-3-7-4-5-8-6-9-7/h7H,4-6H2,1H3/t7-/m1/s1
