19
gdb 5196	3.2861566	1.4531915	1.4021302	2.0938	74.01	-0.22633	0.08228	0.30861	1015.5371	0.157965	-422.50623	-422.498799	-422.497855	-422.538054	29.526	
C	 1.352534881	-0.1128585679	-0.0482896464	-0.260669
O	-0.0562140268	-0.089341753	 0.0544722362	-0.29867
C	-0.5691332017	 0.6282244144	 1.119548106	 0.405819
C	-0.2605362464	 2.1285198117	 1.4151591357	-0.327136
C	-0.780915209	 1.7853054706	 2.8204191223	-0.076834
C	-2.1226836564	 0.9533979599	 2.7018893462	 0.066539
C	-2.1055589429	 0.6052008371	 1.2057738613	-0.267266
O	-1.4683730971	-0.2202934032	 3.2781782208	-0.293597
C	-0.2865867142	 0.3314974158	 2.6902500352	 0.034902
H	 1.8215034945	-0.5538932841	 0.8425306078	 0.110244
H	 1.5950667614	-0.7327716151	-0.9141769443	 0.130724
H	 1.7717519251	 0.8907234971	-0.2044440125	 0.111951
H	 0.8094656383	 2.352265487	 1.4549902632	 0.101159
H	-0.7744892007	 2.8801297385	 0.809752451	 0.099954
H	-0.6212697323	 2.3988285719	 3.7036149533	 0.081742
H	-3.0539213419	 1.2258383129	 3.1960737323	 0.082043
H	-2.5331416044	-0.3827485138	 1.0274430497	 0.115351
H	-2.571563431	 1.3454678189	 0.5505621688	 0.098805
H	 0.6603483743	-0.0806039086	 3.0354211135	 0.084935
84.7471	188.1075	222.1209	292.766	381.9581	445.085	493.4728	540.9081	621.0817	671.4233	718.2402	806.2309	835.4909	850.2054	884.1778	914.2259	933.1514	964.9403	988.9489	1024.7092	1028.5588	1060.9831	1070.1489	1116.1145	1131.7204	1168.1236	1180.541	1190.3535	1208.927	1216.6827	1231.5959	1243.3497	1272.9185	1294.8565	1326.422	1351.0755	1477.0041	1485.6582	1491.9074	1503.0009	1508.6374	2993.3404	3045.3494	3054.3521	3070.5263	3108.2152	3120.9229	3132.3795	3133.5658	3133.8989	3152.6726
COC12CC3C(C1)OC23	CO[C@@]12C[C@H]3[C@@H](C1)O[C@@H]23	
InChI=1S/C7H10O2/c1-8-7-2-4-5(3-7)9-6(4)7/h4-6H,2-3H2,1H3	InChI=1S/C7H10O2/c1-8-7-2-4-5(3-7)9-6(4)7/h4-6H,2-3H2,1H3/t4-,5+,6+,7-/m0/s1
