19
gdb 2906	2.8928654	1.4078237	1.0772798	1.9262	74.3	-0.25199	0.07695	0.32894	1140.5307	0.157209	-422.536979	-422.52887	-422.527926	-422.569217	31.695	
C	 1.3266638456	 1.2182558732	-0.0263086287	-0.4047
C	 1.1368557926	-0.3017516535	-0.0768331364	-0.03277
C	 1.8058511717	-0.9375087547	-1.299466875	 0.042099
O	 3.2087257628	-0.6678841612	-1.3958376144	-0.255805
C	 2.7935795643	-1.9501650606	-0.8957923878	 0.011354
C	 2.8136225904	-2.040144313	 0.5980387474	-0.132156
C	 1.5280480526	-2.5000817855	 1.2505319056	 0.07505
O	 1.5802446345	-2.9940868956	 2.5556062206	-0.429733
C	 1.7892870554	-1.0313746299	 1.1045256718	-0.055389
H	 0.877068509	 1.6375824149	 0.8790559451	 0.113896
H	 2.3912819223	 1.4665082355	-0.0344934438	 0.137488
H	 0.8582109442	 1.7028778092	-0.8892772011	 0.111175
H	 0.062062564	-0.5262017463	-0.1153740619	 0.074629
H	 1.2787982008	-0.9785379751	-2.2503778375	 0.090774
H	 3.0604895246	-2.797491641	-1.5236788313	 0.093207
H	 3.7455377591	-2.2059770055	 1.127716521	 0.09498
H	 0.7614291201	-2.9489601016	 0.6150600443	 0.081893
H	 1.9365259858	-3.8882955501	 2.5223341749	 0.28699
H	 1.9845054602	-0.4855880491	 2.0204411172	 0.097018
143.4866	190.276	235.2427	238.3716	261.1118	328.8075	374.1632	424.8943	447.087	516.6291	683.0179	752.8087	808.1028	847.3725	864.5251	885.9019	922.5055	934.816	978.5687	1010.0619	1028.5662	1044.3979	1054.0974	1087.1451	1122.3601	1129.8833	1151.6718	1163.9768	1179.3356	1257.0107	1278.9872	1295.1229	1304.082	1312.4181	1333.6352	1368.8265	1403.5272	1429.8876	1461.1706	1495.3152	1504.4669	3009.9185	3037.5635	3071.7058	3102.6321	3123.2494	3129.6104	3141.9871	3171.6251	3184.8505	3802.2898
CC1C2OC2C2C(O)C12	C[C@H]1[C@H]2O[C@H]2[C@@H]2[C@@H](O)[C@H]12	
InChI=1S/C7H10O2/c1-2-3-4(5(3)8)7-6(2)9-7/h2-8H,1H3	InChI=1S/C7H10O2/c1-2-3-4(5(3)8)7-6(2)9-7/h2-8H,1H3/t2-,3-,4+,5+,6-,7+/m1/s1
