19
gdb 2310	2.3155706	1.5230519	1.415802	2.8366	76.08	-0.24922	-0.0365	0.21272	1052.1117	0.155225	-422.540403	-422.531553	-422.530608	-422.574142	32.584	
C	-0.0317117812	 0.1258091741	-0.0561475494	-0.474558
C	 1.4524039723	-0.0905891135	 0.0643195454	 0.413073
C	 2.2161568852	-0.9149448392	-1.0056693536	-0.263155
C	 2.905247324	-1.7459382019	 0.1169245522	-0.307549
C	 2.2000744716	-0.9122063489	 1.2143909053	 0.144334
C	 2.8405918295	 0.4470738415	 1.5251112511	-0.134758
O	 2.1594542464	 1.1064941045	 0.4310659433	-0.321479
C	 1.4533019954	-1.6043796685	 2.3020834172	 0.064578
O	 1.1462508074	-1.0968725752	 3.3543850369	-0.256298
H	-0.4429694698	 0.5333719484	 0.8714524227	 0.139793
H	-0.228423408	 0.8436010012	-0.8610824046	 0.13571
H	-0.5516827358	-0.8066405259	-0.2967061129	 0.117836
H	 1.5722023484	-1.5037914276	-1.6639571952	 0.104671
H	 2.8758593507	-0.2947936855	-1.6154722082	 0.117342
H	 2.5879708274	-2.7933095297	 0.1272687015	 0.109218
H	 3.9972721714	-1.7202881898	 0.1464919867	 0.110457
H	 2.532422469	 0.853558901	 2.493548488	 0.129595
H	 3.9315681357	 0.496869805	 1.4265086743	 0.101414
H	 1.1505837405	-2.6511490003	 2.0651398895	 0.069775
65.3492	85.3371	185.7291	214.878	249.1744	270.7637	339.8721	361.1753	444.9473	488.3742	627.9151	649.8831	740.2619	760.8928	819.4556	877.6795	915.8388	938.5424	955.84	985.2769	1015.4407	1041.7446	1077.1281	1143.1902	1160.1901	1187.8563	1213.1239	1216.7765	1242.4882	1268.0255	1294.7692	1310.342	1356.0318	1407.5187	1425.2379	1466.7678	1478.9788	1485.1939	1486.2651	1519.5833	1803.7794	2855.8553	3024.8156	3033.1001	3050.4321	3065.9434	3085.7302	3101.3287	3101.8453	3119.9998	3128.6867
CC12CCC1(CO2)C=O	C[C@]12CC[C@]1(CO2)C=O	
InChI=1S/C7H10O2/c1-6-2-3-7(6,4-8)5-9-6/h4H,2-3,5H2,1H3	InChI=1S/C7H10O2/c1-6-2-3-7(6,4-8)5-9-6/h4H,2-3,5H2,1H3/t6-,7+/m0/s1
