19
gdb 6092	3.4722565	0.6920147	0.585431	3.0207	79.8	-0.26542	-0.06073	0.20468999999999998	1781.139	0.152506	-422.517325	-422.506405	-422.505461	-422.556039	36.532	
C	 0.8474974591	-0.691341272	-0.5306335941	-0.383785
C	 1.4406234427	 0.2341544147	 0.5344207447	-0.185184
C	 1.6180258386	 1.6586539992	 0.0294570738	-0.034111
O	 2.1685770346	 2.4451061278	 1.0701579599	-0.242409
C	 2.3735454376	 3.7801533797	 0.7096766756	-0.158358
C	 2.9669527306	 4.5803537895	 1.8653153138	 0.197337
O	 3.2121428583	 5.7592041138	 1.7344776924	-0.279943
C	 3.2193313096	 3.8754284971	 3.1064125156	 0.334856
C	 3.4487902114	 3.3397183605	 4.1593475076	-0.46624
H	 0.7298546438	-1.7076121188	-0.144366048	 0.120113
H	-0.138995991	-0.344611166	-0.8576088775	 0.118017
H	 1.4900040576	-0.7455630175	-1.4163813811	 0.118017
H	 0.7968312607	 0.2577072482	 1.4209007623	 0.110253
H	 2.4156291008	-0.1407292005	 0.8656246859	 0.110252
H	 2.2830190354	 1.6767974423	-0.8512636534	 0.08899
H	 0.6490071873	 2.0789784234	-0.2907676615	 0.088991
H	 3.0652404493	 3.8787825281	-0.1443512547	 0.12317
H	 1.4350881603	 4.280058561	 0.4148507094	 0.123171
H	 3.6493073232	 2.8611257495	 5.0869722193	 0.216862
14.2275	49.2961	76.6474	109.5501	136.73	157.5678	234.6054	242.6408	258.143	338.3624	406.6861	526.8643	601.8806	647.185	659.7228	717.4879	745.4355	765.8056	900.9905	913.1949	1016.7516	1027.5766	1062.2661	1139.1593	1175.1067	1191.6413	1209.3673	1243.2475	1270.328	1316.5138	1331.1373	1371.9258	1413.6951	1438.8433	1482.8364	1492.7327	1500.9433	1507.8537	1528.8825	1769.9189	2213.1149	2947.7621	2961.9066	2976.1673	2987.0105	3032.484	3040.9797	3073.8155	3101.179	3110.0494	3496.0261	14.2373	49.2973	76.6476	109.5522	136.7311	157.5678	234.6053	242.6418	258.1432	338.3624	406.6861	526.8642	601.8808	647.1865	659.7221	717.489	745.4357	765.8056	900.9905	913.195	1016.7511	1027.577	1062.2663	1139.1593	1175.107	1191.6411	1209.367	1243.2467	1270.3278	1316.5137	1331.1372	1371.9254	1413.6952	1438.843	1482.8357	1492.7326	1500.9434	1507.8536	1528.8822	1769.9195	2213.1146	2947.7622	2961.9067	2976.1674	2987.0106	3032.484	3040.9797	3073.8155	3101.179	3110.0494	3496.0271
CCCOCC(=O)C#C	CCCOCC(=O)C#C	
InChI=1S/C7H10O2/c1-3-5-9-6-7(8)4-2/h2H,3,5-6H2,1H3	InChI=1S/C7H10O2/c1-3-5-9-6-7(8)4-2/h2H,3,5-6H2,1H3
