19
gdb 737	2.7598457	1.3414181	1.0107074	4.1632	74.86	-0.25473	0.01401	0.26874000000000003	1202.5446	0.15835	-422.588504	-422.580177	-422.579232	-422.622294	30.676	
O	 1.2559605896	-0.0245212901	-0.5844382398	-0.343646
C	 0.0862698923	 0.0163917386	-0.3361116265	 0.44112
O	-0.6562364215	-1.1092016161	-0.142297447	-0.219355
C	-2.0173350543	-0.7814656793	 0.1810375952	-0.078826
C	-2.2193491023	 0.6714140639	-0.2788783616	-0.256396
C	-0.8021464506	 1.2553447942	-0.1634123119	-0.166135
C	-0.5105885937	 1.9267966659	 1.1691303891	 0.027882
C	 0.7070593595	 2.7970739879	 1.3209343137	-0.258128
C	-0.6666670272	 3.4215872472	 1.3108378281	-0.285145
H	-2.6635836297	-1.4978789885	-0.3304374921	 0.125054
H	-2.1569160843	-0.8985588984	 1.2621981061	 0.117263
H	-2.5574236834	 0.6901099009	-1.3189395583	 0.116545
H	-2.9557182331	 1.2025013547	 0.3279029434	 0.116193
H	-0.5668164227	 1.9547235999	-0.9697609592	 0.100917
H	-0.7853532948	 1.3329575405	 2.0378472468	 0.08663
H	 1.2503342902	 2.7586909542	 2.2580764258	 0.117371
H	 1.3382120875	 2.9280482774	 0.4492918442	 0.130959
H	-1.0652125707	 3.8105872029	 2.2411809798	 0.114534
H	-0.963531261	 3.984641234	 0.4318167942	 0.113163
57.3514	80.6052	153.2275	186.5261	274.9811	298.7509	391.2406	513.6596	658.11	682.2151	697.9774	767.1258	813.6302	831.4009	865.182	893.823	925.5118	960.8144	973.1609	1036.2071	1051.4952	1060.2706	1069.5352	1078.66	1133.0712	1172.6077	1179.0886	1194.5141	1218.2619	1227.662	1241.2662	1274.0955	1293.3792	1338.6547	1401.0436	1414.5484	1473.6997	1492.7508	1508.1725	1525.5142	1878.273	3036.4881	3060.3688	3079.2516	3104.5525	3118.5579	3130.5475	3132.7016	3144.6024	3211.8967	3230.5363
O=C1OCCC1C1CC1	O=C1OCC[C@H]1C1CC1	
InChI=1S/C7H10O2/c8-7-6(3-4-9-7)5-1-2-5/h5-6H,1-4H2	InChI=1S/C7H10O2/c8-7-6(3-4-9-7)5-1-2-5/h5-6H,1-4H2/t6-/m0/s1
