19
gdb 2016	3.8472647	1.0247871	0.9113982	3.3181	76.12	-0.25136	-0.0235	0.22785999999999998	1302.9824	0.156001	-422.573017	-422.564337	-422.563393	-422.606665	32.183	
C	 3.3160153543	 2.8176825121	-3.3048602279	-0.484123
C	 2.2029274487	 2.4756613282	-2.3536698223	 0.417509
C	 2.5002269128	 2.1829705135	-0.8898043688	-0.311453
C	 1.158077318	 1.6564920386	-0.3087749945	-0.061647
C	 0.4230686345	 1.0184572671	-1.5235406573	-0.277051
C	 0.9583771578	 1.7836300145	-2.7153768618	-0.010029
O	 0.9716592881	 3.2059061768	-2.518811651	-0.295303
C	 1.3772345951	 0.6593645631	 0.803463075	 0.151663
O	 0.969937214	 0.7660020982	 1.9301616731	-0.246332
H	 3.8135813165	 3.7448302459	-3.0002057452	 0.131051
H	 4.070266541	 2.0238436785	-3.3241593702	 0.122703
H	 2.9278369927	 2.958559651	-4.3164388313	 0.133224
H	 3.2830842495	 1.4140560295	-0.8329356657	 0.104041
H	 2.8629192263	 3.059857445	-0.3454619491	 0.122296
H	 0.5716085396	 2.4855810326	 0.0873916536	 0.112016
H	 0.6821424472	-0.0436951499	-1.6332055128	 0.106088
H	-0.6634992904	 1.0835061585	-1.4194913375	 0.12612
H	 0.7414128001	 1.4529557605	-3.7286542545	 0.094233
H	 1.9755919941	-0.2326984638	 0.4916803684	 0.064995
66.7528	92.4837	184.9541	230.4071	269.0205	340.3838	353.6188	364.1028	403.1648	494.2251	588.3329	688.7702	718.6198	840.7167	862.8337	897.6441	906.0225	924.6543	981.0495	997.9386	1030.7466	1060.4238	1084.5921	1101.2867	1146.9685	1182.9486	1220.4826	1234.3777	1278.077	1293.2131	1316.2906	1338.425	1344.0797	1413.0393	1427.6273	1457.6532	1476.5427	1482.6891	1489.9766	1503.3591	1837.3258	2824.3512	3019.5612	3023.5572	3036.6759	3086.2595	3091.3192	3098.3532	3119.1786	3125.0066	3141.0637
CC12CC(CC1O2)C=O	C[C@]12C[C@@H](C[C@H]1O2)C=O	
InChI=1S/C7H10O2/c1-7-3-5(4-8)2-6(7)9-7/h4-6H,2-3H2,1H3	InChI=1S/C7H10O2/c1-7-3-5(4-8)2-6(7)9-7/h4-6H,2-3H2,1H3/t5-,6-,7+/m1/s1
