19
gdb 3048	2.9161171	1.6589987	1.3310694	2.4333	75.03	-0.24618	0.06776	0.31394	996.6224	0.158836	-422.49323	-422.486012	-422.485068	-422.524328	29.661	
O	-0.8589001227	 0.470951199	 0.9025326425	-0.446162
C	-1.6964240965	-0.3365724275	 0.1111895049	 0.033764
C	-2.8530300846	-1.0804288099	 0.9371452659	-0.073277
C	-3.5711852833	 0.2925601208	 0.932534734	-0.247647
C	-2.9326276686	 0.38075786	-0.4753200361	 0.285721
C	-3.6064314415	 1.2484720412	-1.5507051884	-0.228171
O	-4.5803304784	 0.1700745227	-1.7599758997	-0.315971
C	-3.5973270386	-0.7635551829	-1.2199053927	 0.155342
C	-3.7298346111	-1.8347725076	-0.1085813734	-0.294397
H	-0.2878105046	-0.1062871078	 1.4195666843	 0.286109
H	-1.1118930428	-0.9438509916	-0.5945221373	 0.064374
H	-2.5982190886	-1.5995002593	 1.863628286	 0.060926
H	-4.6610376905	 0.2961461038	 0.9990404612	 0.100931
H	-3.1278702637	 1.0121996183	 1.6194449735	 0.113438
H	-4.0860273832	 2.1756724641	-1.2260998959	 0.113164
H	-3.0135540733	 1.4229759814	-2.4579000168	 0.104038
H	-3.001713332	-1.1483166133	-2.0604096532	 0.071039
H	-4.7459085705	-1.9862684525	 0.265319098	 0.119822
H	-3.3331974955	-2.8019217687	-0.4298027368	 0.096958
221.6712	233.8171	275.4829	298.0856	326.1253	412.981	441.0968	514.3225	590.9421	645.5294	733.8676	805.2772	838.5395	878.2973	896.3501	903.5346	926.5476	949.5866	980.1853	1021.5039	1058.3682	1066.5177	1090.969	1099.6035	1126.8939	1140.9249	1168.5682	1196.8241	1208.5292	1230.9335	1238.6636	1263.546	1284.8147	1296.0928	1320.891	1332.9966	1396.0053	1430.5616	1483.613	1504.1541	1509.2995	2985.5916	3000.6785	3020.1058	3059.0557	3078.5159	3095.6404	3097.4586	3107.6802	3153.4769	3813.2039
OC1C2CC11COC1C2	O[C@H]1[C@H]2C[C@]31CO[C@@H]3C2	
InChI=1S/C7H10O2/c8-6-4-1-5-7(6,2-4)3-9-5/h4-6,8H,1-3H2	InChI=1S/C7H10O2/c8-6-4-1-5-7(6,2-4)3-9-5/h4-6,8H,1-3H2/t4-,5-,6+,7+/m1/s1
