19
gdb 3114	2.6461102	1.6065531	1.3079197	2.3831	75.99	-0.23758	0.02716	0.26474000000000003	1037.7237	0.158348	-422.553892	-422.546098	-422.545154	-422.58573	30.723	
O	 0.5696201885	 0.29792781	-0.0218283588	-0.440587
C	-0.7861975845	 0.6132943856	 0.2059831999	 0.087852
C	-1.6434755879	-0.5382325927	 0.7834341327	 0.057781
C	-2.8174226362	-0.1026699023	 1.646646368	-0.266982
C	-3.6894532978	 0.9901877284	 1.0796046657	-0.049402
C	-3.6678830167	 1.5682265946	-0.1243129809	-0.047537
C	-2.7623347951	 1.316812407	-1.303888714	-0.270728
C	-1.6083967733	 0.3562226048	-1.0676886767	 0.089279
O	-2.079438037	-0.912548843	-0.5456213922	-0.29847
H	 1.025810992	 0.2986423796	 0.8259107177	 0.282877
H	-0.9043673591	 1.5948847358	 0.6813078543	 0.075195
H	-1.0720000648	-1.3436123508	 1.2601758177	 0.071674
H	-3.4470623004	-0.9812516547	 1.8491042365	 0.121538
H	-2.433802171	 0.2131897306	 2.6289816062	 0.101076
H	-4.4588819289	 1.3301725205	 1.7711392315	 0.084591
H	-4.4215207017	 2.3312667952	-0.3130550291	 0.085104
H	-3.3702883921	 0.9320980071	-2.1354599005	 0.121674
H	-2.3537657765	 2.27478552	-1.6588165196	 0.108578
H	-1.0016378475	 0.2216374945	-1.9688684782	 0.086487
139.378	206.0208	244.7558	281.9866	317.934	340.6382	397.66	402.4587	455.2275	635.3783	683.0798	805.5803	817.3469	853.0343	869.8453	876.6533	926.8218	984.9131	991.0886	1006.6863	1018.638	1028.0207	1068.588	1105.9031	1123.6689	1176.084	1198.2949	1213.2331	1236.3811	1277.0905	1299.5346	1320.0647	1336.9229	1356.9827	1374.2329	1395.7234	1432.4835	1445.6389	1451.7998	1452.6284	1728.4623	2994.5018	3000.3912	3023.1893	3026.1172	3028.8795	3038.1789	3063.7109	3123.4218	3147.7078	3813.6823
OC1C2CC=CCC1O2	O[C@@H]1[C@H]2CC=CC[C@@H]1O2	
InChI=1S/C7H10O2/c8-7-5-3-1-2-4-6(7)9-5/h1-2,5-8H,3-4H2	InChI=1S/C7H10O2/c8-7-5-3-1-2-4-6(7)9-5/h1-2,5-8H,3-4H2/t5-,6+,7-
