19
gdb 4382	2.1236321	1.6109032	0.9612202	4.2285	81.68	-0.24908	-0.06086	0.18822	1224.255	0.156383	-422.594733	-422.585638	-422.584694	-422.628532	33.385	
C	 1.3479374745	 0.8667585843	 0.4670379205	-0.499701
C	-0.0181651138	 0.2747658219	 0.3393520962	 0.219946
C	-1.1685317653	 0.8656809136	-0.0439462982	 0.123155
C	-1.3652655272	 2.2523497619	-0.4411911857	 0.062615
O	-2.4459895541	 2.6990497216	-0.7894522268	-0.298925
C	-2.351704837	-0.0913428679	 0.012012204	 0.048099
O	-3.174897526	-0.0572966977	-1.1364576818	-0.444139
C	-1.6736079416	-1.4682551036	 0.1407617445	-0.23518
C	-0.2617575449	-1.1759329582	 0.6949206403	-0.302829
H	 1.7212146203	 0.7431650564	 1.4913980538	 0.141113
H	 2.0529874392	 0.3339235095	-0.1831208438	 0.143025
H	 1.3864022687	 1.927884174	 0.2154340259	 0.136828
H	-0.4744557088	 2.9131931735	-0.4222019559	 0.077695
H	-2.950762341	 0.1359897839	 0.9113736433	 0.071802
H	-3.4340451919	 0.8686070504	-1.2446475393	 0.294166
H	-2.2410213905	-2.1707735568	 0.7542181872	 0.105233
H	-1.6044651783	-1.8819703162	-0.8696228803	 0.123636
H	-0.2154006095	-1.2951945075	 1.7873872564	 0.119747
H	 0.5129002472	-1.8364633831	 0.2880892498	 0.113713
92.1426	128.6833	152.9636	178.9337	214.094	264.8986	298.6741	397.1959	441.6439	494.0468	533.8601	564.5561	621.8918	630.155	770.8039	854.8073	911.9455	953.1982	975.4649	1012.3386	1027.8247	1043.4995	1084.4758	1118.9376	1165.5781	1204.1729	1236.3049	1276.1967	1282.1945	1307.4778	1350.5342	1371.6068	1405.3616	1425.7807	1435.5752	1472.8632	1475.8471	1480.2224	1494.5552	1693.9484	1743.8231	2915.3696	2939.3909	3006.5302	3025.4267	3051.737	3069.3464	3071.6999	3119.9028	3130.9435	3741.9938
CC1=C(C=O)C(O)CC1	CC1=C(C=O)[C@@H](O)CC1	
InChI=1S/C7H10O2/c1-5-2-3-7(9)6(5)4-8/h4,7,9H,2-3H2,1H3	InChI=1S/C7H10O2/c1-5-2-3-7(9)6(5)4-8/h4,7,9H,2-3H2,1H3/t7-/m0/s1
