19
gdb 3617	3.7423743	0.9820287	0.8337083	2.3257	76.75	-0.24353	-0.02577	0.21776	1388.0429	0.155707	-422.545158	-422.535988	-422.535044	-422.579786	33.315	
O	-1.1395401652	-2.5323309494	 0.2756668653	-0.436555
C	-1.1024645807	-1.2447588029	-0.2574057017	 0.072013
C	-2.168049602	-0.1611039249	 0.1362469952	-0.30144
C	-1.0381861488	 0.9278504014	 0.1884368846	-0.109807
C	-1.0312906155	 1.9782828172	 1.2607668329	 0.027375
C	-0.2171416948	 3.2366589607	 1.0917407856	-0.262541
C	-1.7217203845	 3.3037879316	 1.0404576327	-0.278398
C	-0.0825995198	-0.2697902954	 0.3335878974	 0.322359
O	 0.8854302453	-0.4831441199	 1.0117366698	-0.313461
H	-0.4843698177	-2.5607517214	 0.9850089556	 0.295185
H	-1.0254044052	-1.297159975	-1.3515465155	 0.105521
H	-2.9824879387	 0.0009540108	-0.569639201	 0.11463
H	-2.5699870356	-0.3633935269	 1.132127865	 0.120128
H	-0.9199432547	 1.3843979774	-0.8016997188	 0.096693
H	-1.0768091771	 1.5765103555	 2.2693859977	 0.088479
H	 0.2904732907	 3.635796868	 1.9622532762	 0.119094
H	 0.3304234684	 3.3644452766	 0.1638284447	 0.113733
H	-2.2484998808	 3.7511596308	 1.8758502393	 0.115975
H	-2.1911449631	 3.4768817357	 0.0775157549	 0.111016
55.0075	81.4221	125.1366	176.1298	219.572	279.947	296.4114	370.6042	398.6419	524.1486	622.0612	705.5217	767.6652	803.8208	812.6358	839.2562	887.4916	924.324	963.6993	986.0782	1004.0016	1024.5933	1060.474	1069.6116	1080.3247	1131.73	1143.9908	1164.1137	1196.5207	1217.104	1229.7429	1238.2951	1254.8344	1298.3747	1344.7341	1409.2957	1429.5639	1471.5091	1482.2944	1506.8842	1861.5727	3022.7841	3040.7566	3076.6684	3131.7387	3137.0405	3143.4989	3145.988	3210.4828	3225.9141	3766.0351
OC1CC(C2CC2)C1=O	O[C@H]1C[C@@H](C2CC2)C1=O	
InChI=1S/C7H10O2/c8-6-3-5(7(6)9)4-1-2-4/h4-6,8H,1-3H2	InChI=1S/C7H10O2/c8-6-3-5(7(6)9)4-1-2-4/h4-6,8H,1-3H2/t5-,6-/m0/s1
