19
gdb 448	4.2754091	0.9588178	0.8942874	2.2092	76.17	-0.25333	0.0895	0.34282999999999997	1336.4256	0.158048	-422.519906	-422.512007	-422.511063	-422.552887	29.698	
C	-2.3203355885	-1.1155079682	 0.0956880158	-0.188812
O	-2.2563516264	-0.0932943496	 1.0918392443	-0.240105
C	-1.3852704083	 0.0084802764	-0.0405069886	 0.073218
C	 0.075029625	-0.1317633334	 0.217486237	-0.031759
C	 0.9241793252	 1.114613315	 0.3162130932	-0.076597
C	 2.2344481224	 0.9626871276	 1.0677129306	-0.10292
O	 2.816710383	-0.2447782931	 0.5802987592	-0.253863
C	 2.4246401306	-0.4165819634	-0.7788778385	-0.100065
C	 1.0473964585	 0.2130098683	-0.8880020625	-0.085842
H	-1.9423577396	-2.0903903353	 0.4021121418	 0.112794
H	-3.2345051941	-1.1391895964	-0.4965245908	 0.113167
H	-1.6573535743	 0.8089244581	-0.7325441672	 0.08739
H	 0.3433084735	-0.9585053452	 0.8707127999	 0.100352
H	 0.4543922782	 2.0897616353	 0.2592885288	 0.093507
H	 2.8856209556	 1.829631852	 0.8691777426	 0.092782
H	 2.1249339775	 0.852873379	 2.1514606782	 0.114644
H	 3.1231270093	 0.089549658	-1.4654289473	 0.092642
H	 2.4524515817	-1.4909923809	-0.9889410369	 0.109983
H	 0.6744234108	 0.5034568258	-1.8635999295	 0.089486
70.0998	134.0497	148.6704	254.3473	307.6904	341.2611	401.4837	464.7449	668.3541	733.9391	815.873	845.2434	862.8767	880.7617	917.5939	926.123	978.533	990.2044	1000.4369	1018.7124	1087.8849	1097.1711	1100.4863	1111.2566	1122.9194	1150.2214	1161.0331	1174.4226	1205.7276	1220.2173	1241.2722	1269.5374	1296.422	1313.1062	1352.2594	1369.8729	1418.695	1479.7139	1509.6116	1521.663	1532.73	2968.5331	2974.4947	3067.304	3072.4918	3077.0173	3082.1877	3142.5622	3164.3085	3173.7471	3183.2237
C1OC1C1C2COCC12	C1O[C@H]1[C@@H]1[C@H]2COC[C@@H]12	
InChI=1S/C7H10O2/c1-4-5(2-8-1)7(4)6-3-9-6/h4-7H,1-3H2	InChI=1S/C7H10O2/c1-4-5(2-8-1)7(4)6-3-9-6/h4-7H,1-3H2/t4-,5+,6-,7+/m1/s1
