19
gdb 4454	3.5514417	1.2514523	1.1153544	1.9705	78.97	-0.2292	0.00757	0.23676999999999998	1145.4127	0.157658	-422.547796	-422.539673	-422.538728	-422.580253	31.981	
O	 0.4079056177	 0.5132738178	 0.0908143813	-0.435837
C	-0.8579408956	 1.1543611376	-0.0626626082	 0.087221
C	-1.1189768174	 2.158130391	 1.0616474497	-0.128617
O	-1.4239738978	 1.4632056125	 2.2694839789	-0.308242
C	-2.6372390388	 0.763920812	 2.177479127	 0.409343
C	-3.8476649936	 1.4029341477	 2.8469655313	-0.32193
C	-3.138714682	 0.2372798891	 3.4921167802	-0.326174
C	-2.8057832581	-0.0100197978	 0.9294812383	-0.089687
C	-1.9859174679	 0.151257056	-0.1107815587	-0.145692
H	 0.3692478433	 0.0484506052	 0.9354208014	 0.280712
H	-0.7884818819	 1.6936700061	-1.0146932329	 0.087551
H	-0.2165440968	 2.7405014181	 1.261783743	 0.112468
H	-1.938073516	 2.8416919736	 0.790915657	 0.092738
H	-3.6859183435	 2.384062215	 3.2781461543	 0.126894
H	-4.8275438414	 1.2445473776	 2.4105584009	 0.116576
H	-2.5112260053	 0.4468731733	 4.3507084302	 0.130746
H	-3.6248524097	-0.7319892225	 3.5040519949	 0.118153
H	-3.6308952076	-0.7168107528	 0.8983708477	 0.097039
H	-2.0895714075	-0.4529928396	-1.0065083763	 0.096737
81.4527	169.3328	202.1315	295.1691	337.5026	379.6653	404.5636	453.9639	463.1438	555.1942	610.2743	719.4773	763.7171	775.1007	830.5806	852.9258	898.5152	915.7898	935.8147	963.4231	991.2329	996.9922	1027.5613	1053.2243	1078.5812	1105.4698	1112.7272	1169.0337	1193.4455	1257.6475	1284.3703	1301.7768	1311.5255	1346.2125	1397.4813	1417.8076	1436.9911	1451.1601	1482.0405	1491.0012	1702.6078	2992.3408	3047.505	3105.8501	3136.3444	3138.8177	3157.7183	3184.1399	3222.6556	3237.0405	3790.3243
OC1COC2(CC2)C=C1	O[C@@H]1COC2(CC2)C=C1	
InChI=1S/C7H10O2/c8-6-1-2-7(3-4-7)9-5-6/h1-2,6,8H,3-5H2	InChI=1S/C7H10O2/c8-6-1-2-7(3-4-7)9-5-6/h1-2,6,8H,3-5H2/t6-/m0/s1
