19
gdb 5744	4.4751419	0.9823201	0.8887963	3.6974	76.49	-0.23371	-0.03426	0.19945000000000002	1344.4557	0.155813	-422.538948	-422.530258	-422.529314	-422.57276	31.963	
C	 1.5995698967	 1.9478234857	-0.5537847087	-0.386078
C	 1.5507199537	 0.4446631505	-0.2660212631	-0.195357
C	 2.0643959239	-0.3851733316	-1.4300165079	 0.156341
O	 1.235726577	-0.2065986463	-2.6207018792	-0.305297
C	 0.8027015385	-1.5821365809	-2.5892747676	-0.002847
C	 1.7619250234	-1.895308532	-1.3954644464	-0.109143
C	 2.6698800425	-2.7532838768	-2.3175196782	-0.382939
C	 1.7135700971	-2.4502486489	-3.4955246875	 0.409233
O	 1.6761869144	-2.7805810086	-4.6421495489	-0.28257
H	 1.1871867888	 2.5227780607	 0.2801746367	 0.114755
H	 2.6283216076	 2.286498841	-0.7186134379	 0.115682
H	 1.0206252122	 2.1819493556	-1.4513208744	 0.140461
H	 2.1559714118	 0.2014953763	 0.6178018763	 0.097711
H	 0.5218883677	 0.1376234977	-0.0399377304	 0.10126
H	 3.1106149554	-0.1301445706	-1.6495650528	 0.079228
H	-0.2833686152	-1.6996002093	-2.6306455001	 0.093535
H	 1.4384190827	-2.3301886787	-0.4519350726	 0.086988
H	 3.707980944	-2.4300057504	-2.4378537448	 0.132136
H	 2.6670318479	-3.8215012534	-2.0765236124	 0.136901
65.3094	98.8197	146.3448	181.2596	238.3407	322.9784	341.5262	428.5005	476.2904	523.9603	638.2862	761.2067	781.2426	823.7303	858.5949	869.6394	928.3069	953.3717	970.1598	1004.4495	1033.8067	1067.7041	1070.5081	1089.749	1111.1187	1156.6835	1171.385	1209.294	1235.9949	1255.4801	1276.24	1285.5561	1322.3379	1347.5771	1405.1649	1411.2024	1436.9421	1476.0455	1498.1457	1509.7894	1898.4244	3007.0708	3018.2265	3038.4629	3053.1734	3058.4032	3080.0698	3105.7193	3105.9798	3122.4978	3136.2521
CCC1OC2C1CC2=O	CC[C@@H]1O[C@@H]2[C@H]1CC2=O	
InChI=1S/C7H10O2/c1-2-6-4-3-5(8)7(4)9-6/h4,6-7H,2-3H2,1H3	InChI=1S/C7H10O2/c1-2-6-4-3-5(8)7(4)9-6/h4,6-7H,2-3H2,1H3/t4-,6-,7+/m0/s1
