19
gdb 4470	3.6318291	1.0047909	0.8978155	3.6679	77.8	-0.23869	-0.01841	0.22028	1332.3253	0.156658	-422.556622	-422.548058	-422.547113	-422.589992	31.706	
C	 1.383841254	 1.238715519	-0.1964397075	-0.401693
C	 1.0151039305	-0.246798277	-0.0969813564	-0.018867
C	 1.6612312847	-1.0985478578	-1.2211892728	-0.10791
O	 2.8929850297	-1.614648989	-0.6992501377	-0.253315
C	 2.7760489081	-1.6705382113	 0.6877612423	 0.113969
C	 1.5549218078	-2.4009019562	 1.2746150251	-0.188664
C	 1.7082701155	-3.0001889657	 2.6132791062	 0.157219
O	 1.2069878151	-4.0392309909	 2.968873971	-0.27177
C	 1.6194565355	-0.8711801179	 1.1573148033	-0.098683
H	 0.9890419464	 1.8037477662	 0.6538594968	 0.119584
H	 2.4709371889	 1.3694685668	-0.2147067048	 0.130451
H	 0.9749464392	 1.6803169122	-1.1105927968	 0.119327
H	-0.0739782518	-0.3569549683	-0.1252839344	 0.08901
H	 1.0062318897	-1.9290370774	-1.5136598671	 0.108909
H	 1.8981046762	-0.5194469262	-2.1177162389	 0.115309
H	 3.7348025404	-1.73716649	 1.1876103794	 0.116994
H	 0.9140939157	-2.9564432555	 0.5986804417	 0.109984
H	 2.3540374727	-2.4089591891	 3.3075050621	 0.060059
H	 1.6489628116	-0.2888023019	 2.0718086785	 0.100089
89.9268	139.0521	149.1307	225.5323	232.8737	305.5483	324.6614	386.5768	405.8301	542.3716	712.8287	723.2977	803.7638	843.7517	871.7265	929.9095	952.5588	964.7408	988.4637	1015.1054	1043.322	1047.8251	1080.61	1118.4705	1143.8159	1156.935	1162.5883	1206.9606	1236.8332	1253.9949	1285.5223	1306.2564	1357.7765	1382.2456	1408.959	1417.4914	1448.2894	1495.8851	1499.6047	1523.2417	1814.3302	2831.5388	3018.8361	3034.1124	3053.6877	3092.1552	3105.9692	3108.0404	3168.829	3180.1433	3191.8616
CC1COC2C(C=O)C12	C[C@H]1CO[C@@H]2[C@@H](C=O)[C@H]12	
InChI=1S/C7H10O2/c1-4-3-9-7-5(2-8)6(4)7/h2,4-7H,3H2,1H3	InChI=1S/C7H10O2/c1-4-3-9-7-5(2-8)6(4)7/h2,4-7H,3H2,1H3/t4-,5-,6-,7+/m0/s1
