19
gdb 5899	6.2460544	0.5375829	0.5016826	2.5732	78.59	-0.24693	-0.02061	0.22632000000000002	2108.9064	0.152829	-422.540741	-422.529767	-422.528823	-422.57896	37.262	
O	 3.8529332382	-1.1627011142	-3.5839498976	-0.417271
C	 3.3497741632	-0.9474827799	-2.2749358246	-0.060161
C	 1.822041582	-0.8667826842	-2.2513688657	-0.317015
C	 1.2431458682	-0.7352410527	-0.8508043853	 0.367216
O	 1.9504894736	-0.7113748412	 0.1324841459	-0.298308
C	-0.2731152849	-0.6378023234	-0.7495543502	-0.291692
C	-0.7674334749	-0.524608252	 0.7014813485	-0.357456
C	-2.2188200598	-0.4256737341	 0.7851473994	 0.284212
C	-3.4174241388	-0.3453240404	 0.8271842926	-0.428423
H	 3.6998585951	-0.3636284215	-4.097721134	 0.281564
H	 3.6815718511	-1.7993299706	-1.6761112717	 0.129787
H	 3.7806119842	-0.0493775897	-1.8119502032	 0.105056
H	 1.4680086115	-0.0170037988	-2.8534377968	 0.112217
H	 1.3961490554	-1.7580015527	-2.7308492639	 0.134176
H	-0.6099367165	 0.2242286192	-1.3394028963	 0.133882
H	-0.7158415412	-1.5131413854	-1.2413215113	 0.135876
H	-0.4135316021	-1.3906230647	 1.2716712084	 0.146333
H	-0.3003934764	 0.3462085833	 1.1745567619	 0.145915
H	-4.4751895481	-0.2738381671	 0.883346064	 0.194093
29.2055	49.152	68.9171	83.8796	106.4844	175.406	256.5053	296.9863	320.8755	343.6067	409.4069	474.2751	513.4036	621.0635	642.3903	685.0643	707.5603	794.7557	880.1927	948.4937	953.16	1001.3395	1052.3374	1073.4946	1074.3736	1103.0439	1137.2755	1201.326	1282.7095	1295.745	1313.083	1332.0213	1383.5293	1397.4521	1415.9061	1445.2933	1457.7415	1469.4917	1504.2493	1797.8505	2240.2309	3011.5178	3016.4212	3033.7761	3048.335	3051.392	3062.2204	3083.7784	3104.8433	3507.6372	3818.7908
OCCC(=O)CCC#C	OCCC(=O)CCC#C	
InChI=1S/C7H10O2/c1-2-3-4-7(9)5-6-8/h1,8H,3-6H2	InChI=1S/C7H10O2/c1-2-3-4-7(9)5-6-8/h1,8H,3-6H2
