19
gdb 4555	2.6331252	1.38943	1.0947242	1.6771	77.63	-0.24559	-0.05775	0.18784	1143.6592	0.157944	-422.582833	-422.574078	-422.573134	-422.616397	32.585	
O	-3.8739446416	-0.0096482182	-0.3895851498	-0.433844
C	-3.0677136882	 0.5754516113	 0.6384894107	 0.086553
C	-2.5323286595	-0.4581820686	 1.6418742408	-0.230238
C	-1.7695126636	-1.6526756649	 1.051140684	-0.209059
C	-0.7107922377	-1.3202814793	-0.0274917881	-0.309275
C	 0.0327873672	-0.0046716246	 0.161521954	 0.36084
O	 1.2157973107	 0.0303850001	 0.4318367363	-0.318116
C	-0.7098382142	 1.2606270447	-0.1131525984	-0.145299
C	-2.0159285386	 1.4964175608	 0.0546650643	-0.086203
H	-3.2844182965	-0.3755573663	-1.0567073958	 0.284765
H	-3.7694758453	 1.2167563037	 1.1851577584	 0.096905
H	-1.8976064501	 0.0757815684	 2.3593990925	 0.111485
H	-3.3843782229	-0.846849651	 2.2100182153	 0.108397
H	-1.2768263109	-2.1774698994	 1.8755688145	 0.117659
H	-2.4841881206	-2.3599384167	 0.6190513494	 0.114044
H	 0.0389369194	-2.113647297	-0.0734188426	 0.124947
H	-1.192853702	-1.2723044231	-1.0127039273	 0.100884
H	-0.0643598256	 2.060578248	-0.467973389	 0.115318
H	-2.3909154299	 2.4781633723	-0.2281190993	 0.110237
64.6697	126.6558	164.4348	202.0396	255.9263	309.2125	352.503	405.7797	459.5546	489.0827	573.6464	677.2491	700.4879	754.6465	786.1109	835.5538	890.5588	896.9553	933.5325	999.8709	1024.7563	1044.8088	1084.7734	1115.3106	1166.433	1200.5199	1222.8023	1257.2178	1277.2166	1294.478	1327.3688	1374.1367	1385.2344	1400.1967	1408.2604	1426.7105	1476.5349	1482.5925	1499.8938	1690.598	1777.1599	3021.9247	3028.3747	3040.8284	3049.2053	3073.3446	3090.0086	3106.8594	3143.0264	3168.9568	3818.6253
OC1CCCC(=O)C=C1	O[C@H]1CCCC(=O)C=C1	
InChI=1S/C7H10O2/c8-6-2-1-3-7(9)5-4-6/h4-6,8H,1-3H2	InChI=1S/C7H10O2/c8-6-2-1-3-7(9)5-4-6/h4-6,8H,1-3H2/t6-/m0/s1
