19
gdb 673	2.4559805	1.6924298	1.6798928	4.5625	73.27	-0.25263	0.02268	0.27531	954.0726	0.161228	-422.627199	-422.620022	-422.619078	-422.658776	28.404	
O	 1.319818154	-0.2200808285	 0.1374490005	-0.347859
C	 0.1302889121	-0.1220421965	 0.0166562587	 0.43025
O	-0.6541061873	-1.2316944786	-0.0891530761	-0.240929
C	-2.0685933716	-0.9476400153	-0.2289702714	 0.104305
C	-2.2730504666	-0.126273463	-1.5066401344	-0.217056
C	-1.4462907714	 1.1819576342	-1.3837649621	-0.22476
C	-0.6821858596	 1.1604063226	-0.0387474085	-0.139327
C	-1.705201229	 1.1261873411	 1.1212814006	-0.22476
C	-2.5335563186	-0.1824713516	 1.0149008589	-0.217057
H	-2.5460270166	-1.9265533931	-0.3001109674	 0.089143
H	-1.9458263354	-0.7196254608	-2.3646725401	 0.117762
H	-3.3398085691	 0.0773543073	-1.6416828267	 0.106419
H	-0.7416399548	 1.2776131126	-2.2140337748	 0.119085
H	-2.0911135702	 2.0662634216	-1.4090393011	 0.104755
H	 0.0001139185	 2.0061356427	 0.0506028685	 0.092008
H	-1.1856216299	 1.1820889326	 2.0814585173	 0.119085
H	-2.3456575736	 2.0113960461	 1.0530487873	 0.104755
H	-2.3857544368	-0.8145412546	 1.8946772282	 0.117764
H	-3.6063397639	 0.0197642811	 0.9380262726	 0.106418
98.0648	161.8203	264.4242	352.2658	372.6298	444.8819	538.2542	543.8897	617.5237	773.396	784.8055	806.711	816.7278	846.7059	880.3764	886.5724	947.2393	973.1942	1022.9825	1037.5228	1053.8943	1070.4012	1077.0529	1161.0943	1165.7104	1222.8292	1237.2731	1263.3396	1263.8324	1314.1861	1321.7583	1338.6898	1365.065	1372.5993	1383.0682	1395.5498	1477.4023	1488.6916	1498.9996	1513.3721	1861.5943	3045.828	3046.774	3056.9081	3059.1667	3084.8093	3086.0438	3097.9763	3104.7797	3108.107	3112.7396
O=C1OC2CCC1CC2	O=C1O[C@@H]2CC[C@H]1CC2	
InChI=1S/C7H10O2/c8-7-5-1-3-6(9-7)4-2-5/h5-6H,1-4H2	InChI=1S/C7H10O2/c8-7-5-1-3-6(9-7)4-2-5/h5-6H,1-4H2/t5-,6+
