19
gdb 1306	4.862502	0.6963447	0.6448473	1.5981	78.54	-0.26109	0.04529	0.30638	1731.6571	0.15314	-422.505823	-422.495519	-422.494574	-422.541739	36.771	
C	 6.010563186	 3.7726479336	-0.0773191296	-0.385647
C	 5.2561775055	 2.8486807726	 0.8685304976	 0.086711
O	 6.227078507	 2.1741775515	 1.662875083	-0.426633
C	 4.4157802988	 1.838280469	 0.1117723654	 0.033178
O	 3.1885154226	 2.316786107	-0.4489401941	-0.248215
C	 3.1176439168	 1.3661562979	 0.6132880257	 0.053409
C	 2.574090204	-0.008836667	 0.2603197169	-0.384665
C	 1.11587574	-0.05439206	 0.2527107287	 0.301946
C	-0.0852206575	-0.0734090588	 0.2653924266	-0.438848
H	 6.6011761138	 4.4952267145	 0.4915108971	 0.125029
H	 6.6917906903	 3.1942804513	-0.7095903945	 0.123253
H	 5.3068541891	 4.311710162	-0.7169390686	 0.133778
H	 4.5797813613	 3.4494228892	 1.4972678122	 0.073899
H	 5.7604796618	 1.6212882748	 2.2983326113	 0.282452
H	 4.9868582569	 1.175561389	-0.5425611207	 0.094223
H	 2.7442830215	 1.7781183188	 1.5525800156	 0.100371
H	 2.9661213705	-0.2982927516	-0.7215514655	 0.142371
H	 2.9605251377	-0.7390350603	 0.9844284625	 0.133772
H	-1.1467880263	-0.0942942535	 0.2639442002	 0.199615
44.2117	77.3019	104.2331	136.7873	222.2715	242.9665	299.0941	323.4458	336.701	369.8646	419.5016	441.3859	509.7572	586.6604	623.2372	648.0242	797.3379	885.9919	923.0455	940.928	964.1352	972.654	1027.0884	1079.3092	1109.3393	1131.2795	1147.6945	1182.5285	1241.0921	1264.8396	1285.2977	1306.7447	1325.5169	1380.2613	1398.3835	1427.4997	1452.883	1483.5585	1492.3585	1504.8792	2243.0213	2977.7449	3019.2233	3045.0168	3064.7433	3088.5645	3099.7923	3119.1075	3131.852	3506.6576	3810.9574
CC(O)C1OC1CC#C	C[C@H](O)[C@@H]1O[C@H]1CC#C	
InChI=1S/C7H10O2/c1-3-4-6-7(9-6)5(2)8/h1,5-8H,4H2,2H3	InChI=1S/C7H10O2/c1-3-4-6-7(9-6)5(2)8/h1,5-8H,4H2,2H3/t5-,6-,7-/m0/s1
