19
gdb 2952	2.778142	1.2632883	1.058821	3.862	75.52	-0.23232	-0.02781	0.20451	1203.0194	0.156317	-422.57578	-422.566923	-422.565978	-422.609318	33.169	
C	-4.0037474463	 0.0031557535	-1.7823010662	-0.420657
C	-2.5685616395	-0.0071683766	-1.3043639357	-0.019887
C	-2.1961554271	-0.7319200735	-0.0367677795	-0.061838
C	-0.7649762378	-1.2247102544	 0.0629987403	-0.343253
C	 0.0981227906	 0.0151267407	-0.2259901944	 0.349285
O	 1.2465741865	 0.012484468	-0.5779275955	-0.302255
C	-0.761773083	 1.2860775283	 0.0297974075	 0.038104
O	-0.4655995439	 1.8135953236	 1.3205198677	-0.427572
C	-2.1868905541	 0.7979617874	-0.0846085881	-0.100602
H	-4.6995218409	 0.0307927028	-0.9371168965	 0.11724
H	-4.2077503287	 0.8776808442	-2.4091409999	 0.124764
H	-4.2302835008	-0.8923472473	-2.3707233065	 0.122829
H	-1.831892863	-0.0440408733	-2.1068067715	 0.092161
H	-2.9764522346	-1.2595087438	 0.5004793073	 0.088109
H	-0.5326682233	-1.5806274612	 1.0759956217	 0.12712
H	-0.5038825275	-2.0326903659	-0.6265151423	 0.132509
H	-0.4884963155	 2.0718251817	-0.6793625433	 0.108705
H	-0.8229997915	 1.204963636	 1.977182717	 0.282916
H	-2.9564148795	 1.3829707699	 0.4082057579	 0.092321
63.7351	145.6721	203.5348	218.8699	253.3491	276.8815	294.5253	385.3178	411.6467	463.089	570.4658	656.4985	707.1899	758.9228	795.2709	835.8984	891.1542	955.8806	972.4495	1010.0074	1041.2301	1051.398	1067.8218	1095.1898	1127.6768	1137.9559	1161.4847	1174.7141	1213.9615	1246.0929	1268.1226	1274.4612	1318.717	1330.4341	1415.8448	1418.8027	1446.1714	1456.1648	1492.7865	1502.6103	1855.0235	3025.8247	3030.0478	3086.0651	3089.7722	3092.7892	3095.9363	3110.8864	3163.3327	3172.8106	3797.2938
CC1C2CC(=O)C(O)C12	C[C@@H]1[C@H]2CC(=O)[C@H](O)[C@@H]12	
InChI=1S/C7H10O2/c1-3-4-2-5(8)7(9)6(3)4/h3-4,6-7,9H,2H2,1H3	InChI=1S/C7H10O2/c1-3-4-2-5(8)7(9)6(3)4/h3-4,6-7,9H,2H2,1H3/t3-,4-,6+,7+/m1/s1
