19
gdb 5570	2.624472	1.6011444	1.2036259	2.0557	75.21	-0.22583	0.07732	0.30315000000000003	1094.7015	0.155518	-422.479628	-422.471048	-422.470104	-422.512991	31.844	
C	 1.5509196821	-0.1378939538	-0.1092679657	-0.239134
O	 0.1590874384	-0.3277534541	 0.0160557797	-0.249476
C	-0.4198047294	 0.4290614363	 1.0351507486	 0.13536
C	-0.2235231688	 0.0142368139	 2.5300509788	-0.002824
O	-0.6037291947	-1.3847027137	 2.5555210341	-0.283832
C	-1.9352380013	-0.9340177966	 2.3116951258	 0.059364
C	-1.7066289074	 0.4656621243	 2.7758479895	-0.201908
C	-1.9020608488	 0.2021352323	 1.2748921373	 0.224769
C	-3.0478816314	 0.5590763671	 0.377983441	-0.516316
H	 2.0938744122	-0.4747914008	 0.7856987272	 0.11208
H	 1.8846735894	-0.7306388177	-0.9639511353	 0.128752
H	 1.802555292	 0.9194450949	-0.2905006458	 0.100221
H	-0.2009873213	 1.503090587	 0.9159667006	 0.061721
H	 0.6644280592	 0.2425351612	 3.1151184921	 0.084026
H	-2.7604182462	-1.6229286623	 2.4364755973	 0.109
H	-2.1961871126	 1.1291674569	 3.4744476419	 0.100274
H	-4.0092933862	 0.3492364982	 0.8592463807	 0.119105
H	-3.0347427163	 1.6226088855	 0.1140539608	 0.120424
H	-3.0063762691	-0.0190411286	-0.5510380586	 0.138393
63.702	157.9608	165.9874	201.7385	230.3811	261.9801	292.6696	422.2575	556.8426	568.2515	694.059	755.205	784.8367	809.0198	845.9615	887.82	914.3281	953.2127	971.4221	989.4522	1021.2017	1048.5703	1078.6709	1107.2306	1144.3849	1149.5678	1162.5291	1181.9332	1204.6452	1223.8848	1245.7899	1297.3847	1316.6973	1376.2478	1413.0739	1436.6514	1482.4977	1486.1564	1491.015	1499.2672	1506.8337	2969.79	2978.2023	3026.5024	3026.669	3088.4666	3098.3787	3117.3874	3147.2542	3203.5547	3218.38
COC1C2OC3C2C13C	CO[C@@H]1[C@@H]2O[C@H]3[C@@H]2[C@@]13C	
InChI=1S/C7H10O2/c1-7-3-4(6(7)8-2)9-5(3)7/h3-6H,1-2H3	InChI=1S/C7H10O2/c1-7-3-4(6(7)8-2)9-5(3)7/h3-6H,1-2H3/t3-,4-,5+,6-,7-/m1/s1
