19
gdb 3672	2.9514376	1.5572582	1.3360957	2.0551	74.98	-0.24205	0.07326	0.31531	1017.6166	0.158006	-422.512023	-422.504345	-422.503401	-422.544029	30.474	
O	 0.478083464	 0.2927676145	 1.0375153157	-0.430381
C	-0.8583913166	 0.6201886405	 0.7822731675	 0.005201
C	-1.7929979509	 0.6982129536	 1.9734930042	-0.415531
C	-1.8905730549	-0.4276407125	 0.992508804	 0.417383
C	-3.0503716148	-0.9668066439	 0.1239870902	-0.175957
C	-3.1911703665	-2.0823495172	 1.2110180658	-0.234321
C	-1.6517952901	-1.9196329904	 1.2310629686	 0.015268
O	-1.2445733356	-2.3753386196	-0.0787778831	-0.292855
C	-2.2252015731	-1.7244447736	-0.9294851963	-0.077711
H	 0.7004252212	-0.4472071135	 0.4604680747	 0.295797
H	-1.0100836031	 1.352556645	-0.0125846331	 0.082468
H	-1.3583702697	 0.4869224734	 2.9454945573	 0.125137
H	-2.5532937317	 1.4733057725	 1.9717507907	 0.112833
H	-3.8842040991	-0.35519734	-0.2174376589	 0.076112
H	-3.6715081362	-1.7217451125	 2.1210652838	 0.110085
H	-3.5856808416	-3.0550605337	 0.906753786	 0.097723
H	-0.9897922613	-2.3303751964	 1.9904079265	 0.087599
H	-1.7212660917	-1.0627620766	-1.6430828325	 0.099861
H	-2.800047518	-2.4776484597	-1.4803576312	 0.101287
95.5147	153.1533	215.7556	339.0567	355.5497	420.1348	440.4484	444.2822	553.0815	645.2738	734.2206	820.1428	843.8968	850.523	879.0299	908.1257	931.3499	948.0671	956.4583	988.1405	1022.1488	1042.2576	1052.4573	1080.8866	1097.6207	1111.2686	1129.6337	1160.4588	1183.4422	1192.4811	1230.8665	1243.2674	1256.4288	1281.8215	1325.4438	1349.9894	1374.6865	1428.7937	1481.0413	1496.7987	1525.0071	3026.4513	3067.1136	3070.2059	3083.4273	3122.1569	3131.2271	3143.0674	3150.8392	3210.3218	3790.1951
OC1CC11C2CC1OC2	O[C@@H]1C[C@]21[C@@H]1C[C@H]2OC1	
InChI=1S/C7H10O2/c8-5-2-7(5)4-1-6(7)9-3-4/h4-6,8H,1-3H2	InChI=1S/C7H10O2/c8-5-2-7(5)4-1-6(7)9-3-4/h4-6,8H,1-3H2/t4-,5-,6-,7-/m1/s1
