19
gdb 4639	5.2750583	0.5349708	0.5118229	2.982	82.01	-0.24913	0.03477	0.2839	2159.1659	0.154121	-422.503009	-422.492474	-422.49153	-422.540656	35.953	
C	-0.9126967718	-2.959786609	 2.472018668	-0.420067
C	-0.7512584128	-1.4781012253	 2.2537892469	 0.078744
O	-1.8528635802	-0.7897841043	 1.6444299671	-0.252815
C	-0.6269503097	-0.8795995089	 0.9189022922	 0.074701
C	 0.1201033965	 0.4227818055	 0.6839526891	-0.389523
C	-0.4253411514	 1.1971534493	-0.4263297429	 0.042482
C	-0.8797358469	 1.8175242551	-1.3535416384	 0.073345
C	-1.4959976699	 2.5744203961	-2.4423639336	-0.187278
O	-2.477937099	 3.5022463327	-2.001567478	-0.40335
H	-1.5742015574	-3.1534909077	 3.3227223248	 0.132148
H	-1.3439075425	-3.4372204535	 1.5881171168	 0.12909
H	 0.0554240582	-3.4253607575	 2.6860576407	 0.123004
H	-0.3058650743	-0.929576405	 3.0867486401	 0.088241
H	-0.6689560611	-1.5427743479	 0.0534397676	 0.096259
H	 0.0904962677	 1.0166276956	 1.6053407053	 0.138158
H	 1.1770997507	 0.1944592943	 0.4892550063	 0.133886
H	-0.7394695248	 3.1687735269	-2.9671321097	 0.137632
H	-1.9133015507	 1.8712352946	-3.1814092911	 0.11615
H	-3.0762258306	 3.0278917489	-1.4146367015	 0.289195
22.9935	46.9772	74.1089	130.9877	191.8884	215.2811	247.3878	291.5428	298.6641	357.6825	397.3997	454.8548	530.3128	570.6035	757.2589	778.5244	882.7262	894.1161	986.281	989.5798	1021.2168	1046.0893	1080.8092	1099.8738	1155.15	1168.1346	1173.6951	1216.5203	1244.2393	1283.6804	1318.5939	1356.543	1379.2654	1413.1603	1421.2196	1450.2893	1474.4516	1491.0768	1493.4	1512.417	2364.1827	2971.8828	3016.2499	3037.1287	3058.4788	3059.1576	3083.7992	3102.1376	3102.5466	3124.37	3814.6188
CC1OC1CC#CCO	C[C@@H]1O[C@H]1CC#CCO	
InChI=1S/C7H10O2/c1-6-7(9-6)4-2-3-5-8/h6-8H,4-5H2,1H3	InChI=1S/C7H10O2/c1-6-7(9-6)4-2-3-5-8/h6-8H,4-5H2,1H3/t6-,7-/m0/s1
