19
gdb 1436	3.6484687	1.0062384	0.9712061	2.9497	76.92	-0.24001	-0.03368	0.20633	1300.0399	0.15402	-422.523849	-422.514593	-422.513649	-422.558083	33.77	
C	-0.0104388013	 0.3592310484	 0.1887983561	-0.466251
C	 1.434951295	-0.0266888451	-0.0432063129	 0.28817
C	 1.9985822191	-1.0333815069	 0.946421368	-0.457252
C	 2.0067641247	-0.149449363	-1.4249755041	 0.051278
O	 1.3942452047	 0.7647138273	-2.343139448	-0.296911
C	 1.902975312	 1.8976198992	-1.5919795646	-0.002489
C	 2.9816323382	 2.6187881111	-2.3783754868	 0.146813
O	 3.3308021294	 3.7460009161	-2.1465692489	-0.243401
C	 2.4883195137	 0.9711416106	-0.5206774106	-0.175233
H	-0.1210096583	 0.9401349188	 1.1110764832	 0.118331
H	-0.4088964603	 0.9438063591	-0.6424329257	 0.139424
H	-0.6304823315	-0.5389960041	 0.2852256061	 0.117738
H	 1.4017396973	-1.9518165967	 0.9455955552	 0.123711
H	 3.0322715089	-1.3037474548	 0.7062313528	 0.117634
H	 1.9894610112	-0.6276812459	 1.9639925903	 0.125793
H	 2.4871333789	-1.0291240794	-1.839501162	 0.105581
H	 1.1234083573	 2.6047046646	-1.2889485306	 0.107497
H	 3.4390475539	 1.998602819	-3.1809624734	 0.091383
H	 3.4296118471	 1.1265031018	-0.009970154	 0.108184
53.3131	114.6137	187.0671	190.7413	223.1092	251.2012	284.7143	348.1084	374.0303	459.7279	499.683	556.0318	685.1995	795.9886	829.5886	883.2709	931.4746	958.0797	973.2526	986.9937	1003.9627	1036.8089	1044.0118	1051.2517	1092.8078	1099.5366	1158.1901	1195.4132	1211.7643	1267.5101	1292.8252	1311.7689	1395.8863	1400.5254	1409.6221	1425.7056	1484.218	1490.0877	1504.1235	1513.0514	1834.7482	2893.7071	3027.077	3033.5544	3061.2138	3089.4886	3093.913	3098.9053	3129.7047	3171.5855	3199.3406
CC1(C)C2OC(C=O)C12	CC1(C)[C@H]2O[C@H](C=O)[C@@H]12	
InChI=1S/C7H10O2/c1-7(2)5-4(3-8)9-6(5)7/h3-6H,1-2H3	InChI=1S/C7H10O2/c1-7(2)5-4(3-8)9-6(5)7/h3-6H,1-2H3/t4-,5-,6+/m1/s1
