19
gdb 2930	2.9281057	1.4618222	1.2510961	2.3351	74.79	-0.23491	0.06421	0.29912	1069.9259	0.15647	-422.492398	-422.484145	-422.483201	-422.524666	32.047	
C	-0.5026789018	-0.8138271622	 2.9672254385	-0.512482
C	-1.3721044327	 0.0435600779	 2.094711522	 0.330647
C	-0.8995845518	 0.6758365032	 0.8232236095	 0.038309
O	 0.4948812897	 0.6703462841	 0.6869043951	-0.439182
C	-1.44561759	 1.5836854331	 1.9046471806	-0.190167
C	-2.983348008	 1.5527508333	 1.9923820855	-0.074716
C	-3.7996808963	 1.2941539391	 0.70757904	-0.109609
O	-3.5976899466	-0.1399052162	 0.8257965236	-0.299884
C	-2.9209312063	 0.0191435118	 2.1014675864	 0.04182
H	-0.5842502381	-1.8687414091	 2.6775686822	 0.123121
H	 0.5444970677	-0.5199972091	 2.8683039863	 0.141343
H	-0.7875629685	-0.7354053819	 4.0223663333	 0.111861
H	-1.4450815388	 0.4998412994	-0.1017517752	 0.103428
H	 0.7468720538	 1.4671793286	 0.2094448546	 0.288572
H	-0.8047916514	 2.348109279	 2.3297929323	 0.086576
H	-3.4237382989	 2.1752346234	 2.7697404978	 0.081417
H	-4.8634072078	 1.5477174142	 0.7934559594	 0.101835
H	-3.4075750715	 1.6959325523	-0.2340367147	 0.100013
H	-3.3857845026	-0.5642411309	 2.9008604228	 0.0771
159.7002	179.7927	215.4558	241.421	257.3674	286.5428	322.7602	405.6487	476.6289	555.2253	643.3216	715.6246	795.7677	840.1599	856.7335	879.7786	914.5903	938.7331	960.0207	985.8255	998.3763	1047.8068	1073.9178	1081.4773	1116.2173	1135.6757	1160.7975	1189.385	1205.5136	1234.4291	1245.3993	1276.9911	1280.3586	1311.1267	1348.8315	1367.498	1411.9321	1463.8815	1492.0417	1496.0021	1519.0276	3016.3557	3024.6124	3062.0386	3071.9643	3079.0551	3120.3848	3122.7095	3128.2587	3173.6401	3813.0101
CC12C(O)C1C1COC21	C[C@]12[C@H](O)[C@H]1[C@H]1CO[C@@H]21	
InChI=1S/C7H10O2/c1-7-4(5(7)8)3-2-9-6(3)7/h3-6,8H,2H2,1H3	InChI=1S/C7H10O2/c1-7-4(5(7)8)3-2-9-6(3)7/h3-6,8H,2H2,1H3/t3-,4-,5-,6-,7-/m1/s1
