19
gdb 5698	2.8811762	1.0394371	0.8850159	2.3062	76.51	-0.24828	-0.02766	0.22062	1342.4285	0.154929	-422.543293	-422.534136	-422.533192	-422.577976	33.852	
O	-0.7860993809	-1.4005439886	 0.0221376805	-0.418393
C	-0.1689708972	-0.1232325508	-0.0335653367	-0.074727
C	-0.5172245155	 0.7508164416	 1.1475700322	-0.093519
C	 0.3753899549	 1.9146229936	 1.5186339381	-0.364853
C	 0.3068126683	 0.7092113912	 2.4078250776	 0.343544
C	-0.2345348295	 0.6594216589	 3.8497900363	-0.42553
C	 0.8958073422	-0.3385975396	 4.1693089942	 0.409953
O	 1.2077330691	-0.9516118605	 5.1466188708	-0.282992
C	 1.4647197329	-0.2575204111	 2.7372503874	-0.43028
H	-0.535230627	-1.8124781308	 0.8550451691	 0.282057
H	 0.927008229	-0.207722359	-0.1204501568	 0.084401
H	-0.5289027405	 0.3338565156	-0.9616798912	 0.116296
H	-1.5861836455	 0.8973352886	 1.2857969941	 0.094795
H	 1.2800534712	 2.0622486343	 0.9352624567	 0.115996
H	-0.092185255	 2.8341198127	 1.8555001495	 0.118161
H	-0.1632291107	 1.5916258168	 4.4207107583	 0.133781
H	-1.2420298841	 0.250374364	 3.9807244811	 0.133006
H	 2.4712681894	 0.1722223839	 2.6955672844	 0.135787
H	 1.4863074091	-1.2172488707	 2.2088678243	 0.122515
33.7704	106.5976	140.7973	176.7612	283.5777	308.019	354.28	407.2758	420.9129	454.29	490.6394	552.9737	676.8066	717.4085	781.1016	857.4197	896.7899	899.565	960.8138	995.6153	1033.3483	1056.3528	1065.2485	1067.1807	1083.3933	1101.501	1158.6545	1186.2912	1193.0375	1207.9562	1210.4169	1249.5754	1317.6091	1366.05	1408.3577	1429.1548	1435.7166	1450.588	1492.8523	1504.7358	1899.4713	2967.5153	3039.5156	3045.1872	3067.8973	3088.0357	3093.0461	3119.4024	3136.6381	3204.6568	3818.8885
OCC1CC11CC(=O)C1	OC[C@@H]1CC21CC(=O)C2	
InChI=1S/C7H10O2/c8-4-5-1-7(5)2-6(9)3-7/h5,8H,1-4H2	InChI=1S/C7H10O2/c8-4-5-1-7(5)2-6(9)3-7/h5,8H,1-4H2/t5-/m0/s1
