19
gdb 5102	3.2149628	1.1652132	1.0027227	1.4138	74.87	-0.2218	0.06096	0.28276	1245.4488	0.154785	-422.478173	-422.469361	-422.468416	-422.511528	33.573	
C	 1.4311259832	 1.2319931031	 0.0612519958	-0.380073
C	 1.1371323046	-0.2740365009	 0.1127914483	-0.305274
C	 1.488921813	-0.9658543728	-1.1647968632	 0.431542
O	 2.8808898936	-1.2099876555	-1.457082129	-0.297419
C	 1.9509894779	-2.3110103911	-1.5053701502	-0.084633
C	 1.1891393239	-2.280330266	-2.8602838935	-0.149897
C	 1.5921310285	-1.0867481824	-3.7054821528	 0.0922
O	 0.9129578676	-0.9430757486	-4.920389914	-0.440179
C	 0.7046326954	-0.8701454549	-2.5183244709	-0.159598
H	 1.15651798	 1.7155346279	 1.0030739684	 0.114091
H	 2.4952273101	 1.4107029746	-0.1181727012	 0.134672
H	 0.8689702956	 1.7174477104	-0.7431115783	 0.124023
H	 1.7029729659	-0.7426776977	 0.9255348116	 0.111418
H	 0.0730582414	-0.4419305468	 0.3220401377	 0.105614
H	 2.1776151334	-3.1771786989	-0.8936340834	 0.105604
H	 0.6120627014	-3.0991489631	-3.2681712223	 0.095399
H	 2.6186294576	-0.7333852781	-3.6947817953	 0.113633
H	 1.3623651668	-1.4903648058	-5.5727956642	 0.288324
H	-0.2928500001	-0.4648219235	-2.6247756134	 0.100551
79.574	123.5187	185.1478	243.6745	274.2033	305.4599	326.5787	367.6524	422.8434	470.5141	589.4735	654.489	738.9475	791.0759	803.9304	836.0911	867.8643	894.9696	917.0031	943.0865	968.449	1005.8264	1014.2065	1065.1801	1090.3306	1111.4492	1116.5347	1167.1399	1174.5707	1221.8959	1256.1681	1260.257	1281.5143	1312.2847	1348.8915	1408.4825	1429.0258	1467.313	1483.001	1497.4623	1510.9258	3028.6213	3040.3413	3071.8252	3110.3144	3118.7347	3151.7752	3176.1477	3202.8646	3212.3239	3809.5162
CCC12OC1C1C(O)C21	CC[C@@]12O[C@@H]1[C@@H]1[C@@H](O)[C@H]21	
InChI=1S/C7H10O2/c1-2-7-4-3(5(4)8)6(7)9-7/h3-6,8H,2H2,1H3	InChI=1S/C7H10O2/c1-2-7-4-3(5(4)8)6(7)9-7/h3-6,8H,2H2,1H3/t3-,4+,5+,6+,7-/m0/s1
