19
gdb 1341	2.9855742	1.1014839	0.867842	3.127	76.27	-0.24819	-0.02617	0.22202	1335.6013	0.15539	-422.531504	-422.522402	-422.521458	-422.566089	32.953	
O	-0.3812138749	 0.4449162566	 2.1867086157	-0.443726
C	 0.024317383	 0.3066972678	 0.8349817468	 0.011514
C	-1.0314325478	-0.5595551476	 0.1557864776	 0.157255
O	-1.2027580553	-0.5937052602	-1.0339378802	-0.245151
C	 1.3889487075	-0.3418673921	 0.7050562458	-0.042918
C	 2.5867414101	 0.5806485284	 0.7292688961	-0.076959
C	 3.8820655961	-0.2407529557	 0.7501057241	-0.24322
C	 3.4353385427	-0.9414281401	-0.5774879922	-0.239196
C	 2.1501610883	-0.1042857701	-0.5680725177	-0.044534
H	 0.3713473106	 0.7792162703	 2.684914475	 0.28892
H	 0.036763391	 1.275976456	 0.3110998728	 0.090537
H	-1.623485905	-1.1789599278	 0.8656060182	 0.091221
H	 1.4613544937	-1.313025362	 1.1967752519	 0.084818
H	 2.4903776799	 1.6223911534	 1.0162550159	 0.085826
H	 4.7765103417	 0.370245059	 0.6121461137	 0.109458
H	 4.0299170516	-0.8812448488	 1.6257622018	 0.098231
H	 4.0954634728	-0.6975653707	-1.4121798922	 0.109743
H	 3.2991800963	-2.0270692478	-0.545980431	 0.101544
H	 1.6588013276	 0.3166925213	-1.436281162	 0.106638
61.3186	70.5705	134.3709	183.0737	236.5475	265.769	296.4686	393.4303	421.3878	450.9872	581.489	716.0284	778.7261	812.7073	875.3103	894.9641	941.7931	960.2168	976.4548	1006.1511	1020.252	1041.3743	1069.3564	1084.6451	1109.6021	1123.0592	1145.5434	1187.5247	1224.0841	1238.9202	1246.3377	1260.2184	1280.4857	1289.3034	1340.4594	1364.7386	1410.9977	1428.7734	1482.3984	1502.5072	1839.639	2894.3376	2978.6191	3046.1697	3054.9964	3092.2691	3101.014	3119.1561	3165.0542	3196.3654	3822.8456
OC(C=O)C1C2CCC12	O[C@H](C=O)[C@@H]1[C@H]2CC[C@@H]12	
InChI=1S/C7H10O2/c8-3-6(9)7-4-1-2-5(4)7/h3-7,9H,1-2H2	InChI=1S/C7H10O2/c8-3-6(9)7-4-1-2-5(4)7/h3-7,9H,1-2H2/t4-,5+,6-,7+/m1/s1
