19
gdb 2937	3.9788442	1.3521813	1.1777364	1.6054	74.95	-0.24337	0.07803	0.3214	1065.7925	0.159349	-422.514608	-422.507358	-422.506414	-422.545919	29.121	
O	 0.6490257493	 0.6647113624	 0.066691697	-0.442312
C	-0.6407168302	 0.6908818175	 0.6250475805	 0.140702
C	-1.1368356136	 2.0782663361	 1.0787030473	-0.093368
C	-2.1715680483	 1.3265414136	 1.9692929517	-0.019491
C	-2.7196198689	 2.0684426702	 3.1803145939	-0.108663
O	-1.7127656959	 2.3482369416	 4.1349756164	-0.246441
C	-0.5001830637	 2.7784721544	 3.5389743888	-0.118472
C	-0.1585793924	 1.9754001907	 2.293872812	-0.007209
C	-0.8231991937	 0.5614641435	 2.1677932509	-0.119648
H	 0.940991057	-0.2512234873	 0.0282721073	 0.284519
H	-1.3533635736	 0.1110382705	 0.0213460344	 0.061058
H	-1.3211296135	 2.9509105624	 0.4491565538	 0.069149
H	-2.9602866117	 0.793232869	 1.4271338515	 0.06222
H	-3.2232105177	 2.9963017805	 2.8540438055	 0.085226
H	-3.464558899	 1.4575383103	 3.7013218739	 0.106745
H	-0.5434944392	 3.8545994103	 3.2921389103	 0.085334
H	 0.2701875272	 2.6497424125	 4.3067477858	 0.106828
H	 0.8997036903	 2.0307543403	 2.038554369	 0.085015
H	-0.6483669224	-0.3160229985	 2.7928496	 0.068805
179.3267	231.3036	242.726	262.6002	306.5762	415.9659	449.5647	567.8446	608.4492	756.2962	772.3399	788.3248	828.2889	871.6939	909.9442	917.6912	986.9761	996.7737	1015.7039	1048.3776	1064.5549	1071.3367	1106.2152	1112.8376	1150.0763	1156.158	1178.8606	1199.9088	1215.19	1237.0397	1257.4471	1264.4524	1299.9039	1320.6581	1338.636	1381.4903	1393.48	1425.2567	1446.2229	1500.2102	1509.5413	2941.4953	2948.0584	3001.3265	3044.6515	3062.3929	3065.9744	3094.2916	3098.3018	3117.2255	3822.3154
OC1C2C3COCC2C13	O[C@@H]1[C@H]2[C@@H]3COC[C@H]2[C@H]13	
InChI=1S/C7H10O2/c8-7-5-3-1-9-2-4(5)6(3)7/h3-8H,1-2H2	InChI=1S/C7H10O2/c8-7-5-3-1-9-2-4(5)6(3)7/h3-8H,1-2H2/t3-,4+,5-,6+,7-
