19
gdb 1654	2.8810593	1.207381	1.0630771	2.7472	77.14	-0.25352	-0.03622	0.21730000000000002	1212.489	0.154226	-422.542486	-422.533207	-422.532263	-422.576821	33.667	
C	-0.0999206286	-0.2243278701	-0.0181980179	-0.472041
C	 1.3868734101	-0.0095732166	 0.0886267265	 0.150245
O	 2.1801110854	-0.2135071828	-1.1059447373	-0.311299
C	 2.0830002561	 1.1000107515	-0.6135145485	 0.414861
C	 1.4476012847	 2.2790063743	-1.3598617158	-0.310654
C	 2.4564453605	 3.2131059917	-0.6256734994	-0.214693
C	 3.272116264	 1.9656318535	-0.1722862784	-0.318519
C	 2.0583976987	-0.5542199621	 1.3122459775	 0.125759
O	 1.4725729444	-0.8904460595	 2.310569028	-0.254407
H	-0.6017588516	 0.1970390018	 0.8570865939	 0.141869
H	-0.4980089232	 0.2387658782	-0.9225465575	 0.12807
H	-0.3274761721	-1.2940833383	-0.0449129969	 0.139534
H	 1.6361917686	 2.2091959616	-2.4350701289	 0.122174
H	 0.382734534	 2.4629395997	-1.2011460893	 0.112895
H	 2.9845387895	 3.9386913867	-1.2455159886	 0.110878
H	 1.998590321	 3.7380014916	 0.2152693374	 0.114226
H	 4.1433899494	 1.7777092607	-0.8066367866	 0.121553
H	 3.5834113772	 1.9203892045	 0.8731823317	 0.114407
H	 3.163037692	-0.6309972363	 1.2166975402	 0.085143
69.6372	96.5398	140.2361	160.4552	204.1801	260.9971	279.4876	415.8051	449.2139	455.8933	509.4014	579.1259	707.0767	756.4756	778.1597	829.042	893.2024	918.4933	931.5547	976.7888	997.1033	1030.2616	1077.2275	1112.0506	1128.0917	1144.6562	1203.8893	1235.1373	1244.8634	1258.7578	1275.2087	1286.5909	1392.5423	1409.5136	1454.3224	1466.8271	1479.0686	1480.6871	1493.9342	1510.5321	1820.0723	2904.2042	3052.9894	3060.4737	3064.0383	3078.902	3110.7865	3116.1756	3119.3958	3137.2335	3143.2143
CC1(OC11CCC1)C=O	C[C@]1(OC21CCC2)C=O	
InChI=1S/C7H10O2/c1-6(5-8)7(9-6)3-2-4-7/h5H,2-4H2,1H3	InChI=1S/C7H10O2/c1-6(5-8)7(9-6)3-2-4-7/h5H,2-4H2,1H3/t6-/m0/s1
