19
gdb 1907	2.1621863	1.6792595	1.3551334	3.1842	75.62	-0.23507	-0.02473	0.21034	1063.5981	0.153555	-422.547183	-422.53766	-422.536716	-422.580828	35.194	
C	-3.4567126098	-0.0066888728	-0.6214192411	-0.512571
C	-2.0883868955	 0.0590409675	-0.0246364877	 0.42066
O	-1.9025294676	 0.7878304484	 1.1870092191	-0.282054
C	-1.1182764741	 1.1888011926	 0.0361288265	-0.218989
C	 0.0306259856	 0.1932811752	-0.0018465922	 0.426504
O	 1.2170857497	 0.2781845673	-0.123843825	-0.316641
C	-0.9631602903	-1.0187347759	-0.0452388127	 0.087646
C	-0.8145515382	-1.7315250686	-1.3932721667	-0.444641
C	-0.9288700447	-1.9861217315	 1.1335539323	-0.452832
H	-3.946519882	 0.9682604621	-0.5578698414	 0.140834
H	-3.4111672097	-0.3118934972	-1.6707722774	 0.134697
H	-4.0763732837	-0.7338952695	-0.0851682436	 0.138242
H	-1.1908524393	 2.2225982087	-0.2825173968	 0.118501
H	-1.6033313468	-2.4801967443	-1.5241234612	 0.119601
H	-0.8650445165	-1.03253481	-2.2351535649	 0.118371
H	 0.1519670664	-2.2411142192	-1.4428783249	 0.139869
H	-1.6819140381	-2.7741486939	 1.018109617	 0.113323
H	 0.051530621	-2.469261775	 1.1964455773	 0.130944
H	-1.1136038763	-1.4606068738	 2.0728642536	 0.13854
98.8821	172.0544	189.2566	203.406	218.0055	228.3498	261.3509	276.4592	343.1023	392.8354	501.6819	532.1676	593.1837	675.5959	699.6871	756.9434	812.3329	829.0781	959.5078	961.7923	988.0266	1010.9906	1030.4224	1040.5614	1090.1928	1166.4477	1198.935	1208.1535	1226.1753	1294.7027	1390.882	1396.6535	1413.0718	1439.344	1479.1401	1484.4553	1487.1574	1491.7472	1502.5032	1509.8713	1892.461	3028.8432	3032.4654	3040.1246	3095.0505	3096.5959	3104.5347	3113.0212	3127.3726	3129.7929	3186.3675
CC12OC1C(=O)C2(C)C	C[C@]12O[C@H]1C(=O)C2(C)C	
InChI=1S/C7H10O2/c1-6(2)4(8)5-7(6,3)9-5/h5H,1-3H3	InChI=1S/C7H10O2/c1-6(2)4(8)5-7(6,3)9-5/h5H,1-3H3/t5-,7-/m0/s1
