19
gdb 5927	1.679789	1.1423169	0.7257653	2.3168	78.19	-0.25676	-0.03071	0.22604999999999997	1537.682	0.153111	-422.532616	-422.521985	-422.521041	-422.569138	36.92	
O	-3.8250039053	 2.9623778702	 1.8988513206	-0.417731
C	-2.804631558	 3.1137465025	 0.9257293416	-0.067483
C	-2.2956213037	 1.7690804396	 0.4030019803	-0.212369
C	-1.1905530755	 1.9072200996	-0.669963574	-0.17976
C	-0.5983275112	 0.5362618947	-1.0567034885	-0.304996
C	 0.2865695166	-0.0839371085	-0.0008109745	 0.150279
O	 0.58426818	 0.4348567031	 1.0457233437	-0.237059
C	-1.6786076482	 2.5977394122	-1.8628311448	 0.314678
C	-2.0884142466	 3.1387930713	-2.8553922753	-0.445104
H	-3.4404039145	 2.5170673788	 2.6606573093	 0.281568
H	-3.2515681535	 3.6886525946	 0.10945471	 0.12563
H	-1.9605675754	 3.7049770818	 1.3169545584	 0.089164
H	-1.8823565878	 1.1939737024	 1.2389026353	 0.108251
H	-3.1405795599	 1.2045418723	-0.0074124312	 0.108967
H	-0.3738707245	 2.4968285849	-0.2322963445	 0.123547
H	-1.3902983087	-0.1819127257	-1.3105068767	 0.135124
H	 0.0101316739	 0.6191280049	-1.9682674573	 0.141131
H	 0.6794454494	-1.0907027303	-0.2700074451	 0.089059
H	-2.4459204469	 3.6334096814	-3.7244984174	 0.197103
66.2175	78.3928	92.4915	132.7167	143.4523	187.7881	218.7078	260.7499	317.209	357.1698	404.5334	515.7402	554.4339	631.6385	645.2023	688.8445	713.3403	784.5337	889.2004	912.0831	971.7615	1019.7462	1068.4635	1084.9036	1091.796	1117.6327	1171.6691	1222.3658	1283.9496	1299.9927	1330.1806	1349.4293	1376.7286	1399.8668	1419.0695	1423.508	1442.7923	1482.6559	1513.8421	1825.5086	2233.6784	2876.2547	2972.9844	3019.5652	3023.9585	3038.9064	3052.339	3079.3249	3099.2725	3503.3675	3813.6159
OCCC(CC=O)C#C	OCC[C@@H](CC=O)C#C	
InChI=1S/C7H10O2/c1-2-7(3-5-8)4-6-9/h1,5,7,9H,3-4,6H2	InChI=1S/C7H10O2/c1-2-7(3-5-8)4-6-9/h1,5,7,9H,3-4,6H2/t7-/m1/s1
