19
gdb 5826	4.4453606	0.8556781	0.7958329	2.0472	77.63	-0.25132	0.04435	0.29567	1447.0217	0.15671	-422.530432	-422.521285	-422.520341	-422.564944	33.705	
O	 1.4726790846	 0.7537734616	 0.0099085469	-0.422677
C	 0.1215043705	 0.377121129	 0.1584937231	-0.062109
C	-0.7555516393	 1.0355187649	-0.9034987306	 0.100944
C	-2.2640604012	 0.7719225011	-0.7308664356	-0.27339
C	-2.8950900035	 2.180997214	-0.8697425274	-0.174779
C	-1.7545861446	 3.0615411298	-0.3185626654	-0.091017
O	-0.5714501985	 2.465586342	-0.822217208	-0.281179
C	-4.1693826052	 2.3525967572	-0.193915288	 0.305951
C	-5.2144479906	 2.5000823106	 0.3815234375	-0.445785
H	 1.4652145871	 1.7157334748	-0.0702388408	 0.289129
H	 0.0740760748	-0.7137563983	 0.06318652	 0.107723
H	-0.2669748645	 0.6412998117	 1.1574751557	 0.082218
H	-0.3932564181	 0.7364222582	-1.8939290597	 0.089164
H	-2.656247073	 0.0672533064	-1.4659393186	 0.121529
H	-2.4788812386	 0.3723095106	 0.265576089	 0.118229
H	-3.012212259	 2.412406701	-1.9353769708	 0.113714
H	-1.7949651573	 4.0951828173	-0.6706840087	 0.121527
H	-1.7796696564	 3.0636213706	 0.781495867	 0.102596
H	-6.1417057572	 2.6304039277	 0.8823608442	 0.19821
40.7859	111.9125	141.2417	163.2596	226.1252	291.2127	369.1973	469.7805	472.8872	505.9875	525.0721	544.0265	634.5082	637.875	685.6019	816.4402	876.0687	888.7806	978.7332	998.1317	1052.7182	1057.8558	1073.6231	1081.4379	1111.7497	1130.7062	1196.5081	1231.4055	1246.4644	1272.4094	1302.9482	1326.4682	1340.6302	1361.9032	1391.5169	1400.1022	1437.537	1494.2118	1499.1406	1522.4273	2239.1621	2955.3572	2993.9357	3034.4282	3040.3569	3058.4437	3066.8859	3100.6718	3121.189	3504.3085	3782.7027
OCC1CC(CO1)C#C	OC[C@H]1C[C@H](CO1)C#C	
InChI=1S/C7H10O2/c1-2-6-3-7(4-8)9-5-6/h1,6-8H,3-5H2	InChI=1S/C7H10O2/c1-2-6-3-7(4-8)9-5-6/h1,6-8H,3-5H2/t6-,7-/m1/s1
