19
gdb 4171	2.3737951	1.596048	1.2275394	2.7453	75.97	-0.23776	-0.02863	0.20913	1079.3642	0.15714	-422.547043	-422.538942	-422.537998	-422.579835	30.876	
C	-0.0984716878	-0.1995474337	 0.087367175	-0.429554
C	 1.408976748	-0.010703869	 0.0878228863	 0.15623
O	 2.0418187649	-0.6361107284	-1.0645872901	-0.29966
C	 3.1245580119	-1.366542663	-0.4617087441	 0.081471
C	 3.6706040368	-0.4107983043	 0.6219408203	-0.24327
C	 2.2415693701	-0.6582925433	 1.205379418	-0.101089
C	 2.4270960378	-2.1455970467	 0.6873037852	-0.072718
C	 1.2892182469	-3.0743681267	 0.362903364	 0.115806
O	 0.8951965096	-3.9347248815	 1.1135439635	-0.266736
H	-0.549985088	 0.4205714287	 0.868800556	 0.120254
H	-0.5096414926	 0.1173822245	-0.8757464035	 0.133968
H	-0.40041386	-1.2346597029	 0.2607713486	 0.133685
H	 1.6196742854	 1.0673348265	 0.0498653124	 0.081498
H	 3.7286609526	-1.8352073063	-1.2368278656	 0.089017
H	 4.4671715146	-0.8470532265	 1.2254328717	 0.109315
H	 3.9238794621	 0.6051830806	 0.3103264597	 0.105329
H	 1.9728128	-0.4436729219	 2.238294409	 0.087479
H	 3.1245992539	-2.6656021778	 1.3473123898	 0.10227
H	 0.8460087838	-2.9447099684	-0.6465388062	 0.096707
72.5849	144.7419	195.9914	239.2544	298.0243	309.6704	414.7181	491.3978	529.6933	581.4267	679.5906	797.1377	811.9452	842.0575	852.612	889.2909	914.7188	969.5263	1001.185	1025.3372	1033.8475	1062.9825	1083.143	1112.4272	1118.5333	1141.4712	1154.3586	1183.1501	1227.8153	1237.5767	1284.4645	1292.9107	1335.113	1340.3745	1405.9213	1416.522	1426.2816	1488.7572	1492.8333	1498.9897	1810.4759	2912.4976	2999.2955	3045.4002	3072.1023	3096.7043	3111.3539	3131.8123	3136.9456	3139.3995	3143.953
CC1OC2CC1C2C=O	C[C@@H]1O[C@H]2C[C@@H]1[C@H]2C=O	
InChI=1S/C7H10O2/c1-4-5-2-7(9-4)6(5)3-8/h3-7H,2H2,1H3	InChI=1S/C7H10O2/c1-4-5-2-7(9-4)6(5)3-8/h3-7H,2H2,1H3/t4-,5-,6+,7-/m0/s1
