19
gdb 4726	1.9910867	1.070972	0.7302184	3.0986	81.04	-0.25383	0.03598	0.28981	1573.4388	0.15339	-422.486524	-422.475835	-422.474891	-422.524783	35.677	
C	-2.7729806078	 2.1246981378	 1.2602841002	-0.234922
O	-3.0248766057	 0.7353813926	 1.2433171865	-0.230469
C	-2.5351301255	 0.0782859716	 0.0859678943	-0.089871
C	-1.0667689513	 0.0582620504	 0.0247180124	 0.114665
C	 0.1367396749	 0.0245040416	-0.0116720967	 0.022909
C	 1.5909228787	-0.0160250266	-0.0599944613	-0.499542
C	-3.0932580386	-1.3311120182	 0.1213861157	 0.083052
C	-3.3302020771	-2.0821402628	-1.1127839838	-0.176268
O	-4.4133596231	-1.4995165775	-0.3836521993	-0.231056
H	-3.2106100018	 2.5146548259	 2.1818657604	 0.129179
H	-1.6967193162	 2.3447203702	 1.250042005	 0.114888
H	-3.2418647989	 2.6294544115	 0.4013272083	 0.105423
H	-2.9327747199	 0.5720158275	-0.8173013798	 0.092619
H	 2.0222523565	 0.0855977833	 0.9417410683	 0.153767
H	 1.945458332	-0.9644744974	-0.4781725212	 0.152191
H	 1.993283486	 0.7923183046	-0.6801774957	 0.150864
H	-2.8785280318	-1.8695611743	 1.0436703276	 0.109024
H	-3.1116246979	-1.6201377613	-2.0747909314	 0.115658
H	-3.2821233924	-3.1695546589	-1.0985439295	 0.117889
14.2282	63.8468	80.7139	103.3475	139.6892	177.2183	218.4626	272.4695	313.6877	357.6278	403.6326	466.3071	487.8406	572.5788	817.892	861.1487	880.3435	938.3078	997.4512	1052.49	1054.1478	1085.1214	1117.1029	1146.0186	1156.5196	1160.8596	1176.0502	1185.2536	1223.3297	1284.8098	1293.8152	1346.9194	1413.878	1440.0524	1476.5403	1477.1448	1477.7904	1484.6664	1510.1673	1532.7049	2364.5272	2958.6408	2982.7804	3029.3689	3041.4104	3085.5993	3090.983	3092.2182	3121.6943	3125.8523	3172.5613
COC(C#CC)C1CO1	CO[C@@H](C#CC)[C@@H]1CO1	
InChI=1S/C7H10O2/c1-3-4-6(8-2)7-5-9-7/h6-7H,5H2,1-2H3	InChI=1S/C7H10O2/c1-3-4-6(8-2)7-5-9-7/h6-7H,5H2,1-2H3/t6-,7-/m0/s1
