19
gdb 3411	2.3419611	1.5595347	1.0408688	2.0763	77.01	-0.23597	-0.01426	0.22171000000000002	1175.6515	0.157293	-422.566534	-422.558161	-422.557217	-422.59949	31.66	
C	-2.2151505723	-3.0642403758	 1.2388447304	-0.418575
C	-2.0335047952	-1.6103076755	 0.8708809618	-0.042884
C	-2.2844885247	-1.1041344681	-0.5096947211	 0.076151
O	-2.8623768144	 0.1630581861	-0.6307036515	-0.257748
C	-1.9517360601	 1.2080917669	-0.9396592179	-0.086354
C	-0.8777912525	 1.3257820315	 0.1508736406	-0.319136
C	-0.0695429587	 0.0358305019	 0.2154879802	 0.387868
O	 1.1320712015	 0.0261750279	 0.3716708652	-0.329932
C	-0.8465880299	-1.2133964616	-0.0223232252	-0.173129
H	-1.5479228887	-3.3529924636	 2.0574096608	 0.131121
H	-3.2451187662	-3.2586102071	 1.5565539743	 0.127942
H	-1.998688977	-3.7175300932	 0.3875432051	 0.12108
H	-2.2843186571	-0.8946552334	 1.6487428366	 0.102161
H	-2.6061641526	-1.8047174766	-1.2784009234	 0.100471
H	-1.4820415767	 1.0403963482	-1.9208448336	 0.103039
H	-2.5517477849	 2.1195457466	-1.0038701991	 0.117592
H	-0.1890648614	 2.1544972079	-0.033344375	 0.124546
H	-1.3756241727	 1.5040380849	 1.1121708774	 0.128246
H	-0.2418749564	-2.0373352871	-0.3865021857	 0.107542
89.1359	144.2689	197.6785	224.5661	260.4993	307.7883	396.875	450.3425	468.9957	498.8045	569.0644	733.5425	761.9747	777.0648	861.8426	892.9371	920.6161	950.3654	996.2352	1030.5906	1064.137	1075.2202	1087.5853	1114.3365	1127.9085	1184.2401	1201.7369	1226.8266	1253.187	1273.5081	1309.5446	1332.6023	1355.509	1399.6888	1417.8485	1443.4437	1453.3163	1491.2244	1499.8123	1507.9926	1797.0886	2992.9828	3032.4652	3039.388	3095.5088	3099.3285	3102.4821	3108.3986	3119.6618	3154.9878	3171.2991
CC1C2OCCC(=O)C12	C[C@@H]1[C@H]2OCCC(=O)[C@@H]12	
InChI=1S/C7H10O2/c1-4-6-5(8)2-3-9-7(4)6/h4,6-7H,2-3H2,1H3	InChI=1S/C7H10O2/c1-4-6-5(8)2-3-9-7(4)6/h4,6-7H,2-3H2,1H3/t4-,6+,7+/m0/s1
