19
gdb 3134	2.0315842	1.654881	1.3817522	3.0484	74.57	-0.23902	-0.03044	0.20858000000000002	1071.2765	0.156351	-422.572563	-422.563886	-422.562941	-422.6058	32.487	
C	-3.1797101739	-1.1077377811	 1.0791001562	-0.412622
C	-2.3693233574	-0.826023348	-0.1917362052	-0.035166
C	-2.1982380301	 0.6742502634	-0.4035082292	 0.055983
O	-1.3264337294	 0.9979674256	-1.4803651111	-0.252807
C	-0.8095188426	 1.0910706446	-0.1343488454	-0.090923
C	-0.0328611521	-0.1514026492	 0.2174266671	 0.415753
O	 1.065800083	-0.182423495	 0.7104918829	-0.327544
C	-0.9131617203	-1.3720411843	-0.1130827282	-0.105686
C	-0.4201757703	-2.0762046997	-1.3879504584	-0.413762
H	-3.2970489965	-2.1842701899	 1.2342075848	 0.125931
H	-2.6839996239	-0.6953227192	 1.9654389992	 0.123353
H	-4.1803101449	-0.6664806928	 1.0201106901	 0.119082
H	-2.8927977575	-1.2542840483	-1.0543216223	 0.088458
H	-3.034077724	 1.3549622736	-0.2551797743	 0.103326
H	-0.4987218409	 2.07497082	 0.201173662	 0.114419
H	-0.8145310534	-2.0668265313	 0.7275947739	 0.101409
H	 0.6283240797	-2.3684195376	-1.2802985559	 0.133624
H	-1.0089213243	-2.9791795069	-1.5788676335	 0.115406
H	-0.510159401	-1.415280784	-2.2533859029	 0.141766
66.665	169.5491	209.7207	232.4929	242.4802	249.413	294.9861	404.0731	464.3949	489.3414	597.1288	644.8204	732.7388	808.7199	813.0541	863.6406	875.371	924.9465	982.9884	1020.4758	1035.8529	1052.2704	1068.6941	1107.3838	1146.4533	1163.889	1192.4949	1235.7929	1252.0155	1306.1293	1308.0245	1332.0331	1360.2488	1396.4382	1408.0509	1421.1262	1494.2313	1498.1296	1499.6265	1509.1333	1840.985	3029.6854	3038.5265	3042.4759	3054.5853	3096.5918	3108.4178	3110.3107	3131.5961	3138.613	3180.213
CC1C2OC2C(=O)C1C	C[C@H]1[C@@H]2O[C@@H]2C(=O)[C@@H]1C	
InChI=1S/C7H10O2/c1-3-4(2)6-7(9-6)5(3)8/h3-4,6-7H,1-2H3	InChI=1S/C7H10O2/c1-3-4(2)6-7(9-6)5(3)8/h3-4,6-7H,1-2H3/t3-,4-,6+,7-/m1/s1
