19
gdb 2375	2.7767406	1.4828255	1.1756675	2.3077	75.63	-0.22457	0.05967	0.28424	1100.1453	0.15626	-422.490222	-422.481775	-422.480831	-422.523246	31.964	
O	-2.0242978583	-1.0249630076	 1.1665542624	-0.447946
C	-0.8689058619	-1.2210093311	 0.4380283732	 0.214308
C	-0.1594823049	-2.5653076013	 0.2742516772	-0.143445
O	 0.1446349746	-2.2641410559	-1.1169770813	-0.286617
C	-0.598621669	-1.0441363787	-1.0401645512	-0.041495
C	 0.0271685924	-0.1090753055	-0.0445805381	 0.285231
C	-0.337204646	 1.3809536654	 0.0129137033	-0.302636
C	 1.1823184098	 1.6959797538	-0.1371998994	-0.206768
C	 1.5174098601	 0.1988997723	 0.1425955493	-0.30311
H	-1.7999364797	-0.5514248723	 1.9753492997	 0.290505
H	 0.742632031	-2.7558106735	 0.8676280434	 0.10163
H	-0.8470334841	-3.4156298657	 0.3445844053	 0.114435
H	-1.2062422256	-0.751988985	-1.8895989794	 0.10818
H	-1.0075355431	 1.7622642161	-0.7620300934	 0.106795
H	-0.7383097787	 1.6841521047	 0.9864781693	 0.090079
H	 1.4423873711	 1.9946034864	-1.1551664939	 0.110071
H	 1.5973076455	 2.4298622518	 0.5565176337	 0.099621
H	 2.1979204514	-0.299590756	-0.5508082502	 0.116198
H	 1.8706088254	 0.0264692121	 1.1647958501	 0.094964
80.4648	157.0616	166.7845	206.65	257.6322	292.3661	356.8387	427.1862	536.6574	549.5648	683.6415	711.4427	755.969	805.5355	862.7819	919.6637	934.8583	940.1955	966.4152	997.8492	1016.3784	1028.357	1062.2071	1079.2624	1133.8494	1144.2339	1150.1605	1200.5655	1211.2178	1235.6811	1250.4196	1262.8356	1277.3173	1280.0739	1320.0937	1353.3367	1468.826	1478.6041	1482.9108	1504.9841	1511.6402	3023.6103	3037.3089	3046.3389	3069.8172	3078.9383	3088.9079	3106.5159	3126.3215	3176.0969	3789.8872
OC12COC1C21CCC1	O[C@@]12CO[C@@H]1C12CCC1	
InChI=1S/C7H10O2/c8-7-4-9-5(7)6(7)2-1-3-6/h5,8H,1-4H2	InChI=1S/C7H10O2/c8-7-4-9-5(7)6(7)2-1-3-6/h5,8H,1-4H2/t5-,7+/m1/s1
