19
gdb 4951	2.1143804	1.7495282	1.0969903	2.7507	77.29	-0.22826	-0.01123	0.21703	1145.3945	0.154767	-422.532166	-422.522759	-422.521815	-422.566392	33.927	
C	 1.5111636168	 0.0680188088	 0.0363022457	-0.268115
O	 0.0847074729	 0.0162958175	-0.0039440381	-0.281948
C	-0.5060797917	 0.6308469237	 1.0689214372	 0.327591
C	-0.8689829916	 2.1293706336	 1.0569439773	-0.082966
C	-0.7287730758	 2.8343186901	-0.2761429375	-0.425864
C	-1.96379762	 1.125045934	 1.2282328253	-0.156998
C	-1.9963924892	 0.6618384388	 2.6927350404	-0.364666
C	-0.5629607616	 0.1001587666	 2.4726779718	 0.351105
O	 0.1327779054	-0.6486639825	 3.1008466836	-0.327418
H	 1.8935417091	-0.4296808653	 0.9337377887	 0.147649
H	 1.8663423555	-0.45582668	-0.8531195984	 0.130527
H	 1.8728865883	 1.1044760102	 0.015228588	 0.11248
H	-0.6053200948	 2.7363922906	 1.9219960827	 0.08908
H	-0.9190719012	 2.1499602439	-1.1062186591	 0.136639
H	-1.4370049745	 3.6665458981	-0.3441905527	 0.123413
H	 0.2785803019	 3.2428493439	-0.4037148617	 0.123869
H	-2.7646920418	 1.0002312128	 0.511261094	 0.112098
H	-2.1241189793	 1.4404523681	 3.4505534198	 0.11922
H	-2.6893559083	-0.159969463	 2.8946728532	 0.134303
79.0829	104.0258	160.6594	173.3652	199.6893	241.7587	270.9789	298.0005	376.9618	474.2095	529.765	576.1889	652.0622	710.8111	799.7711	839.2115	925.0723	958.5149	991.4303	1008.4671	1017.4759	1034.3134	1053.3019	1100.2247	1138.553	1161.8944	1179.69	1201.3619	1214.0444	1243.2917	1268.3209	1354.5665	1405.9359	1416.5717	1459.9147	1483.8166	1486.9679	1492.6992	1501.3973	1510.3598	1869.7487	3010.9943	3039.9601	3054.8827	3084.9761	3099.8043	3104.6192	3111.5387	3129.4605	3134.5321	3206.1919
COC12C(C)C1CC2=O	CO[C@@]12[C@@H](C)[C@@H]1CC2=O	
InChI=1S/C7H10O2/c1-4-5-3-6(8)7(4,5)9-2/h4-5H,3H2,1-2H3	InChI=1S/C7H10O2/c1-4-5-3-6(8)7(4,5)9-2/h4-5H,3H2,1-2H3/t4-,5-,7-/m0/s1
