19
gdb 1600	2.3665181	1.8478174	1.3627149	1.5164	74.53	-0.24695	-0.03145	0.2155	1003.9378	0.156781	-422.550715	-422.542532	-422.541588	-422.583268	31.317	
C	-0.0293683606	-0.0399427598	 0.0379805878	-0.475
C	 1.4152445242	 0.3114297248	 0.4068444845	 0.241307
C	 1.9824731728	-0.7962720597	 1.2570409526	 0.082692
O	 2.3265469153	-0.6967828773	 2.4087518935	-0.254783
C	 1.6421839231	 1.8053013581	 0.778522831	 0.037919
C	 3.1536686174	 1.9325986558	 1.0450318738	-0.226078
C	 3.6439592034	 1.1377705594	-0.2103380293	-0.235875
C	 2.2543870712	 0.8373044014	-0.8086371255	 0.03514
O	 1.5744233688	 2.1161134831	-0.6549705937	-0.303285
H	-0.6594752461	-0.0907264039	 0.9321163759	 0.129242
H	-0.4334812489	 0.7202511623	-0.6326032827	 0.15082
H	-0.0832161816	-1.0127963641	-0.4635819812	 0.119289
H	 2.0394120078	-1.7796063823	 0.7304708537	 0.075944
H	 0.9383497961	 2.3705070515	 1.3887006811	 0.084428
H	 3.4586695713	 2.9801583968	 1.0180960866	 0.107553
H	 3.4570651762	 1.4894953476	 1.9931152014	 0.131463
H	 4.2427453571	 1.7445870174	-0.8918872513	 0.111444
H	 4.2092992101	 0.2345659861	 0.0376757951	 0.106556
H	 2.1763219625	 0.4053555228	-1.8070773033	 0.081226
81.1	175.2032	220.2131	232.1269	279.8059	320.0069	335.2412	432.8232	509.1581	599.4812	664.9817	771.8991	830.3924	851.8258	865.578	888.247	918.5771	929.0911	951.852	967.5381	999.5272	1015.1926	1032.1678	1084.2642	1157.1868	1176.0632	1195.5065	1231.3549	1243.9821	1251.9667	1267.2013	1302.2928	1319.2147	1339.3639	1397.2959	1427.1921	1481.7748	1492.6859	1501.8063	1504.7855	1818.4762	2840.2033	3034.0901	3063.2694	3087.5102	3094.6602	3114.8668	3119.3264	3131.1075	3138.5798	3150.2987
CC1(C=O)C2CCC1O2	C[C@]1(C=O)[C@H]2CC[C@@H]1O2	
InChI=1S/C7H10O2/c1-7(4-8)5-2-3-6(7)9-5/h4-6H,2-3H2,1H3	InChI=1S/C7H10O2/c1-7(4-8)5-2-3-6(7)9-5/h4-6H,2-3H2,1H3/t5-,6+,7+
