19
gdb 3565	2.5889532	1.463692	1.1131328	4.4206	75.12	-0.25996	0.01751	0.27747000000000005	1138.1884	0.15704	-422.596268	-422.587869	-422.586925	-422.629282	31.998	
C	-2.905035467	-1.5940301464	-0.5787521794	-0.391869
C	-1.8758728556	-0.7672997545	-1.3421559675	 0.040999
O	-0.550938024	-1.1058817806	-0.8684762869	-0.227671
C	-0.0350001471	-0.131466017	-0.0695401735	 0.434047
O	 1.0332255827	-0.2353159657	 0.457954696	-0.33696
C	-1.02748254	 1.0252613806	 0.0146097604	-0.460029
C	-1.9737012747	 0.7459133957	-1.1347772899	 0.3533
C	-3.2325981012	 1.5193856365	-1.3951926566	-0.328036
C	-2.0464497452	 1.6769741424	-2.3178929132	-0.315844
H	-2.9137610746	-1.3297548112	 0.4833140197	 0.123598
H	-3.9075543953	-1.4248237473	-0.9824458836	 0.121564
H	-2.6717254429	-2.6583631746	-0.6661695625	 0.135292
H	-1.8989749392	-1.0297577741	-2.4044696748	 0.097054
H	-1.5198840076	 0.9814202851	 0.9940153706	 0.137693
H	-0.501152052	 1.9793371606	-0.0454464448	 0.139392
H	-4.0994764667	 0.9845129039	-1.7696180814	 0.117731
H	-3.4756518298	 2.3367603435	-0.7243750069	 0.120436
H	-2.1129201836	 1.2403438156	-3.3093121951	 0.119079
H	-1.4803883763	 2.6016381375	-2.2745831905	 0.120222
83.1115	113.5463	216.758	239.3243	275.0628	303.3054	375.3525	483.5739	511.0847	520.0709	571.1062	684.1847	759.2987	784.4229	829.6995	863.5792	923.6376	930.7652	969.1506	988.6829	1017.2909	1054.996	1061.2076	1086.2044	1095.2844	1132.6723	1163.0082	1181.2792	1189.3204	1256.6955	1302.8517	1319.3912	1373.5389	1401.0936	1409.2497	1464.3241	1469.0778	1487.0673	1492.9519	1507.0497	1884.0833	3040.168	3043.991	3058.1367	3116.9294	3118.3726	3124.6639	3125.5699	3129.7488	3203.8667	3218.3147
CC1OC(=O)CC11CC1	C[C@@H]1OC(=O)CC21CC2	
InChI=1S/C7H10O2/c1-5-7(2-3-7)4-6(8)9-5/h5H,2-4H2,1H3	InChI=1S/C7H10O2/c1-5-7(2-3-7)4-6(8)9-5/h5H,2-4H2,1H3/t5-/m0/s1
