19
gdb 4783	2.1144525	1.0786742	1.0146603	3.0571	79.08	-0.25466	-0.06056	0.1941	1336.4419	0.152441	-422.522379	-422.511602	-422.510658	-422.559275	37.173	
C	 1.1570846095	-0.2685899448	-0.5285262689	-0.252501
O	-0.1689079068	 0.1344266914	-0.2588820394	-0.243281
C	-0.397866413	 0.6841541791	 1.0253213537	 0.112694
C	-1.8993384805	 0.5724079202	 1.2772586787	-0.391778
C	 0.0657616506	 2.1594368983	 1.1241940362	-0.298457
C	 1.5590519865	 2.3914396578	 1.2582487588	 0.242744
O	 2.1974656154	 3.0941426008	 0.5041789746	-0.286368
C	 2.1995178528	 1.7415094828	 2.3964712009	 0.285865
C	 2.7248326614	 1.2143449373	 3.3430372802	-0.460517
H	 1.5482007109	-0.9297697768	 0.2596061858	 0.106658
H	 1.134685251	-0.8208605142	-1.4714784425	 0.12876
H	 1.8421196906	 0.5817516275	-0.6434174626	 0.132579
H	 0.1426618044	 0.0928426364	 1.7822614645	 0.079509
H	-2.1542986872	 0.9180125878	 2.2831710052	 0.114049
H	-2.4539304238	 1.1741893745	 0.5505032374	 0.128641
H	-2.2166474505	-0.4676891387	 1.1710112368	 0.125613
H	-0.2840407439	 2.7137304363	 0.2491639312	 0.131941
H	-0.3969742634	 2.5936693338	 2.0203594681	 0.125326
H	 3.2043164262	 0.7558802006	 4.1738750312	 0.218523
35.2713	62.2421	96.5994	122.0153	195.8561	203.2001	222.9807	246.5123	315.1303	325.3658	409.2044	455.376	499.7521	600.4687	651.0407	678.1852	712.237	757.7143	842.2065	913.6824	922.3728	1052.7664	1086.3687	1127.6728	1150.6681	1171.3733	1181.5708	1226.1126	1256.2396	1289.0853	1369.1136	1384.6351	1409.5404	1443.0923	1477.8464	1483.9874	1495.5522	1502.2095	1511.1471	1762.2257	2207.3069	2975.9683	2988.3103	3029.0694	3044.4752	3051.7726	3108.926	3111.628	3118.2016	3127.8005	3493.1658
COC(C)CC(=O)C#C	CO[C@H](C)CC(=O)C#C	
InChI=1S/C7H10O2/c1-4-7(8)5-6(2)9-3/h1,6H,5H2,2-3H3	InChI=1S/C7H10O2/c1-4-7(8)5-6(2)9-3/h1,6H,5H2,2-3H3/t6-/m1/s1
