19
gdb 2110	3.5217948	1.5039811	1.4310364	1.6517	73.48	-0.23275	0.08796	0.32071	1005.8199	0.157162	-422.565406	-422.557646	-422.556701	-422.597025	31.022	
C	 4.6159572288	-0.167342082	 2.1194374957	-0.501552
C	 3.3681629771	 0.1979222494	 1.366940528	 0.223621
C	 2.1427009658	-0.696756286	 1.2385452653	-0.310029
C	 1.3309437353	 0.3025600527	 0.3778814214	 0.443374
C	-0.053038292	-0.0165123947	-0.1039992606	-0.487816
O	 1.3699800374	 1.4946503332	 1.1721055927	-0.280453
C	 2.7709706169	 1.6036866346	 1.3166761656	-0.002453
C	 3.3489051327	 0.9922727774	 0.0615724334	-0.002439
O	 2.2322666336	 0.5823734314	-0.7004297065	-0.280463
H	 4.403546644	-0.3532740056	 3.1784187237	 0.123155
H	 5.0809005097	-1.0701525578	 1.7072589902	 0.123157
H	 5.3587445609	 0.6362699289	 2.0698411435	 0.117994
H	 2.3405450585	-1.6291878873	 0.7039757846	 0.106221
H	 1.6543305415	-0.9031455211	 2.1941780873	 0.106222
H	-0.7142350128	-0.1932338893	 0.7473086096	 0.132663
H	-0.4428241585	 0.8191017708	-0.689388078	 0.141882
H	-0.0341150321	-0.9111802552	-0.7303733821	 0.132693
H	 3.1199215171	 2.4776490225	 1.8479231883	 0.107111
H	 4.2038536061	 1.3309440481	-0.506024182	 0.10711
171.0933	207.6799	211.9074	228.3618	325.4544	333.9446	450.1275	547.7098	562.2283	611.2674	669.399	717.9479	744.7225	805.281	824.4348	884.5858	890.1594	897.572	954.3167	974.8905	1030.1889	1041.8978	1049.6908	1071.8635	1076.1359	1141.9676	1144.39	1190.5288	1191.0395	1247.984	1278.7349	1294.0707	1357.7977	1408.1188	1421.1529	1436.5531	1478.99	1480.6308	1488.2798	1491.0005	1501.2894	3022.7377	3060.073	3065.749	3084.3543	3089.7174	3122.072	3140.0584	3140.935	3219.1418	3227.9231
CC12CC3(C)OC1C2O3	C[C@@]12C[C@@]3(C)O[C@@H]1[C@@H]2O3	
InChI=1S/C7H10O2/c1-6-3-7(2)8-4(6)5(6)9-7/h4-5H,3H2,1-2H3	InChI=1S/C7H10O2/c1-6-3-7(2)8-4(6)5(6)9-7/h4-5H,3H2,1-2H3/t4-,5+,6-,7+
