19
gdb 3137	1.9086838	1.8969786	1.2293947	2.5162	74.21	-0.24444	-0.02266	0.22177999999999998	1094.562	0.156102	-422.577002	-422.568205	-422.567261	-422.610758	32.58	
C	-0.5895755365	 2.1329582122	 1.274477713	-0.410512
C	-0.7928940024	 1.2825601433	 0.0122934967	-0.128769
C	-2.1828449811	 0.7013001503	-0.1345600494	 0.031295
O	-2.3580377264	-0.0330132374	-1.3512407352	-0.266509
C	-2.1331628592	-0.7740239306	-0.1468509182	 0.031295
C	-0.7071766651	-1.2628260888	-0.0089061233	-0.12877
C	-0.4464069345	-2.1185003612	 1.2390707948	-0.410512
C	 0.1247994556	 0.0391068276	 0.0282030529	 0.392679
O	 1.323753368	 0.0786992487	 0.1222646249	-0.321309
H	-0.8929826181	 1.5901248289	 2.1761781618	 0.120062
H	 0.4658522099	 2.3955584925	 1.3770280917	 0.146291
H	-1.1760671219	 3.0549902068	 1.2226484283	 0.122234
H	-0.5353637872	 1.8785213028	-0.8710910617	 0.1182
H	-3.0531156586	 1.2563285881	 0.208019892	 0.098768
H	-2.9639329577	-1.391962393	 0.1859584199	 0.098768
H	-0.410633197	-1.8253345425	-0.9019377395	 0.1182
H	-0.9695749096	-3.0769063421	 1.171580911	 0.122234
H	 0.6243521338	-2.3111781032	 1.3378311257	 0.146291
H	-0.7851384622	-1.6123821525	 2.1495063444	 0.120063
41.2783	174.4634	202.413	218.7432	224.9396	254.5288	260.9786	423.1508	461.171	512.8168	596.5595	647.5651	690.0831	775.6044	846.4191	861.4549	909.5585	921.3161	977.0826	1026.8513	1037.1097	1056.5491	1071.2839	1122.6969	1144.4256	1149.3009	1159.9274	1248.8714	1267.6791	1280.8765	1287.1371	1323.3045	1355.3048	1402.067	1406.3683	1429.9291	1495.9949	1500.081	1500.4518	1502.1064	1840.3613	3037.7598	3039.0045	3046.862	3047.9359	3104.9212	3106.5189	3129.9104	3130.3535	3135.9913	3147.8333
CC1C2OC2C(C)C1=O	C[C@@H]1[C@H]2O[C@H]2[C@H](C)C1=O	
InChI=1S/C7H10O2/c1-3-5(8)4(2)7-6(3)9-7/h3-4,6-7H,1-2H3	InChI=1S/C7H10O2/c1-3-5(8)4(2)7-6(3)9-7/h3-4,6-7H,1-2H3/t3-,4+,6+,7-
