19
gdb 2486	2.2169777	1.9391536	1.457371	2.6399	74.66	-0.24467	0.01684	0.26151	981.8873	0.158582	-422.578916	-422.571148	-422.570204	-422.611135	30.632	
O	 0.4196398667	 0.58945871	-0.1048600026	-0.481789
C	-0.5351037354	 0.9752682383	 0.8761203347	 0.371487
C	-1.090911068	-0.2285957649	 1.6750868853	-0.291267
C	-2.5960338641	 0.0548807556	 1.7312748375	-0.088628
O	-2.8953225726	 0.6389403039	 0.4707398657	-0.260702
C	-1.8092716625	 1.5102930415	 0.1423287019	 0.045363
C	-1.9929692539	 2.9077210303	 0.6744564551	-0.090921
C	-1.0457694658	 3.2486839303	 1.5454793948	-0.066232
C	-0.0262100386	 2.1582994477	 1.7539422856	-0.32461
H	 1.1884326723	 0.2329569932	 0.3524753599	 0.276073
H	-0.9085703347	-1.1327736805	 1.0869885017	 0.112215
H	-0.6356027125	-0.3494677719	 2.6617635473	 0.092689
H	-3.2114373643	-0.8418932988	 1.8396868371	 0.110044
H	-2.8391879476	 0.7426755261	 2.556785461	 0.092047
H	-1.6902142496	 1.474554499	-0.9446864363	 0.096394
H	-2.8258822241	 3.5289083022	 0.3657043117	 0.099672
H	-0.9799620652	 4.2041165396	 2.0563498148	 0.097228
H	 0.9670300576	 2.4666806996	 1.4040090454	 0.110712
H	 0.0798999924	 1.892198709	 2.8131944095	 0.100226
64.1455	181.8799	277.489	283.185	322.351	398.3832	422.1386	489.1539	575.3061	606.159	643.2899	726.686	771.2162	830.9999	885.076	926.7324	948.218	963.3935	972.3923	982.4457	1008.6716	1017.7904	1048.7642	1090.9052	1113.4668	1128.0122	1160.8103	1218.5638	1227.3572	1246.3716	1278.7978	1298.7408	1311.8893	1340.5471	1364.6014	1389.6318	1393.5531	1471.9546	1485.9923	1515.6397	1690.2285	2978.995	3018.2743	3050.046	3055.5091	3068.0138	3093.2686	3109.9841	3176.9266	3208.3181	3808.4081
OC12CCOC1C=CC2	O[C@]12CCO[C@H]1C=CC2	
InChI=1S/C7H10O2/c8-7-3-1-2-6(7)9-5-4-7/h1-2,6,8H,3-5H2	InChI=1S/C7H10O2/c8-7-3-1-2-6(7)9-5-4-7/h1-2,6,8H,3-5H2/t6-,7+/m0/s1
