19
gdb 2656	2.4907763	1.4646525	1.0977743	2.6118	79.41	-0.21302	0.00889	0.22191	1162.7572	0.155803	-422.538868	-422.53002	-422.529076	-422.572169	33.268	
C	 0.7578787761	 1.0897200093	 0.0057399503	-0.417216
C	 0.9232367578	-0.4112858181	 0.0859201284	-0.120969
C	 1.9772791633	-1.0450608578	 0.9751631516	 0.05035
O	 1.7186403319	-2.2334066055	 1.6506636438	-0.437769
C	 2.1124190277	-1.1195161949	-0.5338156737	 0.366834
O	 1.8638008809	-2.4189211284	-1.0590952279	-0.325783
C	 2.7923750575	-2.6879755452	-2.1176863698	-0.13284
C	 3.5954779964	-1.4241581573	-2.2579591142	-0.112025
C	 3.1938244022	-0.5373899826	-1.35032711	-0.165717
H	 0.0722029609	 1.445934457	 0.7820470508	 0.125231
H	 1.7114429552	 1.6080183139	 0.1528692505	 0.112505
H	 0.3597964179	 1.4012612665	-0.9661270187	 0.12196
H	 0.0087896017	-0.9956584849	 0.0142269439	 0.100054
H	 2.6405611739	-0.3817364645	 1.5268200022	 0.092662
H	 1.7320829047	-2.9285827274	 0.9770470243	 0.292959
H	 3.4144979512	-3.5579007153	-1.8566813681	 0.111526
H	 2.2337814717	-2.9465554044	-3.0294265115	 0.11407
H	 4.380841066	-1.2991275008	-2.9914900561	 0.109725
H	 3.5839277829	 0.4592165606	-1.1962140457	 0.114443
92.9663	148.0389	190.3446	202.155	231.8862	253.8409	316.6583	409.3039	422.7566	496.3956	550.9611	629.371	723.2641	780.3353	835.8886	844.0765	876.3731	942.3876	947.3614	967.2101	1019.4649	1026.4091	1043.5116	1080.6608	1115.7763	1118.1025	1129.1737	1161.2668	1197.3278	1203.8632	1267.7814	1308.0097	1372.2872	1377.2154	1398.6012	1415.1608	1462.806	1493.2239	1502.5777	1519.0415	1674.1781	2981.7978	3004.3375	3027.6105	3091.6623	3093.2857	3125.372	3144.6548	3217.1576	3240.8741	3728.3288
CC1C(O)C11OCC=C1	C[C@@H]1[C@@H](O)[C@]21OCC=C2	
InChI=1S/C7H10O2/c1-5-6(8)7(5)3-2-4-9-7/h2-3,5-6,8H,4H2,1H3	InChI=1S/C7H10O2/c1-5-6(8)7(5)3-2-4-9-7/h2-3,5-6,8H,4H2,1H3/t5-,6-,7+/m1/s1
