19
gdb 765	2.5143049	1.7149447	1.153686	4.36	75.77	-0.2586	0.01444	0.27304	1085.0683	0.158805	-422.591628	-422.583668	-422.582724	-422.62429	30.605	
O	 0.781514619	 0.0867232824	-0.9690487571	-0.34877
C	-0.1445287986	 0.0515683256	-0.1984259832	 0.393472
O	-0.5024880762	 1.1987007309	 0.4287338668	-0.236688
C	-1.5267548395	 1.2495709955	 1.4355561622	-0.056901
C	-2.6251976359	 0.2192779007	 1.2309052329	-0.231761
C	-1.9819660419	-1.1651592705	 1.1657873799	-0.298599
C	-0.9532501816	-1.1912316776	 0.0482636076	 0.174657
C	-1.2657926999	-1.960479006	-1.2359623349	-0.280868
C	-0.2457023231	-2.490144495	-0.2824947718	-0.295299
H	-1.0497984341	 1.1066155601	 2.4145698386	 0.112872
H	-1.9116655614	 2.2719164967	 1.3969586746	 0.122214
H	-3.3403352103	 0.2926238104	 2.0569563996	 0.107156
H	-3.1683602012	 0.4327176369	 0.3027358238	 0.115678
H	-1.4986852673	-1.3813704135	 2.1285269802	 0.106057
H	-2.7294705501	-1.9494226192	 1.0083606442	 0.10241
H	-2.2362053559	-2.4428712411	-1.2863929673	 0.114147
H	-0.9089297649	-1.5265732726	-2.1618271967	 0.142217
H	-0.5038125388	-3.3482061418	 0.3292736838	 0.11296
H	 0.7956656616	-2.410587162	-0.5685764931	 0.145044
66.0035	126.9902	262.5763	278.1873	284.9213	383.3912	403.6663	455.3136	544.781	593.8816	670.6428	750.5021	791.2414	832.9966	877.8455	898.3558	916.9195	950.6449	971.6867	1000.1025	1030.6027	1065.6518	1094.6688	1096.25	1129.331	1164.6007	1203.2649	1211.6567	1227.689	1291.7018	1312.6418	1339.9969	1377.7242	1386.0659	1430.2391	1450.8454	1479.4348	1484.5884	1497.1233	1518.0527	1815.8928	3012.7287	3018.7005	3038.7073	3070.0997	3086.5256	3095.4745	3136.7289	3139.4778	3230.1732	3243.0579
O=C1OCCCC11CC1	O=C1OCCCC21CC2	
InChI=1S/C7H10O2/c8-6-7(3-4-7)2-1-5-9-6/h1-5H2	InChI=1S/C7H10O2/c8-6-7(3-4-7)2-1-5-9-6/h1-5H2
