19
gdb 4440	2.2549838	1.3702872	0.955179	1.3026	77.36	-0.24724	-0.0933	0.15394	1317.5894	0.154858	-422.567794	-422.558257	-422.557312	-422.60316	33.572	
C	-1.6024664397	 3.9695160849	 1.0046538351	-0.409274
C	-0.8292486736	 3.5265552779	-0.2246316623	 0.034789
C	-1.2912923231	 3.9983135025	-1.6317658061	-0.229601
C	-1.021530166	 2.574451523	-2.1825864891	-0.252493
C	-1.0115789707	 2.0386847417	-0.7319231099	-0.085767
C	 0.0750615266	 1.0877280926	-0.3353090864	 0.266865
O	 1.0612913669	 0.8399741667	-0.9947254791	-0.288392
C	-0.0393973959	 0.4152400052	 1.0417965249	 0.091637
O	-0.9429882941	 0.6126096865	 1.8117248843	-0.220658
H	-1.2851516218	 3.4201041548	 1.8961341873	 0.133505
H	-1.4554722674	 5.0390893881	 1.1919524123	 0.116865
H	-2.6763915275	 3.7965249022	 0.8739650827	 0.115977
H	 0.2399504121	 3.7309448966	-0.0981625664	 0.084678
H	-2.3584686768	 4.2416778362	-1.6330883169	 0.103049
H	-0.7450037137	 4.8290051846	-2.0842463356	 0.103143
H	-1.7620956279	 2.1454997818	-2.8602767179	 0.104649
H	-0.0306736254	 2.4755949855	-2.6315242187	 0.125854
H	-1.9794137449	 1.6584351907	-0.3941393641	 0.097433
H	 0.8073421328	-0.2715573816	 1.2548063658	 0.107741
37.3919	92.1851	121.434	139.3239	199.5079	232.6465	256.3866	317.2228	403.2533	511.4096	556.0985	592.3681	651.9752	750.1162	794.9955	888.0255	905.3111	935.2304	959.5548	980.3188	1006.2521	1058.7094	1105.709	1132.0058	1159.813	1179.5748	1224.3254	1235.6785	1264.23	1273.2042	1287.6508	1360.2398	1363.0718	1380.3623	1413.8064	1484.1441	1491.5403	1495.2042	1501.5823	1788.3293	1819.6766	2920.3327	3028.6841	3038.7167	3052.8624	3072.8237	3079.0421	3094.7255	3105.2796	3109.0266	3130.3887	37.3919	92.185	121.4342	139.3238	199.5079	232.6467	256.3867	317.2228	403.2533	511.4096	556.0985	592.3681	651.9753	750.1162	794.9955	888.0255	905.3112	935.2304	959.5548	980.3188	1006.252	1058.7094	1105.709	1132.0059	1159.813	1179.5749	1224.3255	1235.6787	1264.2301	1273.2043	1287.6507	1360.2398	1363.0717	1380.3625	1413.8064	1484.1443	1491.5402	1495.2041	1501.5824	1788.3293	1819.6766	2920.3327	3028.6841	3038.7167	3052.8624	3072.8237	3079.0421	3094.7255	3105.2796	3109.0266	3130.3887
CC1CCC1C(=O)C=O	C[C@@H]1CC[C@H]1C(=O)C=O	
InChI=1S/C7H10O2/c1-5-2-3-6(5)7(9)4-8/h4-6H,2-3H2,1H3	InChI=1S/C7H10O2/c1-5-2-3-6(5)7(9)4-8/h4-6H,2-3H2,1H3/t5-,6-/m1/s1
