19
gdb 3251	2.3155433	1.9581905	1.4761138	2.8806	73.72	-0.24388	0.06378	0.30766000000000004	961.1588	0.157531	-422.527197	-422.519377	-422.518433	-422.558845	31.519	
O	-0.4516320805	 0.7090059368	 0.6932091718	-0.435497
C	-1.781687086	 0.2979604526	 0.5194959554	 0.117429
C	-2.8994359138	 0.7762869396	 1.484324609	-0.08509
C	-2.5658460477	 0.5254468192	 2.9737550841	-0.243704
C	-2.8791012477	-0.9800318764	 2.7957185753	-0.028831
C	-1.7461184022	-1.7603948022	 2.0790129197	-0.317319
C	-2.1938649015	-1.1762274224	 0.7220712767	 0.381889
O	-2.0646225014	-1.9438279487	-0.4320137595	-0.483699
C	-3.5347978974	-0.6596738601	 1.4022226929	-0.133288
H	-0.1976670386	 0.5365395134	 1.6056638232	 0.281315
H	-2.052005629	 0.5666612034	-0.5066531923	 0.100878
H	-3.4096845033	 1.7034599723	 1.2251144484	 0.068946
H	-1.5695295273	 0.8057934752	 3.3402317313	 0.079761
H	-3.3062902372	 1.0047719697	 3.6199463602	 0.106288
H	-3.389804438	-1.4911232176	 3.6116019822	 0.068673
H	-0.7083951999	-1.6036655972	 2.3977565945	 0.088769
H	-1.9485975783	-2.8379516786	 2.1055985297	 0.091786
H	-2.2846562463	-2.8577654627	-0.2225087397	 0.275404
H	-4.5476149238	-0.8980539265	 1.0895329469	 0.066289
160.4537	217.5551	245.2952	265.1446	293.1494	343.0874	402.9962	475.8739	573.2707	593.131	602.2899	725.6781	796.3188	833.9409	847.0739	864.1248	887.3299	933.2757	948.7389	996.8422	1026.5247	1049.8276	1054.9184	1090.4341	1101.1816	1114.332	1140.767	1157.2435	1191.3268	1199.0588	1229.5034	1240.6524	1266.662	1288.0378	1303.3007	1318.1727	1346.5504	1384.4478	1439.8783	1483.0306	1495.9315	3015.0669	3021.1061	3066.6455	3071.1235	3085.8295	3104.6775	3110.0927	3155.9676	3803.3461	3811.5901
OC1C2CC3CC1(O)C23	O[C@@H]1[C@@H]2C[C@@H]3C[C@@]1(O)[C@H]23	
InChI=1S/C7H10O2/c8-6-4-1-3-2-7(6,9)5(3)4/h3-6,8-9H,1-2H2	InChI=1S/C7H10O2/c8-6-4-1-3-2-7(6,9)5(3)4/h3-6,8-9H,1-2H2/t3-,4-,5+,6-,7-/m1/s1
