19
gdb 1540	3.3630569	1.1977548	1.1231624	1.9861	75.34	-0.24179	-0.02314	0.21865	1148.1507	0.15509	-422.554878	-422.546127	-422.545183	-422.588521	33.555	
C	-2.6539810647	 0.6604717232	-2.5587392396	-0.425542
C	-2.6535976896	-0.281320833	-1.3691036212	 0.416139
O	-3.9925520994	-0.7345509427	-1.2354501831	-0.473514
C	-1.6150013569	-1.4528050789	-1.3755640833	-0.297012
C	-1.1123626119	-1.0348907503	 0.0446053462	-0.16625
C	-2.0729081807	 0.2172603637	-0.004621111	-0.09836
C	-0.8433093627	 1.1689983281	-0.0434729462	-0.373391
C	 0.0756578685	-0.0694914285	-0.0151141629	 0.410886
O	 1.2627577968	-0.21831102	-0.0059610463	-0.296949
H	-3.0450534292	 0.1375687837	-3.4368595356	 0.129591
H	-3.2967835995	 1.5244925137	-2.3638982864	 0.1252
H	-1.6479708963	 1.0155415191	-2.7945922527	 0.115672
H	-4.0474992727	-1.3005629474	-0.4578682949	 0.277014
H	-2.0984698116	-2.4321977391	-1.4026877726	 0.111974
H	-0.8572815476	-1.4232193962	-2.1630434321	 0.114935
H	-1.0995744365	-1.8007540191	 0.8208494078	 0.090484
H	-2.8208287166	 0.4326482016	 0.7591712188	 0.073339
H	-0.7334215119	 1.8519113615	-0.8894902063	 0.129761
H	-0.7284797276	 1.7524738104	 0.8766894114	 0.136024
34.4933	146.1031	209.6061	258.7486	311.9948	336.7187	361.0894	385.93	445.3264	456.9344	512.7321	593.4436	689.9847	729.03	814.402	830.6981	874.2828	916.9168	938.1234	945.5778	966.6247	1002.6615	1036.7142	1080.4842	1098.3885	1110.7762	1143.6907	1171.771	1204.0702	1211.5251	1225.7812	1243.6732	1265.142	1306.6884	1378.8086	1422.6245	1436.8595	1475.3044	1487.3159	1496.3521	1888.7657	3043.801	3053.3891	3060.206	3100.7138	3108.5711	3110.7828	3113.2962	3117.86	3128.6532	3801.7498
CC1(O)CC2C1CC2=O	C[C@@]1(O)C[C@@H]2[C@H]1CC2=O	
InChI=1S/C7H10O2/c1-7(9)3-4-5(7)2-6(4)8/h4-5,9H,2-3H2,1H3	InChI=1S/C7H10O2/c1-7(9)3-4-5(7)2-6(4)8/h4-5,9H,2-3H2,1H3/t4-,5-,7-/m1/s1
