19
gdb 4978	2.7788586	1.5316318	1.5060984	2.3278	74.47	-0.23911	0.06992	0.30902999999999997	1005.7441	0.157261	-422.493482	-422.485694	-422.48475	-422.52567	30.109	
C	 1.3873233191	-0.0344631931	 0.0350514539	-0.267084
O	-0.0242336014	 0.0303849163	 0.1499831588	-0.292795
C	-0.4641331489	 0.6850309708	 1.2673040652	 0.404754
C	-0.2436140606	 0.3181147798	 2.8064814655	-0.137215
C	-1.7855287686	 0.1786936406	 2.9357685437	-0.239203
C	-1.9659132174	 0.9028854826	 1.5804119842	 0.035212
O	-1.7726949049	 2.3304892877	 1.701582004	-0.30167
C	-0.3335706961	 2.2010451792	 1.6664646193	 0.021638
C	 0.2321175789	 1.7766934283	 3.0413527402	-0.232532
H	 1.8369685914	-0.5586944088	 0.8894247052	 0.11713
H	 1.6075053346	-0.5877013923	-0.8798288088	 0.134382
H	 1.8310771824	 0.9683581271	-0.037458364	 0.116496
H	 0.3779805055	-0.4948054544	 3.1801409785	 0.070859
H	-2.0913406476	-0.8692307054	 2.8504075677	 0.104807
H	-2.2730205534	 0.6322618756	 3.8024508452	 0.1027
H	-2.8020319154	 0.6505018337	 0.9266582658	 0.083539
H	 0.1375689199	 3.0098986512	 1.1047215012	 0.078445
H	 1.3261419799	 1.8365079792	 3.0381365775	 0.097117
H	-0.1584822275	 2.3093652221	 3.9121775468	 0.103418
94.1765	169.647	174.6375	279.5314	320.9549	382.6459	409.4231	450.9578	597.1426	649.9636	699.0735	814.7936	849.0288	852.5226	916.2703	933.929	956.3486	986.7507	1019.8277	1036.9801	1052.4371	1089.5398	1095.2096	1115.0752	1120.0944	1151.5281	1179.2827	1185.4088	1199.2075	1228.2991	1253.3646	1274.2309	1286.8885	1313.9051	1332.4272	1377.3561	1461.4766	1473.9572	1487.1514	1489.0275	1504.3565	2995.2432	3042.2637	3048.1329	3049.8122	3091.4652	3102.8445	3105.4012	3108.4636	3114.5515	3129.3902
COC12C3CC1OC2C3	CO[C@]12[C@@H]3C[C@H]1O[C@H]2C3	
InChI=1S/C7H10O2/c1-8-7-4-2-5(7)9-6(7)3-4/h4-6H,2-3H2,1H3	InChI=1S/C7H10O2/c1-8-7-4-2-5(7)9-6(7)3-4/h4-6H,2-3H2,1H3/t4-,5-,6+,7-
