19
gdb 2847	2.98599	1.4866695	1.176881	3.0188	75.23	-0.24231	0.06678	0.30909	1089.1401	0.155641	-422.517119	-422.5085	-422.507556	-422.549494	33.844	
C	-2.7355350535	 3.6250532847	 2.2137997194	-0.500686
C	-2.0750698777	 2.2840273072	 2.0853738656	 0.348182
C	-2.7390359427	 0.9169134293	 2.2957336087	-0.354261
C	-1.3037602023	 0.3418509119	 2.3271636432	 0.339855
O	-0.9777242943	-0.8528874383	 2.932637481	-0.468641
C	-0.7645994563	 1.8191992949	 2.6750790403	-0.259794
C	-0.8636739564	 2.0489313566	 1.1764785129	-0.14484
C	-0.78296331	 0.5499322088	 0.8778563764	 0.124127
O	 0.5172285627	 0.0713753752	 0.641000196	-0.440984
H	-3.2572829205	 3.7187561335	 3.1731845992	 0.117034
H	-2.000748075	 4.4348698872	 2.1534864704	 0.120177
H	-3.4717667055	 3.7851670133	 1.4175503179	 0.122347
H	-3.2197880853	 0.8687906717	 3.2807371012	 0.084092
H	-3.4239742098	 0.5256629814	 1.5330802516	 0.092617
H	-1.4066297425	-0.8895174123	 3.794146877	 0.283582
H	-0.1294809284	 2.2455535731	 3.4389752315	 0.08971
H	-0.4259209843	 2.852517712	 0.5972117985	 0.08771
H	-1.4014535775	 0.1388492103	 0.0725691259	 0.079066
H	 1.0772003393	 0.3707118895	 1.3675874734	 0.280707
178.0236	206.6312	209.1703	223.0327	251.2055	307.2669	313.574	402.9835	438.1616	461.2844	491.9968	602.9715	676.7934	751.3597	793.1673	826.7688	884.6654	887.642	913.9288	951.052	984.7771	1011.358	1030.0264	1051.0356	1087.031	1093.4342	1120.5683	1154.1574	1190.5588	1220.8615	1243.4286	1269.606	1294.9975	1320.6653	1386.3619	1404.5955	1425.5373	1446.8566	1486.8594	1498.0853	1505.1829	3013.4578	3022.6467	3055.0735	3066.335	3082.117	3094.7693	3192.5003	3214.0961	3784.4191	3807.7169
CC12CC3(O)C1C2C3O	C[C@]12C[C@]3(O)[C@H]1[C@H]2[C@H]3O	
InChI=1S/C7H10O2/c1-6-2-7(9)4(6)3(6)5(7)8/h3-5,8-9H,2H2,1H3	InChI=1S/C7H10O2/c1-6-2-7(9)4(6)3(6)5(7)8/h3-5,8-9H,2H2,1H3/t3-,4-,5+,6+,7-/m0/s1
