19
gdb 5755	4.4952488	1.1049507	1.0251516	2.1856	74.25	-0.22653	0.07066	0.29719	1184.5295	0.158033	-422.502333	-422.494666	-422.493722	-422.534624	29.859	
O	 1.471676187	 0.8338513059	-0.0564116281	-0.420087
C	 0.123317638	 0.455433901	 0.1788369466	-0.091274
C	-0.753713278	 1.220359963	-0.8025360586	-0.00321
C	-0.4998412253	 0.8454050764	-2.2998475809	-0.260107
C	-1.890246845	 0.3776586096	-2.7086086704	-0.030029
C	-2.5553276501	-0.399642339	-1.5343251272	 0.052383
O	-3.8827543224	 0.1226602241	-1.8873591124	-0.319257
C	-2.9655283265	 1.263436873	-2.0121610279	 0.041812
C	-2.2369334424	 0.8751878298	-0.6930140301	-0.050232
H	 2.0356575884	 0.3302375915	 0.5375736476	 0.287317
H	-0.0162711133	-0.629274435	 0.0339069804	 0.08272
H	-0.1814014959	 0.6888098378	 1.211869078	 0.086415
H	-0.5855171635	 2.2899564417	-0.6332908037	 0.081738
H	-0.1575073361	 1.6996206543	-2.8909024665	 0.105712
H	 0.2574337696	 0.0617247525	-2.3990678214	 0.109596
H	-2.0864129626	 0.0358712505	-3.7243644583	 0.076212
H	-2.4814320593	-1.4537923923	-1.2639720265	 0.086989
H	-3.3823197793	 2.2246749229	-2.3162500942	 0.088411
H	-2.7689786735	 1.0174712523	 0.2477090636	 0.074891
93.7484	128.5646	200.9227	273.3107	338.2125	393.296	457.3258	510.1592	675.2249	721.659	770.2763	787.8862	834.6795	881.648	899.2538	905.9486	936.1889	968.3652	979.7994	992.2781	1025.741	1070.4643	1076.9083	1089.8756	1130.7184	1151.1042	1167.5494	1179.1562	1217.8961	1232.2805	1239.2819	1257.7303	1270.1825	1276.3804	1282.9058	1322.5705	1348.5929	1387.6043	1460.8687	1498.6576	1521.1564	2954.758	2984.7438	3044.0281	3057.3446	3096.0221	3104.7077	3106.4785	3125.6681	3134.9903	3831.1858
OCC1CC2C3OC2C13	OC[C@H]1C[C@H]2[C@@H]3O[C@H]2[C@H]13	
InChI=1S/C7H10O2/c8-2-3-1-4-6-5(3)7(4)9-6/h3-8H,1-2H2	InChI=1S/C7H10O2/c8-2-3-1-4-6-5(3)7(4)9-6/h3-8H,1-2H2/t3-,4-,5+,6-,7+/m1/s1
