19
gdb 910	3.8879323	0.9762905	0.9516489	2.8801	75.86	-0.24865	-0.02029	0.22836	1290.2409	0.15755	-422.54492	-422.5369	-422.535956	-422.578634	29.946	
O	 0.1380623792	-1.3576733636	-0.0556642945	-0.241023
C	 0.3467274696	-0.1733559134	 0.0056110386	 0.158668
C	-0.0602262062	 0.7219359317	 1.1536526726	-0.322107
C	-0.9003617981	 1.9036386345	 0.6703631476	 0.00693
C	-1.4755727882	 2.961796934	 1.6788643021	-0.093622
C	-1.5163023905	 3.9390393471	 0.4611132879	-0.239337
C	-0.206694256	 3.1895316835	 0.1299673677	 0.094245
O	 0.678240489	 3.5642686664	 1.2000642894	-0.277745
C	-0.1900176441	 3.4499947402	 2.3545693651	-0.08499
H	 0.8721265553	 0.3561808997	-0.8238380768	 0.073887
H	-0.5974589483	 0.1169506876	 1.8907108333	 0.118369
H	 0.8601626185	 1.1050551252	 1.6129478005	 0.136709
H	-1.6944610894	 1.5729330075	-0.0047083074	 0.087413
H	-2.339645311	 2.7587560222	 2.3101292148	 0.077781
H	-2.3311409046	 3.7256458968	-0.2317358293	 0.106882
H	-1.4365712707	 5.0102419189	 0.6584142147	 0.104155
H	 0.3211995053	 3.2563707557	-0.8200067603	 0.083982
H	 0.2340358351	 2.7430497025	 3.0761666846	 0.104203
H	-0.302248155	 4.4258974034	 2.8401955693	 0.105601
48.5344	63.9608	174.8594	223.6601	324.1729	401.2597	455.7629	505.0113	588.3926	689.8564	784.9973	824.3732	844.811	852.7222	874.621	922.8804	951.7211	957.5664	985.5179	1022.4769	1051.0722	1056.3285	1077.8118	1109.1945	1124.6054	1136.6848	1180.9579	1193.3323	1224.0873	1228.1699	1258.6673	1284.9303	1293.8944	1306.3061	1370.4831	1395.7667	1431.688	1458.0084	1494.04	1532.3485	1834.6972	2855.2806	3028.8614	3032.9906	3069.6025	3070.163	3077.4012	3096.3049	3129.5072	3137.4782	3143.3742
O=CCC1C2CC1OC2	O=CC[C@H]1[C@@H]2C[C@H]1OC2	
InChI=1S/C7H10O2/c8-2-1-6-5-3-7(6)9-4-5/h2,5-7H,1,3-4H2	InChI=1S/C7H10O2/c8-2-1-6-5-3-7(6)9-4-5/h2,5-7H,1,3-4H2/t5-,6+,7-/m1/s1
