19
gdb 591	2.8447966	2.0004766	1.7122722	1.0532	72.1	-0.23929	0.07944	0.31873	875.4919	0.161825	-422.585237	-422.578929	-422.577985	-422.615799	26.353	
C	 1.3397739517	 0.207584121	 0.2951762255	-0.08853
O	 1.3806582793	 1.3157240036	 1.2009610322	-0.27602
C	 0.5835792989	 2.3795917702	 0.6969631705	 0.0963
C	-0.8591122233	 2.3830055103	 1.2784984954	-0.231995
C	-1.6471902497	 1.7910598822	 0.0952645551	 0.061871
C	-1.2170490356	 0.330027505	-0.1698951945	-0.23338
C	 0.235838051	 0.5194866677	-0.7079856096	-0.055275
C	 0.2807733819	 2.0712338366	-0.8000849117	 0.055035
O	-1.0576245052	 2.487850582	-1.0176060592	-0.263014
H	 2.3133169405	 0.1079064129	-0.2076067018	 0.09397
H	 1.1622860772	-0.7110650113	 0.866260737	 0.103342
H	 1.1166747305	 3.3158484181	 0.8743350356	 0.081476
H	-0.9108938899	 1.8012958178	 2.2011503261	 0.106902
H	-1.2036357366	 3.4013708713	 1.4766924376	 0.103467
H	-2.7228289116	 1.965576484	 0.1072907135	 0.077343
H	-1.260307835	-0.2962299837	 0.7252648474	 0.10302
H	-1.8593327578	-0.1160207692	-0.9326354167	 0.10698
H	 0.3904282023	 0.019851202	-1.6650261672	 0.077397
H	 0.9443378414	 2.5101415292	-1.5431582752	 0.081111
109.5069	302.3907	356.6931	426.9455	535.1298	574.6302	578.1628	714.2413	777.447	798.2926	820.0813	845.5387	889.9495	895.3697	925.3467	945.8363	976.1405	996.8926	1006.4814	1028.6356	1045.3271	1064.803	1103.413	1114.3832	1136.9612	1165.196	1190.0128	1217.4096	1261.7187	1269.2375	1279.5341	1284.5033	1313.3648	1325.7477	1340.927	1351.8839	1369.3155	1401.2507	1470.1029	1489.5113	1526.6192	2991.2998	3049.9137	3063.4002	3065.3221	3087.9987	3100.134	3114.0609	3122.9587	3126.3405	3138.8568
C1OC2CC3CC1C2O3	C1O[C@@H]2C[C@@H]3C[C@H]1[C@H]2O3	
InChI=1S/C7H10O2/c1-4-3-8-6-2-5(1)9-7(4)6/h4-7H,1-3H2	InChI=1S/C7H10O2/c1-4-3-8-6-2-5(1)9-7(4)6/h4-7H,1-3H2/t4-,5+,6-,7-/m1/s1
