19
gdb 2807	4.0215457	1.1951281	1.1279851	2.0055	74.26	-0.25184	0.08152	0.33336	1148.1884	0.158088	-422.510239	-422.502681	-422.501737	-422.541748	30.724	
C	 0.1229628705	 0.1623962386	-0.0464443352	-0.428442
C	 1.6336146422	 0.1198993199	 0.0605308182	-0.033531
C	 2.2500685824	-1.0288573315	 0.8257053467	-0.050218
C	 2.3597289744	-0.9685074568	-0.6966612464	-0.05027
C	 3.8881594938	-0.9457644389	-0.8039835996	-0.000756
O	 4.2822551041	-1.9985610006	 0.1673095794	-0.334673
C	 3.7472620171	-1.023322531	 1.1520881162	-0.000767
C	 4.3961589541	 0.0700836549	 0.2575362499	 0.17764
O	 5.7891577484	 0.1424806936	 0.3607426614	-0.46197
H	-0.3191207177	 0.6473260907	 0.8302310561	 0.122783
H	-0.19212499	 0.7201527677	-0.9345667447	 0.122773
H	-0.297850463	-0.8460039429	-0.1183224495	 0.118534
H	 2.0844255757	 1.1033407661	 0.1319574422	 0.092821
H	 1.6072655461	-1.7414896459	 1.3299040706	 0.096121
H	 1.7997399618	-1.6355331792	-1.3422161824	 0.096128
H	 4.3590208463	-1.0576925839	-1.7805005474	 0.082619
H	 4.0741665735	-1.2144891687	 2.1740531178	 0.08262
H	 4.0284532772	 1.0947430459	 0.271678679	 0.083857
H	 6.0944419932	-0.775346938	 0.3463427576	 0.284731
191.0703	205.3377	238.5009	299.6991	324.8812	356.223	403.2833	547.2574	564.0613	620.2421	681.5769	806.5792	819.9436	832.196	838.4799	848.8639	915.2295	930.9432	968.5869	986.2391	1001.0761	1038.304	1051.1956	1085.0953	1100.4924	1136.5553	1139.3721	1173.6794	1205.9207	1208.3212	1246.4359	1252.6656	1282.7817	1298.5494	1304.9937	1329.7189	1417.5089	1428.5529	1467.3064	1494.4802	1501.0073	3031.3018	3098.2768	3099.3578	3120.9668	3126.1583	3130.7117	3166.4681	3170.7518	3179.6713	3753.6902
CC1C2C1C1OC2C1O	C[C@H]1[C@H]2[C@@H]1[C@@H]1O[C@H]2[C@H]1O	
InChI=1S/C7H10O2/c1-2-3-4(2)7-5(8)6(3)9-7/h2-8H,1H3	InChI=1S/C7H10O2/c1-2-3-4(2)7-5(8)6(3)9-7/h2-8H,1H3/t2-,3-,4+,5+,6+,7-
