19
gdb 2572	2.5437658	1.6283394	1.2122958	1.9139	77.04	-0.21821	0.02514	0.24334999999999998	1080.8721	0.155088	-422.560855	-422.551714	-422.550769	-422.593824	35.078	
C	 1.3208687572	 0.642846166	-0.1123032233	-0.497297
C	-0.0391968718	 0.0689970846	 0.1181364516	 0.274561
C	-1.2231009992	 0.6931060182	 0.0979792428	-0.180649
C	-2.3944715437	-0.2384558981	 0.3404223582	-0.336905
C	-1.7170276175	-1.580098692	 0.611054874	 0.297874
O	-2.2583826302	-2.7423156431	 0.0512982205	-0.475526
C	-0.8069239508	-1.6973700788	 1.8149607866	-0.400375
C	-0.2319853463	-1.3828039944	 0.4376325118	 0.305987
O	 0.5624304747	-2.3280816665	-0.2033972259	-0.480969
H	 1.9480981016	 0.548318404	 0.7831299601	 0.127664
H	 1.8346993672	 0.0945893762	-0.9097155847	 0.141192
H	 1.2703565039	 1.6991795393	-0.3888560621	 0.118184
H	-1.355858873	 1.7586979772	-0.0555040422	 0.088242
H	-3.0276900018	 0.091283971	 1.1743616336	 0.103027
H	-3.0445443864	-0.3179507876	-0.5410737717	 0.114851
H	-2.7893601456	-3.1913774024	 0.7167446642	 0.289097
H	-0.8266295528	-0.9297081011	 2.5822220924	 0.110441
H	-0.620968109	-2.7095306949	 2.1617781975	 0.109202
H	-0.0434163066	-2.9478540376	-0.6312121734	 0.291399
134.7006	177.7033	200.3855	223.3133	257.1548	263.3988	296.3015	304.7692	401.7704	450.5797	494.7162	554.0156	593.5167	658.1856	707.5943	780.8116	814.9385	855.0467	907.4155	937.846	957.8003	993.2914	1026.6634	1033.5697	1068.6498	1087.1902	1144.0459	1158.6388	1231.9562	1252.5896	1286.1332	1307.1477	1338.2055	1384.5088	1408.0298	1414.1923	1459.3461	1474.8559	1483.0089	1491.059	1704.4816	3015.4633	3024.3933	3046.574	3077.7775	3115.6706	3116.0788	3188.4869	3213.1565	3756.7624	3810.5866
CC1=CCC2(O)CC12O	CC1=CC[C@]2(O)C[C@]12O	
InChI=1S/C7H10O2/c1-5-2-3-6(8)4-7(5,6)9/h2,8-9H,3-4H2,1H3	InChI=1S/C7H10O2/c1-5-2-3-6(8)4-7(5,6)9/h2,8-9H,3-4H2,1H3/t6-,7-/m0/s1
