19
gdb 4364	3.0455951	1.1802435	0.884828	2.8624	79.31	-0.24045	-0.05014	0.19031	1281.6306	0.157772	-422.588077	-422.579447	-422.578503	-422.621705	32.438	
O	-3.2965573815	-1.1134138028	-2.8596533027	-0.436144
C	-2.6453003395	-0.6543864463	-1.6788059024	 0.110863
C	-1.3896921916	-1.4768255468	-1.3732192246	-0.23824
C	-0.8961207515	-1.3493481474	 0.071789841	-0.311161
C	-0.2747418905	-0.0307668203	 0.5147973656	 0.360394
O	 0.6363720077	-0.0478369915	 1.3229104025	-0.324429
C	-0.7652965059	 1.2857923234	 0.041013046	-0.144718
C	-1.6045164405	 1.6261188436	-0.9473110348	-0.052602
C	-2.3707069831	 0.8211610961	-1.9523063341	-0.241539
H	-3.5436529056	-2.0339662966	-2.7271749879	 0.282367
H	-3.3293721827	-0.7336514368	-0.816402123	 0.068641
H	-1.6320216277	-2.5332314972	-1.5459384567	 0.092815
H	-0.5966318832	-1.2246457447	-2.0876000612	 0.111192
H	-1.7396654471	-1.5359616414	 0.7533964893	 0.122798
H	-0.1504209311	-2.1164515464	 0.2948897352	 0.1257
H	-0.2907297398	 2.0900331715	 0.5978695582	 0.105865
H	-1.7335124369	 2.6982544034	-1.0943531209	 0.10954
H	-3.3330630787	 1.3148779971	-2.1326519041	 0.123281
H	-1.8401225909	 0.8852647732	-2.9150245055	 0.135376
50.8534	108.5516	212.8581	290.3818	303.5247	317.484	339.431	374.2057	427.8595	507.7594	535.059	636.4287	671.1329	731.4351	828.0772	854.174	894.6042	922.4537	947.208	1042.038	1050.7297	1074.6421	1077.0913	1110.4063	1158.3966	1198.7659	1223.5524	1261.449	1292.1684	1302.3059	1342.2877	1361.149	1373.9237	1408.5305	1424.656	1443.6151	1460.7783	1463.7781	1491.1053	1699.3189	1749.6154	2951.1581	3002.9161	3007.9278	3021.8957	3054.0424	3065.3187	3099.3448	3126.9172	3165.9101	3820.903
OC1CCC(=O)C=CC1	O[C@H]1CCC(=O)C=CC1	
InChI=1S/C7H10O2/c8-6-2-1-3-7(9)5-4-6/h1-2,7,9H,3-5H2	InChI=1S/C7H10O2/c8-6-2-1-3-7(9)5-4-6/h1-2,7,9H,3-5H2/t7-/m1/s1
