19
gdb 4840	3.2654792	1.1257705	1.0852835	2.6452	77.3	-0.23759	-0.01119	0.2264	1209.8831	0.154621	-422.532584	-422.523479	-422.522535	-422.56622	33.877	
C	 1.268767171	 0.0341315305	-0.1919643549	-0.25299
O	-0.1318039742	 0.1903754199	-0.0415835581	-0.283247
C	-0.5480992583	 0.8999205277	 1.0916666153	 0.427037
C	-0.1117607787	 2.3491435424	 1.1212688533	-0.474396
C	-1.8675423644	 0.3962854775	 1.5474413745	-0.114559
C	-2.4076283209	 1.170001939	 2.7569229891	-0.38272
C	-1.1278836251	 0.7325301828	 3.5256801788	 0.403383
O	-0.7970520674	 0.8207531094	 4.6747301637	-0.317257
C	-0.5851431391	-0.0061019229	 2.3434329513	-0.24508
H	 1.7274350274	-0.404473935	 0.7047625854	 0.113814
H	 1.4154460316	-0.6446410858	-1.0348845169	 0.133109
H	 1.7725670826	 0.9833286713	-0.4153593832	 0.116753
H	-0.5385705654	 2.88485377	 1.9706314911	 0.136134
H	 0.9758336096	 2.433755685	 1.2012681389	 0.129232
H	-0.4285110621	 2.8490584139	 0.2000308513	 0.130311
H	-2.4489768198	-0.2573496181	 0.9111711512	 0.111697
H	-2.6155052505	 2.237233909	 2.6461796054	 0.121759
H	-3.2794267875	 0.6854449766	 3.2071270894	 0.136293
H	-0.0172374288	-0.9281284932	 2.3498077548	 0.110727
103.3528	111.329	160.6751	181.5464	213.4901	301.1592	331.8527	377.1872	423.9578	458.4584	532.398	558.8976	636.6267	679.9219	810.3379	829.6883	880.6674	925.5126	966.9452	976.5355	991.0983	1015.5359	1053.1319	1099.9296	1118.2369	1131.1452	1176.7926	1183.8835	1215.4406	1221.9138	1249.7965	1277.4261	1397.6941	1420.8438	1459.2991	1475.8504	1482.8533	1490.8604	1509.0942	1510.7911	1875.6291	3001.4843	3045.2537	3058.5076	3061.4222	3109.9203	3112.0984	3123.223	3137.0345	3197.9085	3211.9014
COC1(C)C2CC(=O)C12	CO[C@@]1(C)[C@@H]2CC(=O)[C@H]12	
InChI=1S/C7H10O2/c1-7(9-2)4-3-5(8)6(4)7/h4,6H,3H2,1-2H3	InChI=1S/C7H10O2/c1-7(9-2)4-3-5(8)6(4)7/h4,6H,3H2,1-2H3/t4-,6-,7+/m1/s1
