19
gdb 5699	4.3817515	0.9622288	0.9188338	3.2431	76.19	-0.25028	0.07384	0.32412	1348.418	0.155277	-422.494269	-422.485666	-422.484722	-422.527773	32.109	
C	 1.2660762513	 1.0546161293	 0.4444743541	-0.375643
C	 0.8988060795	-0.3983926232	 0.1194095661	-0.210727
C	 1.6869327251	-0.930311693	-1.0533645435	-0.040406
O	 1.3039195527	-0.4436913408	-2.3559703249	-0.286927
C	 1.1327949348	-1.817455996	-2.0787156963	 0.436928
C	 1.8258477657	-2.9918386685	-2.8207987011	-0.358921
C	 0.4687624759	-3.7136602705	-2.7580726697	 0.03252
O	-0.4643210399	-2.8999309487	-3.467160989	-0.238091
C	-0.1876594407	-2.567110774	-2.0966370982	-0.08052
H	 0.6821035994	 1.4288732196	 1.2901450313	 0.115194
H	 2.3267710517	 1.1465886361	 0.7023109729	 0.116335
H	 1.0729509858	 1.6993684259	-0.4177322074	 0.138121
H	 1.0885618856	-1.0393080366	 0.990378367	 0.100985
H	-0.1705471241	-0.4698006998	-0.1061202116	 0.104711
H	 2.7696085044	-0.9628136891	-0.9059245574	 0.08877
H	 2.1780375722	-2.777994835	-3.8318100839	 0.126886
H	 2.6196102254	-3.4593687407	-2.2326824764	 0.112651
H	 0.2594132761	-4.7727143473	-2.673393929	 0.110336
H	-1.0309343409	-2.5179637477	-1.4183214631	 0.107797
75.5801	118.3404	159.0843	173.5192	247.3415	296.7662	391.5918	428.0545	484.298	577.2286	611.9888	754.3705	795.9544	821.9495	855.2247	857.4084	916.3328	929.6067	939.873	978.1139	1014.5061	1032.8533	1053.2615	1072.4431	1108.4482	1149.0932	1164.9082	1170.3715	1216.9072	1229.404	1263.0869	1294.3992	1339.9306	1361.9186	1380.359	1411.0971	1461.5323	1473.6226	1498.7051	1505.6981	1519.518	3026.1238	3038.0225	3066.778	3069.4765	3082.5216	3107.5601	3119.4072	3130.9142	3188.1898	3204.7386
CCC1OC11CC2OC12	CC[C@@H]1O[C@]21C[C@@H]1O[C@H]21	
InChI=1S/C7H10O2/c1-2-5-7(9-5)3-4-6(7)8-4/h4-6H,2-3H2,1H3	InChI=1S/C7H10O2/c1-2-5-7(9-5)3-4-6(7)8-4/h4-6H,2-3H2,1H3/t4-,5-,6-,7-/m0/s1
