19
gdb 2373	2.7325841	1.5575228	1.2434869	1.73	75.96	-0.22454	0.07272	0.29725999999999997	1070.9093	0.156852	-422.5033	-422.495007	-422.494062	-422.53609	31.663	
O	 2.1258971517	-1.8833451576	 0.026297578	-0.45376
C	 2.40409216	-0.6133078049	 0.4899649607	 0.28556
C	 3.7506559394	 0.098964017	 0.3704563546	-0.294245
C	 3.4636817748	 0.8498103861	 1.7116396461	-0.226198
C	 2.1283678368	 0.1126740762	 1.8631701837	-0.244562
C	 1.3005949126	 0.3558792071	 0.6451520907	 0.457912
C	-0.1780160046	 0.0272183136	 0.4742341136	-0.373563
C	-0.2282058787	 1.3856492069	-0.2586993615	-0.073182
O	 1.1845784414	 1.6110210867	-0.039796476	-0.32109
H	 2.7822823166	-2.4909021883	 0.3855501711	 0.285037
H	 4.5932448255	-0.5927702202	 0.4658406579	 0.092623
H	 3.8905922707	 0.706275595	-0.5283037858	 0.114383
H	 4.1840272653	 0.602943442	 2.4938431847	 0.099557
H	 3.3819739815	 1.93675162	 1.6313107609	 0.116887
H	 1.6889972301	-0.2311342401	 2.7940397745	 0.08366
H	-0.3811310548	-0.8520119176	-0.1380338927	 0.129466
H	-0.7560537151	-0.028518732	 1.3986093118	 0.111101
H	-0.4697740713	 1.3394570411	-1.3265420171	 0.106631
H	-0.8392355118	 2.161298689	 0.2164132847	 0.103784
82.5662	159.1402	179.2748	216.3234	261.6829	313.58	398.8883	446.6052	533.9602	567.7875	656.1968	751.2343	795.8974	800.2275	853.7443	902.6659	926.4779	945.1199	967.3137	980.8456	1007.7007	1036.7961	1062.6974	1076.0673	1140.8963	1160.337	1170.4813	1203.4625	1213.433	1217.5043	1238.4067	1257.268	1270.9375	1302.9305	1326.6569	1354.9254	1472.045	1483.8377	1492.8329	1510.4755	1535.501	3026.4798	3048.0691	3066.1183	3068.9656	3080.1975	3095.6783	3119.5752	3137.7352	3163.0032	3789.6206
OC12CCC1C21CCO1	O[C@]12CC[C@H]1[C@@]12CCO1	
InChI=1S/C7H10O2/c8-6-2-1-5(6)7(6)3-4-9-7/h5,8H,1-4H2	InChI=1S/C7H10O2/c8-6-2-1-5(6)7(6)3-4-9-7/h5,8H,1-4H2/t5-,6-,7-/m1/s1
