19
gdb 4716	2.5455126	1.0344116	0.7893116	1.5688	78.7	-0.25268	0.03457	0.28725	1456.3511	0.153386	-422.487679	-422.477425	-422.476481	-422.52334	36.65	
C	 1.3523375968	-0.0528229898	-0.0658608092	-0.238836
O	-0.0378447775	 0.1806537724	 0.0302885087	-0.235745
C	-0.4343808287	 0.8291731926	 1.2309793359	-0.087734
C	 0.1184135192	 2.1889344458	 1.3355948931	 0.350575
C	 0.5626383679	 3.3034945898	 1.4106651546	-0.474858
C	-1.9462575374	 0.8391874351	 1.2578924362	-0.047566
C	-2.6954729196	 0.8404244906	 2.5737672616	-0.299416
C	-2.6928923402	-0.3864344102	 1.7161269463	 0.100203
O	-3.9008355023	-0.7224357975	 1.103629205	-0.42529
H	 1.713272838	-0.6844095539	 0.7612947847	 0.102203
H	 1.5210062002	-0.5759284684	-1.0098382934	 0.127589
H	 1.9260236897	 0.8833810654	-0.0647566415	 0.121829
H	-0.0684661711	 0.2462918673	 2.0958348777	 0.085255
H	 0.9531369771	 4.2886125757	 1.4830373407	 0.199129
H	-2.4024315753	 1.397105775	 0.4466665853	 0.104533
H	-2.1286335099	 0.8269832234	 3.4985447396	 0.115972
H	-3.6181901961	 1.4071504954	 2.6118594844	 0.126984
H	-2.0930055983	-1.2321573804	 2.0547829248	 0.085861
H	-3.6966552125	-1.0922803381	 0.2378896857	 0.289314
54.0975	96.3288	105.5412	149.483	174.6016	242.9579	292.946	297.6552	341.8123	376.4532	424.9084	467.1537	545.2356	591.3818	630.3855	672.2637	835.6475	859.265	912.3087	929.4084	954.0467	1021.9694	1055.4211	1091.2788	1108.6617	1129.2019	1163.8082	1184.3258	1191.2749	1223.1756	1229.8242	1278.0316	1306.329	1351.1256	1380.0729	1440.6813	1477.4096	1484.753	1496.6153	1511.6902	2229.0999	2934.8891	2980.1424	3045.5717	3091.1938	3120.265	3139.8489	3170.397	3230.6598	3501.9726	3802.6865
COC(C#C)C1CC1O	CO[C@@H](C#C)[C@@H]1C[C@H]1O	
InChI=1S/C7H10O2/c1-3-7(9-2)5-4-6(5)8/h1,5-8H,4H2,2H3	InChI=1S/C7H10O2/c1-3-7(9-2)5-4-6(5)8/h1,5-8H,4H2,2H3/t5-,6-,7+/m1/s1
