19
gdb 965	3.8233602	0.9344835	0.8172614	1.9098	79.22	-0.24167	0.00556	0.24723	1420.0897	0.15756	-422.595567	-422.586695	-422.585751	-422.630758	31.389	
O	 1.1412982814	 1.4198194149	-0.1576270493	-0.310742
C	 0.5308046598	 0.4951382608	 0.3065192508	 0.196512
O	-0.7802918496	 0.4489164338	 0.571704737	-0.206394
C	-1.5640231237	 1.6338510275	 0.2468913271	-0.208987
C	-1.8368464974	 2.4546021759	 1.4633532602	 0.34823
C	-3.0465161554	 2.7493415578	 1.9442336645	-0.169233
C	-2.9874396232	 3.6913716403	 3.1203576607	-0.244772
C	-1.4846495606	 3.6722516255	 3.5049449055	-0.209867
C	-0.7424759015	 3.1514734646	 2.2481369141	-0.297407
H	 0.9752400573	-0.4731300826	 0.586192756	 0.110541
H	-1.0108727182	 2.2034833836	-0.505163039	 0.141157
H	-2.4900742773	 1.2509495176	-0.1863972035	 0.117962
H	-3.9808266598	 2.3964710173	 1.5188769849	 0.089029
H	-3.3237725928	 4.6957230127	 2.8251889605	 0.108145
H	-3.6380368481	 3.3837834136	 3.9467282922	 0.105023
H	-1.1197024949	 4.6468753673	 3.8376160225	 0.099862
H	-1.3326734077	 2.9717811627	 4.3319997749	 0.107333
H	-0.3106753307	 3.9666541942	 1.6507874063	 0.112533
H	 0.0920738824	 2.4893276024	 2.4996967547	 0.111074
36.4381	55.0148	112.1996	157.5547	239.8067	276.7088	342.9534	392.822	497.9897	607.1058	703.1495	762.5005	811.193	841.462	875.8575	897.5906	909.7599	922.6756	960.9961	1027.2939	1041.0557	1045.9904	1073.9769	1153.5061	1176.2306	1187.3664	1230.4498	1250.7106	1271.2271	1308.0399	1321.9516	1329.8192	1372.9485	1396.5559	1409.0672	1479.8416	1481.3378	1485.1323	1504.979	1717.0931	1815.7912	3005.8356	3014.3881	3024.5887	3048.2404	3060.4486	3064.6576	3072.6652	3104.9715	3123.659	3182.1035
O=COCC1=CCCC1	O=COCC1=CCCC1	
InChI=1S/C7H10O2/c8-6-9-5-7-3-1-2-4-7/h3,6H,1-2,4-5H2	InChI=1S/C7H10O2/c8-6-9-5-7-3-1-2-4-7/h3,6H,1-2,4-5H2
