19
gdb 1452	3.1755822	1.5053137	1.177153	1.7819	76.69	-0.23275	0.06902	0.30177	1085.8674	0.154646	-422.467248	-422.458703	-422.457758	-422.499627	33.607	
C	-0.001656752	-0.2771369789	 0.1001662981	-0.486347
C	 1.3311285502	 0.3385475925	 0.4865785425	 0.440114
O	 2.0753608085	-0.4982295509	 1.3348980507	-0.473132
C	 1.3701457021	 1.8942189333	 0.7506573644	-0.135905
O	 1.1242925618	 2.079671877	-0.7000937819	-0.31101
C	 2.1743181767	 1.0349541187	-0.625551309	-0.108637
C	 2.872687395	 1.8820384528	 0.4473564606	 0.488845
C	 4.1192575016	 1.7728191552	 1.2446124783	-0.33588
C	 3.8719612074	 2.9785470779	 0.3440550626	-0.3742
H	-0.6202848845	-0.4372545796	 0.9929214391	 0.106038
H	-0.5459689809	 0.3735228767	-0.583291507	 0.149666
H	 0.1575733252	-1.2505659093	-0.3750929722	 0.123337
H	 1.4629895542	-0.9397399462	 1.9314583831	 0.281966
H	 0.7964219117	 2.5125389217	 1.4434398043	 0.085202
H	 2.5577032532	 0.6318315181	-1.5641847679	 0.089453
H	 4.0563477119	 1.9131070099	 2.3187395862	 0.112853
H	 4.8634594631	 1.0454874161	 0.9378415055	 0.117661
H	 3.6459807712	 3.9302203858	 0.8142682313	 0.114564
H	 4.4544689937	 3.0625765192	-0.5677805687	 0.11541
156.5384	175.297	216.7295	230.3533	246.9201	327.0511	336.9199	386.5953	436.9772	494.165	608.9474	651.8928	733.6511	742.3032	765.1973	805.4049	867.0226	881.98	916.7651	940.4161	970.0069	1015.3077	1053.6139	1074.848	1077.7288	1103.4182	1127.1374	1129.1661	1142.6871	1178.1021	1205.7882	1221.067	1229.2569	1246.4407	1391.8917	1405.0759	1426.9432	1463.0615	1490.7952	1504.1006	1524.2528	3024.2361	3088.1756	3103.2887	3112.0456	3125.8275	3131.4533	3159.2169	3202.9336	3217.4871	3820.8308
CC1(O)C2OC1C21CC1	C[C@]1(O)[C@@H]2O[C@H]1C12CC1	
InChI=1S/C7H10O2/c1-6(8)4-7(2-3-7)5(6)9-4/h4-5,8H,2-3H2,1H3	InChI=1S/C7H10O2/c1-6(8)4-7(2-3-7)5(6)9-4/h4-5,8H,2-3H2,1H3/t4-,5+,6-
