19
gdb 3149	2.6741743	1.4425336	1.111605	1.313	74.29	-0.25259	0.06196	0.31455	1125.7711	0.156758	-422.49719	-422.488862	-422.487918	-422.530301	31.613	
O	 2.5500900506	 1.2363419113	-1.8349865254	-0.427925
C	 3.6225154436	 0.725527819	-1.0783023322	 0.124782
C	 3.4438124704	 0.7558408647	 0.446328818	-0.096646
C	 4.6240598702	 0.0974033367	 1.1059925023	-0.300959
C	 3.5540141493	-0.7714469512	 0.5138605543	-0.044268
C	 3.7365787655	-0.8521176118	-1.0082208652	-0.087768
C	 2.6553260421	-1.574877537	-1.7706985465	 0.07924
C	 1.2956042414	-1.814697985	-1.2561664744	-0.200266
O	 2.2674209623	-2.8595974859	-1.2741256623	-0.239809
H	 1.7360723478	 0.8393271501	-1.5066074562	 0.28265
H	 4.5115848018	 1.2396519327	-1.4567443395	 0.089321
H	 2.7881801757	 1.4396330013	 0.9737047796	 0.087162
H	 5.6087177306	 0.1487763926	 0.6450531452	 0.108692
H	 4.6397482779	 0.1493192928	 2.1898824059	 0.116092
H	 3.0021242053	-1.4874054774	 1.1100947491	 0.097966
H	 4.7057555727	-1.2571893606	-1.3257271542	 0.075793
H	 2.7673017507	-1.5405976402	-2.8547930258	 0.103384
H	 1.0131668508	-1.4606134636	-0.265742993	 0.114223
H	 0.4706218313	-1.9316639683	-1.9579584598	 0.118337
86.0425	104.7913	162.9436	225.3461	299.0493	342.6602	353.3157	451.3924	520.8345	554.2218	746.0827	775.4029	827.1494	850.263	865.8925	884.5883	929.622	953.8581	959.3168	990.1464	1039.5953	1058.8786	1064.0257	1080.7447	1096.2402	1120.2605	1132.63	1158.7854	1176.0814	1202.6932	1211.5465	1235.0091	1278.7926	1284.0552	1307.2192	1338.0558	1367.4141	1428.8194	1438.0367	1493.4168	1525.5517	3021.6513	3061.1979	3081.7056	3102.1185	3107.2806	3166.5878	3173.3371	3187.1426	3200.8986	3805.5885
OC1C2CC2C1C1CO1	O[C@H]1[C@@H]2C[C@@H]2[C@H]1[C@@H]1CO1	
InChI=1S/C7H10O2/c8-7-4-1-3(4)6(7)5-2-9-5/h3-8H,1-2H2	InChI=1S/C7H10O2/c8-7-4-1-3(4)6(7)5-2-9-5/h3-8H,1-2H2/t3-,4+,5-,6-,7-/m0/s1
