19
gdb 4270	2.2990586	1.7702443	1.4859354	2.4892	74.27	-0.22654	-0.02057	0.20597	1001.4695	0.158499	-422.585309	-422.577476	-422.576532	-422.617491	30.366	
C	-1.0579350656	 1.0947384938	-2.5742674871	-0.408658
C	-1.7097324779	 0.6202226371	-1.2845252997	 0.143602
O	-1.5726457812	-0.8314852493	-1.1770675781	-0.305513
C	-0.8961807044	-1.1174705654	 0.0525458883	 0.006453
C	-1.8512777488	-0.8332269504	 1.2233386831	-0.23123
C	-1.9568773266	 0.7373315443	 1.2012852684	-0.243529
C	-1.0547141748	 1.146379078	 0.0081755097	-0.152866
C	 0.0493028665	 0.0894691977	 0.1559005429	 0.425494
O	 1.2325731715	 0.1770286925	 0.3149563008	-0.327279
H	-1.4692595958	 0.5413777653	-3.4231107337	 0.130576
H	-1.2458984323	 2.1618197809	-2.7330542326	 0.115581
H	 0.0240944668	 0.9310475316	-2.5513662905	 0.13197
H	-2.7832160771	 0.8522730446	-1.3009586657	 0.076435
H	-0.445860855	-2.106518829	-0.0002274518	 0.094955
H	-2.8127080859	-1.3223013789	 1.0526586551	 0.117818
H	-1.4430592514	-1.1980920689	 2.1706795534	 0.112652
H	-2.98429448	 1.0817743745	 1.0571859275	 0.110773
H	-1.5882070971	 1.1729743606	 2.1334692579	 0.113644
H	-0.7323248809	 2.1849461409	-0.0215063778	 0.089124
105.4451	143.9688	234.6391	241.4037	283.6329	396.646	430.0269	467.5443	601.4803	628.5377	709.415	770.8909	807.4355	833.6307	859.3587	877.7899	889.5338	945.7097	979.6723	1020.4789	1034.4749	1042.0472	1093.8796	1126.1547	1144.8225	1148.3481	1200.7727	1214.3429	1254.5157	1265.6178	1293.8074	1317.9467	1330.2428	1349.9548	1391.2255	1412.631	1476.6631	1487.1745	1494.2749	1502.79	1891.0146	3004.728	3037.3625	3055.3818	3064.3928	3098.6337	3110.4936	3119.1298	3119.5671	3145.366	3149.0121
CC1OC2CCC1C2=O	C[C@H]1O[C@@H]2CC[C@H]1C2=O	
InChI=1S/C7H10O2/c1-4-5-2-3-6(9-4)7(5)8/h4-6H,2-3H2,1H3	InChI=1S/C7H10O2/c1-4-5-2-3-6(9-4)7(5)8/h4-6H,2-3H2,1H3/t4-,5-,6-/m1/s1
