19
gdb 4179	2.6127267	1.573643	1.4635051	3.6118	74.5	-0.22587	-0.01676	0.20911	1008.585	0.158504	-422.592334	-422.584715	-422.583771	-422.624237	30.186	
C	-2.6061366607	 0.6197142382	 2.5006792014	-0.415325
C	-2.6437159842	-0.2056518632	 1.225301391	 0.160899
O	-1.6091501093	-1.2223904332	 1.2702694286	-0.301513
C	-0.9585877349	-1.2303200927	-0.0181259002	 0.006918
C	-2.0481681277	-0.7513118269	-0.9803153722	-0.257835
C	-2.3715975182	 0.4980864471	-0.1198739153	-0.065511
C	-0.9948445224	 1.1953780121	-0.0682994939	-0.343484
C	-0.0280900291	-0.0047829628	 0.0325103419	 0.441046
O	 1.1665572666	 0.0236962003	 0.147668545	-0.326583
H	-2.7681308622	-0.0310225277	 3.3646150954	 0.132748
H	-1.6440738099	 1.1191698067	 2.6378313372	 0.128258
H	-3.3991030006	 1.3749784479	 2.4910037888	 0.115147
H	-3.619305257	-0.711888552	 1.1673046038	 0.075347
H	-0.4732053593	-2.1913270272	-0.176860192	 0.091491
H	-1.6707827448	-0.5100875431	-1.9783183964	 0.109136
H	-2.8793425822	-1.4555487126	-1.0628031005	 0.113296
H	-3.1949783545	 1.1234871585	-0.4661237408	 0.075545
H	-0.7911016899	 1.7361226791	-0.9994245217	 0.129125
H	-0.8502728798	 1.8998319616	 0.7528529799	 0.131294
94.2331	182.3383	236.5059	291.7042	369.4184	420.1105	466.932	498.7974	525.2052	597.37	698.3996	755.4528	805.0794	812.7534	856.7812	919.1056	936.3602	947.8614	963.6164	979.6934	1008.8459	1063.4836	1088.3274	1117.7669	1138.3774	1153.9398	1163.6092	1199.1408	1244.1677	1285.1493	1295.2711	1308.879	1327.6698	1356.0514	1396.4103	1415.2771	1453.1223	1483.6691	1496.0458	1505.1396	1866.3469	2981.124	3043.5428	3055.7362	3063.4232	3111.4605	3113.5157	3117.6281	3118.8074	3129.025	3147.1836
CC1OC2CC1CC2=O	C[C@@H]1O[C@H]2C[C@@H]1CC2=O	
InChI=1S/C7H10O2/c1-4-5-2-6(8)7(3-5)9-4/h4-5,7H,2-3H2,1H3	InChI=1S/C7H10O2/c1-4-5-2-6(8)7(3-5)9-4/h4-5,7H,2-3H2,1H3/t4-,5-,7-/m0/s1
