19
gdb 438	4.0227418	1.2017063	1.089839	2.171	74.71	-0.25499	0.0772	0.33219	1160.8996	0.157778	-422.532616	-422.524742	-422.523798	-422.56518	30.156	
C	 0.4578303334	-0.4346262931	-0.7218722878	-0.173784
O	 0.0372275472	 0.3261790912	 0.4132633863	-0.233092
C	 1.4110436664	 0.3861126349	 0.0386982139	-0.040641
C	 1.9110174938	 1.6938974966	-0.4865639725	 0.416233
C	 3.3988542392	 1.925076168	-0.7039826886	-0.298057
C	 3.5042979259	 3.4459880968	-0.9783452983	-0.215453
C	 2.3083891578	 4.0871590133	-0.2307077745	-0.246305
C	 1.2681426889	 2.9876975249	-0.2046000808	 0.003558
O	 1.0935670411	 2.3346204704	-1.4756918389	-0.304628
H	 0.4487188486	-1.5155206952	-0.5899822496	 0.11269
H	 0.1031327149	-0.0613080529	-1.6793098284	 0.132765
H	 2.0915631087	-0.1135579273	 0.73016421	 0.08956
H	 3.9369835308	 1.6444643041	 0.2103633613	 0.103215
H	 3.8070186804	 1.3228113925	-1.5218426728	 0.109069
H	 4.4659144157	 3.8598794405	-0.6664757618	 0.099568
H	 3.4001598352	 3.6266826519	-2.0499567152	 0.121825
H	 2.5695453507	 4.3478903177	 0.8026231012	 0.1044
H	 1.9504095515	 4.9997047558	-0.7172931565	 0.110992
H	 0.3683364398	 3.05791827	 0.3991676431	 0.108083
74.3161	161.2544	179.8531	226.6227	310.6814	354.7958	443.2706	506.3192	642.305	658.6068	692.7295	814.9288	849.4392	875.4748	888.4583	895.9359	909.3031	945.4528	959.8128	1020.104	1034.6618	1043.9355	1100.2156	1132.6849	1143.7773	1165.3161	1169.2729	1185.6801	1212.0514	1256.0942	1279.6645	1292.4723	1326.3208	1329.5864	1348.6739	1427.5931	1460.3947	1480.1708	1487.1146	1500.6858	1517.4931	3031.2834	3035.5215	3072.6871	3081.7043	3084.8607	3091.1047	3099.7874	3122.0973	3168.2303	3191.9898
C1OC1C12CCCC1O2	C1O[C@@H]1[C@]12CCC[C@H]1O2	
InChI=1S/C7H10O2/c1-2-5-7(3-1,9-5)6-4-8-6/h5-6H,1-4H2	InChI=1S/C7H10O2/c1-2-5-7(3-1,9-5)6-4-8-6/h5-6H,1-4H2/t5-,6+,7+/m1/s1
