19
gdb 4609	3.0839923	0.7849195	0.7230364	0.9417	81.24	-0.25177	0.02667	0.27844	1634.8283	0.155027	-422.511825	-422.501721	-422.500777	-422.548194	35.83	
O	 2.0729296659	-1.266577808	-2.9030081488	-0.400448
C	 2.9239913069	-0.7533355692	-1.8874093431	-0.194422
C	 2.2081778949	-0.2548126125	-0.7138905354	 0.002138
C	 1.5980599295	 0.1307091783	 0.252908037	 0.045201
C	 0.8515490499	 0.5730168262	 1.4262512672	 0.254528
O	 1.0926539101	-0.2604915412	 2.5455919764	-0.463086
C	 1.0495867858	 2.0802710827	 1.7621636706	-0.248953
C	-0.2518950933	 2.4019829504	 0.9827840661	-0.209652
C	-0.6463181111	 0.9061889481	 1.092546894	-0.266003
H	 1.4882631915	-1.9110265538	-2.4908971244	 0.286135
H	 3.6644526963	-1.503650867	-1.5661805662	 0.119612
H	 3.4871562688	 0.0611920682	-2.3564846064	 0.143367
H	 1.1288143806	-1.1722412033	 2.2373606124	 0.278175
H	 0.9257134377	 2.2114884357	 2.8400641103	 0.1171
H	 1.9834529348	 2.5445595028	 1.4425266012	 0.107597
H	-0.9311483095	 3.1310376378	 1.4271812508	 0.103016
H	-0.0480748117	 2.6948956673	-0.0496360827	 0.114408
H	-1.2514868141	 0.7049273272	 1.9801720723	 0.11059
H	-1.0914801429	 0.4194826905	 0.2228058088	 0.100695
27.4363	78.3209	93.0938	154.9624	192.4413	243.3432	275.8723	327.3499	344.4414	369.4683	498.8614	523.6242	564.5948	632.9316	678.352	793.4334	818.649	900.3719	934.2802	971.9116	982.018	1002.455	1022.3703	1041.8807	1067.3553	1130.7647	1195.6839	1201.582	1214.8455	1245.8212	1259.5532	1275.0321	1290.2555	1357.7969	1371.313	1417.1413	1467.3643	1483.3163	1489.5317	1503.3568	2344.7425	2975.2831	3062.7973	3065.188	3071.7702	3075.7262	3117.9636	3130.5268	3139.8919	3812.3245	3817.7736
OCC#CC1(O)CCC1	OCC#CC1(O)CCC1	
InChI=1S/C7H10O2/c8-6-2-5-7(9)3-1-4-7/h8-9H,1,3-4,6H2	InChI=1S/C7H10O2/c8-6-2-5-7(9)3-1-4-7/h8-9H,1,3-4,6H2
