19
gdb 5552	2.2449391	1.5286879	1.0110962	2.5642	76.43	-0.24093	-0.02246	0.21847	1196.1993	0.155391	-422.517631	-422.508617	-422.507673	-422.551982	32.491	
C	 1.5049431792	 0.1311987633	-0.1304611369	-0.256996
O	 0.1281382435	-0.0861443981	 0.1260518067	-0.24824
C	-0.3680867478	 0.6564605184	 1.2069311009	 0.135864
C	-1.8857948601	 0.545469256	 1.3161390164	-0.074753
C	-2.3483495372	 1.2832184505	 2.5403398041	-0.301281
C	-1.7688361675	-0.0921887135	 2.7003971992	-0.051933
C	-0.2321959029	-0.0423961785	 2.6341546704	-0.15023
C	 0.391500439	-1.4107562376	 2.5193667486	 0.172954
O	 1.44695384	-1.7184797351	 3.0150898632	-0.269365
H	 2.1377135181	-0.200389294	 0.703327588	 0.13117
H	 1.7582493283	-0.4498346735	-1.0197493245	 0.132579
H	 1.7074199174	 1.1946537301	-0.3262837842	 0.110228
H	 0.0284505604	 1.6836907447	 1.1763668086	 0.071634
H	-2.5362833023	 0.303917457	 0.4854575158	 0.100422
H	-1.807145512	 2.156760189	 2.8976837441	 0.111612
H	-3.4246170706	 1.3484333548	 2.6616258633	 0.120906
H	-2.3395579679	-0.9074192381	 3.1294529776	 0.094666
H	 0.2863906875	 0.5237142668	 3.4130737764	 0.084016
H	-0.2024113751	-2.143778352	 1.9319952224	 0.086746
51.6902	107.3526	132.0929	180.2156	213.085	262.6762	323.7142	367.1441	451.4102	484.0484	518.6214	753.73	777.4723	807.6173	902.8033	923.1528	948.0244	969.5838	1005.4319	1039.0356	1049.4913	1064.9256	1087.0559	1090.124	1114.4613	1152.6205	1186.7342	1202.6123	1213.8157	1228.4319	1244.4452	1286.283	1304.4632	1351.3468	1394.7007	1430.6537	1482.0566	1492.7437	1493.4944	1509.9912	1820.0198	2898.9194	2970.2899	2992.3622	3053.0866	3073.6482	3107.17	3124.8322	3176.1188	3196.7845	3206.6981
COC1C2CC2C1C=O	CO[C@H]1[C@@H]2C[C@@H]2[C@H]1C=O	
InChI=1S/C7H10O2/c1-9-7-5-2-4(5)6(7)3-8/h3-7H,2H2,1H3	InChI=1S/C7H10O2/c1-9-7-5-2-4(5)6(7)3-8/h3-7H,2H2,1H3/t4-,5+,6+,7-/m0/s1
