19
gdb 1405	2.594073	1.2126968	1.0344188	0.6019	77.32	-0.25015	-0.03454	0.21560999999999997	1219.3601	0.153368	-422.580247	-422.570396	-422.569451	-422.615393	35.178	
C	-0.9148071361	 1.9058870851	 1.191240331	-0.446121
C	-1.0646181411	 1.0895671516	-0.1018020425	 0.166288
C	-1.1526290302	 1.9988940609	-1.3244623861	-0.441747
C	-2.140748001	-0.0840122012	-0.0427955593	-0.120453
C	-0.9985283908	-1.1240959324	 0.1743760025	-0.389107
C	 0.0050699381	-0.0219642586	-0.1868740884	 0.391948
O	 1.1570570518	-0.0165663208	-0.5072536609	-0.297971
C	-3.1928791152	-0.0108302011	 1.0282671957	 0.153969
O	-4.3670871756	 0.1647314647	 0.8251628124	-0.252823
H	-0.806091699	 1.2745560661	 2.0785695512	 0.120999
H	-0.0229889243	 2.5358291504	 1.1232579709	 0.138789
H	-1.7820198152	 2.557129181	 1.3426571051	 0.134255
H	-1.2423423716	 1.4216800521	-2.2496461772	 0.123498
H	-2.0205778593	 2.6626359443	-1.2509970408	 0.129305
H	-0.2529104215	 2.6173312294	-1.4002969356	 0.137154
H	-2.6374527714	-0.1943242429	-1.0084575346	 0.101799
H	-0.8998158194	-1.4334091869	 1.2221573326	 0.136535
H	-0.9957769099	-2.0188716959	-0.4512976243	 0.142234
H	-2.8069270183	-0.135513456	 2.0675314284	 0.071449
51.0369	66.4214	154.8922	194.4163	220.8428	248.2612	265.7932	292.8379	358.669	388.2355	440.0008	502.7949	542.2181	656.9023	717.6892	776.2062	844.8256	927.2939	961.009	979.5491	999.2452	1038.4915	1063.2629	1077.9264	1132.7019	1185.0883	1189.4052	1216.753	1246.2457	1277.3802	1310.0463	1396.238	1417.6537	1433.3985	1438.9548	1481.5117	1483.6188	1502.5461	1505.4629	1824.858	1892.7448	2851.3017	3032.7181	3035.3508	3042.3923	3098.4605	3103.6992	3105.6384	3110.3817	3113.7138	3121.0687
CC1(C)C(CC1=O)C=O	CC1(C)[C@@H](CC1=O)C=O	
InChI=1S/C7H10O2/c1-7(2)5(4-8)3-6(7)9/h4-5H,3H2,1-2H3	InChI=1S/C7H10O2/c1-7(2)5(4-8)3-6(7)9/h4-5H,3H2,1-2H3/t5-/m0/s1
