19
gdb 613	2.1988072	2.0962772	1.8066399	0.7305	74.21	-0.24008	0.00106	0.24114	903.0021	0.16052	-422.552472	-422.545503	-422.544558	-422.583316	28.607	
C	-2.0499153863	 0.543728745	 0.805229223	-0.097229
O	-2.911380804	-0.0081887121	-0.1872636838	-0.278799
C	-2.2774963898	-0.3902456753	-1.4177311033	 0.061127
C	-2.0393324435	 0.8563522982	-2.3050282741	-0.229046
C	-1.5786178022	 2.0690691482	-1.4832709714	-0.062395
O	-0.4800584206	 1.8459755763	-0.6072687709	-0.276561
C	-0.6104937185	 0.758225665	 0.3155995178	 0.047149
C	-0.139065648	-0.5475972916	-0.2929665217	-0.073377
C	-0.9759951557	-1.1184381935	-1.1522689212	-0.071409
H	-2.4821119885	 1.4949248913	 1.1415414749	 0.108112
H	-2.014758803	-0.1351048095	 1.6681641052	 0.10113
H	-2.9963259662	-1.0555359715	-1.9035233422	 0.080901
H	-1.3111616811	 0.6103570604	-3.0853070395	 0.104602
H	-2.9736277005	 1.1415010911	-2.802741526	 0.100227
H	-1.2510371517	 2.8710547369	-2.1516665575	 0.105476
H	-2.4410096658	 2.4498127578	-0.9184186271	 0.102723
H	 0.0067034893	 1.0404671607	 1.174031435	 0.082408
H	 0.8201756332	-0.9692375614	-0.0135636914	 0.096774
H	-0.767062667	-2.049569776	-1.6692743159	 0.098188
185.3767	258.8419	279.2248	343.5096	372.6258	402.961	495.6579	584.8368	620.9431	689.9941	730.2329	786.4581	808.3735	848.3774	899.3706	941.4724	945.3394	979.0828	981.4323	1005.4749	1046.6641	1071.5333	1097.4915	1114.9234	1136.7457	1179.6909	1228.9414	1248.5999	1286.7397	1328.8957	1332.3207	1347.8806	1363.131	1377.7179	1395.127	1406.2957	1417.4234	1476.198	1502.0305	1518.5524	1711.5749	3004.7195	3008.4388	3033.7508	3043.4532	3064.3429	3069.7857	3077.9595	3086.9177	3170.4596	3196.1592
C1OC2CCOC1C=C2	C1O[C@H]2CCO[C@@H]1C=C2	
InChI=1S/C7H10O2/c1-2-7-5-9-6(1)3-4-8-7/h1-2,6-7H,3-5H2	InChI=1S/C7H10O2/c1-2-7-5-9-6(1)3-4-8-7/h1-2,6-7H,3-5H2/t6-,7-/m1/s1
