19
gdb 4255	2.8232474	1.6449227	1.199737	1.1068	74.58	-0.23751	0.04678	0.28429	1051.2375	0.157274	-422.503257	-422.495369	-422.494425	-422.535508	30.789	
O	-0.5834890859	 0.8025336487	-0.161193088	-0.42706
C	-1.8667861162	 0.3535819393	 0.2288692031	 0.014709
C	-2.993019903	 0.5100036847	-0.8502228826	-0.279094
C	-3.0581681844	-1.0348124671	-1.022300862	 0.055228
O	-4.1481596944	-1.6806986838	-0.3295800758	-0.303244
C	-3.3180192145	-1.8528190041	 0.8361966787	 0.066669
C	-2.5007572499	-3.1769094627	 0.8815138946	-0.237304
C	-1.2105619723	-2.3921942963	 0.4646935867	-0.354563
C	-2.0856003116	-1.1663022793	 0.1861705569	 0.292782
H	-0.35818356	 0.3876618779	-1.0010819045	 0.278187
H	-2.0531568361	 0.8315258638	 1.1947529818	 0.087541
H	-3.9315261532	 0.9447057453	-0.4995867617	 0.117122
H	-2.6523405741	 1.0565996949	-1.7346614552	 0.10184
H	-2.8990918774	-1.4442751781	-2.0243793125	 0.074318
H	-3.8072084811	-1.5263381216	 1.7585752535	 0.076137
H	-2.4546045955	-3.6658089069	 1.8571352892	 0.105717
H	-2.8569582499	-3.8945980281	 0.1398956234	 0.116671
H	-0.5332779385	-2.2297426872	 1.3083075891	 0.115599
H	-0.6277066821	-2.7910994495	-0.3700585546	 0.098744
103.1169	141.8413	214.9225	280.0848	290.2014	383.1249	413.05	469.9261	525.8224	668.7997	721.4321	788.901	800.5263	838.2323	872.025	886.1519	911.3186	929.5458	969.3247	1016.1641	1037.7408	1051.6775	1096.5862	1115.8976	1124.9741	1145.6735	1175.8952	1198.325	1217.6434	1228.2907	1245.5361	1262.4638	1288.9292	1293.3072	1302.9432	1320.064	1352.1404	1431.0192	1454.4784	1466.7194	1488.7683	3052.2107	3054.2797	3062.9896	3065.0268	3070.8184	3074.7563	3097.4969	3124.7166	3132.0235	3800.375
OC1CC2OC3CCC123	O[C@H]1C[C@@H]2O[C@H]3CC[C@@]123	
InChI=1S/C7H10O2/c8-4-3-6-7(4)2-1-5(7)9-6/h4-6,8H,1-3H2	InChI=1S/C7H10O2/c8-4-3-6-7(4)2-1-5(7)9-6/h4-6,8H,1-3H2/t4-,5-,6-,7-/m0/s1
