19
gdb 1090	2.4827857	1.562007	1.2147103	2.7691	77.54	-0.22612	-0.01601	0.21011	1094.7461	0.155179	-422.554559	-422.545516	-422.544572	-422.588298	33.912	
C	-0.6305113151	-2.1006430758	 2.0222506312	-0.48768
C	 0.1678988556	-2.2354962787	 0.7421437132	 0.299347
O	 1.2763512534	-2.7631608319	 0.732366441	-0.368368
C	-0.4395416441	-1.8001212604	-0.5151935962	 0.137317
C	 0.4590235287	-1.4284378581	-1.7005926077	-0.379864
C	-0.2441530887	-2.7220360801	-1.7831876992	 0.416536
O	 0.3805413797	-3.9388876892	-1.8018837569	-0.458007
C	-1.7225936713	-2.5675466306	-2.1250464524	-0.268825
C	-1.9076936878	-1.5942525024	-0.9084437572	-0.30809
H	-0.0171525657	-2.4085438393	 2.8697409071	 0.142848
H	-0.9757664182	-1.070448665	 2.1604730205	 0.137379
H	-1.5244646684	-2.7336854514	 1.9785894888	 0.142567
H	 0.1580747544	-0.5751804349	-2.305326205	 0.112015
H	 1.518453119	-1.4935024572	-1.4789773667	 0.137724
H	 1.0852755685	-3.8991468629	-1.133357923	 0.304052
H	-1.9445835494	-2.1746209939	-3.1219071746	 0.106308
H	-2.2611228298	-3.5058048766	-1.9819177277	 0.121477
H	-2.185568267	-0.564789721	-1.1573538676	 0.102785
H	-2.6199093737	-1.9773733805	-0.1752208776	 0.11048
74.2027	112.5962	123.6262	183.6294	247.2811	354.5523	375.1026	417.7883	444.891	479.9905	538.4034	604.5055	633.4883	693.0242	706.8085	765.7441	793.1685	919.2848	946.5586	953.8569	965.1483	1017.4613	1044.7899	1072.3005	1096.6577	1136.7034	1159.7856	1216.3629	1217.093	1241.5789	1269.9737	1366.268	1380.5068	1401.6122	1441.1042	1462.0501	1468.3405	1473.6474	1482.6184	1505.4938	1716.2559	3036.2666	3046.0599	3057.9973	3096.5302	3101.9001	3107.7391	3129.0432	3152.6021	3217.0388	3675.5723
CC(=O)C12CC1(O)CC2	CC(=O)[C@@]12C[C@]1(O)CC2	
InChI=1S/C7H10O2/c1-5(8)6-2-3-7(6,9)4-6/h9H,2-4H2,1H3	InChI=1S/C7H10O2/c1-5(8)6-2-3-7(6,9)4-6/h9H,2-4H2,1H3/t6-,7-/m1/s1
