19
gdb 4501	2.5608527	1.5478684	1.1487309	3.0741	75.47	-0.24331	-0.02191	0.22139999999999999	1096.531	0.157423	-422.576154	-422.567724	-422.56678	-422.609011	32.133	
O	-0.6489750669	 2.0027609925	 0.9536133553	-0.428311
C	-0.3118680213	 0.6221407865	 0.8334479739	 0.042484
C	-0.1749092249	-0.0792198818	 2.2039871552	-0.26199
C	-1.5876437976	-0.6194685563	 2.536231279	-0.237141
C	-2.218364408	-0.9181482873	 1.1840898426	-0.051531
C	-1.4055499054	-1.664218871	 0.1859397078	-0.331618
C	-1.4181791561	-0.1438611441	 0.1137291568	 0.215948
C	-2.1274784505	 0.4730208066	-1.032944528	 0.05918
O	-3.0161768002	-0.0696784836	-1.6515592842	-0.282104
H	-1.4782272096	 2.0662909799	 1.4410328457	 0.281232
H	 0.6343382852	 0.6219632673	 0.283490485	 0.09346
H	 0.5437680126	-0.9012558593	 2.1353536482	 0.111525
H	 0.2074737932	 0.6195348109	 2.9514508553	 0.113101
H	-1.5495885256	-1.4991855948	 3.1867105661	 0.111904
H	-2.1838166444	 0.1359144554	 3.0623289841	 0.101755
H	-3.2976107232	-0.9580321167	 1.0880556373	 0.108753
H	-0.4876629454	-2.1551086154	 0.4912961811	 0.11702
H	-1.945719154	-2.146723754	-0.6208149894	 0.143051
H	-1.7913234378	 1.498210655	-1.2888517518	 0.093281
97.9653	134.3656	190.905	228.8622	275.4118	322.8231	385.4915	410.9931	442.6524	506.5212	640.7577	725.896	758.2993	810.8797	815.9769	854.8837	902.6139	929.6915	971.1036	990.3371	1026.4823	1057.7071	1066.6465	1085.5063	1092.5689	1106.917	1177.1874	1204.5974	1249.1504	1259.7409	1296.6115	1309.5649	1330.2673	1334.8753	1390.1638	1426.6967	1429.3971	1473.1595	1489.4244	1505.7567	1794.2151	2929.6483	3033.2653	3056.6092	3069.5222	3078.8319	3112.5414	3135.9317	3179.1587	3228.696	3797.1339
OC1CCC2CC12C=O	O[C@H]1CC[C@@H]2C[C@]12C=O	
InChI=1S/C7H10O2/c8-4-7-3-5(7)1-2-6(7)9/h4-6,9H,1-3H2	InChI=1S/C7H10O2/c8-4-7-3-5(7)1-2-6(7)9/h4-6,9H,1-3H2/t5-,6+,7-/m1/s1
