19
gdb 4499	2.5775054	1.5581798	1.145068	2.9795	75.92	-0.24218	-0.02209	0.22009	1100.3828	0.156794	-422.557991	-422.549531	-422.548586	-422.590946	31.887	
C	 0.881730132	 0.9725766225	-0.1525911648	-0.409607
C	 0.8384727591	-0.5229000464	 0.1943990996	-0.110432
C	 1.2279315762	-1.3993354965	-1.0276640926	-0.104475
O	 2.6365185884	-1.6241886586	-0.9410406445	-0.249113
C	 2.9824042244	-1.646038477	 0.4057921737	 0.106927
C	 2.1735772707	-2.4318566023	 1.3710177876	-0.374875
C	 1.8882295896	-0.9335911872	 1.2299992311	 0.21313
C	 2.3077734505	-0.0751731332	 2.3560569146	 0.059223
O	 3.0780437042	-0.4255665563	 3.2237206794	-0.284231
H	 0.6043668871	 1.6047771036	 0.6950433162	 0.124986
H	 1.8818220168	 1.2684328654	-0.4864857389	 0.132858
H	 0.1790138225	 1.1892132055	-0.9631892821	 0.119361
H	-0.1729515287	-0.7884841742	 0.5218169498	 0.08654
H	 0.6886223156	-2.3553388236	-1.0174665926	 0.104058
H	 1.0317357212	-0.9098429336	-1.9850092029	 0.115827
H	 4.0347803997	-1.456350083	 0.5784256166	 0.126143
H	 1.4301481551	-3.1337672333	 1.0112726873	 0.122127
H	 2.6602841541	-2.6940171223	 2.303760843	 0.148617
H	 1.8821256415	 0.9496911903	 2.3659602496	 0.072936
102.9306	119.6769	193.8243	226.1758	255.1271	295.7071	370.5775	415.8122	463.7742	499.5931	673.2488	717.1271	732.3697	790.3671	850.9088	876.5495	930.6241	948.932	976.6485	1000.3396	1048.2638	1054.7056	1072.9404	1092.5906	1095.0743	1153.6439	1183.6324	1241.3436	1247.7485	1271.3828	1298.1181	1348.4875	1367.0085	1397.1488	1416.6158	1441.0527	1459.4937	1497.8312	1505.0141	1526.1305	1786.404	2910.9272	3013.8182	3038.6787	3044.7077	3095.144	3107.1824	3115.3292	3140.4778	3197.0361	3235.8772
CC1COC2CC12C=O	C[C@H]1CO[C@@H]2C[C@]12C=O	
InChI=1S/C7H10O2/c1-5-3-9-6-2-7(5,6)4-8/h4-6H,2-3H2,1H3	InChI=1S/C7H10O2/c1-5-3-9-6-2-7(5,6)4-8/h4-6H,2-3H2,1H3/t5-,6+,7-/m0/s1
