19
gdb 486	3.6613583	1.4073418	1.3536349	0.7494	73.98	-0.23036	0.07706	0.30742	1021.0028	0.158778	-422.521393	-422.514154	-422.51321	-422.553222	28.627	
C	 0.0112610618	 1.2932186398	-0.7739808271	-0.075344
C	-0.1094536517	-0.127932324	-0.1915443642	-0.363933
C	 1.2610108261	 0.1665001747	 0.4460418192	 0.486208
C	 1.4912544764	 0.0415699475	 1.9794152707	-0.302901
C	 2.7769606816	-0.8030461004	 1.9133602335	 0.076247
C	 3.6325983688	-0.0920668787	 0.8405246204	-0.238357
C	 2.4810570559	-0.6623507905	-0.0087255324	 0.016315
O	 2.4090126229	-1.8034033051	 0.9013192292	-0.304978
O	 1.2543511016	 1.5177529331	-0.0718198904	-0.330154
H	 0.1427052739	 1.3499165481	-1.8614507478	 0.102766
H	-0.7614403343	 2.0094176887	-0.4724532302	 0.104899
H	-0.922455037	-0.2628319466	 0.5238394879	 0.112173
H	-0.1257495087	-0.9501932926	-0.909456312	 0.115022
H	 1.6233624274	 1.0237620429	 2.4405287283	 0.11324
H	 0.6829576926	-0.4916248854	 2.4852242365	 0.107871
H	 3.1881838804	-1.2256275286	 2.8295261886	 0.080913
H	 3.7642184708	 0.9907021085	 0.8910055888	 0.11469
H	 4.5725382052	-0.6115182901	 0.6524348724	 0.110101
H	 2.5672517763	-0.9229416914	-1.0638758514	 0.075222
86.9366	126.0691	242.5434	357.4761	413.8777	438.6642	492.4143	562.1427	753.4987	776.1142	827.1474	840.6403	867.302	881.6627	893.5879	907.2182	945.2957	969.4008	973.9475	1017.7875	1018.4038	1039.4406	1064.7811	1090.7169	1160.0403	1162.8126	1191.5993	1193.5538	1206.9094	1220.2657	1230.4058	1252.9091	1270.7777	1301.6023	1308.2504	1344.2219	1359.8768	1470.6692	1489.2305	1490.4898	1531.9314	3020.2333	3061.7726	3066.8495	3077.1804	3077.9936	3120.1628	3121.3374	3128.1514	3130.979	3150.972
C1CC2(CC3CC2O3)O1	C1C[C@]2(C[C@@H]3C[C@H]2O3)O1	
InChI=1S/C7H10O2/c1-2-8-7(1)4-5-3-6(7)9-5/h5-6H,1-4H2	InChI=1S/C7H10O2/c1-2-8-7(1)4-5-3-6(7)9-5/h5-6H,1-4H2/t5-,6+,7+/m0/s1
