19
gdb 2830	3.1762434	1.2841415	1.0580057	0.7281	76.78	-0.21634	0.06662	0.28296	1184.9853	0.154759	-422.494604	-422.485826	-422.484882	-422.52745	33.925	
C	 1.2082691842	-1.7772605444	-1.9045957184	-0.501645
C	 0.5196065066	-0.4614243208	-2.0309331745	 0.415715
O	-0.7623916023	-0.4133361589	-2.6838087122	-0.347463
C	-0.3984430636	 0.8347508967	-3.3070433324	 0.46921
C	-1.4128699795	 1.8723317834	-3.6482647724	-0.341013
C	-0.693698984	 1.0915803073	-4.7452524943	-0.345032
C	 0.9133060374	 0.9014427932	-2.577876771	-0.30266
C	 0.6421210333	 0.7189041696	-1.0988896639	 0.012599
O	 1.8061291037	 0.8024493596	-0.3283411873	-0.425915
H	 0.5891647306	-2.4807624524	-1.335317131	 0.127748
H	 1.4071083951	-2.2192855157	-2.8855418021	 0.131631
H	 2.1586007007	-1.6471068712	-1.3801048433	 0.130583
H	-2.4525825336	 1.6234025466	-3.4657616586	 0.12528
H	-1.1609539816	 2.9170200933	-3.4991370373	 0.118538
H	-1.2626308529	 0.3339174024	-5.2731309094	 0.125097
H	 0.0525904732	 1.6039529841	-5.3438587406	 0.115977
H	 1.8589437357	 1.2728117496	-2.9492637413	 0.109169
H	-0.2602937968	 1.146906561	-0.6574613324	 0.090718
H	 1.6953546738	 0.2313937866	 0.4394932321	 0.291462
115.4302	187.0663	199.7297	223.895	237.0091	311.818	345.7294	372.2017	412.6994	461.5373	503.055	592.3337	697.728	755.2171	850.5943	857.3988	875.9323	891.6765	937.7594	956.1065	972.4124	993.8656	1038.5133	1046.5808	1068.3272	1076.5617	1117.59	1130.1076	1164.0615	1186.2302	1207.5688	1257.0831	1284.2429	1359.0381	1402.4897	1413.7125	1448.6918	1455.4096	1481.5551	1498.8048	1510.6132	3031.5137	3078.8919	3095.1783	3123.2696	3128.8541	3132.6007	3207.1478	3213.1106	3227.1383	3801.5506
CC12OC3(CC3)C1C2O	C[C@]12OC3(CC3)[C@H]1[C@@H]2O	
InChI=1S/C7H10O2/c1-6-4(5(6)8)7(9-6)2-3-7/h4-5,8H,2-3H2,1H3	InChI=1S/C7H10O2/c1-6-4(5(6)8)7(9-6)2-3-7/h4-5,8H,2-3H2,1H3/t4-,5-,6-/m0/s1
