19
gdb 3335	2.5421169	1.9323343	1.554312	2.122	74.72	-0.22506	0.06656	0.29162	936.3861	0.15832	-422.48549	-422.478166	-422.477222	-422.516589	30.156	
O	 0.0959306593	-0.5010344194	 0.8828596373	-0.44322
C	-0.5540022893	 0.6982043184	 1.2234908414	 0.094199
C	-1.2404554247	 0.7986414889	 2.6181697036	-0.17821
C	-1.8060013055	 2.2465378357	 2.4197411507	-0.091477
O	-2.3020993845	 2.2070186072	 1.035777138	-0.343102
C	-2.0608598834	 0.8309318974	 0.7834800775	 0.434523
C	-2.6484129321	-0.2003074419	-0.1713536233	-0.333087
C	-2.5734829687	-1.1982463219	 1.0569636999	-0.26987
C	-2.463283136	 0.037439053	 2.0331099102	-0.030798
H	 0.8805279288	-0.5794599581	 1.4343221987	 0.286579
H	 0.047946224	 1.566473239	 0.92384988	 0.071617
H	-0.7332500833	 0.6119421787	 3.5688975694	 0.061445
H	-2.6324398942	 2.489844641	 3.096485845	 0.107455
H	-1.0288697874	 3.0127443558	 2.5043705989	 0.10644
H	-3.6827395051	 0.0253609096	-0.4436251711	 0.113698
H	-2.0752747094	-0.4447226358	-1.0681429689	 0.110851
H	-3.4822106279	-1.7781306586	 1.2244412404	 0.098231
H	-1.7134680411	-1.858871047	 1.0216898524	 0.133075
H	-3.4274483496	 0.266667378	 2.4926928496	 0.071651
199.537	222.6994	277.9825	324.4033	336.3512	389.3753	447.2302	483.4087	606.1402	645.6432	707.5916	751.8802	807.4199	861.6609	863.743	880.7031	907.2439	910.5825	970.0585	1011.6125	1040.8236	1052.1322	1075.5492	1101.9773	1138.253	1154.1122	1178.8341	1197.6913	1207.2965	1215.5532	1233.8568	1249.1405	1256.2563	1298.7109	1335.8249	1345.194	1364.5339	1431.1484	1468.9019	1486.8383	1515.4775	3009.4438	3034.3238	3065.0293	3070.4643	3078.4979	3084.9335	3095.0728	3122.5847	3192.5334	3817.7053
OC1C2COC11CCC21	O[C@@H]1[C@H]2CO[C@]31CC[C@@H]23	
InChI=1S/C7H10O2/c8-6-4-3-9-7(6)2-1-5(4)7/h4-6,8H,1-3H2	InChI=1S/C7H10O2/c8-6-4-3-9-7(6)2-1-5(4)7/h4-6,8H,1-3H2/t4-,5-,6+,7+/m0/s1
