19
gdb 3698	3.5948274	1.077093	1.0658226	1.2591	76.49	-0.24966	0.0762	0.32586	1230.0627	0.154967	-422.509637	-422.500843	-422.499899	-422.542749	33.67	
C	 0.1071084764	-0.3845429233	-0.2852145104	-0.416614
C	 0.9910846663	 0.3929212484	 0.6549517309	-0.031238
O	 2.1649803801	-0.2823417692	 1.1469099695	-0.30264
C	 2.3356882846	 0.848943432	 0.3014232548	 0.46528
C	 3.0610166424	 2.1443204096	 0.7257877818	-0.401872
C	 3.7905511583	 2.0966846816	-0.6289874794	 0.398141
O	 3.9998799483	 3.2006837369	-1.4332355459	-0.460593
C	 4.551390669	 0.8142138963	-0.7827355675	-0.343233
C	 3.0505394584	 0.8205488914	-1.0277627082	-0.208155
H	-0.4787289425	-1.1273226658	 0.2663291356	 0.129252
H	-0.5941908512	 0.2849286632	-0.7953471955	 0.121682
H	 0.7015648876	-0.90963349	-1.036871614	 0.127538
H	 0.4622776523	 0.9601652458	 1.4245988352	 0.086469
H	 2.3817401059	 2.9978148079	 0.7972804688	 0.114417
H	 3.6778773689	 2.085002627	 1.6280597577	 0.103113
H	 4.8590659359	 3.5771425146	-1.212976237	 0.287767
H	 5.1406456038	 0.752197703	-1.6922161318	 0.115094
H	 4.9684396365	 0.2891664246	 0.0729467394	 0.118574
H	 2.6322545291	 0.5355291261	-1.984932484	 0.097018
89.3645	160.6039	188.5398	207.4611	253.8607	314.7506	383.478	400.3205	441.4653	463.3415	513.9449	550.4265	670.8866	760.1673	785.6607	841.94	893.7924	929.1829	954.9367	970.0209	1002.6223	1017.2552	1028.8925	1069.8644	1090.586	1116.9743	1127.4846	1144.016	1180.9141	1219.9098	1239.3856	1266.316	1303.2414	1364.9026	1404.9692	1408.5099	1467.7342	1475.5031	1490.4393	1499.5458	1531.263	3036.2589	3048.4126	3078.7549	3099.361	3108.9727	3111.7432	3126.661	3193.335	3207.5394	3795.1016
CC1OC11CC2(O)CC12	C[C@H]1O[C@@]21C[C@@]1(O)C[C@@H]21	
InChI=1S/C7H10O2/c1-4-7(9-4)3-6(8)2-5(6)7/h4-5,8H,2-3H2,1H3	InChI=1S/C7H10O2/c1-4-7(9-4)3-6(8)2-5(6)7/h4-5,8H,2-3H2,1H3/t4-,5-,6+,7-/m1/s1
