19
gdb 2750	2.7601028	1.5754563	1.492172	2.1415	73.37	-0.23271	0.05064	0.28335	992.3873	0.15864	-422.512743	-422.505204	-422.504259	-422.544189	30.393	
O	 0.6471644911	 0.1224545899	 0.4752512896	-0.443515
C	-0.578951231	 0.6930752146	 0.7887649233	 0.047436
C	-1.8976903704	-0.0565256974	 0.6076196421	 0.122655
C	-1.8048299988	-0.880883317	-0.6775341821	-0.163746
O	-1.3181980295	 0.268453684	-1.4486117694	-0.348163
C	-1.5187941953	 1.1097063953	-0.2928678632	 0.323743
C	-2.545258678	 2.2062574935	-0.1809629306	-0.305312
C	-3.2200482387	 1.8963328445	 1.1925222396	-0.219352
C	-3.1343213949	 0.3455030896	 1.3882436397	-0.299209
H	 0.6638827005	 0.0415623104	-0.4886964068	 0.297434
H	-0.5206806193	 1.3241063491	 1.6704631661	 0.107803
H	-1.0927149711	-1.7128088728	-0.7022002842	 0.114149
H	-2.7781165691	-1.2106266425	-1.0569468695	 0.111653
H	-2.151480601	 3.2262996031	-0.2268406962	 0.107645
H	-3.2614514372	 2.0871374502	-1.0016292794	 0.117012
H	-2.6693159816	 2.4011548097	 1.9934040498	 0.112893
H	-4.2471171796	 2.2685119424	 1.2407289663	 0.106245
H	-3.1185113091	 0.0745224449	 2.4487847361	 0.106336
H	-4.0119884372	-0.1400968016	 0.9455641189	 0.10429
183.1917	213.5548	239.6739	265.4061	309.5652	386.7917	464.0671	500.8299	591.2207	617.8743	640.7933	757.617	789.5621	824.2409	846.0397	875.5952	905.8693	944.7545	972.0003	993.3474	1023.4162	1032.3254	1050.2986	1139.0405	1156.2033	1189.2015	1195.3138	1222.6808	1237.674	1249.0686	1280.6235	1304.3029	1326.2061	1335.5	1347.1936	1382.5637	1471.239	1487.1587	1489.1946	1503.3936	1513.0661	3029.1402	3035.9563	3044.5646	3047.6907	3076.0699	3082.7731	3085.558	3101.4786	3160.4088	3745.299
OC1C23COC12CCC3	O[C@@H]1[C@]23CO[C@]12CCC3	
InChI=1S/C7H10O2/c8-5-6-2-1-3-7(5,6)9-4-6/h5,8H,1-4H2	InChI=1S/C7H10O2/c8-5-6-2-1-3-7(5,6)9-4-6/h5,8H,1-4H2/t5-,6+,7-/m1/s1
