19
gdb 6047	7.1675515	0.5263066	0.5151804	2.4922	84.66	-0.24653	0.02797	0.2745	2184.3486	0.153256	-422.487028	-422.476232	-422.475288	-422.525279	35.676	
C	-6.4305397678	 0.4275173058	-2.8304392	-0.224539
O	-5.1255511024	-0.0648223231	-2.6395183709	-0.231965
C	-4.5280154933	 0.4126747188	-1.456549195	-0.081573
C	-3.1437987239	-0.1678916688	-1.3556942361	 0.055991
O	-3.0087700496	-1.4388921129	-0.7283623189	-0.236173
C	-2.4632855019	-0.2908353297	-0.0507114711	-0.176438
C	-1.0348330977	-0.1962167465	 0.0776515796	 0.054495
C	 0.1591134001	-0.1113913396	 0.2109730524	 0.136959
C	 1.6025786644	-0.0153033822	 0.3631233087	-0.501568
H	-6.446704236	 1.527305706	-2.8982212692	 0.103022
H	-6.8023567711	 0.0099920335	-3.7689350263	 0.131044
H	-7.1050798146	 0.1248007817	-2.014077025	 0.107034
H	-4.4652345914	 1.5158112071	-1.471565035	 0.090928
H	-5.1137237498	 0.121945573	-0.5689700991	 0.095392
H	-2.5234963649	-0.0355375683	-2.2417597951	 0.108916
H	-3.029457765	-0.0054012068	 0.8366513311	 0.108953
H	 1.8869395766	 0.0627492258	 1.418075388	 0.151997
H	 2.0990341448	-0.8999352479	-0.0503970465	 0.156457
H	 2.0012734636	 0.8627904341	-0.1567502916	 0.151069
21.4202	49.8915	72.8662	104.2084	113.1668	167.854	230.9226	269.4546	313.2068	349.9855	376.5245	433.9832	515.0189	586.792	767.5579	830.679	912.1407	984.9115	1000.5393	1050.211	1053.5536	1071.4005	1120.4109	1145.2176	1165.5979	1182.745	1187.5196	1228.7593	1265.2582	1274.5856	1343.0344	1408.8671	1413.8741	1473.5888	1475.5111	1477.1562	1485.1357	1486.1654	1495.5019	1519.0446	2372.4538	2943.9028	2969.6966	2988.5919	3013.591	3028.8724	3090.141	3092.6253	3100.2871	3118.074	3125.6412
COCC1OC1C#CC	COC[C@@H]1O[C@H]1C#CC	
InChI=1S/C7H10O2/c1-3-4-6-7(9-6)5-8-2/h6-7H,5H2,1-2H3	InChI=1S/C7H10O2/c1-3-4-6-7(9-6)5-8-2/h6-7H,5H2,1-2H3/t6-,7-/m0/s1
