19
gdb 5095	3.2749694	1.1217831	1.0874766	2.6064	75.33	-0.21333	0.07349	0.28681999999999996	1198.5582	0.155641	-422.481805	-422.473071	-422.472127	-422.514943	33.867	
O	 1.8407898188	 0.5594245952	-0.0444198065	-0.415299
C	 0.6208391411	 0.0773237776	 0.5076779382	-0.165293
C	-0.3954854134	 1.1601427892	 0.6994743664	 0.334209
C	-0.5213091416	 1.9585172358	 1.977257347	-0.367811
C	-1.6853618326	 1.1282073541	 1.5044322094	-0.195121
C	-2.4447566583	 1.726938314	 0.278543669	 0.396814
O	-3.6525701742	 1.198307621	-0.1359714333	-0.45494
C	-1.9226822716	 3.0575714092	-0.1845981975	-0.374511
C	-1.1607916953	 1.7834946226	-0.5069915968	-0.166769
H	 2.1377494974	 1.2844252267	 0.5157025255	 0.279854
H	 0.2567772015	-0.6693255122	-0.2074102588	 0.112284
H	 0.7872904085	-0.4418289331	 1.4660772691	 0.082175
H	 0.0105720639	 1.5295322476	 2.8232789015	 0.111128
H	-0.5486665644	 3.0421593753	 1.9959632926	 0.114048
H	-2.0887142984	 0.3001366342	 2.0742633682	 0.095909
H	-4.3594730338	 1.6633083865	 0.3268314951	 0.284944
H	-2.4689659424	 3.4387451258	-1.0427262811	 0.117545
H	-1.5455852764	 3.834060777	 0.4729147152	 0.107454
H	-0.9645748487	 1.4837555137	-1.5279725433	 0.10338
81.4094	114.7474	221.6707	275.8333	292.8267	327.9187	376.0758	395.8888	414.5616	459.3307	487.719	618.9646	669.9531	783.4128	834.0728	848.4379	871.4345	907.3003	939.4032	941.1183	987.9935	1000.7532	1007.1606	1024.3817	1051.034	1061.2242	1089.5807	1105.5564	1170.6557	1173.0766	1210.0888	1259.5313	1285.1357	1307.5894	1358.9918	1384.5615	1408.0082	1427.7955	1486.9024	1501.2384	1515.9678	2967.4056	3059.8563	3115.2674	3127.6488	3189.1654	3196.9287	3202.546	3207.7844	3775.6814	3808.9945
OCC12CC1C1(O)CC21	OC[C@]12C[C@H]1[C@@]1(O)C[C@@H]21	
InChI=1S/C7H10O2/c8-3-6-1-4(6)7(9)2-5(6)7/h4-5,8-9H,1-3H2	InChI=1S/C7H10O2/c8-3-6-1-4(6)7(9)2-5(6)7/h4-5,8-9H,1-3H2/t4-,5+,6-,7+/m1/s1
