19
gdb 4920	2.2686607	1.4884854	1.2397159	1.6052	76.55	-0.24232	-0.02866	0.21366000000000002	1115.7099	0.155175	-422.564439	-422.555285	-422.554341	-422.59881	33.108	
C	 1.401356839	-0.3544080463	-0.1509841	-0.257422
O	 0.0010595603	-0.1703904908	-0.0424921873	-0.287268
C	-0.4229581292	 0.625227188	 1.0559970155	 0.327708
C	-1.9777404064	 0.7165586634	 0.9845768115	-0.337458
C	-2.2675116124	 2.164618357	 1.2744677599	-0.057207
C	-1.1611146582	 2.9026838907	 1.3146622728	-0.053882
C	 0.0851607776	 2.0923720827	 1.0649471144	-0.326298
C	-0.0734669499	-0.117055714	 2.3493597173	 0.105666
O	 0.3717828904	 0.3792094634	 3.3500035739	-0.24328
H	 1.8341328003	-0.8190742428	 0.7469497523	 0.117279
H	 1.5636315976	-1.0204261811	-1.0012087314	 0.133733
H	 1.9295462763	 0.5904353023	-0.3361871589	 0.116651
H	-2.2931419095	 0.4137718592	-0.0216189499	 0.129347
H	-2.4705638356	 0.0280511046	 1.6840056515	 0.108602
H	-3.2770431211	 2.5348130865	 1.4114953901	 0.097217
H	-1.1272491792	 3.9725239749	 1.4874798093	 0.097085
H	 0.5375113084	 2.3457477856	 0.098037636	 0.113227
H	 0.8448049836	 2.2437954187	 1.8385697033	 0.127536
H	-0.300009892	-1.2067092818	 2.2821707197	 0.088763
52.1305	88.7452	135.4657	194.0665	217.7698	279.7752	325.2815	382.5524	399.7921	447.0782	565.4923	604.7498	706.7264	770.2471	799.6531	884.4059	933.1588	962.247	978.4753	985.1767	991.0746	1068.0221	1086.641	1131.1458	1145.6967	1152.5715	1180.6662	1183.9441	1230.9792	1272.3391	1300.627	1340.5569	1366.9725	1401.2426	1461.7201	1478.7602	1483.6051	1490.4757	1509.6294	1696.7529	1834.0122	2867.0876	2992.7355	3015.8305	3029.6223	3047.9695	3050.6468	3078.4689	3122.305	3186.5684	3211.4491
COC1(CC=CC1)C=O	CO[C@@]1(CC=CC1)C=O	
InChI=1S/C7H10O2/c1-9-7(6-8)4-2-3-5-7/h2-3,6H,4-5H2,1H3	InChI=1S/C7H10O2/c1-9-7(6-8)4-2-3-5-7/h2-3,6H,4-5H2,1H3
