19
gdb 4556	3.1867016	1.1340164	0.8840662	1.8335	78.33	-0.25798	0.03367	0.29164999999999996	1315.3029	0.156246	-422.529499	-422.520698	-422.519754	-422.562737	33.353	
C	 0.1928237174	-0.4082546133	-0.6111532042	-0.404455
C	 1.1562634543	 0.1856411648	 0.4023949565	 0.120696
C	 2.4896032434	-0.5683520467	 0.4911273348	-0.205745
C	 3.4623876262	 0.2184595082	 1.3916446982	-0.086809
O	 3.5559521656	 1.567493099	 0.9309758323	-0.246181
C	 2.2883440004	 2.1735873147	 0.8985092289	 0.020494
O	 1.4002859274	 1.5406348104	 0.0214683284	-0.24672
C	 4.7967549272	-0.3674302433	 1.4195327184	 0.303608
C	 5.8772597308	-0.8909854029	 1.4413365866	-0.410079
H	-0.0554986914	-1.4401027871	-0.345195428	 0.116596
H	-0.7304373341	 0.1762476772	-0.6449750861	 0.127002
H	 0.6399734273	-0.4029747859	-1.6096613161	 0.129352
H	 0.6856256935	 0.1848212156	 1.4026213637	 0.064983
H	 2.3398696509	-1.5754979358	 0.8931406263	 0.108608
H	 2.9296345126	-0.6564842997	-0.5071023154	 0.120714
H	 3.0575153285	 0.2260418229	 2.4202022268	 0.093963
H	 1.8595943671	 2.1915124352	 1.9200837245	 0.074388
H	 2.436246314	 3.1912776021	 0.5329321899	 0.121353
H	 6.838638099	-1.3418316254	 1.4629376245	 0.198234
106.9679	138.4801	161.231	224.2825	275.6104	303.986	359.6779	410.6142	449.2351	486.005	524.1337	562.7329	623.5466	675.5168	680.7563	828.0971	864.5031	920.4116	947.9079	1009.5607	1040.316	1056.0686	1082.0711	1126.3996	1142.0709	1159.1187	1217.828	1234.0705	1275.5788	1304.2132	1356.9392	1375.6522	1380.6052	1393.3862	1412.9316	1443.758	1465.9357	1483.2315	1498.8545	1505.3887	2246.7966	2908.7413	2931.7012	2941.2499	3043.1099	3052.0133	3103.9831	3117.7574	3119.493	3123.125	3504.3729
CC1CC(OCO1)C#C	C[C@H]1C[C@H](OCO1)C#C	
InChI=1S/C7H10O2/c1-3-7-4-6(2)8-5-9-7/h1,6-7H,4-5H2,2H3	InChI=1S/C7H10O2/c1-3-7-4-6(2)8-5-9-7/h1,6-7H,4-5H2,2H3/t6-,7+/m0/s1
