19
gdb 3922	3.0333532	1.6629666	1.379005	2.7152	76.39	-0.2341	0.06886	0.30296	995.0863	0.155682	-422.43006	-422.422001	-422.421057	-422.461856	32.428	
C	-0.0053248426	-0.0161124459	 0.094066993	-0.411393
C	 1.5012921482	-0.0868937963	 0.1001039598	 0.044902
O	 2.0219290054	-0.8586810791	-1.0761190675	-0.373592
C	 2.97854886	-1.4092552592	-0.1736372641	 0.389646
C	 4.1568824887	-0.5296808589	 0.3606277186	-0.279934
C	 3.6876238874	-1.4016726706	 1.532069247	-0.143565
C	 3.6562217484	-2.641000543	 0.4951846754	-0.30919
C	 2.1940225544	-1.1388754258	 1.0842526802	 0.266981
O	 1.2703024473	-2.1230796746	 1.4950680622	-0.447889
H	-0.3563794908	 0.5654512182	 0.9539219315	 0.11094
H	-0.3452177295	 0.4852166093	-0.8174189965	 0.127843
H	-0.4394751351	-1.0146445898	 0.1394358297	 0.145144
H	 1.9449147106	 0.9115403855	 0.0945084263	 0.089928
H	 5.1417613565	-0.7589305264	-0.0487437407	 0.098277
H	 3.9986877407	 0.5451998628	 0.4455910528	 0.097971
H	 4.109957976	-1.4400320113	 2.5383610626	 0.078715
H	 4.6314211441	-2.9625834207	 0.1210526951	 0.098557
H	 3.0075339597	-3.4703766606	 0.763753042	 0.130233
H	 1.0466115804	-1.9384041738	 2.4118907623	 0.286427
160.7366	197.2477	219.0075	268.2711	316.4552	349.5523	398.8116	456.4786	525.1715	534.1382	568.7953	647.0214	730.9531	772.011	792.8038	850.9846	886.6793	946.412	956.6095	970.4856	995.667	1023.0012	1046.0822	1056.8718	1076.8082	1130.1761	1136.2189	1157.3507	1173.7105	1193.0699	1207.3055	1219.5313	1234.8997	1258.7575	1351.6184	1372.2965	1401.6624	1478.8802	1486.6342	1493.0594	1532.3192	3039.9531	3070.8393	3071.5549	3081.1322	3093.0055	3104.5576	3146.3518	3157.3914	3183.645	3825.9164	160.7368	197.2479	219.0077	268.2711	316.4553	349.5524	398.8116	456.4786	525.1716	534.1381	568.7953	647.0214	730.9531	772.0107	792.8037	850.9847	886.6794	946.4121	956.6095	970.4857	995.667	1023.0012	1046.0822	1056.8718	1076.8082	1130.1761	1136.219	1157.3508	1173.7105	1193.07	1207.3055	1219.5314	1234.8997	1258.7576	1351.6183	1372.2967	1401.6624	1478.8802	1486.6343	1493.0595	1532.3192	3039.9531	3070.8393	3071.5549	3081.1322	3093.0056	3104.5576	3146.3518	3157.3914	3183.645	3825.9167
CC1OC23CC(C2)C13O	C[C@@H]1O[C@]23C[C@H](C2)[C@@]13O	
InChI=1S/C7H10O2/c1-4-7(8)5-2-6(7,3-5)9-4/h4-5,8H,2-3H2,1H3	InChI=1S/C7H10O2/c1-4-7(8)5-2-6(7,3-5)9-4/h4-5,8H,2-3H2,1H3/t4-,5-,6-,7-/m0/s1
