19
gdb 4468	2.7703329	1.6670955	1.2679574	1.7838	76.7	-0.23858	0.00434	0.24292	1035.9338	0.158058	-422.554575	-422.546574	-422.545629	-422.587144	30.253	
C	-0.3288647436	 1.4710304224	 0.2710999606	-0.390955
C	 0.1169986415	 0.0425358235	-0.0137032347	 0.093698
O	-1.0014480583	-0.8506275811	-0.2183575186	-0.292172
C	-1.3675883045	-1.5167212982	 1.0050598175	-0.172555
C	-0.2934953855	-1.1327022046	 1.9651538177	 0.290508
C	-0.1250281738	-0.8217898722	 3.2427565537	-0.272467
C	 1.1952268442	-0.0957754431	 3.3875878081	-0.111282
O	 1.6146814212	 0.1917474911	 2.0453758498	-0.278026
C	 0.8692589458	-0.6235793464	 1.1606088129	 0.047492
H	 0.5405848216	 2.1299169337	 0.3515337591	 0.12604
H	-0.9707978172	 1.827100362	-0.5389747845	 0.119043
H	-0.8870253632	 1.5328544191	 1.2100921972	 0.114957
H	 0.6915537644	 0.0080345798	-0.9443895148	 0.08229
H	-2.3639094522	-1.197013117	 1.3362305326	 0.115246
H	-1.409134088	-2.5960864681	 0.806513779	 0.116019
H	-0.8079968003	-0.9804851489	 4.0676585194	 0.108918
H	 1.0936414476	 0.8486779105	 3.938406545	 0.115161
H	 1.9623856567	-0.6962102974	 3.9043141128	 0.105974
H	 1.5000383536	-1.4385080349	 0.7677668472	 0.08211
100.9951	113.4563	211.8352	234.2377	247.4892	353.2342	401.9295	458.1807	594.8403	662.361	736.4918	775.7637	805.1462	821.5044	875.0371	929.8615	934.4022	982.3233	1007.3614	1027.3042	1037.5668	1059.9627	1085.9099	1124.1612	1151.6855	1182.6378	1197.5178	1203.2343	1264.2766	1285.8039	1324.287	1349.5067	1367.5551	1380.0136	1389.7394	1408.5687	1483.5378	1493.0881	1512.2474	1516.8845	1755.1594	2957.7093	2965.976	3007.8754	3029.1011	3037.221	3044.0597	3060.6809	3118.5313	3124.2018	3215.0321
CC1OCC2=CCOC12	C[C@@H]1OC[C]2[CH]CO[C@H]12	
InChI=1S/C7H10O2/c1-5-7-6(4-9-5)2-3-8-7/h2,5,7H,3-4H2,1H3	InChI=1S/C7H10O2/c1-5-7-6(4-9-5)2-3-8-7/h2,5,7H,3-4H2,1H3/t5-,7+/m0/s1
