19
gdb 5642	3.2010268	1.0305702	0.8325306	3.8851	79.62	-0.2365	-0.04092	0.19557999999999998	1389.1636	0.156043	-422.599393	-422.58991	-422.588966	-422.634328	33.925	
C	 1.3156566693	 0.7171569526	-0.6531285572	-0.492296
C	 0.0595043002	 0.1158021487	-0.1147411203	 0.206749
C	-0.2130143313	-1.1577793767	 0.2013107	-0.174256
C	-1.622213775	-1.3814581851	 0.7019028424	-0.07261
C	-2.3917534208	-2.3805699963	-0.1795258958	-0.066344
O	-3.7332625468	-2.5618075996	 0.236551947	-0.411647
C	-2.237547095	 0.032584069	 0.7053985663	-0.345547
C	-1.1408740248	 0.9541115627	 0.1607914719	 0.329274
O	-1.2232195022	 2.1491188716	-0.0098318266	-0.327571
H	 1.6895646784	 1.4933573841	 0.0234145986	 0.143963
H	 2.0985167074	-0.0313260886	-0.7977330472	 0.119856
H	 1.1225260004	 1.2148687432	-1.6096943626	 0.144739
H	 0.4874478837	-1.9821731553	 0.0987154687	 0.105097
H	-1.5900713094	-1.8021328089	 1.718567339	 0.076872
H	-2.4473765107	-1.9950808913	-1.2035593031	 0.11743
H	-1.8479427917	-3.337940206	-0.2188188874	 0.088634
H	-3.7231088614	-2.9523310437	 1.1165200534	 0.28348
H	-3.1348670355	 0.0973525313	 0.0832468992	 0.144508
H	-2.5286979048	 0.3709647581	 1.7042297635	 0.129669
56.805	94.7496	114.2918	129.201	250.4287	257.8763	309.3782	328.6386	393.9039	430.1978	518.7705	606.1059	618.8007	701.2932	766.7553	862.3388	892.5559	902.7706	970.9966	1015.4492	1031.4479	1067.7162	1075.4219	1093.8354	1099.3173	1143.2536	1214.4328	1228.1573	1263.1225	1295.8704	1336.1347	1358.6138	1387.4896	1412.735	1414.356	1454.7307	1472.7166	1483.2752	1506.3588	1699.3993	1809.1281	2976.4421	2986.0146	3037.4822	3066.5367	3072.2138	3091.5326	3105.609	3122.8775	3170.3151	3811.7615
CC1=CC(CO)CC1=O	CC1=C[C@H](CO)CC1=O	
InChI=1S/C7H10O2/c1-5-2-6(4-8)3-7(5)9/h2,6,8H,3-4H2,1H3	InChI=1S/C7H10O2/c1-5-2-6(4-8)3-7(5)9/h2,6,8H,3-4H2,1H3/t6-/m0/s1
