19
gdb 2974	2.4764153	1.5966825	1.2756412	2.8084	75.64	-0.2262	-0.01672	0.20948	1068.2992	0.156652	-422.548012	-422.539609	-422.538665	-422.580567	32.152	
C	-3.1845519496	 0.0988129237	 1.1039232029	-0.441246
C	-1.6684435286	 0.1011806879	 0.9585520041	 0.017212
C	-0.9950685872	-1.0346587886	 0.1257727469	-0.040055
O	-1.5674477284	-0.867095578	-1.180690467	-0.2966
C	-1.3983428766	 0.5615381047	-1.4403135887	 0.154893
C	-2.6607302577	 1.1886185745	-2.0081371274	-0.425418
C	-0.8813825714	 1.0211969155	-0.0575170424	-0.232694
C	 0.2114257779	-0.0674280989	 0.0979417433	 0.436841
O	 1.3914368707	-0.1046567553	 0.2628734049	-0.316343
H	-3.4722668526	-0.5363695472	 1.9480170445	 0.120915
H	-3.5734163941	 1.1028716655	 1.3006145967	 0.122087
H	-3.6689016331	-0.2957281507	 0.2098717922	 0.142739
H	-1.189516566	 0.1855486794	 1.9400002032	 0.097774
H	-0.9691046012	-2.0844202706	 0.4075382954	 0.097966
H	-0.5983243909	 0.6770115176	-2.1866186766	 0.092254
H	-3.4751857093	 1.2422329862	-1.2854045446	 0.126107
H	-2.4419469943	 2.2035433239	-2.3561572415	 0.119592
H	-2.9992428093	 0.6031879418	-2.8688634673	 0.133649
H	-0.6952902381	 2.0802892186	 0.1056053414	 0.090326
139.224	175.9961	182.701	225.7858	259.6379	275.8949	300.6679	443.3207	512.571	530.6254	655.9382	682.6358	725.1246	751.814	795.945	837.8845	880.3617	959.6025	1000.2569	1026.0678	1051.515	1059.9939	1073.3708	1087.1729	1115.7809	1128.137	1135.8192	1195.3156	1215.7931	1265.1066	1280.5624	1331.0062	1390.7534	1404.1309	1407.1669	1423.3549	1487.3471	1491.2789	1497.5538	1516.7235	1912.3356	2985.9626	3041.3244	3046.937	3054.8855	3099.6597	3108.7199	3141.324	3153.0033	3155.1279	3161.8219
CC1C2OC(C)C1C2=O	C[C@H]1[C@H]2O[C@@H](C)[C@@H]1C2=O	
InChI=1S/C7H10O2/c1-3-5-4(2)9-7(3)6(5)8/h3-5,7H,1-2H3	InChI=1S/C7H10O2/c1-3-5-4(2)9-7(3)6(5)8/h3-5,7H,1-2H3/t3-,4+,5-,7-/m1/s1
