19
gdb 2703	2.8030576	1.1957024	0.8874026	1.7615	76.72	-0.24573	-0.03022	0.21551	1285.5789	0.155472	-422.606791	-422.597567	-422.596623	-422.64156	33.069	
C	-0.1303482883	 2.4924548382	 0.4052066283	-0.410428
C	-0.9479029772	 1.2564516606	 0.0400706265	-0.105766
C	-2.01276736	 0.7919821899	 1.0582098987	-0.080684
C	-2.2483048817	-0.6993568937	 0.6893722934	-0.251113
C	-0.8590221237	-1.2248564627	 0.3010356872	-0.32624
C	-0.0904816211	 0.001867383	-0.1978697696	 0.400118
O	 1.0111725603	 0.0016622871	-0.6809256531	-0.312811
C	-3.2807784536	 1.6044627887	 0.9687289461	 0.157826
O	-3.7832997495	 2.223458027	 1.8692463946	-0.247615
H	 0.3400232871	 2.372149565	 1.3864625956	 0.125614
H	 0.6637956942	 2.6407675737	-0.3306908885	 0.143254
H	-0.7538933611	 3.3901641062	 0.4376916596	 0.125692
H	-1.4576729888	 1.4323676249	-0.9232595396	 0.105951
H	-1.6241225081	 0.8780643089	 2.078658315	 0.097072
H	-2.7097115174	-1.2528816424	 1.5095696495	 0.122336
H	-2.9303982775	-0.7595387916	-0.1680686097	 0.111288
H	-0.3193916039	-1.6148361183	 1.1729798615	 0.140699
H	-0.8607092695	-2.0180407344	-0.4505734741	 0.135847
H	-3.7431437999	 1.59026957	-0.0494864314	 0.068961
56.952	63.444	133.8616	190.1976	229.4951	259.0126	294.0656	396.6224	418.1307	476.3486	558.1216	592.5794	632.7199	721.2679	828.3723	873.6486	918.3852	970.8837	1001.0197	1004.4653	1036.9055	1067.8889	1093.6917	1140.5134	1163.0365	1191.0871	1218.3643	1249.0364	1284.7445	1303.3301	1304.1824	1339.3607	1359.5622	1409.1965	1425.2114	1450.0791	1492.5745	1496.6263	1498.2541	1835.3349	1846.1851	2827.6107	2964.6381	3033.4094	3043.3757	3044.6062	3060.3481	3104.1263	3111.493	3112.0953	3128.7931
CC1C(CCC1=O)C=O	C[C@@H]1[C@H](CCC1=O)C=O	
InChI=1S/C7H10O2/c1-5-6(4-8)2-3-7(5)9/h4-6H,2-3H2,1H3	InChI=1S/C7H10O2/c1-5-6(4-8)2-3-7(5)9/h4-6H,2-3H2,1H3/t5-,6-/m1/s1
