19
gdb 4189	2.6896574	1.4287699	1.2748091	2.4741	76.23	-0.24273	0.00287	0.2456	1075.8884	0.157385	-422.556444	-422.547962	-422.547018	-422.589189	33.177	
O	 0.5121980552	 0.2327158076	 0.6521397503	-0.43839
C	 0.0186648452	 1.5019966904	 1.0924567705	 0.083698
C	-1.3052775864	 1.881203075	 0.4074780052	-0.253876
C	-2.5038145486	 1.134016557	 0.9901558091	-0.084196
C	-3.4417432729	 1.8231356768	 1.9680421091	-0.352164
C	-2.4651593359	 0.774502316	 2.4466850069	 0.380929
O	-2.9787545245	-0.4970113913	 2.7654488686	-0.472035
C	-1.2466013344	 1.1642111256	 3.2092643058	-0.139069
C	-0.1115095503	 1.5130831474	 2.6024259289	-0.091905
H	-0.0288599852	-0.442642262	 1.076614178	 0.286068
H	 0.7894200598	 2.2147659786	 0.7812307446	 0.083637
H	-1.4498648187	 2.9632370171	 0.5128099049	 0.098739
H	-1.2087203012	 1.6745467165	-0.6622607981	 0.10977
H	-2.9695726133	 0.3869828659	 0.3567345891	 0.101176
H	-3.2485160789	 2.8633482941	 2.2118534888	 0.112189
H	-4.4877489022	 1.5367695261	 1.9425280155	 0.112107
H	-3.3985029687	-0.440119124	 3.6314023308	 0.280877
H	-1.3095875356	 1.1213529994	 4.2956736714	 0.085678
H	 0.7759175466	 1.7506325139	 3.1820505106	 0.096767
73.64	160.6886	233.5568	284.1734	320.7124	353.0664	364.6936	371.2829	448.5203	507.4757	565.2502	585.5082	682.9771	770.987	787.4442	845.2255	873.439	909.529	929.58	941.0855	987.2113	1000.6777	1029.456	1037.7438	1064.9297	1107.0688	1133.9066	1183.5309	1212.2335	1242.6252	1265.6332	1283.2717	1328.1429	1338.3139	1387.3058	1407.4469	1414.6225	1433.7849	1469.3797	1486.1663	1704.5481	3030.5947	3057.6444	3087.4147	3121.6905	3131.8694	3169.799	3173.562	3216.656	3788.9076	3802.6525
OC1CC2CC2(O)C=C1	O[C@H]1C[C@@H]2C[C@]2(O)C=C1	
InChI=1S/C7H10O2/c8-6-1-2-7(9)4-5(7)3-6/h1-2,5-6,8-9H,3-4H2	InChI=1S/C7H10O2/c8-6-1-2-7(9)4-5(7)3-6/h1-2,5-6,8-9H,3-4H2/t5-,6-,7-/m1/s1
