19
gdb 5106	3.8549798	1.2777114	1.1420036	1.2285	74.23	-0.24899	0.07683	0.32582	1116.1641	0.15692	-422.5183	-422.510314	-422.50937	-422.550617	30.998	
C	 1.3966954987	-0.1679639015	 0.0385132093	-0.252129
O	 0.0069787118	 0.1039292288	 0.0675435514	-0.28188
C	-0.4106872899	 0.7755710444	 1.213143489	 0.429333
C	-0.5588798615	-0.0069834821	 2.4900286115	-0.344039
C	-1.7925812277	 0.4951495112	 1.7552798686	-0.147197
C	-2.3637680157	 1.8154540613	 2.2146593584	 0.026545
O	-1.6333533807	 2.4437677034	 3.2804145753	-0.255881
C	-1.3923917075	 2.8886534389	 1.938749455	 0.043268
C	-0.1590123726	 2.2932580442	 1.2757426727	-0.329462
H	 1.7120089662	-0.758457936	 0.9100802497	 0.110523
H	 1.5901355723	-0.7409592164	-0.87128621	 0.126255
H	 1.9949145893	 0.7539963359	 0.008646257	 0.109045
H	-0.3682980741	-1.0722402168	 2.4156377207	 0.112436
H	-0.3124199541	 0.4554252539	 3.4378610761	 0.134242
H	-2.4444985376	-0.2198850024	 1.2692629317	 0.095958
H	-3.4385753022	 1.9698862795	 2.2358720729	 0.096838
H	-1.6712828828	 3.9210370788	 1.7413496571	 0.09664
H	-0.0824046417	 2.6683367357	 0.2489695351	 0.115005
H	 0.7595380697	 2.5665843392	 1.8051543287	 0.114497
106.5153	151.3197	183.6338	274.5661	305.7283	363.4963	410.9573	412.5636	563.1434	639.7935	695.3868	714.308	815.4997	827.7005	876.2106	892.791	921.5317	951.6163	969.0854	990.9937	1048.6354	1051.8225	1067.7976	1075.8187	1099.1739	1118.9838	1182.8181	1196.6449	1209.7254	1239.7534	1257.7397	1268.1653	1304.645	1341.9273	1373.9741	1417.1861	1463.5623	1471.3293	1485.9762	1490.9742	1508.341	2991.4883	3042.4922	3046.0395	3088.8549	3118.6661	3139.0033	3139.5605	3159.0784	3196.943	3236.3088
COC12CC1C1OC1C2	CO[C@]12C[C@H]1[C@H]1O[C@H]1C2	
InChI=1S/C7H10O2/c1-8-7-2-4(7)6-5(3-7)9-6/h4-6H,2-3H2,1H3	InChI=1S/C7H10O2/c1-8-7-2-4(7)6-5(3-7)9-6/h4-6H,2-3H2,1H3/t4-,5-,6+,7-/m0/s1
