19
gdb 3082	3.4186948	1.5000087	1.3521861	3.1859	73.51	-0.24604	0.07424	0.32028	1015.3939	0.158469	-422.529592	-422.522292	-422.521348	-422.56087	29.351	
C	 0.8492402698	 1.0599439293	 0.0063465201	-0.424528
C	 1.0349683671	-0.4504157838	 0.0001852924	 0.006617
C	 2.1050248052	-0.968749942	 1.0010329892	 0.08645
C	 1.959548271	-2.4614023382	 1.317982373	-0.257334
C	 1.7593178134	-3.2433486816	 0.0212877525	 0.042617
O	 2.8829820188	-3.3523790289	-0.8621369992	-0.239715
C	 1.8285725387	-2.4720816823	-1.2300384534	 0.039213
C	 2.0807602346	-0.9793419313	-1.0167336728	 0.033218
O	 3.1228815314	-0.8133694315	-0.0292720212	-0.281639
H	 0.3012314561	 1.3849202877	 0.8973243587	 0.115832
H	 1.8185396864	 1.5673154779	-0.0015391927	 0.13551
H	 0.2837450817	 1.3907138858	-0.8713262623	 0.115664
H	 0.0721264956	-0.9722836221	 0.0085583195	 0.068714
H	 2.3178300843	-0.3618477534	 1.8866600484	 0.074783
H	 2.8495784629	-2.822458218	 1.8450895084	 0.123185
H	 1.0968587243	-2.6226725993	 1.976231675	 0.10107
H	 1.1529526511	-4.1461431019	 0.0751827929	 0.093802
H	 1.2461730058	-2.7627678104	-2.1039359344	 0.090397
H	 2.2815511717	-0.422560256	-1.9365839842	 0.076144
179.8339	221.505	245.9778	279.0006	332.6048	406.6017	424.6212	491.8809	612.4672	731.3661	790.7696	813.9093	827.3162	873.0049	897.6675	911.4537	933.8307	973.3882	996.4941	1007.8435	1052.8062	1063.5076	1083.6914	1088.9319	1118.5011	1150.8474	1196.7071	1227.831	1246.2061	1269.1627	1287.3341	1305.0998	1336.7943	1347.8416	1365.5694	1403.5398	1408.4858	1453.0721	1463.3456	1494.6303	1503.7559	3031.5971	3032.5803	3049.1435	3062.6895	3070.3796	3079.1797	3095.6098	3111.9483	3113.3517	3124.6397
CC1C2CC3OC3C1O2	C[C@@H]1[C@H]2C[C@@H]3O[C@@H]3[C@@H]1O2	
InChI=1S/C7H10O2/c1-3-4-2-5-7(9-5)6(3)8-4/h3-7H,2H2,1H3	InChI=1S/C7H10O2/c1-3-4-2-5-7(9-5)6(3)8-4/h3-7H,2H2,1H3/t3-,4-,5+,6-,7+/m1/s1
