19
gdb 1872	2.5560031	1.7829127	1.3579556	1.8867	74.35	-0.2256	0.07575	0.30135	1009.4993	0.155874	-422.524285	-422.516007	-422.515063	-422.556363	32.987	
C	-0.0828460674	-0.1237043132	 0.0123221151	-0.457779
C	 1.4181728721	-0.0855772772	 0.0091653546	 0.389897
C	 2.2139979046	 0.205927673	 1.2729715325	-0.425366
C	 2.25953541	 1.1587497843	 0.0920810722	 0.324216
O	 1.6460368258	 2.407365153	 0.1883831875	-0.474091
C	 3.3422439451	 1.0049464178	-0.9633249011	-0.134029
C	 4.3701261888	-0.1049933468	-0.8525657995	-0.336052
C	 3.0798673842	-0.3362004687	-1.5940998984	 0.096092
O	 2.0105396414	-0.9669332052	-0.9269557919	-0.299978
H	-0.4750705995	 0.6681268446	 0.6551600452	 0.12815
H	-0.469807584	 0.0298986813	-0.9996322416	 0.125173
H	-0.4517383911	-1.0870041996	 0.3789864088	 0.123785
H	 1.6316709151	 0.5475029975	 2.1234842621	 0.112096
H	 3.0693463834	-0.4083938942	 1.5264085214	 0.114989
H	 2.1555850272	 2.9429331309	 0.806088035	 0.285707
H	 3.5584417996	 1.8944225353	-1.5419814048	 0.096196
H	 5.2645776166	 0.0000731824	-1.4585258537	 0.112265
H	 4.5343514149	-0.5985548076	 0.0976656861	 0.119341
H	 3.0832060732	-0.5280940276	-2.6616403597	 0.099388
163.8689	176.9648	208.0511	233.0935	300.6459	343.6123	402.5021	434.6526	473.4441	517.5676	562.2698	683.0291	714.5778	756.546	793.404	822.1784	862.8441	915.058	943.957	957.0969	968.3008	986.9292	1018.6698	1032.7046	1067.2033	1094.955	1112.4831	1150.86	1171.9469	1187.1566	1216.6894	1244.3821	1299.6841	1350.3262	1368.4943	1401.4452	1417.3937	1472.4369	1477.9121	1488.5729	1504.0991	3040.0056	3105.3679	3126.1542	3130.1277	3135.7109	3165.8442	3189.8192	3219.8353	3226.5545	3797.2297
CC12CC1(O)C1CC1O2	C[C@]12C[C@@]1(O)[C@H]1C[C@H]1O2	
InChI=1S/C7H10O2/c1-6-3-7(6,8)4-2-5(4)9-6/h4-5,8H,2-3H2,1H3	InChI=1S/C7H10O2/c1-6-3-7(6,8)4-2-5(4)9-6/h4-5,8H,2-3H2,1H3/t4-,5+,6-,7+/m0/s1
