19
gdb 4238	3.1075527	1.6444393	1.3676178	2.3217	74.63	-0.24428	0.07364	0.31792	986.9541	0.158897	-422.513911	-422.506773	-422.505829	-422.545023	29.622	
O	 0.3173878901	-0.1098678079	 0.7752154294	-0.432195
C	-0.9875636391	 0.3723610402	 0.869366222	 0.040221
C	-1.9953620644	 0.2285477702	-0.3476217933	-0.310383
C	-2.5562049805	 1.6369743128	 0.0213017874	-0.005629
C	-2.5963239501	 2.940948187	-0.8206963337	-0.255696
C	-1.2867234838	 3.5567644961	-0.2431817125	 0.071717
C	-1.2866628483	 3.3130662532	 1.3044182162	-0.341224
C	-1.21669247	 1.8859980955	 0.7416923463	 0.381854
O	-0.3958911026	 2.4065982509	-0.3636169479	-0.338813
H	 0.7533951782	 0.4096819287	 0.0885467064	 0.295099
H	-1.4267010388	-0.0402411994	 1.7818705443	 0.099607
H	-1.4572269521	 0.2183127169	-1.2965477214	 0.114425
H	-2.6898906493	-0.612461497	-0.3084657595	 0.09894
H	-3.4044291904	 1.5514304173	 0.7046919058	 0.075181
H	-2.4951176143	 2.7914751242	-1.8984072091	 0.112134
H	-3.4913997356	 3.54078504	-0.633871916	 0.098197
H	-0.8901416231	 4.4722673497	-0.6837559616	 0.082793
H	-0.3595378608	 3.674590581	 1.7504307958	 0.116306
H	-2.1616711953	 3.5905974405	 1.8978632914	 0.097466
145.7835	211.4742	295.8619	390.6324	415.1984	444.6296	488.5459	511.1516	629.8178	666.7785	675.6427	804.4024	806.5386	824.0864	854.6516	866.6348	912.973	954.5521	973.5712	983.7884	1030.4438	1053.9896	1075.6417	1093.3463	1135.6642	1144.2657	1165.4215	1184.7369	1201.6968	1220.4222	1237.0127	1265.2566	1270.39	1290.6201	1306.2844	1332.4888	1353.3808	1447.3186	1471.6279	1481.2711	1489.4085	3061.206	3066.5077	3076.0363	3079.1675	3082.8086	3113.627	3117.9468	3143.1997	3144.9804	3788.3371
OC1CC2CC3CC12O3	O[C@@H]1C[C@@H]2C[C@H]3C[C@@]12O3	
InChI=1S/C7H10O2/c8-6-2-4-1-5-3-7(4,6)9-5/h4-6,8H,1-3H2	InChI=1S/C7H10O2/c8-6-2-4-1-5-3-7(4,6)9-5/h4-6,8H,1-3H2/t4-,5-,6+,7-/m0/s1
