19
gdb 479	3.4106784	1.4637086	1.3064061	2.0069	74.	-0.24094	0.07221	0.31315	1020.059	0.158692	-422.509439	-422.502139	-422.501195	-422.541352	28.507	
C	-0.1982472	 1.2080208905	 0.7245896754	-0.170428
O	-0.1150149859	-0.1897742003	 0.3667887611	-0.27696
C	 1.1333651777	 0.0055438635	-0.3268534536	-0.165507
C	 1.1496422702	 1.495014525	 0.0566356943	 0.354319
C	 1.4599197072	 2.6179033659	-0.9773917466	-0.15422
C	 2.9633579473	 2.355237704	-0.6430515348	-0.249768
C	 2.3568521168	 2.1486870236	 0.7651503619	 0.036259
O	 1.8591255882	 3.4493029548	 1.1187112835	-0.282791
C	 1.1997644179	 3.8531357966	-0.1071761389	-0.08371
H	-1.0706462446	 1.6963790252	 0.2684100643	 0.097887
H	-0.2333988355	 1.3597708724	 1.8102070201	 0.112408
H	 1.9375589263	-0.6146725899	 0.0909373684	 0.102218
H	 1.0451220595	-0.2068023579	-1.4012454737	 0.099565
H	 1.0612054358	 2.6098270183	-1.9915460579	 0.076288
H	 3.3458850713	 1.4380199406	-1.0940624562	 0.109838
H	 3.6727950889	 3.1771020085	-0.7641098927	 0.102759
H	 2.8810593715	 1.7086526521	 1.6124483432	 0.084062
H	 0.1364174591	 4.0400466108	 0.0836730928	 0.104039
H	 1.6578335282	 4.7688420963	-0.4981146106	 0.103743
79.7648	171.5761	206.7488	295.3035	380.9638	403.6982	518.7673	573.9476	677.6931	806.4169	849.5006	856.205	876.1956	919.3587	939.5335	950.6554	964.718	980.9704	995.4646	1033.6653	1036.4903	1070.771	1089.5939	1125.3228	1142.9541	1145.2846	1155.3951	1186.0008	1199.2144	1205.8887	1239.9191	1263.9624	1281.2235	1304.0587	1315.8937	1368.0637	1387.3946	1489.7419	1506.4204	1526.1996	1532.0315	2992.6439	3004.5419	3024.5163	3036.0229	3050.8391	3064.7643	3069.8474	3122.9831	3134.5937	3136.2334
C1OCC11C2CC1OC2	C1OCC21[C@@H]1C[C@H]2OC1	
InChI=1S/C7H10O2/c1-5-2-9-6(1)7(5)3-8-4-7/h5-6H,1-4H2	InChI=1S/C7H10O2/c1-5-2-9-6(1)7(5)3-8-4-7/h5-6H,1-4H2/t5-,6-/m1/s1
