19
gdb 5759	3.6420939	1.180269	1.054263	2.4049	74.45	-0.24908	0.0706	0.31967999999999996	1176.2986	0.156943	-422.490637	-422.48261	-422.481666	-422.52334	30.868	
O	 1.4600877391	 0.5852952934	-0.3471722294	-0.423893
C	 0.1031112761	 0.2991830755	-0.0394075532	-0.107711
C	-0.6970706646	 0.3850440194	-1.3247703137	 0.042066
C	-2.2475497374	 0.337041322	-1.1241276946	-0.273305
C	-2.3690700121	 1.781624704	-1.6920126213	-0.060501
C	-2.5338867597	 1.9151902413	-3.2272927089	 0.012689
O	-1.8436037445	 0.8238322045	-3.846319733	-0.234917
C	-1.072555742	 1.956505443	-3.4227506412	 0.010226
C	-0.8190316964	 1.8271316863	-1.9016794067	-0.05588
H	 1.9681114439	 0.5545551102	 0.4686361252	 0.286345
H	-0.007829519	-0.7074845862	 0.3962641296	 0.085718
H	-0.2963643253	 1.0181931542	 0.6962315803	 0.076993
H	-0.314377361	-0.3436895417	-2.0422760751	 0.089922
H	-2.7661288236	-0.4325112921	-1.6976282815	 0.11234
H	-2.5475146755	 0.261231132	-0.0744922881	 0.092097
H	-2.8890169412	 2.5380484877	-1.1042826468	 0.071077
H	-3.348088447	 2.357791771	-3.7910281003	 0.099677
H	-0.4605857349	 2.4354853666	-4.1791894523	 0.100905
H	-0.1962656848	 2.6060133188	-1.462616229	 0.076153
90.2654	118.1089	198.9773	264.266	274.47	305.0027	442.0982	471.1218	593.2261	696.7338	750.7217	796.5952	826.1392	839.1317	874.4654	889.526	903.1624	944.2376	971.1138	1005.3276	1016.1045	1045.3422	1068.3686	1076.1268	1099.7226	1122.0206	1154.4763	1193.7144	1214.2484	1229.3355	1244.701	1258.7932	1266.7043	1280.2832	1283.5723	1306.1277	1347.5531	1385.0479	1457.261	1470.2514	1519.9641	2950.9093	2980.7813	3055.616	3090.8637	3109.8596	3121.6494	3125.4441	3167.5581	3183.158	3830.3047
OCC1CC2C3OC3C12	OC[C@H]1C[C@@H]2[C@@H]3O[C@@H]3[C@H]12	
InChI=1S/C7H10O2/c8-2-3-1-4-5(3)7-6(4)9-7/h3-8H,1-2H2	InChI=1S/C7H10O2/c8-2-3-1-4-5(3)7-6(4)9-7/h3-8H,1-2H2/t3-,4+,5-,6+,7-/m1/s1
