19
gdb 3777	4.1902794	1.0156237	0.9173877	1.093	76.33	-0.23999	0.07919	0.31918	1305.9617	0.15605	-422.501839	-422.493344	-422.492399	-422.535177	32.359	
O	 3.506554138	 1.3877021303	 15.3321519592	-0.426932
C	 3.8557944537	 2.730537626	 15.1641985818	 0.102958
C	 5.0777434409	 3.0923154808	 14.3609405529	-0.332298
C	 3.6911780923	 3.281495364	 13.7759789665	-0.169964
C	 3.1333718011	 4.636907865	 13.5771304612	 0.438837
C	 1.6893084802	 5.0335210571	 13.2080002017	-0.293858
C	 2.2621667778	 6.337493302	 12.5487493812	-0.237604
C	 3.6637166993	 5.8712338887	 12.9600516604	-0.045622
O	 3.6467818928	 5.7067791215	 14.3875333651	-0.291562
H	 4.0981107826	 1.0089788582	 15.9910972211	 0.287562
H	 3.5920741812	 3.3909608013	 15.9893885768	 0.101244
H	 5.6252622155	 3.9828733752	 14.6465337809	 0.127059
H	 5.6680709621	 2.2749078153	 13.9626008697	 0.110664
H	 3.3803876624	 2.5478780402	 13.038163316	 0.09813
H	 1.2313920281	 4.3614453999	 12.4781174017	 0.107075
H	 1.0163196734	 5.160875732	 14.0589461702	 0.109291
H	 2.1155375379	 6.3604763613	 11.4663011028	 0.105138
H	 1.9460603833	 7.2899019659	 12.9806267536	 0.110883
H	 4.6245480474	 6.0832506654	 12.5043717573	 0.098999
63.7737	118.8796	164.8537	250.0284	298.243	329.7956	364.127	417.9959	472.8074	506.7499	686.4351	736.0165	772.8472	823.0643	872.9078	889.9343	918.9193	921.9676	937.7481	957.5806	985.4248	1030.9979	1047.3423	1070.4626	1103.3784	1118.0675	1136.7884	1164.5563	1182.6472	1211.3555	1215.5486	1220.8492	1253.4931	1272.7252	1294.1798	1356.4773	1416.636	1457.5369	1464.5537	1483.8873	1507.1005	3063.5337	3070.8148	3112.9659	3114.6576	3130.7864	3139.9349	3160.6335	3181.6942	3236.7272	3802.4668
OC1CC1C12CCC1O2	O[C@H]1C[C@@H]1[C@]12CC[C@H]1O2	
InChI=1S/C7H10O2/c8-5-3-4(5)7-2-1-6(7)9-7/h4-6,8H,1-3H2	InChI=1S/C7H10O2/c8-5-3-4(5)7-2-1-6(7)9-7/h4-6,8H,1-3H2/t4-,5-,6+,7+/m0/s1
