19
gdb 532	2.468894	2.0406287	1.4297957	0.8569	73.94	-0.24299	0.07033	0.31332000000000004	959.1498	0.1592	-422.534478	-422.52734	-422.526395	-422.565828	28.529	
C	 0.3521367135	 0.4242109793	 1.4311463213	-0.239789
C	-0.4698824915	 1.3955374246	 0.5282355235	-0.317248
C	 0.0169767107	 0.5782913127	-0.667288203	 0.438278
O	 0.2131257902	 1.0999668554	-1.9811468422	-0.332297
C	-0.2757799711	-0.1233983806	-2.5864105055	-0.129261
C	-0.7002150483	-0.6776371741	-1.20046977	 0.007914
O	-0.0862356991	-1.8346752376	-0.6865222716	-0.267629
C	 1.2244214047	-1.4978750634	-0.2060382588	-0.116385
C	 1.1687768926	-0.0230265131	 0.1786292054	-0.082587
H	 0.9204335466	 0.8752832155	 2.245571297	 0.105366
H	-0.2582165206	-0.389244421	 1.8314256505	 0.11552
H	-1.5484528697	 1.4775040028	 0.6857027116	 0.100141
H	-0.0336744537	 2.3986707176	 0.5198048568	 0.116144
H	-1.0817332456	 0.0738999861	-3.3009108276	 0.107845
H	 0.5202406153	-0.6954340916	-3.0778529399	 0.106834
H	-1.7785135507	-0.7690419658	-1.0553035361	 0.092063
H	 1.4465483528	-2.1746955299	 0.6248199663	 0.111276
H	 1.9754354966	-1.6625121197	-0.9927709207	 0.09933
H	 2.1254621274	 0.4926935729	 0.0835510931	 0.084487
136.4714	180.3789	248.3625	286.8771	398.9287	421.1215	498.5203	616.4796	694.3311	728.746	787.5943	812.8128	846.5001	872.8015	903.3369	925.1273	957.4972	997.291	1004.3924	1031.2877	1052.6057	1094.5219	1121.8496	1136.909	1139.7871	1165.5938	1189.7952	1214.4707	1224.0683	1239.463	1249.4583	1270.1398	1294.9238	1329.0752	1333.0324	1359.2182	1397.2174	1479.0255	1496.6002	1510.2421	1521.5138	2996.0266	3027.3506	3056.4332	3071.7934	3077.3297	3077.9484	3096.1739	3104.2283	3108.0476	3132.4695
C1CC23OCC2OCC13	C1C[C@]23OC[C@H]2OC[C@H]13	
InChI=1S/C7H10O2/c1-2-7-5(1)3-8-6(7)4-9-7/h5-6H,1-4H2	InChI=1S/C7H10O2/c1-2-7-5(1)3-8-6(7)4-9-7/h5-6H,1-4H2/t5-,6+,7+/m0/s1
