19
gdb 4002	3.0709687	1.226772	1.0423997	2.144	77.71	-0.24175	-0.02478	0.21697	1210.1138	0.154532	-422.531301	-422.522185	-422.521241	-422.56486	33.585	
C	-0.0048085521	 0.1449023171	 0.0688671315	-0.40039
C	 1.5081279117	 0.1175301562	 0.1206447211	 0.101222
O	 2.0489158853	-0.885363291	-0.809099996	-0.297584
C	 2.5263386473	-1.6410770499	 0.2863985738	 0.086134
C	 2.111568247	-0.6373891733	 1.3055347298	-0.163659
C	 3.6069667938	-0.8682960595	 1.0746457281	 0.17705
C	 4.5196542491	 0.1257544197	 0.3915595597	-0.499037
C	 4.2128858494	-1.738969293	 2.1151225882	 0.089732
O	 3.5908890589	-2.4740640995	 2.8491997716	-0.279315
H	-0.393873884	 0.8626892898	 0.7991703161	 0.122026
H	-0.3419169666	 0.4487058179	-0.9263505873	 0.131881
H	-0.4193633559	-0.842018606	 0.2924602408	 0.130942
H	 1.92816776	 1.1068154327	-0.0939193441	 0.088911
H	 2.4910348405	-2.7227558604	 0.2452260277	 0.125884
H	 1.6700081687	-0.7819787748	 2.2820650429	 0.120135
H	 4.6146572859	 1.0556973458	 0.9623736434	 0.123384
H	 5.5232490444	-0.2975644934	 0.2750763763	 0.121444
H	 4.1483128656	 0.3674378303	-0.6067277724	 0.147733
H	 5.3242364309	-1.6929810385	 2.1599457188	 0.073507
114.5814	132.6496	172.371	205.8703	209.1722	250.205	271.6467	313.9934	381.4027	456.2716	522.7998	659.1302	691.0563	776.848	814.7256	855.2081	900.0776	915.4901	962.0614	1011.2779	1024.6124	1036.7362	1061.5124	1092.9127	1112.6128	1116.0412	1128.8902	1207.1718	1233.2558	1273.7744	1302.1833	1364.6241	1384.2117	1406.8645	1414.9742	1435.754	1484.4554	1492.1814	1493.4804	1505.6356	1791.1294	2878.5712	3033.8082	3038.2734	3045.4878	3092.1738	3111.2316	3124.4273	3124.9993	3193.981	3213.752
CC1OC2C1C2(C)C=O	C[C@@H]1O[C@@H]2[C@H]1[C@@]2(C)C=O	
InChI=1S/C7H10O2/c1-4-5-6(9-4)7(5,2)3-8/h3-6H,1-2H3	InChI=1S/C7H10O2/c1-4-5-6(9-4)7(5,2)3-8/h3-6H,1-2H3/t4-,5-,6+,7+/m0/s1
