19
gdb 4368	2.4805611	1.398603	1.1163027	2.1503	77.05	-0.23948	-0.01828	0.2212	1144.7288	0.157496	-422.586761	-422.578125	-422.577181	-422.620448	32.655	
O	-1.4131618825	-1.367989267	 3.2488881487	-0.437808
C	-2.1634056472	-0.7575170054	 2.1911467434	 0.095763
C	-1.842355321	-1.4052230341	 0.8372111509	-0.242598
C	-0.3910338493	-1.2493747258	 0.3763542497	-0.302855
C	 0.088192391	 0.1658267716	 0.0513091199	 0.384409
O	 1.2565945441	 0.3986735448	-0.1423819693	-0.300798
C	-0.9695239446	 1.2677377899	-0.0193036373	-0.355147
C	-1.5291988361	 1.5866836215	 1.3526415512	-0.078164
C	-2.0196488031	 0.7412118383	 2.2620647197	-0.078191
H	-0.5539221806	-0.9343079027	 3.2839587049	 0.283301
H	-3.206160891	-1.0049645512	 2.4311572339	 0.093717
H	-2.0620424201	-2.4734273169	 0.9334836109	 0.11243
H	-2.5342531075	-1.0134791854	 0.0818110455	 0.101061
H	 0.2992579671	-1.6716807271	 1.1146874367	 0.131175
H	-0.2272034623	-1.8355846279	-0.5370799446	 0.134556
H	-0.491201962	 2.1515580528	-0.4442703661	 0.124707
H	-1.7705643775	 0.9584181287	-0.7036862731	 0.128152
H	-1.4926539204	 2.6399400396	 1.6193464042	 0.106385
H	-2.3501552273	 1.1568424863	 3.212242151	 0.099904
40.3281	112.9402	212.3754	259.8875	309.6866	323.5901	346.7977	412.2772	475.0976	509.1284	554.5112	584.2654	682.0608	745.2131	811.0027	830.9113	887.2446	911.0065	937.2427	980.0076	1013.3344	1016.4627	1054.4055	1121.8439	1140.9718	1196.5521	1215.7425	1237.8096	1260.6076	1266.7339	1316.9733	1353.803	1371.045	1394.6801	1407.2203	1428.7497	1449.5675	1462.6994	1484.4986	1715.7369	1815.8432	3014.7121	3024.3099	3034.0719	3040.6305	3075.4603	3084.169	3116.9955	3140.1608	3165.2297	3810.3087
OC1CCC(=O)CC=C1	O[C@@H]1CCC(=O)CC=C1	
InChI=1S/C7H10O2/c8-6-2-1-3-7(9)5-4-6/h1-2,6,8H,3-5H2	InChI=1S/C7H10O2/c8-6-2-1-3-7(9)5-4-6/h1-2,6,8H,3-5H2/t6-/m0/s1
