19
gdb 4901	2.6119461	1.1599684	0.9086939	1.6008	78.71	-0.25893	0.02014	0.27907	1324.6754	0.153272	-422.502106	-422.491736	-422.490792	-422.537708	37.088	
C	 0.9767147006	-0.017236021	 0.8986595391	-0.387225
C	 0.8306111645	 0.163516665	-0.6184535843	-0.26879
C	 1.7106730782	-0.781246258	-1.4167121566	 0.391381
C	 1.4183193413	-2.2713341608	-1.2905545529	-0.16559
O	 0.0528845141	-2.5811017147	-1.5243492123	-0.411178
O	 3.1093708293	-0.474767905	-1.3932331426	-0.285646
C	 2.395504964	-0.2656901312	-2.6289613901	-0.230798
C	 2.7529306842	-1.0891337104	-3.7520211784	 0.338733
C	 3.0469071719	-1.7459481796	-4.7151119484	-0.411596
H	 0.6434623928	-1.0063076364	 1.2317068824	 0.108254
H	 2.0215416281	 0.1009901601	 1.2003802387	 0.139744
H	 0.3805800606	 0.7259303743	 1.43561711	 0.12021
H	-0.2101912288	 0.0110123121	-0.9268287502	 0.110086
H	 1.0919884788	 1.192211137	-0.8864389267	 0.108936
H	 1.9999780337	-2.8151346659	-2.0379433063	 0.134088
H	 1.7509410111	-2.6152334773	-0.3008625864	 0.103807
H	-0.4424742831	-2.3899248506	-0.7228244555	 0.289833
H	 2.2446034634	 0.786363427	-2.8718206409	 0.112812
H	 3.3055811854	-2.3328408847	-5.5617810285	 0.202936
55.5558	78.7027	117.971	154.7683	209.2397	242.2136	252.4921	277.6316	334.	373.4707	390.5496	485.3304	559.6354	604.6994	626.4774	670.6724	722.7368	790.7094	842.5055	879.8399	973.0686	1005.374	1017.3536	1071.2259	1075.3167	1085.4473	1106.2458	1197.0509	1252.7971	1289.8994	1339.4161	1370.2188	1389.3533	1404.3738	1411.8112	1453.9293	1480.1714	1492.0778	1502.9465	1507.9132	2238.9981	3007.8634	3037.0007	3042.3027	3078.5955	3103.5588	3106.5264	3111.5083	3119.5305	3501.4589	3833.028
CCC1(CO)OC1C#C	CC[C@]1(CO)O[C@H]1C#C	
InChI=1S/C7H10O2/c1-3-6-7(4-2,5-8)9-6/h1,6,8H,4-5H2,2H3	InChI=1S/C7H10O2/c1-3-6-7(4-2,5-8)9-6/h1,6,8H,4-5H2,2H3/t6-,7+/m0/s1
