19
gdb 3481	2.3881163	1.7736318	1.3233219	2.9767	75.42	-0.2459	0.0147	0.2606	1022.826	0.157237	-422.561784	-422.553436	-422.552492	-422.594503	32.599	
O	 0.2526010184	-0.2126920294	 0.4571576539	-0.438157
C	-0.9753628521	 0.3779435177	 0.8240504679	 0.071117
C	-2.0349456579	 0.3380721227	-0.2596589337	-0.108619
C	-2.6571454249	 1.5052429554	-0.4288108193	-0.089894
C	-2.1194283699	 2.5572277438	 0.4946290709	-0.110827
C	-2.7603293788	 2.7036298629	 1.9224079697	-0.232927
C	-1.3887491512	 2.3494920864	 2.5640018841	-0.289931
C	-0.8700532772	 1.9069359013	 1.170901703	 0.354948
O	 0.416490535	 2.3279584925	 0.7723389054	-0.487159
H	 0.7799493771	 0.4919617014	 0.059850114	 0.290467
H	-1.3220436927	-0.1794919379	 1.7051571338	 0.086035
H	-2.2469156928	-0.5815879785	-0.7936240724	 0.100121
H	-3.472272019	 1.684879208	-1.1224086768	 0.096102
H	-1.9376383961	 3.5264486661	 0.0167240972	 0.062056
H	-3.1657297653	 3.6866122631	 2.169520406	 0.102001
H	-3.5315473745	 1.9524346425	 2.1042851397	 0.109876
H	-0.8563101215	 3.2397285462	 2.9145039525	 0.093543
H	-1.3737595566	 1.6032956052	 3.3627208553	 0.106813
H	 0.4311957299	 3.2889060706	 0.7433693088	 0.284436
61.669	190.6786	204.6344	284.5002	311.1384	334.4276	365.5534	418.2736	447.4081	555.3956	618.9065	680.8906	730.2048	743.2628	818.0834	833.412	843.7884	915.3052	942.9676	978.5921	1015.1383	1037.4422	1064.274	1082.6537	1088.5505	1113.7202	1137.598	1157.1012	1198.1158	1232.3053	1256.2946	1260.8476	1287.3787	1298.9256	1327.5721	1347.262	1385.5191	1441.3906	1477.5541	1493.9409	1672.1437	3006.3726	3039.0451	3048.5727	3072.4957	3099.2619	3128.2876	3176.3967	3206.4934	3774.789	3835.081
OC1C=CC2CCC12O	O[C@@H]1C=C[C@H]2CC[C@@]12O	
InChI=1S/C7H10O2/c8-6-2-1-5-3-4-7(5,6)9/h1-2,5-6,8-9H,3-4H2	InChI=1S/C7H10O2/c8-6-2-1-5-3-4-7(5,6)9/h1-2,5-6,8-9H,3-4H2/t5-,6+,7-/m0/s1
