19
gdb 5696	4.8582387	0.8264452	0.7765877	2.5245	77.11	-0.24531	-0.02857	0.21674	1503.9271	0.153913	-422.544851	-422.535601	-422.534657	-422.579574	33.799	
C	 3.0188840873	-3.064606066	-0.021837214	-0.374874
C	 2.3373861429	-2.7874695775	-1.3674311481	-0.211972
C	 1.3607314086	-1.6408884089	-1.2839651072	-0.029298
O	 1.9271885637	-0.3163432317	-1.1919478071	-0.290831
C	 1.1813705097	-0.6511748413	-2.3473582367	 0.421089
C	 1.764988252	-0.6162038873	-3.7719254178	-0.433737
C	 0.4319869004	 0.0198351619	-4.2198082627	 0.404431
O	-0.032601348	 0.2992496943	-5.2848183381	-0.285837
C	-0.088614528	 0.108307476	-2.7705721049	-0.436417
H	 3.7286606246	-3.8926556046	-0.1035401137	 0.116739
H	 3.5629076939	-2.1796811203	 0.3208656159	 0.136346
H	 2.2848453122	-3.3269928102	 0.7476646514	 0.117433
H	 3.0912866518	-2.5593359594	-2.1287236767	 0.106475
H	 1.7977067503	-3.6811034093	-1.7075618952	 0.103109
H	 0.5206716011	-1.7956262111	-0.6019439016	 0.090761
H	 2.6177935716	 0.0629864067	-3.8767349649	 0.146732
H	 2.0133487764	-1.5697332108	-4.246467257	 0.136379
H	-0.1215583007	 1.1368153353	-2.3947460514	 0.147478
H	-1.0552257499	-0.367492766	-2.5830536503	 0.135994
43.8582	80.3581	129.4839	180.378	250.8473	283.0684	338.891	406.7883	427.2215	479.2504	507.9668	572.4706	651.029	720.8518	758.5472	829.7703	866.1117	925.4269	952.3998	966.3888	992.5302	1047.2591	1070.7016	1081.5545	1129.1228	1156.2366	1176.8328	1192.3422	1198.182	1220.1119	1292.4058	1336.8708	1371.522	1410.4593	1414.3894	1431.1414	1473.1566	1498.6499	1505.4898	1518.8123	1902.4741	3025.9803	3038.5709	3051.6437	3056.6283	3066.6989	3083.2042	3108.2242	3108.8707	3110.5111	3119.3779
CCC1OC11CC(=O)C1	CC[C@H]1OC21CC(=O)C2	
InChI=1S/C7H10O2/c1-2-6-7(9-6)3-5(8)4-7/h6H,2-4H2,1H3	InChI=1S/C7H10O2/c1-2-6-7(9-6)3-5(8)4-7/h6H,2-4H2,1H3/t6-/m1/s1
