19
gdb 1439	2.1307844	1.721173	1.4164185	2.0729	76.36	-0.24882	-0.03499	0.21383000000000002	1031.5286	0.155407	-422.524738	-422.515875	-422.514931	-422.558273	33.435	
C	-0.0837238598	-0.0456952263	 0.1265622516	-0.484999
C	 1.4311830587	-0.0344385432	-0.0443591039	 0.433006
O	 2.0274284646	-0.5377875406	 1.1354723254	-0.488672
C	 2.169285639	 1.2119355941	-0.6264498238	-0.097419
C	 1.6152474431	 0.8327463373	-2.0357135054	-0.295219
C	 2.079179016	-0.5104925188	-1.3905348034	 0.188764
C	 3.3723057091	 0.2750436587	-0.9543264236	-0.267939
C	 2.0294309822	-1.896590143	-1.9210831547	 0.024777
O	 1.6253145208	-2.8316207703	-1.2668401207	-0.266885
H	-0.3417524157	 0.4952088672	 1.0415531675	 0.129287
H	-0.6318573515	 0.402461141	-0.7035465456	 0.11753
H	-0.4337983724	-1.0779500905	 0.2358324407	 0.128901
H	 1.7822400709	-1.4682201302	 1.197241948	 0.28908
H	 2.2148536204	 2.2094033529	-0.1878412575	 0.079992
H	 0.5515684001	 0.9613810284	-2.2323970127	 0.104636
H	 2.2135757859	 1.1834891452	-2.8789227466	 0.103029
H	 3.9217664972	-0.138734157	-0.1133574642	 0.128348
H	 4.023050488	 0.5995424002	-1.7689333325	 0.094422
H	 2.4033348933	-2.0452315753	-2.9595657686	 0.07936
56.3343	120.7355	175.5445	200.8819	283.5058	340.7636	351.8805	415.173	427.9112	472.6623	554.6334	574.674	674.7024	743.3636	783.375	819.6271	896.1778	923.7464	969.5246	978.3561	999.5744	1017.8094	1059.276	1071.8819	1102.0723	1144.0762	1155.2357	1169.3036	1198.1474	1216.0044	1217.5371	1240.6409	1314.224	1363.544	1410.6091	1420.3358	1483.0789	1494.0672	1502.1533	1537.8807	1793.0885	2872.892	3043.0348	3077.0497	3081.4596	3107.1846	3110.5816	3128.5008	3149.8913	3181.9426	3799.8866
CC1(O)C2CC1(C2)C=O	C[C@]1(O)[C@@H]2C[C@]1(C2)C=O	
InChI=1S/C7H10O2/c1-6(9)5-2-7(6,3-5)4-8/h4-5,9H,2-3H2,1H3	InChI=1S/C7H10O2/c1-6(9)5-2-7(6,3-5)4-8/h4-5,9H,2-3H2,1H3/t5-,6-,7+/m0/s1
