19
gdb 539	3.1387856	1.6655189	1.3453041	1.837	73.85	-0.23474	0.06532	0.30006	990.5864	0.158907	-422.527313	-422.520085	-422.51914	-422.558929	28.615	
C	-1.317860081	-0.0496474346	 1.5969418084	-0.096058
O	-1.27850733	 1.2097568923	 0.8726655684	-0.339197
C	-0.3369605787	 0.6779406378	-0.0597801187	 0.46084
C	-0.428022122	 1.0393645976	-1.5226356671	-0.339094
C	 0.9900685437	 0.6878518235	-2.0030016456	-0.085369
O	 1.8724230556	 0.9795777444	-0.9137945427	-0.263556
C	 1.1739823494	 0.8112910489	 0.3044509998	 0.065322
C	 1.1481717417	-0.6343855693	 0.902480312	-0.272232
C	-0.3667678676	-0.7356778916	 0.5918874986	-0.152176
H	-0.9388545817	 0.0523090671	 2.621737765	 0.102199
H	-2.3371292317	-0.4502438114	 1.6281848445	 0.107815
H	-1.2084937813	 0.5021684408	-2.0672637195	 0.1073
H	-0.6176554439	 2.1153700365	-1.609299128	 0.122076
H	 1.0507102825	-0.3779175494	-2.274496134	 0.094328
H	 1.320880687	 1.2739924944	-2.864058105	 0.114399
H	 1.4563418211	 1.6128663023	 0.9917723479	 0.084368
H	 1.7604980908	-1.3240037149	 0.3163718787	 0.112081
H	 1.430203816	-0.7212176725	 1.9554814336	 0.10115
H	-0.7425626299	-1.6299891718	 0.0946833437	 0.075804
97.6427	175.4745	235.2881	347.846	356.3008	427.037	466.9687	629.9402	647.9728	719.2949	801.5169	838.6801	860.3211	885.519	905.2771	921.0945	968.338	978.4474	1000.7337	1032.7818	1038.0631	1096.2625	1111.1249	1135.5325	1147.6955	1161.4638	1191.1934	1216.304	1219.8935	1243.6908	1264.3806	1281.3627	1305.7051	1319.0785	1346.2645	1356.2521	1396.5985	1469.2045	1478.0975	1518.118	1522.3471	2979.7629	3016.631	3048.1434	3057.5273	3065.1825	3077.3056	3093.636	3105.7218	3107.9601	3118.6603
C1OC23CCOC2CC13	C1O[C@@]23CCO[C@@H]2C[C@@H]13	
InChI=1S/C7H10O2/c1-2-8-6-3-5-4-9-7(1,5)6/h5-6H,1-4H2	InChI=1S/C7H10O2/c1-2-8-6-3-5-4-9-7(1,5)6/h5-6H,1-4H2/t5-,6+,7+/m0/s1
