19
gdb 4403	3.7367894	0.8442388	0.8065605	2.8421	79.97	-0.23671	-0.03414	0.20257	1483.6933	0.154975	-422.571416	-422.561952	-422.561007	-422.60733	33.015	
C	-4.0212104738	 2.5982981648	 1.2070077924	-0.387207
C	-3.0195994166	 3.0276930584	 0.1351405131	 0.110591
O	-1.9476871765	 3.7636973194	 0.7401009798	-0.277047
C	-0.6927049449	 3.2191189297	 0.360784393	-0.154053
C	-1.0143650658	 1.9888074985	-0.453423682	 0.279442
C	 0.0527416832	 1.0690439004	-0.9674323205	-0.383515
C	 0.6487152416	 0.2343593422	 0.1618144859	 0.160576
O	 1.8142906105	 0.2084025775	 0.4532610884	-0.229059
C	-2.335273011	 1.8942952642	-0.5809217229	-0.22205
H	-3.548565996	 1.9200879932	 1.9234201213	 0.118381
H	-4.3885991721	 3.4752029692	 1.747271086	 0.129189
H	-4.8784539534	 2.0899892082	 0.7529726153	 0.111253
H	-3.5380798695	 3.6843418662	-0.585145525	 0.082642
H	-0.1139247545	 3.9514228823	-0.2275416978	 0.104902
H	-0.0962460891	 2.9912680444	 1.2582028826	 0.113766
H	-0.3797738268	 0.3719683121	-1.6964892595	 0.128014
H	 0.8704142753	 1.6157015249	-1.448597745	 0.129118
H	-0.1054407834	-0.365471856	 0.720732217	 0.082728
H	-2.8768530469	 1.1299558505	-1.1253701822	 0.102332
40.661	47.4298	92.3627	130.5502	228.9924	236.4834	293.8163	365.8321	422.2288	481.6276	528.4	628.541	729.0369	815.9753	843.4207	858.9341	915.1148	919.9669	1008.716	1021.96	1029.1597	1069.3559	1077.7637	1107.7043	1134.8494	1181.1916	1201.4987	1214.2108	1290.5593	1302.6622	1347.0468	1373.2004	1390.0917	1400.329	1416.1169	1458.311	1485.7161	1495.1109	1522.0564	1722.2064	1837.833	2875.0192	2945.3518	2960.1574	2988.4101	3029.3446	3037.4722	3090.8886	3111.4816	3122.3389	3206.5976
CC1OCC(CC=O)=C1	C[C@H]1OCC(=C1)CC=O	
InChI=1S/C7H10O2/c1-6-4-7(2-3-8)5-9-6/h3-4,6H,2,5H2,1H3	InChI=1S/C7H10O2/c1-6-4-7(2-3-8)5-9-6/h3-4,6H,2,5H2,1H3/t6-/m1/s1
