19
gdb 3216	4.1890708	1.077378	1.0114356	2.5973	75.45	-0.23803	0.07064	0.30867	1242.9465	0.155991	-422.489199	-422.480877	-422.479933	-422.522265	31.223	
C	 1.5005070137	-0.8056179199	-1.0124078333	-0.426238
C	 1.3726865677	-0.0784101205	 0.3082056336	-0.039007
C	 2.1766141639	 1.1672166527	 0.5114902412	 0.080475
O	 1.8112229563	 1.8173319712	 1.7358098703	-0.321443
C	 2.2745493992	 0.6779281942	 2.4945179867	 0.364286
C	 3.3470807405	 0.924086128	 3.5706396885	-0.13639
O	 2.5456666012	 0.2527783516	 4.5648677405	-0.275433
C	 1.4214220113	 0.1593132398	 3.6634364992	-0.129552
C	 2.5874341792	-0.0982998899	 1.2250874456	-0.216652
H	 1.3157489194	-1.8783621591	-0.8936268994	 0.125817
H	 0.7850135612	-0.4184564947	-1.7450592663	 0.125927
H	 2.5051051966	-0.6891908857	-1.4336945689	 0.118155
H	 0.3849920918	-0.1015876297	 0.7659398904	 0.092005
H	 2.6406149043	 1.7634306166	-0.2656478073	 0.106182
H	 4.3205117725	 0.4408602346	 3.4245950092	 0.103513
H	 3.4902462304	 1.9893830291	 3.792217391	 0.11029
H	 1.0354333473	-0.8632891735	 3.5798288802	 0.105148
H	 0.6075010096	 0.8418004266	 3.9396724374	 0.110953
H	 3.4313090139	-0.7595286514	 1.0773128013	 0.101964
80.6207	118.3078	192.2315	225.7135	251.6465	301.6463	367.0033	433.4089	480.8461	553.899	788.5171	803.0066	855.6227	871.4341	896.7288	906.3775	937.5663	984.136	1016.8599	1025.0784	1026.307	1037.2852	1045.5725	1099.501	1127.8163	1141.2955	1147.3161	1153.1963	1172.9762	1193.8218	1235.5753	1290.377	1296.5505	1311.4674	1384.1791	1416.2514	1417.0319	1493.4048	1494.9745	1502.7361	1521.9236	3008.9944	3020.8124	3030.5391	3065.7779	3067.3724	3093.8444	3099.0692	3121.4698	3179.5441	3198.9083
CC1C2OC3(COC3)C12	C[C@@H]1[C@H]2OC3(COC3)[C@@H]12	
InChI=1S/C7H10O2/c1-4-5-6(4)9-7(5)2-8-3-7/h4-6H,2-3H2,1H3	InChI=1S/C7H10O2/c1-4-5-6(4)9-7(5)2-8-3-7/h4-6H,2-3H2,1H3/t4-,5-,6+/m0/s1
