19
gdb 716	2.5865705	1.750829	1.4243824	2.914	73.78	-0.2305	-0.01656	0.21394000000000002	980.0546	0.159758	-422.593454	-422.58608	-422.585135	-422.625231	29.088	
O	 1.1331028871	 0.0558404867	 0.050376862	-0.319564
C	-0.0697431587	-0.0281162785	-0.0156560601	 0.377046
C	-0.9526409029	 1.2268355849	-0.0212434607	-0.176778
O	-2.2054226228	 1.0929336692	-0.6755700833	-0.270898
C	-2.8222260309	-0.1909770188	-0.5770146641	 0.126915
C	-3.0182858905	-0.6513928659	 0.8854466679	-0.233238
C	-1.7230431954	-1.4388493209	 1.2378051258	-0.236173
C	-0.8331879696	-1.3407280555	-0.036519402	-0.106885
C	-1.8841433232	-1.2539218652	-1.1641822065	-0.246668
H	-1.089934859	 1.5194070672	 1.0353320498	 0.11593
H	-0.4076838957	 2.0372905742	-0.5108422341	 0.138195
H	-3.7636582592	-0.084018292	-1.1195129723	 0.083182
H	-3.1925934476	 0.2069784168	 1.5389440897	 0.114842
H	-3.9006108527	-1.2932073108	 0.9584550648	 0.106672
H	-1.2170447963	-1.052116232	 2.1267803473	 0.114043
H	-1.9447751143	-2.4919996887	 1.4326179423	 0.111914
H	-0.1198729449	-2.1614372082	-0.1268321111	 0.08469
H	-1.4765535962	-0.9516705522	-2.1324438847	 0.114304
H	-2.3974986072	-2.2143767701	-1.2865854306	 0.102471
94.9657	169.3225	214.7683	357.697	397.6759	429.037	447.152	511.6714	618.0356	688.3772	748.2399	782.4516	822.1703	869.3694	884.4689	918.1962	937.0702	956.2544	976.2187	1021.507	1051.1941	1063.6867	1110.9396	1120.5632	1182.7418	1212.575	1228.062	1250.9333	1253.3467	1270.0618	1305.1185	1328.6183	1343.5423	1346.941	1357.5939	1391.5493	1473.1853	1483.4474	1486.7649	1509.7805	1824.4737	2949.3102	3043.0706	3054.0863	3065.3695	3089.7992	3097.1111	3102.853	3103.8316	3105.8542	3113.6013
O=C1COC2CCC1C2	O=C1CO[C@@H]2CC[C@H]1C2	
InChI=1S/C7H10O2/c8-7-4-9-6-2-1-5(7)3-6/h5-6H,1-4H2	InChI=1S/C7H10O2/c8-7-4-9-6-2-1-5(7)3-6/h5-6H,1-4H2/t5-,6+/m0/s1
