19
gdb 2020	3.606309	1.2864368	1.1530096	3.3993	74.98	-0.25874	0.08276	0.3415	1126.8056	0.156148	-422.540015	-422.531846	-422.530901	-422.57249	31.671	
C	 0.2203278805	-0.1348045462	 0.4098889297	-0.486261
C	 1.108968428	 0.2437711813	-0.742317771	 0.413275
C	 0.5427192047	 0.3828679625	-2.1490508725	-0.359569
C	 1.6538842592	 1.0809043994	-2.9357364465	 0.431702
C	 1.5267058045	 1.4632272066	-4.3447359761	-0.254328
O	 2.2946814213	 0.3204142083	-3.9627992978	-0.260648
C	 2.5661358284	 1.8099137131	-1.9448109554	-0.32542
C	 2.3138176152	 1.0870233828	-0.6379488358	-0.012716
O	 2.4246746767	-0.3378931521	-0.7526103595	-0.293996
H	-0.2010151988	-1.1350655663	 0.2610555362	 0.13018
H	 0.7859545739	-0.1413246061	 1.3449171466	 0.130743
H	-0.61361669	 0.5683928594	 0.5080418228	 0.119806
H	 0.2966827272	-0.580842746	-2.6039925409	 0.124844
H	-0.3695454569	 0.9922255815	-2.1221943613	 0.103582
H	 0.6026251542	 1.2510916204	-4.8826977848	 0.108133
H	 2.098456525	 2.3068778266	-4.7316909408	 0.108241
H	 3.6080734551	 1.7580232728	-2.2722317677	 0.128118
H	 2.288050265	 2.8668058452	-1.845512275	 0.105561
H	 2.6517808266	 1.5091043767	 0.3059871998	 0.088751
82.7237	182.2197	208.9406	261.624	317.0519	375.247	391.6214	408.5472	427.6737	529.8105	620.6762	713.0036	792.7829	822.1864	848.6831	878.1724	902.0222	937.6975	960.5611	973.6351	1000.368	1031.3506	1085.2397	1113.9258	1127.8584	1162.5894	1178.575	1217.6493	1224.303	1241.2981	1286.7643	1307.14	1321.6071	1410.9075	1425.2699	1451.4707	1463.0657	1472.7004	1487.4204	1499.98	1534.5565	3030.303	3033.8885	3036.5442	3071.1772	3094.6381	3097.7496	3099.2721	3122.3313	3138.0698	3153.6295
CC12CC3(CO3)CC1O2	C[C@@]12C[C@@]3(CO3)C[C@@H]1O2	
InChI=1S/C7H10O2/c1-6-3-7(4-8-7)2-5(6)9-6/h5H,2-4H2,1H3	InChI=1S/C7H10O2/c1-6-3-7(4-8-7)2-5(6)9-6/h5H,2-4H2,1H3/t5-,6+,7+/m0/s1
