19
gdb 2241	2.4280583	2.0561213	1.3770587	2.0162	75.01	-0.20987	0.08189	0.29176	989.738	0.156224	-422.523102	-422.514985	-422.514041	-422.555138	31.623	
C	-0.8622665553	 1.0549862962	 1.9919204312	-0.505109
C	 0.4875793188	 0.4181079029	 1.989894536	 0.402688
O	 1.5502065046	 1.1516718664	 2.6147693018	-0.335746
C	 2.2608230817	-0.1007572371	 2.8582361586	 0.053861
C	 3.2509985284	-0.2600484104	 1.7156777837	-0.08372
O	 2.4200641688	-0.2857472745	 0.550857067	-0.303863
C	 1.0910857092	-0.5475947788	 0.9673305019	 0.39256
C	 0.2673727916	-1.2083554715	-0.0991026097	-0.482917
C	 1.0356576212	-0.9306497589	 2.4241747578	-0.301242
H	-1.1836783005	 1.2766665317	 3.0147341046	 0.130521
H	-0.8353882563	 1.9961233263	 1.4315712112	 0.137127
H	-1.6073209501	 0.4043454087	 1.5272292898	 0.125586
H	 2.6531369868	-0.1723820816	 3.873446255	 0.086113
H	 3.9331819821	 0.5925472372	 1.6453074251	 0.117319
H	 3.8357388001	-1.1895854162	 1.8015740421	 0.089593
H	-0.7476258232	-1.4099657209	 0.2526305293	 0.120634
H	 0.2030760785	-0.5705585667	-0.9863223168	 0.13389
H	 0.7228151916	-2.1584183523	-0.3959498569	 0.128326
H	 0.6054373319	-1.8144336106	 2.8775733284	 0.094377
166.6871	184.776	209.5425	220.4689	268.0536	312.2493	350.8999	424.5177	516.8668	612.019	647.8293	722.7133	756.128	804.425	863.7529	874.1044	908.245	927.5684	948.8729	959.3493	986.934	1041.1039	1066.1638	1101.7498	1112.7391	1156.5891	1178.4731	1192.6739	1202.7811	1271.093	1289.5551	1329.8545	1372.1503	1406.1992	1417.2272	1442.3921	1470.112	1481.0787	1492.5333	1501.7188	1510.3567	2982.0891	3034.8626	3040.6823	3084.1108	3098.0032	3104.1873	3110.0801	3118.616	3125.6484	3189.4477
CC12OC3COC1(C)C23	C[C@]12O[C@@H]3CO[C@@]1(C)[C@H]23	
InChI=1S/C7H10O2/c1-6-5-4(3-8-6)9-7(5,6)2/h4-5H,3H2,1-2H3	InChI=1S/C7H10O2/c1-6-5-4(3-8-6)9-7(5,6)2/h4-5H,3H2,1-2H3/t4-,5-,6+,7-/m1/s1
