19
gdb 2990	2.5906426	1.7433465	1.2881314	2.88	74.31	-0.24839	-0.02789	0.2205	1016.819	0.158751	-422.582756	-422.575205	-422.574261	-422.614643	30.224	
O	-0.5988329688	-2.4413116313	-0.7773707361	-0.447735
C	-0.9692434011	-1.4042416117	 0.093160572	 0.062104
C	-2.4651382947	-1.0774257691	-0.0132471504	-0.03118
C	-2.8144705041	 0.0081188211	 1.0396467786	-0.232348
C	-2.3313078718	 1.0515551468	-0.0038163686	-0.018001
C	-2.7114620423	 0.0078402877	-1.1013068785	-0.241522
C	-0.8003993642	 1.1954853644	 0.0737680294	-0.3157
C	-0.1447886212	-0.1446712546	-0.2251735745	 0.36282
O	 0.9295770943	-0.2583227699	-0.7730644441	-0.331585
H	 0.2877557249	-2.2072657755	-1.0928793127	 0.290762
H	-0.7478627412	-1.6806319947	 1.1425288832	 0.084993
H	-3.0501835934	-1.9981799128	-0.0404552472	 0.080758
H	-3.8922740259	 0.0722143534	 1.2080141871	 0.104933
H	-2.3022942865	-0.0265236022	 2.0075820913	 0.090468
H	-2.819888454	 2.0279555095	-0.0211063513	 0.071242
H	-3.7675555264	 0.0763932439	-1.3713807179	 0.104306
H	-2.1103743262	-0.0356069903	-2.0148641507	 0.108543
H	-0.4075828248	 1.9191138335	-0.6471640018	 0.129468
H	-0.4931252828	 1.5373717419	 1.0714706722	 0.127676
78.7189	189.0915	305.0445	342.7862	363.8796	417.4062	472.1722	479.4739	504.7847	579.855	641.1873	746.3494	825.758	846.7913	871.7304	890.0536	899.0902	936.8596	969.8546	1029.7916	1054.047	1076.368	1077.6646	1106.8034	1128.0342	1140.8266	1187.7352	1221.9077	1238.3575	1250.4849	1268.4046	1289.9866	1309.6492	1337.7647	1358.7296	1371.1484	1427.4937	1455.2619	1482.7134	1512.924	1804.3593	2911.3837	3025.2875	3040.8467	3054.5979	3081.5041	3090.0056	3096.2145	3105.3821	3114.8003	3704.7619
OC1C2CC(C2)CC1=O	O[C@@H]1[C@H]2C[C@H](C2)CC1=O	
InChI=1S/C7H10O2/c8-6-3-4-1-5(2-4)7(6)9/h4-5,7,9H,1-3H2	InChI=1S/C7H10O2/c8-6-3-4-1-5(2-4)7(6)9/h4-5,7,9H,1-3H2/t4-,5+,7-/m1/s1
