19
gdb 4664	2.7588763	1.3519317	1.1217498	1.7484	76.43	-0.2444	-0.02675	0.21765	1162.0093	0.155365	-422.507665	-422.498788	-422.497843	-422.54226	32.437	
C	 1.0484564274	-0.7095090611	 0.6356893617	-0.394852
C	 0.7366222645	 0.4136934636	-0.3737555151	-0.280929
C	 1.7294152782	 1.5518055003	-0.2573570662	 0.238375
O	 2.6158122107	 1.7599029989	-1.0550894573	-0.314109
C	 1.5866944528	 2.4668793731	 0.9314637575	 0.347776
C	 1.1237335764	 3.9540339766	 0.9462698316	-0.243558
C	 1.2499208028	 3.437940031	 2.3975916983	 0.038283
C	 2.6134406047	 2.7989830064	 2.0496031684	-0.247057
O	 0.5760509771	 2.1811998211	 1.9841410648	-0.344283
H	 0.9908478002	-0.3355960243	 1.6605726876	 0.148986
H	 0.3259894847	-1.5229832402	 0.5270417736	 0.123624
H	 2.0485397864	-1.119734084	 0.4656885476	 0.12744
H	 0.7829545288	 0.0401134624	-1.400032857	 0.118911
H	-0.2693005014	 0.801540472	-0.1772255168	 0.124488
H	 1.8328879966	 4.7057939787	 0.5953546326	 0.113539
H	 0.10433628	 4.1204466538	 0.5970752862	 0.113386
H	 0.9146487491	 3.8953997408	 3.3276986073	 0.103118
H	 3.4454009556	 3.4562876419	 1.7914206748	 0.113363
H	 2.9065794554	 1.952761029	 2.6714554705	 0.113499
30.9622	84.0475	157.7758	174.825	235.1227	247.1539	358.1429	446.1126	535.0965	585.4695	595.6053	698.9163	746.6077	797.1628	821.3304	883.2722	921.4942	930.4198	946.4961	981.1508	984.537	1034.502	1049.6849	1089.0031	1099.4831	1120.1105	1156.7813	1159.5789	1213.6294	1234.9873	1238.1988	1269.882	1325.4317	1347.1436	1403.6743	1466.1379	1469.0426	1499.37	1506.7246	1513.6458	1800.5695	3044.2421	3046.9102	3074.1983	3080.3952	3104.0562	3116.7574	3127.6893	3135.541	3156.6494	3162.0848
CCC(=O)C12CC(C1)O2	CCC(=O)[C@]12C[C@H](C1)O2	
InChI=1S/C7H10O2/c1-2-6(8)7-3-5(4-7)9-7/h5H,2-4H2,1H3	InChI=1S/C7H10O2/c1-2-6(8)7-3-5(4-7)9-7/h5H,2-4H2,1H3/t5-,7+
