19
gdb 3344	3.1872075	1.248368	1.0825223	1.8902	74.37	-0.23089	0.05855	0.28944000000000003	1169.6492	0.15685	-422.491114	-422.482798	-422.481854	-422.524238	31.797	
O	 0.0878258992	 1.7328619046	 3.8992621491	-0.439339
C	-0.2819732549	 1.6893128556	 2.5580798682	 0.074603
C	-0.6178007623	 2.9350504491	 1.8097911704	-0.032617
O	 0.1628652769	 4.009357549	 2.3533663637	-0.309271
C	 1.3922300409	 3.3599244772	 1.9064258752	-0.14765
C	 0.6253271467	 2.1337733349	 1.4143305311	 0.22477
C	 0.9582903799	 1.3088881345	 0.2266330738	-0.121237
C	 0.8901313957	 1.8940634013	-1.1663162325	-0.265949
C	-0.1206064258	 0.8643491548	-0.7333788179	-0.267778
H	 0.1114885706	 2.6704322794	 4.1362463549	 0.295842
H	-0.8817476056	 0.8151603907	 2.3201754629	 0.108468
H	-1.5485870655	 3.1901176874	 1.3134725805	 0.103938
H	 1.852613561	 3.9409176079	 1.10097323	 0.115252
H	 2.1042775223	 3.2133122668	 2.7259303414	 0.112545
H	 1.7555975562	 0.5880365933	 0.3944032224	 0.090686
H	 0.5498521129	 2.919446937	-1.2647276382	 0.115592
H	 1.6501808047	 1.603658013	-1.8827480091	 0.113955
H	-1.1354268156	 1.2018239387	-0.5508495747	 0.112068
H	-0.0540995874	-0.1350240153	-1.1480437111	 0.116121
63.6884	138.9199	171.234	232.6645	257.26	338.2412	421.428	453.258	552.9268	567.4413	663.3466	783.0187	794.0536	829.0276	839.8502	866.794	922.3089	932.4918	955.2452	990.9978	1015.7804	1037.91	1059.657	1074.1653	1082.9558	1110.2232	1135.479	1136.5864	1163.9524	1196.8515	1209.5616	1219.2029	1273.3754	1284.3541	1314.065	1380.8591	1417.4066	1467.3031	1476.374	1503.9836	1510.6477	3034.9002	3089.6976	3124.8308	3132.1588	3137.0501	3155.4121	3165.9006	3211.3462	3226.1638	3746.9428
OC1C2OCC12C1CC1	O[C@H]1[C@H]2OC[C@@]12C1CC1	
InChI=1S/C7H10O2/c8-5-6-7(5,3-9-6)4-1-2-4/h4-6,8H,1-3H2	InChI=1S/C7H10O2/c8-5-6-7(5,3-9-6)4-1-2-4/h4-6,8H,1-3H2/t5-,6+,7+/m0/s1
