19
gdb 5228	2.7451486	1.4918792	1.1317523	1.716	75.1	-0.2284	0.07539	0.30379	1112.3032	0.155906	-422.495972	-422.487422	-422.486478	-422.528914	32.611	
C	-2.3489191757	-2.7374090714	 0.5515992939	-0.509803
C	-1.8310425854	-1.9147923451	 1.6824581622	 0.430621
O	-2.7558134266	-1.4875996363	 2.6890895046	-0.330131
C	-1.5949755521	-1.1345745796	 3.4948639234	 0.066472
C	-1.0254400383	 0.1077592554	 2.7719776014	-0.27632
C	-0.6906871961	-0.8649406164	 1.6357101215	 0.206861
C	 0.2005846475	-0.6081841922	 0.4610617496	-0.183396
O	 1.4925581492	-0.1446530934	 0.8375365379	-0.412373
C	-0.6735918391	-2.0547992371	 2.6166947663	-0.261028
H	-2.8476022125	-3.6353629951	 0.9291855233	 0.134478
H	-3.0725087668	-2.1675706244	-0.0409805393	 0.135902
H	-1.5353995462	-3.0481066748	-0.1095227842	 0.128075
H	-1.7770280297	-1.181192957	 4.5661742329	 0.086838
H	-1.7295310574	 0.9248656526	 2.5845899325	 0.09915
H	-0.1130004794	 0.4827090023	 3.2418587573	 0.106714
H	 0.2729516706	-1.5101130319	-0.167882502	 0.085066
H	-0.2197191365	 0.1867111529	-0.1658460931	 0.117752
H	 1.8592405004	-0.7922193767	 1.4490350009	 0.279902
H	 0.0355939939	-2.8471784016	 2.8174523009	 0.095221
96.7921	144.3367	188.2374	209.8005	273.0694	295.2664	344.148	400.8758	464.491	565.33	615.7184	706.6009	751.7901	770.7882	806.027	874.6092	911.4513	914.236	927.8576	936.9544	994.0151	1040.9624	1053.689	1085.616	1095.3678	1128.1424	1141.8062	1166.4633	1201.2953	1240.3044	1258.7541	1285.2498	1347.6041	1368.7995	1399.9017	1421.3284	1451.6781	1473.6702	1488.3785	1493.8411	1503.1698	2973.3978	3038.5198	3048.7909	3059.6947	3103.2169	3116.0144	3120.5638	3146.8079	3196.5493	3806.7125
CC12OC3CC1(CO)C23	C[C@]12O[C@@H]3C[C@@]1(CO)[C@H]23	
InChI=1S/C7H10O2/c1-6-5-4(9-6)2-7(5,6)3-8/h4-5,8H,2-3H2,1H3	InChI=1S/C7H10O2/c1-6-5-4(9-6)2-7(5,6)3-8/h4-5,8H,2-3H2,1H3/t4-,5+,6-,7-/m1/s1
