19
gdb 3563	2.693331	1.418491	1.0406815	3.1129	74.99	-0.24045	-0.01922	0.22122999999999998	1165.9649	0.155839	-422.573971	-422.565356	-422.564411	-422.607367	32.538	
C	-2.4996022492	-1.4816822453	-2.0649631388	-0.410648
C	-2.0340004161	-0.7699592063	-0.7979578271	-0.072402
C	-0.6347805398	-1.1885552008	-0.3015465529	-0.326433
C	-0.1221994841	-0.0076024009	 0.5273813749	 0.39519
O	 0.8003700536	-0.028476864	 1.2985440177	-0.308392
C	-0.9986354185	 1.213642307	 0.2135176855	-0.401255
C	-1.8993778435	 0.7548821594	-0.9183307685	 0.412018
C	-2.8458261526	 1.6271985211	-1.6131554303	-0.258914
O	-1.5948598425	 1.2782891677	-2.2198747728	-0.265969
H	-2.492084474	-2.5661517995	-1.9204687961	 0.117066
H	-3.5197149088	-1.1938767433	-2.3379123452	 0.115909
H	-1.8450228933	-1.2372789063	-2.9054654032	 0.138562
H	-2.7530106388	-0.9635129226	 0.0109872503	 0.086532
H	-0.6058255391	-2.117846424	 0.2716377063	 0.127446
H	 0.0491635372	-1.3094688039	-1.1534943691	 0.138878
H	-1.574016522	 1.4604313939	 1.1147854458	 0.136294
H	-0.3968785346	 2.0873494657	-0.0468539328	 0.145576
H	-3.7288090769	 1.2074124741	-2.0928115708	 0.114727
H	-2.940841967	 2.6688572179	-1.3079692827	 0.115813
68.6378	97.3877	205.4309	245.6312	284.0893	305.4906	359.802	459.5606	495.387	513.813	526.3486	570.0582	708.6387	754.0528	806.1845	852.9902	892.6558	929.8914	945.7559	975.502	1020.0499	1066.5636	1126.5803	1131.549	1151.2991	1161.6017	1187.9917	1204.6613	1229.8523	1247.715	1275.2898	1328.4028	1372.008	1405.5749	1421.0332	1438.5351	1452.3891	1490.3714	1502.6115	1537.2895	1852.3104	3004.1045	3027.2563	3040.9651	3042.5349	3081.1929	3105.2972	3110.5173	3115.2662	3125.6911	3164.9648
CC1CC(=O)CC11CO1	C[C@H]1CC(=O)C[C@@]21CO2	
InChI=1S/C7H10O2/c1-5-2-6(8)3-7(5)4-9-7/h5H,2-4H2,1H3	InChI=1S/C7H10O2/c1-5-2-6(8)3-7(5)4-9-7/h5H,2-4H2,1H3/t5-,7-/m0/s1
