19
gdb 1329	1.9031851	1.454341	1.4225035	3.8869	76.47	-0.2486	-0.02102	0.22757999999999998	1111.5232	0.153634	-422.568365	-422.558584	-422.55764	-422.603216	34.76	
C	 1.765462219	 0.4315694285	-0.0335693251	-0.424702
C	 0.4804901079	-0.3445505644	-0.3667864521	-0.184864
C	-0.6865394677	 0.5986483712	-0.6478025077	 0.176326
O	-1.8409445972	 0.3562044959	-0.413962643	-0.255102
C	 0.1067003993	-1.4015704456	 0.6571967853	 0.299256
C	-0.6563312127	-2.6413301004	 0.2107986271	-0.296673
C	 0.7742612933	-2.7759179159	 0.6016126161	-0.329128
C	-0.2310358775	-0.9230164928	 2.021307266	 0.126555
O	-0.2086616521	 0.2285995238	 2.3815654937	-0.279292
H	 1.6612999154	 0.9642898398	 0.91281329	 0.159903
H	 2.6163819516	-0.2511466061	 0.0421559307	 0.120094
H	 1.9909467977	 1.1596247152	-0.819698333	 0.117365
H	 0.6440718678	-0.8546470572	-1.3305289858	 0.100194
H	-0.3873166343	 1.5515750968	-1.1428744831	 0.076983
H	-1.4167666677	-3.030812547	 0.8789036904	 0.130847
H	-0.9234681858	-2.6834599887	-0.8384119752	 0.133264
H	 1.0113456803	-3.2599812197	 1.5432260229	 0.12764
H	 1.5214712502	-2.9149345002	-0.1717393767	 0.128214
H	-0.5166802777	-1.7386867032	 2.7265375893	 0.073118
68.9009	83.1005	139.4394	164.7813	200.2094	215.2501	254.2781	312.7235	336.8013	415.004	452.6741	538.1422	642.2888	724.5802	779.0812	841.2647	904.85	914.2563	931.2261	953.4326	985.2397	1046.5938	1048.8503	1068.5869	1090.6957	1118.1209	1142.4352	1193.4102	1252.1414	1300.4696	1344.6861	1355.0844	1402.5251	1423.5884	1445.9033	1469.7024	1492.5549	1499.1882	1515.3207	1810.0905	1835.0367	2855.5051	2863.8867	2977.236	3045.5457	3108.6831	3134.8571	3142.9557	3147.4201	3215.9629	3232.0486
CC(C=O)C1(CC1)C=O	C[C@H](C=O)C1(CC1)C=O	
InChI=1S/C7H10O2/c1-6(4-8)7(5-9)2-3-7/h4-6H,2-3H2,1H3	InChI=1S/C7H10O2/c1-6(4-8)7(5-9)2-3-7/h4-6H,2-3H2,1H3/t6-/m1/s1
