19
gdb 617	2.6399701	2.0073464	1.5474481	1.7222	73.42	-0.23125	0.0792	0.31045	920.6313	0.160455	-422.543557	-422.536721	-422.535776	-422.574689	27.739	
C	 3.9378719195	 0.1404343248	 0.2178977897	-0.086269
O	 3.5264427264	 0.8239096189	 1.4071521122	-0.258738
C	 2.2641627075	 1.3852592782	 1.157802021	 0.085545
C	 1.071839541	 0.4887852738	 1.365342148	-0.069322
C	 1.2248045375	-0.9107518855	 1.9383975214	-0.246731
C	 1.2615344384	-1.9137101667	 0.7858574463	-0.052337
O	 2.3620257095	-1.695378361	-0.0835083851	-0.28267
C	 2.6494457741	-0.3484496629	-0.4706955648	 0.092102
C	 1.6385461265	 0.7143507257	-0.0331093502	-0.154559
H	 4.4829581271	 0.833435419	-0.4414262144	 0.089112
H	 4.5917893528	-0.6880755562	 0.4985843034	 0.117819
H	 2.1976591988	 2.4529517946	 1.3422371062	 0.094741
H	 0.13532533	 0.9984221241	 1.570632865	 0.087988
H	 2.1510310839	-0.9872440977	 2.5175263014	 0.122678
H	 0.390188836	-1.1447670831	 2.60594899	 0.097896
H	 1.3802212667	-2.9399131717	 1.1472155989	 0.104184
H	 0.3118314908	-1.860321683	 0.2281477481	 0.084131
H	 2.7683062766	-0.3581777494	-1.5596313482	 0.083458
H	 1.0688552369	 1.2498308981	-0.7814089391	 0.090971
102.6736	203.2351	294.1073	380.6167	446.4764	465.0813	580.55	630.6239	705.9535	758.2337	776.4533	799.9308	812.0318	869.0358	916.7943	965.6308	978.4801	995.2885	1004.3631	1037.6706	1058.0953	1076.555	1089.1084	1111.4236	1136.3698	1138.5841	1186.2329	1236.8367	1250.4641	1270.9774	1294.6042	1306.7688	1330.9005	1365.7388	1370.1145	1384.2439	1415.1503	1418.0129	1475.9421	1499.8138	1508.336	2966.4312	2986.6138	3046.8927	3047.6573	3077.0194	3094.8293	3111.8615	3148.1118	3157.6159	3190.4967
C1OC2C3CCOC1C23	C1O[C@@H]2[C@@H]3CCO[C@H]1[C@H]23	
InChI=1S/C7H10O2/c1-2-8-5-3-9-7-4(1)6(5)7/h4-7H,1-3H2	InChI=1S/C7H10O2/c1-2-8-5-3-9-7-4(1)6(5)7/h4-7H,1-3H2/t4-,5-,6-,7-/m1/s1
