19
gdb 3350	2.1099046	1.9818385	1.4987501	4.3995	73.76	-0.25733	0.01756	0.27489	986.1883	0.15965	-422.622424	-422.614899	-422.613955	-422.654119	29.65	
C	-1.4245969153	-0.4620145036	-2.4584527121	-0.433661
C	-1.9283572653	-0.7133720036	-1.0406555412	 0.012944
C	-2.1996205289	 0.5378371242	-0.1800742208	 0.095608
C	-2.6619200598	-0.0492107916	 1.1639934976	-0.225898
C	-1.7509170407	-1.3129760588	 1.285051614	-0.237357
C	-0.8960200446	-1.2419157449	-0.0167093067	-0.163346
C	-0.0218936863	-0.0028262477	 0.1503391185	 0.442046
O	 1.1475897374	 0.1055020215	 0.3738331553	-0.354017
O	-0.8644726126	 1.0739643461	 0.0358165005	-0.245371
H	-1.1257457785	-1.4005643437	-2.9356154336	 0.122833
H	-2.2094295624	-0.0113698935	-3.0745051648	 0.119774
H	-0.5623181671	 0.210710595	-2.4707366117	 0.144564
H	-2.8151434659	-1.356325816	-1.066048313	 0.078848
H	-2.8117591122	 1.3311984318	-0.6071990224	 0.087452
H	-2.5058134081	 0.6678635089	 1.9722718169	 0.121937
H	-3.7243052571	-0.3063683047	 1.1378297232	 0.107433
H	-1.131544456	-1.3082011072	 2.1843603003	 0.125597
H	-2.3381955033	-2.2348428446	 1.2912952881	 0.110262
H	-0.328695113	-2.1383091577	-0.258089368	 0.090351
138.7669	198.8177	229.5192	242.9035	283.4698	404.9066	473.6138	528.1504	601.3661	706.907	730.6016	784.6861	810.9959	858.6605	894.6355	899.5456	918.6147	954.1147	976.6894	990.7494	1030.8876	1052.1247	1086.4975	1102.7164	1137.8057	1179.6186	1201.5975	1213.6024	1252.676	1260.7181	1306.938	1324.8084	1327.02	1363.399	1394.5664	1418.2774	1484.4115	1495.8063	1501.7734	1506.5574	1891.6654	3039.3686	3047.547	3063.0226	3072.2827	3103.7747	3107.9547	3117.5501	3126.162	3131.3626	3146.1685
CC1C2CCC1C(=O)O2	C[C@@H]1[C@H]2CC[C@@H]1C(=O)O2	
InChI=1S/C7H10O2/c1-4-5-2-3-6(4)9-7(5)8/h4-6H,2-3H2,1H3	InChI=1S/C7H10O2/c1-4-5-2-3-6(4)9-7(5)8/h4-6H,2-3H2,1H3/t4-,5-,6+/m0/s1
