19
gdb 4013	4.024495	1.11711	1.0223286	0.8841	74.94	-0.25715	0.06482	0.32197	1195.3721	0.156477	-422.504815	-422.49668	-422.495736	-422.537637	31.549	
O	 0.3018137829	-0.23991353	 0.3715951994	-0.43253
C	-0.8251610847	 0.4443104954	 0.8595240436	 0.16264
C	-1.1497494962	 0.3179629579	 2.3792350623	-0.275524
C	-1.2855423231	 1.8561010955	 2.4731001566	-0.134162
C	-0.7356624404	 1.999166488	 1.0041118862	-0.074789
C	-2.0135077792	 2.7688259678	 0.581913122	-0.333229
C	-2.6108650913	 2.4401315267	 1.9576572815	 0.462145
C	-3.9846425925	 2.1000814145	 2.3371242612	-0.267474
O	-3.3948858346	 3.358041832	 2.6958774192	-0.272212
H	 1.0544981182	-0.0166842315	 0.9298139406	 0.277056
H	-1.6502066979	 0.1341384446	 0.2104544132	 0.089011
H	-2.0088176583	-0.2936088837	 2.6693666771	 0.101282
H	-0.2712744414	-0.0418569262	 2.9263155171	 0.09575
H	-0.8635782348	 2.3701698303	 3.3374410053	 0.081791
H	 0.2348743626	 2.4337208031	 0.7612518561	 0.068083
H	-1.8428905188	 3.8449138479	 0.4828390572	 0.118759
H	-2.544544592	 2.4105257223	-0.3052963514	 0.10413
H	-4.7801787565	 2.1530774363	 1.5945335029	 0.114571
H	-4.1680553421	 1.4182413492	 3.16693528	 0.114701
55.2335	159.0436	239.7927	279.0614	334.3198	344.5286	356.7858	411.98	487.3161	566.3195	670.8371	774.9742	828.3536	840.7692	859.8774	875.3227	903.5957	937.0337	966.1986	990.4264	1010.1465	1053.2238	1084.1754	1115.9582	1127.0544	1132.1383	1150.3879	1161.0356	1181.3227	1223.1355	1233.9896	1245.444	1259.2536	1277.2692	1294.7686	1335.3335	1423.8114	1437.1391	1471.3146	1475.0192	1531.4032	3040.376	3047.719	3058.6286	3077.0974	3095.9674	3098.4547	3103.7808	3110.1564	3163.4782	3802.2957
OC1CC2C1CC21CO1	O[C@H]1C[C@H]2[C@@H]1C[C@]12CO1	
InChI=1S/C7H10O2/c8-6-1-5-4(6)2-7(5)3-9-7/h4-6,8H,1-3H2	InChI=1S/C7H10O2/c8-6-1-5-4(6)2-7(5)3-9-7/h4-6,8H,1-3H2/t4-,5-,6-,7+/m0/s1
