19
gdb 1179	2.1158817	1.3997094	0.8931561	1.962	77.15	-0.25729	0.05158	0.30887000000000003	1302.5172	0.153324	-422.500301	-422.490083	-422.489139	-422.535718	36.706	
C	 16.2888688861	 8.895698652	 6.7177632335	-0.398917
C	 16.5357546826	 8.1820195847	 8.0621436743	-0.165649
C	 16.3993366761	 9.1091891964	 9.182666674	 0.335056
C	 16.2861698689	 9.8963250338	 10.0835279225	-0.470563
C	 15.6100294892	 6.9566269475	 8.2236548901	 0.102742
O	 15.9212209355	 6.0929515313	 7.1355032075	-0.432102
C	 15.8147277428	 6.2198018702	 9.5333053543	 0.054685
C	 14.7622454642	 5.3394871727	 10.0657571442	-0.194622
O	 15.020802049	 6.6168932784	 10.6455701219	-0.216166
H	 16.4154373334	 8.1923493242	 5.8932137989	 0.136723
H	 15.2734306547	 9.3023431001	 6.6820689475	 0.122175
H	 16.9890781902	 9.7253157685	 6.5939443881	 0.122661
H	 17.5621822332	 7.7882940901	 8.0570726707	 0.111841
H	 16.1836391686	 10.5757214912	 10.8929523467	 0.195109
H	 14.5624944813	 7.2948210847	 8.1844399082	 0.082638
H	 15.3710152245	 5.3069973891	 7.2139566037	 0.285253
H	 16.8525337041	 5.9823771603	 9.7735262295	 0.099495
H	 13.8110129375	 5.252666887	 9.539349084	 0.110755
H	 15.0334844684	 4.4800147277	 10.6766930304	 0.118888
52.6916	85.0325	123.2768	190.6252	206.5636	223.1826	272.1411	283.1693	316.6528	393.5969	429.1282	498.8896	539.2356	565.4766	633.1561	644.2989	840.2083	856.2583	881.7054	926.3504	973.0825	1039.1569	1055.4196	1078.0081	1103.1287	1121.6224	1153.7471	1166.1076	1181.7546	1245.4537	1279.9179	1297.9098	1326.5955	1332.8681	1392.292	1408.5732	1450.4181	1493.3897	1499.3034	1525.3045	2239.0639	2983.4376	3010.9184	3049.4317	3074.7078	3101.3072	3120.0772	3145.7337	3163.5388	3505.9751	3818.6695
CC(C#C)C(O)C1CO1	C[C@@H](C#C)[C@@H](O)[C@@H]1CO1	
InChI=1S/C7H10O2/c1-3-5(2)7(8)6-4-9-6/h1,5-8H,4H2,2H3	InChI=1S/C7H10O2/c1-3-5(2)7(8)6-4-9-6/h1,5-8H,4H2,2H3/t5-,6-,7+/m0/s1
