19
gdb 5037	2.5354378	1.5560711	1.2504508	3.947	75.24	-0.23038	-0.00374	0.22664	1081.796	0.157289	-422.549936	-422.54157	-422.540626	-422.582922	31.482	
C	 1.3481617372	-0.0785547118	-0.1597982484	-0.262381
O	-0.0508340701	-0.0084584381	 0.0472735233	-0.294494
C	-0.4496069747	 0.6697060945	 1.1762288842	 0.325209
C	-0.262889374	 0.1295594085	 2.6518392915	-0.310325
C	-1.4758672928	 1.0601868777	 2.9715794292	-0.147957
C	-0.8820121705	 2.4604410908	 2.6890283895	-0.22541
C	-0.112440782	 2.1740541839	 1.3528897124	-0.28572
C	-1.945468958	 0.6626360562	 1.5599741709	 0.397082
O	-2.9646477131	 0.321604884	 1.0409924121	-0.32181
H	 1.8609298972	-0.5515258576	 0.6897644047	 0.112289
H	 1.5025930276	-0.6911293027	-1.0503366887	 0.135908
H	 1.7911568933	 0.911810516	-0.3308621949	 0.11501
H	-0.4916464804	-0.933733868	 2.7393368669	 0.122548
H	 0.6773241597	 0.3769930423	 3.150551789	 0.102944
H	-2.1008221989	 0.9252237342	 3.8502599472	 0.088917
H	-1.6558433927	 3.2230432846	 2.5720351493	 0.116798
H	-0.2111648006	 2.7789175556	 3.491405173	 0.107748
H	-0.4759574712	 2.7680121647	 0.5104473432	 0.118163
H	 0.9626742838	 2.3442909352	 1.4520888155	 0.10548
79.6797	151.85	175.7116	194.9547	249.6273	321.1431	385.6986	426.379	544.6601	547.714	687.7363	696.5916	773.2981	801.4396	867.1313	882.7292	905.2728	958.6398	973.5618	1011.2503	1027.4893	1067.3957	1080.6721	1115.0041	1141.7622	1179.8566	1181.8646	1215.8317	1218.5325	1243.4104	1255.2396	1267.1355	1321.8	1355.9724	1484.077	1489.3607	1491.028	1494.033	1505.7469	1517.5177	1908.4679	2994.3066	3047.6885	3055.9692	3065.1878	3067.5063	3097.4626	3115.637	3125.3774	3139.5741	3159.0415
COC12CC(CC1)C2=O	CO[C@@]12C[C@@H](CC1)C2=O	
InChI=1S/C7H10O2/c1-9-7-3-2-5(4-7)6(7)8/h5H,2-4H2,1H3	InChI=1S/C7H10O2/c1-9-7-3-2-5(4-7)6(7)8/h5H,2-4H2,1H3/t5-,7-/m1/s1
