19
gdb 1727	2.9826297	1.2641676	1.1982762	0.3866	77.65	-0.23724	0.03466	0.27190000000000003	1133.676	0.155959	-422.518336	-422.509509	-422.508565	-422.551245	33.904	
C	 0.0057199956	 0.215282955	 0.0130423063	-0.428029
C	 1.5139774085	-0.094273047	 0.065866252	 0.151176
C	 2.0379097378	-0.0846053732	 1.5235489628	-0.106069
O	 1.9883516595	 1.2190459472	 2.0692182657	-0.253996
C	 2.802445239	 2.1067093197	 1.3157825693	-0.081582
C	 2.3173819277	 2.1613845424	-0.1262896717	-0.084545
O	 2.2723504969	 0.8611290485	-0.7001826846	-0.294143
C	 1.7825979637	-1.4053171691	-0.5261865796	 0.304852
C	 1.9879725253	-2.5053812632	-0.9627770899	-0.431281
H	-0.2240896804	 1.1122905949	 0.5918829581	 0.130192
H	-0.305401366	 0.359997894	-1.0239095317	 0.132096
H	-0.5615609125	-0.6181074956	 0.4354256603	 0.127369
H	 1.4175569129	-0.7236509938	 2.1569824038	 0.11693
H	 3.0692371715	-0.4677212456	 1.5282397655	 0.103116
H	 2.7307730636	 3.0887317112	 1.7925705225	 0.10925
H	 3.8521690221	 1.7724889822	 1.3460728068	 0.097447
H	 1.331284928	 2.6464110361	-0.1680621477	 0.099488
H	 3.0073193437	 2.7390396072	-0.7492787519	 0.111516
H	 2.1713570531	-3.472068141	-1.362683076	 0.196212
119.0966	145.6031	192.9335	219.0792	252.7076	329.6875	376.9492	412.2014	443.0034	477.8217	520.7265	553.4841	604.44	628.9203	669.6302	743.3566	870.7942	891.751	907.925	936.9827	968.8239	1014.571	1109.788	1125.4	1136.2826	1163.2527	1180.321	1222.2798	1264.9964	1297.623	1329.481	1372.7041	1389.6082	1407.7214	1418.4411	1477.436	1483.1658	1487.662	1492.6816	1507.286	2241.3734	2978.7007	2997.9207	3004.112	3054.6024	3084.1345	3089.9634	3101.9958	3130.3113	3141.0138	3501.7447
CC1(COCCO1)C#C	C[C@@]1(COCCO1)C#C	
InChI=1S/C7H10O2/c1-3-7(2)6-8-4-5-9-7/h1H,4-6H2,2H3	InChI=1S/C7H10O2/c1-3-7(2)6-8-4-5-9-7/h1H,4-6H2,2H3/t7-/m0/s1
