19
gdb 4773	3.0977422	0.926722	0.7522776	2.9998	79.71	-0.25646	0.01053	0.26699	1502.3683	0.153938	-422.50073	-422.490696	-422.489752	-422.535909	36.272	
C	-0.7453914485	-1.2388520701	 4.295993495	-0.410979
C	-0.8052590341	 0.1375527406	 3.6217049385	-0.05306
C	-0.4245053615	 1.2702429523	 4.5948388095	-0.039647
O	-0.76084766	 2.5507004005	 4.1057126841	-0.432569
C	 0.1085177619	 0.1636858945	 2.4118431867	 0.071449
O	 0.1487308112	 1.3747946515	 1.6423328678	-0.255324
C	-0.4003541387	 0.1925765273	 1.0234558213	-0.172305
C	 0.3363975348	-0.3697327444	-0.0746900334	 0.312329
C	 0.9296771634	-0.8518832586	-1.0019186115	-0.401708
H	-1.4451569278	-1.2889380075	 5.13505697	 0.125737
H	-1.001040002	-2.0393379606	 3.594802887	 0.124134
H	 0.258346898	-1.4453186725	 4.6848857358	 0.123132
H	-1.8311820845	 0.3414450664	 3.291160366	 0.087141
H	-0.9748598933	 1.1403416589	 5.5336644732	 0.102351
H	 0.6501866797	 1.1938825334	 4.8393108131	 0.08198
H	-0.4377835678	 2.6055940302	 3.1978546911	 0.297084
H	 1.0961442409	-0.2762324653	 2.5612571331	 0.10839
H	-1.4807938442	 0.2317202056	 0.8898501778	 0.125502
H	 1.4589298924	-1.2749293723	-1.8200253453	 0.206363
57.6847	101.6164	145.5851	160.5136	203.3674	226.7422	250.2462	311.5556	388.6544	417.3097	452.2419	510.5845	525.5059	573.7795	626.9684	676.3098	810.6433	866.2509	896.1652	928.8258	949.9452	1005.2812	1075.7194	1083.325	1097.9135	1132.9108	1154.2744	1181.7271	1236.906	1267.6173	1303.8563	1322.0925	1374.9356	1387.5261	1408.179	1451.3829	1466.5797	1497.0992	1499.7807	1514.4969	2243.374	2945.7284	3032.294	3036.1432	3058.6059	3097.8843	3103.0908	3113.0181	3120.1191	3502.1012	3777.8218
CC(CO)C1OC1C#C	C[C@@H](CO)[C@@H]1O[C@H]1C#C	
InChI=1S/C7H10O2/c1-3-6-7(9-6)5(2)4-8/h1,5-8H,4H2,2H3	InChI=1S/C7H10O2/c1-3-6-7(9-6)5(2)4-8/h1,5-8H,4H2,2H3/t5-,6-,7-/m0/s1
