19
gdb 2941	2.7021929	1.3791456	1.1597438	2.5585	76.7	-0.22782	0.00868	0.2365	1128.5631	0.155823	-422.559093	-422.550302	-422.549358	-422.591765	34.373	
C	-3.4281493032	 2.2713055555	-1.8369678975	-0.4134
C	-2.6646409623	 2.1557806526	-0.5171816734	 0.35293
O	-2.0624587084	 3.4361353408	-0.3230006384	-0.469578
C	-3.5773066907	 1.759429617	 0.6409030051	-0.151259
C	-3.297548967	 0.5495594045	 1.1306411418	-0.095511
C	-2.1074119366	-0.050259136	 0.4613850993	-0.143675
C	-0.8190378045	 0.7374418515	 0.6730715171	 0.073543
O	 0.4077908504	 0.129904673	 0.4127579979	-0.428936
C	-1.6560125903	 0.9964920012	-0.5436646846	-0.110617
H	-3.9074015166	 1.3219126024	-2.0892204028	 0.118443
H	-4.1970069282	 3.0456065212	-1.7629944472	 0.11956
H	-2.7388614362	 2.54876947	-2.6406233244	 0.122419
H	-1.4992426888	 3.3785238495	 0.4562177644	 0.272873
H	-4.3510700721	 2.4321644935	 0.9934203635	 0.099012
H	-3.8191666858	 0.0632899876	 1.9480204475	 0.098071
H	-2.0320884165	-1.1133028445	 0.2635056782	 0.093235
H	-0.8208788976	 1.4615357038	 1.4913280289	 0.076707
H	 0.6395458521	-0.4127919916	 1.1739689925	 0.288237
H	-1.2129663073	 0.7020338981	-1.4875623478	 0.097948
143.7067	159.1418	227.2749	254.1102	281.0364	319.2996	329.6932	356.1301	396.4756	440.5581	481.888	576.1734	608.373	736.8898	789.1342	829.0571	870.0499	913.4907	929.2804	949.8528	972.2591	981.2076	1005.7256	1046.3542	1063.6407	1087.5659	1124.2711	1144.5076	1170.2987	1196.0318	1223.9541	1265.3668	1295.2487	1302.5397	1345.9888	1391.67	1404.7234	1445.502	1482.3574	1492.2203	1662.8542	3041.0379	3063.8125	3114.7525	3126.4725	3176.1194	3183.777	3190.6603	3208.6979	3802.9833	3807.749
CC1(O)C=CC2C(O)C12	C[C@@]1(O)C=C[C@@H]2[C@@H](O)[C@H]12	
InChI=1S/C7H10O2/c1-7(9)3-2-4-5(7)6(4)8/h2-6,8-9H,1H3	InChI=1S/C7H10O2/c1-7(9)3-2-4-5(7)6(4)8/h2-6,8-9H,1H3/t4-,5+,6+,7+/m0/s1
