19
gdb 1778	2.4888624	1.6496332	1.317947	2.1623	75.03	-0.23075	-0.0066	0.22415000000000002	1044.4251	0.15666	-422.577913	-422.569253	-422.568309	-422.610584	33.177	
C	-0.7203817328	 2.413017543	-0.4857042329	-0.494285
C	-1.078198901	 1.0150696304	-0.0522828788	 0.195616
C	-1.6095690157	-0.0927021218	-1.0310712154	-0.336633
C	-1.1198418987	-1.0998074226	 0.0918074889	 0.315278
O	-0.8615472838	-2.4401813083	-0.1067770982	-0.483587
C	-2.0712590182	-0.7493179197	 1.2473593493	-0.259283
C	-2.0372683912	 0.8137630304	 1.1506485421	-0.25818
C	-0.012497368	-0.0530272285	 0.2527523474	 0.333783
O	 1.1855329328	-0.1057880497	 0.2808409186	-0.344765
H	-0.2718012708	 2.9710202218	 0.3432633785	 0.127966
H	 0.0034269988	 2.3999899653	-1.3062887812	 0.127587
H	-1.6051239169	 2.9656686808	-0.8195698591	 0.119698
H	-2.6841798824	-0.0882454234	-1.2288029376	 0.108353
H	-1.0351892122	-0.1683727515	-1.9566691278	 0.111448
H	 0.0452077009	-2.5212711036	-0.4275643505	 0.294247
H	-3.0679985088	-1.1651612647	 1.0783495858	 0.111879
H	-1.7006815921	-1.1316231793	 2.2017187992	 0.114736
H	-3.0225753992	 1.2400701271	 0.9400525563	 0.10617
H	-1.6554484908	 1.2844377642	 2.0610824254	 0.10997
137.4428	175.2256	184.1914	218.8305	248.4167	281.0519	315.3447	399.4131	435.2183	544.7012	564.8315	593.5038	694.7832	717.2112	788.4418	864.3719	879.9358	903.0283	922.9594	957.8758	968.271	1007.9684	1060.9159	1071.6109	1123.4758	1147.0403	1182.6908	1216.4276	1233.8693	1248.6642	1258.2897	1356.9126	1365.9466	1397.789	1419.3726	1486.422	1489.738	1491.7179	1497.1512	1520.4797	1879.697	3032.0353	3050.4538	3062.8399	3065.3883	3091.7282	3096.4721	3106.0524	3113.8154	3134.6858	3779.9018
CC12CC(O)(CC1)C2=O	C[C@]12C[C@](O)(CC1)C2=O	
InChI=1S/C7H10O2/c1-6-2-3-7(9,4-6)5(6)8/h9H,2-4H2,1H3	InChI=1S/C7H10O2/c1-6-2-3-7(9,4-6)5(6)8/h9H,2-4H2,1H3/t6-,7-/m1/s1
