19
gdb 5489	4.8949221	1.1208992	1.0703706	2.2043	75.48	-0.237	0.09377	0.33077	1180.7184	0.158038	-422.502016	-422.494434	-422.49349	-422.534226	29.189	
C	 1.3654390307	 0.0085295873	-0.2434404851	-0.242245
O	-0.0215969482	 0.1573679867	-0.0342950888	-0.258448
C	-0.3410732726	 0.6326256314	 1.2449686977	 0.158449
C	-1.815173851	 0.9996582944	 1.4447172787	-0.142269
C	-1.3857696488	 1.9411914346	 2.6230369668	-0.068851
C	-2.3088535083	 3.1520228291	 2.561782237	-0.105016
O	-2.3973926789	 3.354622049	 1.1426564285	-0.28347
C	-1.5809504159	 2.3158490715	 0.6374589599	 0.15344
C	-0.2994454379	 2.1587818304	 1.5144935506	-0.145092
H	 1.8133530738	-0.6831013125	 0.4872624775	 0.104962
H	 1.5010590267	-0.4029947273	-1.2463177329	 0.128412
H	 1.8982516469	 0.9689300229	-0.1789046914	 0.107814
H	 0.1153323934	 0.0022324576	 2.0222064805	 0.062645
H	-2.6829476153	 0.3408956564	 1.410452667	 0.076551
H	-1.1138835406	 1.525674793	 3.5935464119	 0.073837
H	-3.3051297056	 2.9597473006	 2.9794022786	 0.103182
H	-1.8893742176	 4.0427737104	 3.045998448	 0.102484
H	-1.5479703997	 2.3332196259	-0.4477018312	 0.101375
H	 0.558404209	 2.8298446387	 1.5678022366	 0.072241
85.5381	164.9356	176.7181	266.0408	317.4993	379.3836	468.1361	528.547	720.0943	735.4658	767.4176	807.9517	876.028	915.4718	936.4647	962.7801	972.373	986.7828	988.9482	1036.4583	1050.45	1076.5652	1110.6117	1119.7859	1145.2749	1156.4362	1174.06	1184.883	1206.2704	1209.1422	1228.8643	1259.364	1276.5287	1281.7229	1319.4652	1382.2794	1410.0809	1483.8929	1489.2	1509.7294	1522.845	2975.3376	2997.1355	3016.5931	3024.5803	3053.8827	3107.723	3113.9148	3116.8305	3123.9405	3178.1191
COC1C2C3COC2C13	CO[C@@H]1[C@H]2[C@@H]3CO[C@H]2[C@H]13	
InChI=1S/C7H10O2/c1-8-6-4-3-2-9-7(4)5(3)6/h3-7H,2H2,1H3	InChI=1S/C7H10O2/c1-8-6-4-3-2-9-7(4)5(3)6/h3-7H,2H2,1H3/t3-,4+,5-,6+,7+
