19
gdb 2487	2.2521143	1.8878484	1.4453244	1.1799	75.07	-0.23976	0.02308	0.26284	987.2231	0.158618	-422.576584	-422.568781	-422.567837	-422.608952	30.522	
O	-0.0174791193	 0.2387555276	-0.0668706218	-0.479689
C	-0.6350444496	 1.0220106334	 0.9452697283	 0.364412
C	-1.1542309006	 0.1632485141	 2.1213912442	-0.14207
O	-2.3526641053	 0.7824645424	 2.5496293639	-0.243981
C	-3.0418654914	 1.1369441773	 1.3559406592	-0.098374
C	-1.9534746068	 1.6448509961	 0.378924163	-0.093215
C	-1.7116095754	 3.1291116374	 0.4225046244	-0.076174
C	-0.5369685011	 3.4452620585	 0.9621238628	-0.058989
C	 0.2482051615	 2.2305237292	 1.3808479755	-0.320228
H	 0.8137212291	-0.1001881432	 0.2823006765	 0.276872
H	-1.3400496227	-0.8568123681	 1.7455134604	 0.087448
H	-0.4763516178	 0.1110313094	 2.9783134013	 0.098886
H	-3.5568185668	 0.2574466648	 0.9374515731	 0.089371
H	-3.7902775121	 1.8911105328	 1.6120535422	 0.106856
H	-2.1379430909	 1.2806385601	-0.636409167	 0.093916
H	-2.4430488153	 3.8413804205	 0.0551639924	 0.092081
H	-0.1633943812	 4.4539090301	 1.1026092523	 0.093999
H	 1.2247177092	 2.1797230493	 0.88152836	 0.100973
H	 0.4426222864	 2.2314428982	 2.4608815493	 0.107905
56.7323	184.0358	264.532	272.4748	330.662	379.7824	421.0983	459.3066	583.069	601.9117	679.7336	750.3109	769.1944	830.0491	868.6556	923.7423	957.845	966.2256	976.5911	991.0252	1025.3343	1051.8072	1084.9203	1094.2527	1127.5365	1133.2216	1171.6707	1206.7814	1220.3584	1271.4861	1285.2219	1301.9292	1316.4248	1338.937	1359.7591	1374.1933	1413.0172	1467.1845	1502.807	1517.0748	1694.3452	2966.1982	2976.2652	3014.2156	3046.7737	3063.3604	3084.8229	3095.1245	3176.836	3202.4651	3805.4624
OC12COCC1C=CC2	O[C@]12COC[C@H]1C=CC2	
InChI=1S/C7H10O2/c8-7-3-1-2-6(7)4-9-5-7/h1-2,6,8H,3-5H2	InChI=1S/C7H10O2/c8-7-3-1-2-6(7)4-9-5-7/h1-2,6,8H,3-5H2/t6-,7-/m1/s1
