19
gdb 5822	2.6479095	1.1818986	0.981033	0.7904	77.43	-0.25379	0.03446	0.28825	1192.4581	0.155382	-422.52483	-422.515464	-422.514519	-422.560099	33.781	
C	 0.8557850595	-0.778255887	 0.8824025509	-0.38625
C	 0.7678363093	-0.3771813821	-0.5916507654	-0.199434
C	 2.0563447293	-0.6517880965	-1.3450947358	 0.229119
O	 1.9252175441	-0.2609509169	-2.6916903236	-0.252166
C	 2.7919359083	-1.1022739997	-3.4243282835	-0.119946
C	 2.6435086834	-2.4541695802	-2.6909098583	-0.076516
O	 2.3714842285	-2.0487305682	-1.3484313496	-0.273593
C	 1.56967538	-3.290081993	-3.2297412241	 0.355742
C	 0.7017505465	-3.9830808457	-3.6882877392	-0.478554
H	 1.0723926263	-1.8453698847	 0.9797253752	 0.137925
H	 1.6473863774	-0.2250610097	 1.400146268	 0.113852
H	-0.0859281664	-0.5711102799	 1.3981583489	 0.115325
H	-0.0333935111	-0.9247079104	-1.0986484689	 0.115651
H	 0.548206789	 0.6922046268	-0.6896245968	 0.106757
H	 2.9088206239	-0.1233490743	-0.8790967003	 0.066016
H	 2.4674881101	-1.1268741227	-4.4648387914	 0.131983
H	 3.8348663166	-0.7550830196	-3.3662785307	 0.098755
H	 3.583742801	-3.0177277429	-2.6970809315	 0.112818
H	-0.0689861058	-4.5954861832	-4.0870435841	 0.202516
25.561	87.0804	140.6898	193.4292	203.2379	239.3727	279.9721	412.0791	455.3819	472.1871	536.4556	628.4226	663.8265	713.8535	779.0823	785.53	842.2333	875.5109	942.9923	993.8727	1000.4347	1013.9191	1069.3849	1104.0642	1118.4615	1147.0921	1174.0421	1247.5187	1274.3863	1287.8272	1327.7405	1351.0586	1370.3889	1389.2298	1410.971	1434.7279	1477.171	1498.9857	1507.4369	1510.829	2236.6902	2928.7267	2989.3692	3038.205	3040.3111	3043.1993	3086.0107	3107.2755	3124.2092	3132.2267	3502.7194	25.5605	87.0809	140.6896	193.429	203.2379	239.3728	279.9721	412.079	455.3819	472.1873	536.4559	628.4232	663.8271	713.8535	779.0823	785.53	842.2333	875.5108	942.9921	993.8727	1000.4344	1013.9189	1069.3847	1104.0642	1118.4614	1147.0919	1174.0419	1247.5188	1274.3864	1287.8271	1327.7404	1351.0586	1370.3891	1389.2298	1410.971	1434.7279	1477.1706	1498.9856	1507.4369	1510.829	2236.6905	2928.7266	2989.3691	3038.205	3040.311	3043.1993	3086.0107	3107.2755	3124.2092	3132.2267	3502.7192
CCC1OCC(O1)C#C	CC[C@@H]1OC[C@@H](O1)C#C	
InChI=1S/C7H10O2/c1-3-6-5-8-7(4-2)9-6/h1,6-7H,4-5H2,2H3	InChI=1S/C7H10O2/c1-3-6-5-8-7(4-2)9-6/h1,6-7H,4-5H2,2H3/t6-,7+/m0/s1
