19
gdb 3937	2.7563759	1.671374	1.4809983	1.3685	73.83	-0.23308	0.05871	0.29179	981.0498	0.157941	-422.506631	-422.499018	-422.498074	-422.538265	30.251	
C	 0.4174644477	 0.583021046	 0.0464607712	-0.405672
C	 0.8760440077	-0.8483246363	-0.1282906	 0.083917
O	 1.9623089367	-0.9468292426	-1.1116955535	-0.337725
C	 2.825952486	-1.4635355333	-0.0954141032	 0.350937
C	 2.363252965	-2.7634699582	 0.4694464611	-0.373006
C	 1.7601342848	-1.4660136093	 0.9783442255	 0.106988
C	 2.3988542341	-0.8047796596	 2.1746212566	-0.1554
O	 3.8153390757	-0.7942817903	 1.89075392	-0.266499
C	 4.0197538128	-0.7368661615	 0.4722264031	-0.154196
H	-0.3582839684	 0.6455651627	 0.8176754314	 0.120363
H	 1.2455328495	 1.2389763323	 0.3277920366	 0.127143
H	-0.0019797053	 0.9507626206	-0.8945318714	 0.131939
H	 0.0358531338	-1.4841697832	-0.434830588	 0.083833
H	 1.7622957505	-3.4162741518	-0.154886566	 0.121967
H	 3.0426933477	-3.260404579	 1.1536930449	 0.134561
H	 2.0145811024	 0.2166540931	 2.3074637241	 0.099593
H	 2.2859670746	-1.3399945178	 3.1222168956	 0.112928
H	 4.0257313738	 0.2951542837	 0.0897790658	 0.103889
H	 4.9957489409	-1.1923920155	 0.2810256063	 0.114439
133.2238	202.264	232.4874	285.0565	342.0221	379.2343	429.3116	469.3384	558.242	633.6576	643.4268	763.9126	834.1392	842.4564	874.9082	898.1639	918.2834	954.3499	972.3233	1025.2662	1037.6318	1052.3434	1055.7888	1080.2935	1115.8736	1164.4445	1211.3748	1220.6123	1249.8622	1294.7781	1297.1244	1351.1264	1361.6152	1383.8383	1387.2123	1408.4654	1468.556	1482.9242	1492.125	1511.6574	1522.1469	2994.8184	3006.1394	3022.4883	3038.7372	3076.7871	3083.2257	3110.0921	3123.2422	3131.1474	3226.7089
CC1OC23CC12COC3	C[C@H]1O[C@]23C[C@]12COC3	
InChI=1S/C7H10O2/c1-5-6-2-7(6,9-5)4-8-3-6/h5H,2-4H2,1H3	InChI=1S/C7H10O2/c1-5-6-2-7(6,9-5)4-8-3-6/h5H,2-4H2,1H3/t5-,6+,7+/m1/s1
