19
gdb 2588	2.2891516	1.8836027	1.2068364	1.0515	76.86	-0.24154	0.01188	0.25342	1065.0999	0.157986	-422.540951	-422.532894	-422.53195	-422.573533	30.515	
C	 0.4714585571	 1.0912516609	-1.3817185033	-0.486218
C	-0.6856785097	 0.2637219573	-0.9001705292	 0.319501
C	-1.9528274518	 0.4695840536	-1.2623404792	-0.170964
C	-3.1079763753	-0.3806016671	-0.8190999796	-0.129292
O	-2.8434133314	-1.1987546432	 0.3099666668	-0.261729
C	-1.5693532135	-1.768004757	 0.3669995111	 0.082323
C	-1.0455903333	-2.7351770635	-0.7250773397	-0.126661
O	 0.2062485216	-2.0162583445	-0.7803123536	-0.29195
C	-0.3501987191	-0.9023956089	-0.0137879796	-0.023547
H	 0.9925278401	 1.5691596464	-0.5422934668	 0.124018
H	 1.2060608024	 0.4545507799	-1.888761194	 0.144261
H	 0.1508899919	 1.8726193708	-2.0759029042	 0.118918
H	-2.2040645013	 1.2793428633	-1.9449373037	 0.090209
H	-3.9575375613	 0.2501760679	-0.5319008046	 0.120007
H	-3.4552585883	-0.9988683341	-1.6660199174	 0.105841
H	-1.4830420472	-2.1998090909	 1.3658272731	 0.09981
H	-0.9060850609	-3.7830233547	-0.4403586489	 0.107264
H	-1.5949387948	-2.6873460569	-1.6746739396	 0.102519
H	 0.335776155	-0.6170408392	 0.7930294522	 0.075691
87.4033	163.8278	197.803	223.7204	272.0915	326.2431	385.028	463.3666	553.1082	574.5734	708.4118	745.4282	803.675	863.1759	878.6072	903.9732	975.8903	991.9362	1014.0268	1038.3962	1040.9371	1065.9655	1074.4968	1101.1026	1153.241	1190.1432	1215.9348	1257.3708	1269.5232	1272.6105	1328.2192	1332.9385	1380.4433	1393.5044	1408.2385	1428.2655	1476.4468	1493.3228	1495.9938	1516.7612	1745.5704	2945.5317	3014.6423	3020.0819	3031.1768	3048.9177	3072.0641	3074.1126	3098.8165	3113.6152	3144.839
CC1=CCOC2COC12	CC1=CCO[C@H]2CO[C@@H]12	
InChI=1S/C7H10O2/c1-5-2-3-8-6-4-9-7(5)6/h2,6-7H,3-4H2,1H3	InChI=1S/C7H10O2/c1-5-2-3-8-6-4-9-7(5)6/h2,6-7H,3-4H2,1H3/t6-,7-/m0/s1
