19
gdb 3539	2.666781	1.5719343	1.1479209	4.3593	75.48	-0.25893	0.01473	0.27366	1114.9607	0.156855	-422.603679	-422.595034	-422.59409	-422.636589	32.579	
C	-3.1562271744	-1.6127141674	-0.051677146	-0.397655
C	-2.0640603882	-0.731632337	-0.6357530563	 0.109643
O	-0.7981212942	-1.0673673315	-0.0201983524	-0.245579
C	-0.0418296273	 0.0458944678	 0.2163849426	 0.40634
O	 1.1179609945	-0.0175046093	 0.5092441196	-0.350764
C	-0.884491929	 1.2784078806	 0.0496322162	 0.177059
C	-0.1933561193	 2.5537550613	-0.3570958602	-0.482272
C	-2.0915344993	 1.2686843961	 0.9754248582	-0.327016
C	-2.2222057207	 0.7691710875	-0.4328422374	-0.113903
H	-3.2922617761	-1.4175793188	 1.0153163167	 0.127416
H	-4.1039514185	-1.4179515536	-0.5633807976	 0.121926
H	-2.9045118112	-2.6683922144	-0.1820460802	 0.135552
H	-1.9615295574	-0.9419754507	-1.7087422026	 0.09419
H	 0.5887916664	 2.8039053467	 0.3655167271	 0.146316
H	 0.2818346412	 2.4544708351	-1.3382303049	 0.129018
H	-0.9016809906	 3.3858376834	-0.4027435786	 0.115449
H	-2.1190964015	 0.5652593795	 1.8010673103	 0.13114
H	-2.5194108467	 2.2402616602	 1.1976390123	 0.122658
H	-2.8161542878	 1.3239895945	-1.1493441569	 0.10048
130.4459	144.1957	176.0215	224.9076	226.8469	287.645	293.0313	384.4851	499.1769	510.2187	575.6525	678.1434	706.2357	780.7124	796.1539	856.3951	892.4453	939.5067	976.6344	983.6677	1028.9846	1035.079	1071.7063	1095.497	1116.922	1122.793	1147.377	1166.4561	1281.8165	1318.8583	1359.5427	1382.0757	1403.861	1413.48	1423.6425	1484.2621	1485.026	1491.1971	1499.0879	1500.0978	1872.6028	3016.0658	3040.3807	3046.4742	3107.1006	3117.9996	3119.2862	3128.4143	3131.0806	3183.8272	3217.9925
CC1OC(=O)C2(C)CC12	C[C@@H]1OC(=O)[C@]2(C)C[C@H]12	
InChI=1S/C7H10O2/c1-4-5-3-7(5,2)6(8)9-4/h4-5H,3H2,1-2H3	InChI=1S/C7H10O2/c1-4-5-3-7(5,2)6(8)9-4/h4-5H,3H2,1-2H3/t4-,5+,7+/m0/s1
