19
gdb 4490	3.4247125	1.4213891	1.2031884	1.0127	73.5	-0.24338	0.07698	0.32036000000000003	1068.4203	0.158001	-422.526541	-422.51896	-422.518016	-422.558415	29.671	
C	 0.3753679865	 0.4733360527	-0.396090604	-0.405462
C	 1.2602486897	-0.5002853638	 0.3849745357	 0.107655
O	 1.8708504526	-1.4683335463	-0.4751443683	-0.260895
C	 3.0920004629	-0.9200942522	-0.954661217	-0.108906
C	 3.6775540402	-0.0932655324	 0.1920885569	-0.081552
C	 4.2612077045	-0.9199015857	 1.3471483272	 0.03319
O	 4.3645957728	-0.0586993491	 2.4849510449	-0.252458
C	 3.0942253203	-0.6525090538	 2.2000485127	 0.018876
C	 2.420470986	 0.1955098964	 1.1123051603	-0.071826
H	-0.1637205477	 1.1368650304	 0.2879473133	 0.116179
H	 0.9670828434	 1.0989067502	-1.0726315978	 0.118273
H	-0.35585213	-0.0800641309	-0.9914434127	 0.125148
H	 0.635953984	-1.0748124674	 1.0797443907	 0.082127
H	 3.7283171381	-1.7566022996	-1.2613172278	 0.108343
H	 2.9262670621	-0.2822389831	-1.836405489	 0.093948
H	 4.2910531557	 0.7464245712	-0.1391584562	 0.084413
H	 4.927850834	-1.773937449	 1.3035344125	 0.105067
H	 2.6336238177	-1.2486000657	 2.9799111925	 0.10456
H	 2.2040971772	 1.2278633582	 1.3930979362	 0.08332
124.9954	174.4538	222.1095	250.3028	320.7456	348.9847	452.4684	486.6948	651.0648	728.6907	820.6064	833.2977	858.0271	870.2928	875.0459	884.7864	917.1909	972.8725	988.073	1021.7169	1026.389	1051.5003	1079.2826	1103.613	1128.6216	1143.0566	1174.6484	1219.2193	1221.6028	1241.9366	1257.3449	1294.2224	1318.8015	1333.7984	1371.5986	1389.218	1399.8881	1404.7466	1489.1764	1496.1748	1519.4299	2984.1912	3036.172	3037.2478	3071.9289	3092.7758	3102.7305	3106.4941	3119.7798	3174.2494	3189.6003
CC1OCC2C3OC3C12	C[C@H]1OC[C@@H]2[C@H]3O[C@H]3[C@H]12	
InChI=1S/C7H10O2/c1-3-5-4(2-8-3)6-7(5)9-6/h3-7H,2H2,1H3	InChI=1S/C7H10O2/c1-3-5-4(2-8-3)6-7(5)9-6/h3-7H,2H2,1H3/t3-,4+,5-,6-,7+/m1/s1
