19
gdb 1488	3.0858936	1.3520672	1.2477625	0.6565	77.21	-0.22851	0.01141	0.23992	1088.5176	0.156343	-422.542451	-422.53385	-422.532906	-422.575139	33.055	
C	-0.1036542985	-0.2146372454	 0.0568217385	-0.448461
C	 1.3963760489	-0.0672232899	 0.0166446532	 0.341774
O	 2.0597916587	-0.4229960597	 1.2029227553	-0.462736
C	 2.1755340301	-0.3025838302	-1.2620073721	 0.008567
O	 1.454064084	-0.5634448863	-2.4307698953	-0.259863
C	 1.4492202083	 0.4929926623	-3.3871507815	-0.117954
C	 1.1057510213	 1.8332194003	-2.7863829636	-0.077044
C	 1.3783397101	 2.0955029066	-1.5088709317	-0.087534
C	 2.0886461621	 1.0920223855	-0.6809577717	-0.146305
H	-0.5205796737	 0.380962646	 0.8749661674	 0.121024
H	-0.5603201553	 0.1004701477	-0.8816595206	 0.134423
H	-0.3781192651	-1.2634054554	 0.2252061356	 0.107438
H	 1.9155222127	-1.3655970538	 1.3473198822	 0.280403
H	 3.1162504971	-0.845393031	-1.1790554404	 0.087895
H	 2.4221724307	 0.5463957777	-3.9051846337	 0.105469
H	 0.7048003804	 0.20331758	-4.1358485646	 0.115386
H	 0.6312435853	 2.5653480119	-3.4329344376	 0.095653
H	 1.1162212449	 3.0488829145	-1.0587449659	 0.095464
H	 2.9671081481	 1.4453720392	-0.1481372635	 0.106402
130.1772	158.9358	165.4578	234.4955	266.5305	315.6882	367.681	385.6135	486.5508	499.2709	509.5967	578.7311	691.3967	746.3554	832.3971	862.5183	891.3694	921.8859	975.9362	980.5263	998.7865	1002.8796	1053.9903	1080.444	1092.8089	1115.579	1144.8458	1209.1019	1223.4275	1266.87	1285.897	1318.7462	1335.8962	1390.122	1411.2208	1413.0097	1437.0056	1483.9656	1492.6665	1497.8462	1708.6204	2958.8567	3029.7473	3069.4627	3091.4768	3107.8891	3147.7937	3148.865	3158.9511	3182.5924	3783.1435
CC1(O)C2OCC=CC12	C[C@@]1(O)[C@H]2OCC=C[C@@H]12	
InChI=1S/C7H10O2/c1-7(8)5-3-2-4-9-6(5)7/h2-3,5-6,8H,4H2,1H3	InChI=1S/C7H10O2/c1-7(8)5-3-2-4-9-6(5)7/h2-3,5-6,8H,4H2,1H3/t5-,6+,7+/m1/s1
