19
gdb 1726	3.0095032	1.2338135	1.1850277	1.9611	76.96	-0.25805	0.03748	0.29553	1142.8462	0.156232	-422.524933	-422.516173	-422.515228	-422.557773	33.753	
C	-0.1277946275	-0.0229813608	-0.0483010792	-0.425969
C	 1.4031481985	-0.0122411059	 0.1426366502	 0.151125
C	 1.941958977	-1.3427188638	 0.7336975213	-0.223911
C	 1.9760449807	-2.4384018658	-0.3331635444	-0.105656
O	 2.6826327428	-1.9851877686	-1.4788407509	-0.230495
C	 2.0797047182	-0.8345089266	-2.0024584705	 0.014122
O	 2.0780138534	 0.2488195422	-1.1058271929	-0.280128
C	 1.760489374	 1.0975342302	 1.0312720712	 0.320085
C	 2.028666675	 1.9862242669	 1.7933715379	-0.440933
H	-0.6230507084	-0.0861197491	 0.9240855049	 0.129803
H	-0.4394807596	 0.9013398687	-0.5395376807	 0.137747
H	-0.4592447951	-0.86956064	-0.6541365626	 0.117703
H	 2.9608550126	-1.1679708585	 1.0890818698	 0.125273
H	 1.3313397429	-1.6476231543	 1.5893580644	 0.106801
H	 2.5044028529	-3.3217628089	 0.0344532247	 0.116165
H	 0.9581930913	-2.7513249134	-0.6189432787	 0.092735
H	 2.6785518256	-0.5156179631	-2.8578748719	 0.121681
H	 1.0520099854	-1.0707760076	-2.3333676299	 0.077862
H	 2.2746928104	 2.7781990984	 2.4569122373	 0.19599
120.5989	149.5449	206.9332	216.8672	248.2446	348.6725	362.9319	415.2746	441.1324	486.417	536.2997	558.5936	625.2637	668.8011	670.2876	702.2579	851.3003	886.1266	923.39	965.6002	998.664	1013.0119	1055.1106	1106.2066	1131.6285	1169.1849	1197.9218	1245.8041	1263.3322	1272.3796	1328.2536	1369.2483	1396.4395	1402.5018	1444.5275	1467.7636	1486.243	1489.81	1505.3061	1517.0583	2242.7715	2939.0646	2973.3307	3053.3874	3057.9446	3093.2526	3109.8074	3112.2576	3128.1752	3137.1786	3501.8695
CC1(CCOCO1)C#C	C[C@]1(CCOCO1)C#C	
InChI=1S/C7H10O2/c1-3-7(2)4-5-8-6-9-7/h1H,4-6H2,2H3	InChI=1S/C7H10O2/c1-3-7(2)4-5-8-6-9-7/h1H,4-6H2,2H3/t7-/m1/s1
