19
gdb 5098	3.733938	1.1138829	1.0076988	2.0388	76.49	-0.23029	0.06177	0.29206	1237.1884	0.155695	-422.492331	-422.483714	-422.48277	-422.525732	32.907	
O	 1.73931453	 0.517312183	-0.0835416215	-0.412225
C	 0.324258562	 0.4093369247	-0.1045924683	-0.17117
C	-0.2374979395	 0.7462282709	-1.447671223	 0.446169
C	-0.5758188633	 2.0912692881	-2.0084658898	-0.335089
C	-1.6253817786	 0.9894746069	-1.9984791937	-0.289592
C	-1.2437370035	-0.0407780131	-3.0300551508	 0.474618
C	-1.5489879829	-0.1636830413	-4.4836177575	-0.338022
C	-2.0049290568	-1.2341325026	-3.4948842756	-0.345605
O	 0.0967786181	-0.1652304889	-2.5168158195	-0.361198
H	 2.073134644	-0.0618399752	-0.7778303746	 0.295036
H	-0.0017284325	-0.6019944214	 0.1833067671	 0.09579
H	-0.0563013933	 1.1127709406	 0.6427392552	 0.112201
H	-0.7354148512	 2.8749144875	-1.274153827	 0.117017
H	-0.1293424533	 2.4139964323	-2.9442403915	 0.118637
H	-2.5810073875	 1.068203543	-1.4975450847	 0.10497
H	-2.2920583892	 0.4971131873	-4.9173194379	 0.11906
H	-0.7244947202	-0.4174062854	-5.1409000337	 0.126677
H	-3.0608588085	-1.3014979526	-3.2528991891	 0.116836
H	-1.4782906336	-2.1821466437	-3.5073278041	 0.12589
63.9129	105.0905	172.4071	264.201	287.0144	323.1601	389.5036	394.6237	465.2258	495.2264	583.9582	726.3356	759.7787	823.9719	854.0059	887.8093	895.9559	910.9367	959.268	962.6302	976.9878	1003.6186	1016.7914	1046.2721	1059.2247	1068.1867	1069.4302	1092.1303	1141.1939	1185.5176	1215.1827	1219.6225	1287.8707	1374.3881	1384.2048	1402.716	1436.996	1448.8815	1485.8281	1491.4789	1511.1147	2987.9422	3082.4557	3120.0963	3128.606	3133.2474	3199.5012	3213.0581	3213.5541	3227.4084	3806.4157
OCC12CC1C1(CC1)O2	OC[C@]12C[C@H]1C1(CC1)O2	
InChI=1S/C7H10O2/c8-4-7-3-5(7)6(9-7)1-2-6/h5,8H,1-4H2	InChI=1S/C7H10O2/c8-4-7-3-5(7)6(9-7)1-2-6/h5,8H,1-4H2/t5-,7+/m0/s1
