19
gdb 1780	4.2740602	1.0762583	1.0692293	2.5584	76.57	-0.23574	0.08375	0.31949	1215.9568	0.155277	-422.475669	-422.467193	-422.466249	-422.50897	32.046	
C	-3.7488296659	-1.1117759787	 1.7737281711	-0.508701
C	-2.3704695046	-0.5574196498	 1.6019684214	 0.398336
C	-1.8315320182	 0.8737045679	 1.8768433786	-0.30249
C	-0.7597125799	 0.0691358243	 1.0982697303	 0.433741
C	-1.0004387142	-1.1405307413	 2.0381172851	-0.294441
O	-1.8313811104	-0.4452087867	 0.2134832295	-0.370508
C	 0.5037952078	 0.5489292666	 0.4789354968	-0.101198
C	 0.6088746901	 0.7474978895	-0.9719141654	-0.170927
O	 1.2064050261	-0.3867608652	-0.3390518519	-0.230309
H	-4.0171716076	-1.1365240126	 2.8345602685	 0.126923
H	-4.4805885754	-0.4934844625	 1.2451440157	 0.133276
H	-3.8032757615	-2.1304631906	 1.3783587862	 0.136032
H	-2.3169524895	 1.6680521261	 1.3075579293	 0.104364
H	-1.617207627	 1.154222231	 2.9116841351	 0.092372
H	-0.7472062437	-2.108476253	 1.6049700414	 0.11559
H	-0.7100055581	-1.0449043999	 3.0876695331	 0.091025
H	 1.1377025736	 1.1396570522	 1.142207408	 0.096021
H	-0.2585871635	 0.5287250489	-1.5897354784	 0.137194
H	 1.3052437018	 1.4871889838	-1.3642622143	 0.113698
59.6973	136.8104	155.996	194.6232	295.1987	302.361	411.2936	458.4175	522.1559	599.8245	617.1852	658.0749	714.5533	790.3763	859.1958	892.5666	916.7833	950.6409	955.7799	987.6587	1008.0808	1064.9225	1079.8781	1105.7068	1120.462	1126.5342	1157.1944	1160.4698	1168.4067	1181.8981	1205.7237	1270.3876	1284.3757	1351.387	1412.1473	1447.0702	1465.3032	1477.3631	1488.6773	1517.158	1530.2047	3039.9474	3054.3693	3065.7597	3091.1587	3100.8764	3114.2227	3116.423	3140.5788	3151.8829	3190.6429
CC12CC(C1)(O2)C1CO1	C[C@@]12C[C@@](C1)(O2)[C@@H]1CO1	
InChI=1S/C7H10O2/c1-6-3-7(4-6,9-6)5-2-8-5/h5H,2-4H2,1H3	InChI=1S/C7H10O2/c1-6-3-7(4-6,9-6)5-2-8-5/h5H,2-4H2,1H3/t5-,6-,7+/m0/s1
