19
gdb 2463	2.8062026	1.7828701	1.4157585	1.7335	73.12	-0.24154	0.07246	0.314	963.5447	0.159363	-422.562665	-422.555375	-422.554431	-422.594038	29.562	
O	 0.455004111	 0.5862776945	 0.6014230451	-0.48306
C	-0.8611972735	 1.0146642379	 0.4296194709	 0.412404
C	-1.9238226292	-0.0088858352	 0.012610665	-0.30169
C	-3.202532333	 0.417001412	 0.7725465689	-0.207687
C	-2.9989575571	 1.911704331	 1.1010403874	 0.080153
O	-3.3278698768	 2.7243576136	-0.0320907127	-0.270026
C	-2.1828592045	 2.8639515477	-0.8717278647	-0.104412
C	-0.9823961567	 2.4393977782	-0.043906212	-0.098632
C	-1.4909120055	 2.0628938594	 1.329414506	-0.177961
H	 0.4681542746	-0.0573404633	 1.3188051301	 0.279123
H	-2.0718134466	-0.0239368538	-1.0726648896	 0.111424
H	-1.5920941552	-1.012855376	 0.2960855081	 0.091958
H	-4.1244138649	 0.2591441732	 0.207643403	 0.106161
H	-3.281594464	-0.1445529776	 1.7107473036	 0.093211
H	-3.6213287376	 2.2517782614	 1.9320120877	 0.079787
H	-2.3020356671	 2.2593773089	-1.7832479373	 0.095002
H	-2.1008684344	 3.9141348484	-1.1760320102	 0.104142
H	-0.0489961773	 2.9807939108	-0.1431041673	 0.100668
H	-1.0572896323	 2.4303574289	 2.2504166982	 0.089435
118.2583	223.8543	268.8239	327.4437	371.6899	390.912	464.7652	551.8995	613.4521	714.3861	737.7143	776.2394	802.9018	856.4492	885.554	898.339	932.8743	951.2456	985.9959	993.4618	1022.3763	1045.9075	1051.3434	1075.9155	1104.2409	1160.9801	1177.7952	1206.2023	1225.9529	1251.9299	1267.7682	1290.0436	1302.5219	1337.7643	1342.7333	1349.0161	1384.6415	1441.2682	1478.9506	1503.6567	1533.6968	2992.5946	3037.4372	3044.3366	3046.3933	3078.2392	3087.1453	3107.4933	3185.6513	3198.7385	3789.5247
OC12CCC3OCC1C23	O[C@]12CC[C@@H]3OC[C@H]1[C@H]23	
InChI=1S/C7H10O2/c8-7-2-1-5-6(7)4(7)3-9-5/h4-6,8H,1-3H2	InChI=1S/C7H10O2/c8-7-2-1-5-6(7)4(7)3-9-5/h4-6,8H,1-3H2/t4-,5-,6-,7+/m0/s1
