19
gdb 3690	2.9050701	1.3706653	1.092666	2.6847	79.25	-0.21605	0.00773	0.22377999999999998	1158.9077	0.155669	-422.543085	-422.534406	-422.533462	-422.576334	33.32	
C	 0.5480074071	-0.2528147823	-0.561930556	-0.39249
C	 0.9071402523	 0.097744703	 0.881701634	 0.072052
O	 2.1175610286	-0.5846240687	 1.2721583953	-0.333366
C	 3.0986116796	 0.3650700711	 1.6580126021	 0.376312
C	 4.112701985	-0.0853999134	 2.686661847	-0.387132
C	 4.5021752645	 0.0027694103	 1.2236300052	 0.073678
O	 4.6491518406	-1.1561426936	 0.4690391291	-0.433594
C	 2.4647518658	 1.6917817518	 1.555159674	-0.171974
C	 1.2159067095	 1.5548815107	 1.1177906768	-0.112874
H	 0.4270399381	-1.3345576226	-0.6698690312	 0.125953
H	-0.393941686	 0.2264617257	-0.8488135789	 0.11634
H	 1.3333590336	 0.0843269927	-1.2447213102	 0.125541
H	 0.0999141284	-0.2524403526	 1.544051595	 0.090461
H	 4.5058251749	 0.6486348466	 3.3831513122	 0.112394
H	 3.9675445316	-1.0821068795	 3.0897225456	 0.127459
H	 5.1807214547	 0.7947184978	 0.9166742814	 0.096634
H	 3.7515941458	-1.4767153542	 0.2982587087	 0.291926
H	 2.9783351248	 2.6118264485	 1.8011491525	 0.114255
H	 0.4988892713	 2.3435321387	 0.9304407075	 0.108426
61.2258	140.9815	205.4454	243.0489	264.9883	307.9558	380.0574	418.9819	452.8465	515.7957	534.978	631.2515	731.4693	761.5463	808.1319	837.6426	868.1379	881.1304	913.6426	937.9743	947.1502	1009.9672	1031.5312	1058.0635	1083.1076	1099.9158	1117.4773	1132.9975	1159.7356	1228.4463	1280.0911	1331.7435	1350.0061	1373.3596	1392.3461	1403.1276	1420.9444	1470.133	1486.3155	1495.1737	1675.5918	2976.0963	3036.9865	3110.9165	3121.1367	3123.3714	3136.7267	3211.4259	3222.0375	3234.9652	3725.0381
CC1OC2(CC2O)C=C1	C[C@H]1O[C@]2(C[C@H]2O)C=C1	
InChI=1S/C7H10O2/c1-5-2-3-7(9-5)4-6(7)8/h2-3,5-6,8H,4H2,1H3	InChI=1S/C7H10O2/c1-5-2-3-7(9-5)4-6(7)8/h2-3,5-6,8H,4H2,1H3/t5-,6-,7+/m1/s1
