19
gdb 4674	4.0589484	0.9268014	0.7710956	3.9989	80.72	-0.25788	-0.05838	0.1995	1461.2035	0.156899	-422.58966	-422.580717	-422.579773	-422.623999	32.45	
O	 1.0432561062	-0.8833535201	 0.0266556973	-0.423481
C	 0.7070645805	 0.4664786361	 0.1138517793	-0.136809
C	-0.2387537255	 0.7220665256	 1.2818642928	 0.243957
O	-0.5589847118	-0.2240317773	 1.9839779988	-0.346977
C	-0.7201047136	 2.0972318276	 1.5126081724	 0.254696
C	-1.5752546776	 2.4208675213	 2.4937074049	-0.12003
C	-1.9396290538	 3.8780292762	 2.4806490485	-0.257321
C	-0.9026742296	 4.4949503302	 1.505699523	-0.214922
C	-0.3723403723	 3.3069195099	 0.6610310717	-0.329838
H	 0.5771557815	-1.2978280554	 0.7725824084	 0.292235
H	 1.6022650375	 1.097820609	 0.2505390076	 0.112878
H	 0.2235983059	 0.8226218786	-0.8119182941	 0.112671
H	-1.9823631042	 1.7004818932	 3.1937754122	 0.125366
H	-2.9717431031	 4.0010972453	 2.1209170937	 0.121558
H	-1.9129535008	 4.3311632148	 3.4777205662	 0.117396
H	-1.321559772	 5.2947689145	 0.8911361183	 0.1064
H	-0.0787870622	 4.9273702449	 2.0814925911	 0.113891
H	-0.8743342105	 3.2482222218	-0.3144343978	 0.115411
H	 0.6984626053	 3.3960068437	 0.4506169955	 0.112918
57.3865	101.9913	133.1764	152.8644	207.3935	331.6638	361.4443	392.0748	469.0676	475.4783	572.4988	641.9567	770.3366	813.0924	838.7368	871.7017	912.4357	915.5041	957.2242	1004.2331	1016.0364	1045.1223	1070.3756	1135.5557	1154.4495	1200.8025	1231.2715	1244.8612	1255.1788	1274.2728	1312.3058	1328.5207	1331.7975	1359.3973	1454.2713	1474.0801	1485.3316	1492.1513	1505.5232	1665.725	1751.5805	2961.4273	2975.9719	3006.3727	3014.7121	3052.182	3062.9652	3071.3464	3110.2121	3211.4055	3655.5866
OCC(=O)C1=CCCC1	OCC(=O)C1=CCCC1	
InChI=1S/C7H10O2/c8-5-7(9)6-3-1-2-4-6/h3,8H,1-2,4-5H2	InChI=1S/C7H10O2/c8-5-7(9)6-3-1-2-4-6/h3,8H,1-2,4-5H2
