19
gdb 5411	2.1079753	1.2244263	1.0097272	1.1499	79.18	-0.23333	0.02792	0.26125	1298.1407	0.152719	-422.506932	-422.496341	-422.495397	-422.542293	38.379	
C	 1.2004194566	-0.3331385705	 1.2449610074	-0.372377
C	 0.9398305572	 0.2601574175	-0.1445441842	-0.21089
C	 1.7749532404	-0.3899616973	-1.2261812122	-0.090735
C	 1.3882963646	-0.3239030573	-2.6717492954	 0.033104
O	 2.4091065239	-0.1153021824	-3.5911354377	-0.420113
C	 1.2690161698	-1.6530740749	-1.9454816859	 0.125808
O	-0.058856049	-2.051529278	-1.7171035668	-0.451043
C	 2.1938671712	-2.7074539757	-2.2556973977	 0.306372
C	 2.9444549156	-3.612736926	-2.511638652	-0.46549
H	 0.9544824799	-1.4004264226	 1.2737880867	 0.105816
H	 2.2533637037	-0.2324760485	 1.5291152637	 0.11971
H	 0.597907655	 0.1686432388	 2.0081668065	 0.11499
H	-0.1196949552	 0.1555097601	-0.3977958734	 0.112843
H	 1.1552617101	 1.3359546242	-0.1323510475	 0.104085
H	 2.8498407473	-0.3849837459	-1.0647784632	 0.107045
H	 0.425449132	 0.1318834103	-2.9079077297	 0.10148
H	 2.2769233585	-0.7173535967	-4.3321322355	 0.292892
H	-0.0660372977	-2.617067853	-0.9362667706	 0.289557
H	 3.611843886	-4.4084939621	-2.7328166824	 0.196945
71.148	89.7262	139.369	163.1927	210.5962	227.4955	271.8604	284.5592	307.4128	330.4298	389.2558	436.7717	507.2731	556.6262	577.394	649.4101	677.1772	679.9434	778.5567	827.3094	920.4545	988.8635	1001.5009	1047.0676	1063.5369	1110.787	1142.5186	1171.334	1215.0102	1235.3959	1294.4261	1312.6922	1327.1746	1353.3037	1391.0727	1412.0694	1468.9061	1483.2911	1497.462	1503.0067	2227.4148	3029.1834	3032.2897	3076.2262	3095.9023	3099.6174	3106.8933	3153.036	3501.2187	3794.853	3796.8987
CCC1C(O)C1(O)C#C	CC[C@@H]1[C@@H](O)[C@@]1(O)C#C	
InChI=1S/C7H10O2/c1-3-5-6(8)7(5,9)4-2/h2,5-6,8-9H,3H2,1H3	InChI=1S/C7H10O2/c1-3-5-6(8)7(5,9)4-2/h2,5-6,8-9H,3H2,1H3/t5-,6-,7-/m1/s1
