19
gdb 2518	2.2482415	1.828315	1.0786946	2.1191	78.84	-0.23369	0.01271	0.2464	1122.7257	0.157627	-422.527888	-422.519685	-422.518741	-422.56049	30.9	
C	 0.0320211734	 1.4843741406	 0.053325852	-0.48535
C	-0.0515569693	-0.0018073896	-0.1372779566	 0.111567
C	-1.1626868187	-0.7246494646	-0.1259235309	 0.142648
C	-2.5640393611	-0.6855465046	 0.4315535038	-0.15881
O	-2.4292900422	-2.0932719907	 0.792223111	-0.306209
C	-1.2228594393	-2.2179658345	-0.0117426299	 0.088993
C	 0.076207906	-2.7044739491	 0.618838738	-0.126757
O	 1.1110429088	-2.1913698123	-0.2183061204	-0.255938
C	 1.2487104875	-0.7766624419	-0.2256078301	-0.130388
H	 0.6624061369	 1.7401983885	 0.9142391067	 0.12841
H	 0.4799152563	 1.9745782899	-0.8205743249	 0.131757
H	-0.9562878253	 1.9240397167	 0.2105444798	 0.127714
H	-2.7416093166	-0.0436184609	 1.3025526811	 0.115252
H	-3.3756466283	-0.5397998284	-0.2950179755	 0.106711
H	-1.4320315293	-2.7727131474	-0.9364498888	 0.085514
H	 0.1523275069	-2.3349825578	 1.6522229869	 0.09659
H	 0.1997849954	-3.7903467859	 0.6155194084	 0.110044
H	 1.8036532077	-0.5401589962	-1.1422250175	 0.119663
H	 1.8836335014	-0.4563376116	 0.6210524671	 0.098589
141.4141	149.9184	167.5974	217.5677	271.7082	292.1497	409.6317	430.2871	466.6469	524.9867	623.3703	668.9745	831.6227	902.5224	931.896	945.8245	967.3022	975.9288	1003.9565	1047.5437	1079.6421	1099.8212	1122.1328	1130.2928	1136.7199	1150.2114	1223.914	1247.179	1271.7393	1287.5004	1328.4201	1359.0307	1374.879	1402.8157	1413.0214	1478.5634	1484.7851	1491.3779	1502.2208	1512.3854	1808.87	2938.4051	2997.2898	3000.4609	3013.5487	3018.1864	3039.8615	3053.7937	3064.989	3098.9975	3113.4594
CC1=C2COC2COC1	C[C]1[C]2CO[C@@H]2COC1	
InChI=1S/C7H10O2/c1-5-2-8-4-7-6(5)3-9-7/h7H,2-4H2,1H3	InChI=1S/C7H10O2/c1-5-2-8-4-7-6(5)3-9-7/h7H,2-4H2,1H3/t7-/m1/s1
