19
gdb 1899	3.1351173	1.0415584	0.9141551	2.9328	77.04	-0.23543	-0.01738	0.21805	1313.0454	0.154756	-422.53764	-422.528315	-422.527371	-422.572796	33.726	
O	-1.1346645526	 3.0723988672	-2.9102676345	-0.462451
C	-1.3995748549	 2.9718963266	-1.5570131858	 0.349446
C	-0.3282594397	 3.1030347502	-0.5117937615	-0.39007
C	-1.0802342691	 1.7894221421	-0.6449020179	 0.28553
C	-0.376788586	 0.4928829319	-0.9649805392	-0.387934
C	 0.3779461232	-0.0460677722	 0.2336171268	 0.167102
O	 1.5585836546	-0.2810611871	 0.2539911064	-0.240328
C	-2.4529583579	 1.9396592223	 0.0315501555	-0.285463
C	-2.7925653642	 3.1216793278	-0.9382950413	-0.281478
H	-0.7651834535	 3.9436956236	-3.0892857096	 0.288924
H	 0.6835341497	 3.0768017049	-0.9057636592	 0.121685
H	-0.4594561633	 3.7376444236	 0.3627884296	 0.104771
H	-1.1189567693	-0.2602025009	-1.268115293	 0.115803
H	 0.329446198	 0.6253026967	-1.7899415758	 0.12919
H	-0.251419071	-0.2044700292	 1.1406129498	 0.07233
H	-3.1039045609	 1.0749158635	-0.1214147586	 0.105118
H	-2.4351832303	 2.1803684004	 1.0991778241	 0.100357
H	-3.5794220004	 2.8534416718	-1.6464527042	 0.113561
H	-3.0311958224	 4.0914099468	-0.4885264116	 0.093907
42.405	53.0598	129.5852	195.3888	224.8653	263.6655	322.	375.849	437.8688	460.229	550.8404	600.8155	702.8536	739.3346	789.1707	838.3113	865.258	929.7651	935.0379	978.3891	993.3836	1029.6234	1060.257	1077.2813	1115.1681	1144.7449	1198.7924	1211.2511	1232.5017	1241.2213	1267.0007	1299.2154	1314.2004	1345.487	1410.1006	1429.8969	1456.7847	1480.0639	1481.354	1520.3608	1833.4769	2856.9771	3008.2459	3042.0815	3050.3668	3095.0837	3095.8087	3097.8743	3117.4982	3195.4128	3800.4015
OC12CC1(CC=O)CC2	O[C@]12C[C@@]1(CC=O)CC2	
InChI=1S/C7H10O2/c8-4-3-6-1-2-7(6,9)5-6/h4,9H,1-3,5H2	InChI=1S/C7H10O2/c8-4-3-6-1-2-7(6,9)5-6/h4,9H,1-3,5H2/t6-,7+/m0/s1
