19
gdb 3914	2.9478829	1.3538168	1.1045093	2.9954	76.27	-0.22766	-0.03172	0.19594	1161.4888	0.1555	-422.549462	-422.540683	-422.539739	-422.583424	32.481	
C	 0.2911780191	 3.8817553373	-0.2324994002	-0.399924
C	-1.029996307	 3.1603686105	-0.0546317192	 0.145565
C	-1.0991238693	 2.096845563	 1.0657094102	-0.366219
C	-1.1394261478	 1.0863770662	-0.1054156891	 0.358356
C	-2.1256910797	-0.1109517494	-0.1575288269	-0.320565
C	-0.9502686956	-1.1110957695	 0.0603655878	-0.348568
C	 0.017497971	 0.060475485	-0.1995752072	 0.345867
O	 1.1837697872	 0.1549545432	-0.4482693129	-0.299252
O	-1.2279852268	 2.1326709228	-1.0678694489	-0.318657
H	 0.4461287361	 4.6028232298	 0.5778724769	 0.113328
H	 1.1177078076	 3.1645336826	-0.2352107571	 0.143129
H	 0.3029720577	 4.4252332056	-1.1821912492	 0.127702
H	-1.867781901	 3.8674137795	-0.0676115669	 0.078993
H	-0.2292866292	 2.0399036711	 1.7227256202	 0.1207
H	-2.0135320007	 2.1165101832	 1.6614967327	 0.114167
H	-2.9198278242	-0.1101479943	 0.5910877771	 0.107319
H	-2.5682521785	-0.1980230083	-1.1525668708	 0.128383
H	-0.8678385494	-1.4949638672	 1.08209483	 0.133336
H	-0.8656128696	-1.951140821	-0.6325359263	 0.13634
54.4823	74.6075	164.4629	239.2767	256.5248	272.0313	371.7809	384.8406	493.9011	522.2101	581.985	698.2825	748.2077	795.7297	828.1262	874.6649	909.1056	915.3576	936.1884	956.8993	1021.0476	1055.1616	1072.5074	1098.1179	1141.0491	1153.5459	1191.9337	1199.3857	1223.363	1225.9516	1253.5685	1281.7723	1313.6227	1382.3157	1413.1567	1440.7489	1478.6283	1480.1618	1487.8265	1499.911	1888.0081	3031.2816	3034.6888	3062.6599	3073.4035	3075.77	3106.7179	3116.7521	3118.8934	3132.2385	3135.1593
CC1CC2(CCC2=O)O1	C[C@@H]1C[C@@]2(CCC2=O)O1	
InChI=1S/C7H10O2/c1-5-4-7(9-5)3-2-6(7)8/h5H,2-4H2,1H3	InChI=1S/C7H10O2/c1-5-4-7(9-5)3-2-6(7)8/h5H,2-4H2,1H3/t5-,7-/m1/s1
