19
gdb 5144	3.0101035	1.3853255	1.1801807	1.9545	73.88	-0.2573	0.07588	0.33318	1098.1785	0.157848	-422.534268	-422.526318	-422.525374	-422.566643	31.076	
O	 1.643588284	 0.3942590808	-0.134114817	-0.416063
C	 0.3765519265	 0.0687217743	 0.4210988585	-0.163944
C	-0.4991248013	 1.2794609077	 0.6089165593	 0.30548
C	-0.4143248506	 2.1229705381	 1.8652585108	-0.334771
C	-1.6675629056	 1.3344103617	 1.5806670288	-0.107441
C	-2.8589214122	 2.0081714564	 0.8892571046	-0.265747
C	-2.3488410068	 2.45263119	-0.4756217292	 0.04023
O	-1.2762928427	 3.4047998394	-0.4320105854	-0.257483
C	-0.9504235205	 2.0216723147	-0.6351827206	-0.03024
H	 2.0284082927	 1.083341423	 0.4183861451	 0.283697
H	-0.0771786462	-0.6324582392	-0.289363815	 0.108621
H	 0.4785463625	-0.4627063333	 1.3810253652	 0.085106
H	 0.2179002613	 1.7546692843	 2.6680995429	 0.103454
H	-0.4353175115	 3.1990338201	 1.7480397817	 0.13711
H	-1.8762556094	 0.4883877513	 2.2275170697	 0.087308
H	-3.6684887968	 1.2827398858	 0.7483987905	 0.107145
H	-3.2698065948	 2.8469792993	 1.4615707122	 0.117659
H	-3.0417191889	 2.5812079594	-1.3044882761	 0.095471
H	-0.4863031499	 1.7861003163	-1.5883845859	 0.104409
92.7239	135.9372	255.8055	268.849	326.2362	358.1657	395.3566	434.1998	515.2494	652.0306	711.3722	737.4454	805.7354	846.2545	862.144	878.5235	915.5192	947.3661	968.9477	976.3813	1003.3288	1049.4201	1061.6726	1083.3027	1092.587	1108.3227	1119.956	1194.8437	1216.9156	1243.3424	1268.165	1284.4938	1306.393	1337.2015	1379.2345	1402.1847	1420.1194	1428.4893	1473.5637	1481.0398	1506.5074	2973.9389	3040.7502	3055.1006	3079.6458	3126.6485	3135.2307	3158.9093	3163.8041	3229.7452	3804.9149
OCC12CC1CC1OC21	OC[C@]12C[C@H]1C[C@H]1O[C@@H]21	
InChI=1S/C7H10O2/c8-3-7-2-4(7)1-5-6(7)9-5/h4-6,8H,1-3H2	InChI=1S/C7H10O2/c8-3-7-2-4(7)1-5-6(7)9-5/h4-6,8H,1-3H2/t4-,5-,6-,7-/m1/s1
