19
gdb 3448	2.2563125	1.6846018	1.239815	3.8505	77.24	-0.23735	-0.04868	0.18867	1073.2132	0.155515	-422.598168	-422.588824	-422.587879	-422.631906	34.824	
C	-0.6396305826	 1.922901549	-1.3746486086	-0.404263
C	-0.9490975492	 1.2407424802	-0.0268495326	 0.139149
C	-0.7634743188	 2.2306649744	 1.1283984986	-0.435778
C	-2.3430662236	 0.5542963094	-0.0359856207	 0.031404
O	-3.1845238671	 1.0996504436	-1.0433958437	-0.423634
C	-2.0361594672	-0.9159837735	-0.2405189604	-0.09264
C	-0.7347869358	-1.1964654803	-0.1308715778	-0.179936
C	 0.0281194169	 0.0502362162	 0.1163282343	 0.371857
O	 1.2063506584	 0.1450408021	 0.3716677186	-0.348079
H	-0.7650648483	 1.2344879963	-2.2144217926	 0.121217
H	-1.3094409615	 2.7702805811	-1.5357991501	 0.126868
H	 0.3948399581	 2.2770943993	-1.3670034938	 0.125868
H	-0.9986395336	 1.7702212137	 2.0940072485	 0.111474
H	 0.2758563084	 2.5674661722	 1.1654093864	 0.13727
H	-1.41131902	 3.1036104923	 0.9995002437	 0.116682
H	-2.8170922751	 0.6844010985	 0.9505117203	 0.082661
H	-4.0714505837	 0.7478030778	-0.9184745899	 0.287261
H	-2.8270169686	-1.6367017372	-0.426977277	 0.111466
H	-0.2609085269	-2.1681298151	-0.1936370131	 0.121153
54.7342	193.6342	213.3233	227.3216	253.2007	259.8439	283.4973	295.6689	326.8518	375.5518	508.0154	532.8641	617.243	688.9009	711.6155	766.2394	830.078	873.5365	951.9599	964.8058	997.8169	1016.7929	1030.1443	1062.1282	1113.5688	1139.6025	1148.7957	1229.303	1245.1856	1265.7026	1334.25	1354.4443	1392.5589	1404.2151	1426.3773	1482.4944	1485.8186	1501.3176	1508.5542	1653.8793	1812.0433	2962.7913	3033.1095	3048.8932	3099.1502	3120.4282	3123.9919	3132.3014	3177.0371	3221.3546	3821.8446
CC1(C)C(O)C=CC1=O	CC1(C)[C@@H](O)C=CC1=O	
InChI=1S/C7H10O2/c1-7(2)5(8)3-4-6(7)9/h3-5,8H,1-2H3	InChI=1S/C7H10O2/c1-7(2)5(8)3-4-6(7)9/h3-5,8H,1-2H3/t5-/m0/s1
