19
gdb 5393	2.796721	1.3092262	0.9683274	2.9617	79.42	-0.23417	-0.05372	0.18045	1245.9	0.156837	-422.580841	-422.571944	-422.571	-422.614737	32.46	
C	 1.9771722648	-0.4736940804	 1.7526925213	-0.377482
C	 1.8521502558	-0.1284377656	 0.2585513989	-0.277267
C	 2.1117929922	 1.3267291354	-0.0398079379	 0.203781
C	 3.2416879038	 1.7938538006	-0.5931856931	-0.162509
C	 3.46243591	 3.2428047418	-0.9154373331	-0.12703
O	 2.2634072522	 3.9808599225	-0.9958437493	-0.239391
C	 1.4223817133	 3.78204488	 0.121173698	-0.186044
C	 1.0755715909	 2.3129664517	 0.3583350932	 0.310101
O	 0.0347987012	 1.9966172204	 0.9000087031	-0.322057
H	 1.7796824321	-1.5372704353	 1.917565828	 0.114749
H	 2.9838742308	-0.2551896613	 2.1238711679	 0.109906
H	 1.2591824144	 0.1011348317	 2.3418458064	 0.144087
H	 2.5471092759	-0.7422073286	-0.3246929022	 0.097124
H	 0.8388957329	-0.3757400974	-0.0761798018	 0.123567
H	 4.0596599009	 1.1154254532	-0.8309782345	 0.105817
H	 4.1504007878	 3.6866507577	-0.1686964924	 0.106599
H	 3.9517314911	 3.343689685	-1.8905041626	 0.128079
H	 1.8834968592	 4.175288087	 1.0465995105	 0.109174
H	 0.5010882506	 4.3402904416	-0.0570277402	 0.138796
78.687	83.4079	159.743	212.1241	239.4217	295.8337	305.674	377.9905	447.155	513.7874	530.5067	637.4257	698.4502	765.6241	791.1016	851.0088	911.6287	955.6004	1001.0651	1013.1704	1044.4571	1078.3878	1097.1553	1134.1825	1183.5708	1232.5054	1251.7821	1286.5935	1297.6467	1353.1066	1354.3099	1389.0316	1401.8189	1407.1119	1466.109	1475.6049	1482.338	1496.1703	1511.709	1701.4117	1775.3883	2914.1598	2937.9836	3039.2966	3040.4054	3063.0341	3080.1141	3106.9375	3114.937	3133.7846	3142.8421
CCC1=CCOCC1=O	CCC1=CCOCC1=O	
InChI=1S/C7H10O2/c1-2-6-3-4-9-5-7(6)8/h3H,2,4-5H2,1H3	InChI=1S/C7H10O2/c1-2-6-3-4-9-5-7(6)8/h3H,2,4-5H2,1H3
