19
gdb 1175	2.7001985	1.2182031	1.0248495	2.0111	78.13	-0.26101	-0.04267	0.21834000000000003	1222.4851	0.152083	-422.544848	-422.534314	-422.53337	-422.579928	38.348	
C	-0.3704203511	 2.7621254817	 0.9444784968	-0.407231
C	-0.9905540634	 2.2302703352	-0.3625824264	-0.187585
C	-1.3203312469	 3.3316271111	-1.2629344614	 0.337463
C	-1.5902933521	 4.2551165353	-1.983474169	-0.458279
C	-0.0489022457	 1.1882159108	-1.0628577554	 0.27004
C	-0.6541437808	 0.6850451194	-2.3854447359	-0.430125
O	 1.2178075684	 1.7502462736	-1.2925129801	-0.463008
C	 0.0992363741	-0.0122246339	-0.1378936938	 0.125308
O	 1.1739649505	-0.3872348913	 0.2623779981	-0.271368
H	-0.2039114886	 1.9502096424	 1.65983532	 0.1193
H	 0.5882855838	 3.2379507324	 0.7310627786	 0.149445
H	-1.0323801429	 3.496891303	 1.4076830607	 0.127995
H	-1.9246094036	 1.7021009587	-0.1212554532	 0.103092
H	-1.8284928797	 5.0701033051	-2.6212344195	 0.197373
H	 0.0081343855	-0.0557846802	-2.8414436584	 0.127977
H	-1.6407671397	 0.2345037738	-2.2339131364	 0.114144
H	-0.7598668925	 1.5296697303	-3.0689489699	 0.155309
H	 1.8454136276	 1.200647847	-0.796319089	 0.292784
H	-0.839383843	-0.5392479044	 0.1328870545	 0.097365
61.6181	101.3198	152.3374	200.111	218.5402	232.252	252.3718	303.6683	320.6351	353.7267	382.1303	409.6256	468.8363	525.8523	575.2643	622.7638	643.9769	700.667	802.6073	851.2918	903.0147	925.7767	992.6406	1022.7628	1060.3524	1112.1177	1153.4334	1158.2841	1228.4888	1314.3737	1334.1283	1384.9244	1400.7117	1406.0006	1425.7532	1485.8682	1490.2089	1492.0882	1503.2797	1814.183	2234.5751	2920.1733	3000.9704	3042.05	3047.55	3115.8449	3120.0933	3139.6991	3147.0618	3503.8587	3685.8611
CC(C#C)C(C)(O)C=O	C[C@@H](C#C)[C@@](C)(O)C=O	
InChI=1S/C7H10O2/c1-4-6(2)7(3,9)5-8/h1,5-6,9H,2-3H3	InChI=1S/C7H10O2/c1-4-6(2)7(3,9)5-8/h1,5-6,9H,2-3H3/t6-,7-/m0/s1
