19
gdb 3017	2.722947	1.4264003	1.2804166	0.8576	76.07	-0.24007	0.06914	0.30921	1077.2265	0.155742	-422.493369	-422.484705	-422.483761	-422.52604	33.673	
O	 0.4626801355	 0.4505401671	-0.0498074566	-0.452161
C	-0.6690282956	 0.300618857	 0.7562905509	 0.115309
C	-2.1173370585	 0.2263286875	 0.1573379779	-0.198615
C	-1.7959520928	-1.2356550874	-0.2957312945	-0.292122
C	-1.225225415	-1.1151750479	 1.1440551793	 0.266462
O	-0.6037219934	-2.1524953056	 1.8091556681	-0.467133
C	-2.5371315067	-0.379614569	 1.5044773725	 0.399758
C	-3.8314089815	-0.8819537643	 2.0304916077	-0.370134
C	-3.0456021197	 0.1972602667	 2.7786708823	-0.382492
H	 0.4725475324	-0.2414810406	-0.7189251675	 0.285457
H	-0.5521428397	 1.0037600364	 1.5847088865	 0.084421
H	-2.6361604662	 0.9943978575	-0.4107032486	 0.084819
H	-2.6499569479	-1.9038763563	-0.417521749	 0.10765
H	-1.0858477394	-1.3667594963	-1.1179508789	 0.077331
H	-0.1841699605	-1.7994979967	 2.6015669679	 0.288102
H	-4.7538043134	-0.5844111767	 1.5415566783	 0.113608
H	-3.8584582893	-1.8753893319	 2.4684890407	 0.118414
H	-3.4476343424	 1.2057233076	 2.7790947004	 0.115314
H	-2.5685154559	-0.0882188672	 3.7122772627	 0.106013
162.6429	172.5228	178.7782	198.0882	220.1018	292.5907	352.5167	394.2364	480.9445	494.8459	592.8717	663.0508	700.0972	754.9503	783.4049	827.2218	886.9839	917.7976	929.2428	965.0126	971.4711	1009.168	1028.3909	1047.7659	1080.5551	1097.5794	1103.0737	1124.375	1148.3868	1179.5037	1181.8202	1211.6627	1228.9343	1276.5299	1302.5429	1365.2628	1412.6516	1453.9701	1460.2948	1511.4091	1539.811	3051.603	3087.6189	3114.249	3120.036	3124.9712	3152.863	3191.8435	3206.9762	3806.5672	3815.8355
OC1C2CC1(O)C21CC1	O[C@H]1[C@H]2C[C@]1(O)C12CC1	
InChI=1S/C7H10O2/c8-5-4-3-7(5,9)6(4)1-2-6/h4-5,8-9H,1-3H2	InChI=1S/C7H10O2/c8-5-4-3-7(5,9)6(4)1-2-6/h4-5,8-9H,1-3H2/t4-,5+,7-/m1/s1
