19
gdb 3892	3.6787937	0.8919009	0.8188208	3.1958	78.35	-0.2556	-0.03717	0.21842999999999999	1362.1228	0.154273	-422.534999	-422.525839	-422.524895	-422.569763	33.324	
C	 2.5246062932	-2.1786512791	-0.2506584658	-0.406202
C	 2.0281679071	-1.1299174325	 0.7323199495	 0.045724
C	 2.706245877	-1.0753029998	 2.1412023194	-0.321876
C	 2.8498655502	 0.4379435784	 1.9630823883	 0.427324
C	 2.4506613846	 0.355474207	 0.485764358	-0.32584
O	 2.2622259733	 1.3602852704	 2.8539519025	-0.271411
C	 3.694378523	 1.396890489	 2.7101623346	-0.15714
C	 4.2306785098	 2.6002524132	 2.0140522456	 0.153251
O	 5.3572754203	 3.0067208685	 2.1471616618	-0.251814
H	 2.2783266584	-3.1900328872	 0.0903569032	 0.120302
H	 2.0733976149	-2.0409737541	-1.2392533147	 0.120417
H	 3.6129082159	-2.1224301572	-0.3698873942	 0.115533
H	 0.941698758	-1.2007114619	 0.8389138444	 0.0855
H	 2.1075766836	-1.3885005209	 2.9993987933	 0.1208
H	 3.6697971318	-1.5938915317	 2.1685276745	 0.112152
H	 1.6689357365	 1.051417013	 0.1733016899	 0.119849
H	 3.3020759909	 0.4456778476	-0.1962172331	 0.113532
H	 4.271419255	 1.0434960651	 3.5634992393	 0.113566
H	 3.4913254067	 3.0942881123	 1.3452598736	 0.086331
33.1447	101.2113	142.903	207.5766	240.6171	289.7287	329.6211	384.2918	399.589	437.3494	491.5554	564.3359	730.4809	801.6425	824.1069	883.2812	892.2878	934.0207	961.6248	985.8335	1032.6799	1062.4235	1090.1519	1117.6637	1126.1695	1158.1223	1183.8644	1229.9555	1232.0349	1245.6439	1284.8673	1295.5053	1364.1669	1393.3262	1412.9447	1456.9364	1457.6325	1489.3083	1495.4443	1497.1214	1822.5724	2892.4855	3024.4619	3051.8089	3054.4458	3058.5007	3093.2947	3096.269	3115.4864	3117.7883	3132.9099	33.1432	101.2124	142.9029	207.577	240.6163	289.7285	329.6206	384.292	399.5887	437.3491	491.5554	564.3357	730.4807	801.6427	824.1061	883.2812	892.2878	934.0207	961.6249	985.8332	1032.6802	1062.4237	1090.1519	1117.6641	1126.1698	1158.1223	1183.8645	1229.9557	1232.0352	1245.6443	1284.8679	1295.5058	1364.1673	1393.3263	1412.9449	1456.9364	1457.6329	1489.3083	1495.4447	1497.1219	1822.574	2892.4857	3024.4619	3051.8088	3054.4458	3058.5006	3093.2947	3096.269	3115.4864	3117.7883	3132.9098
CC1CC2(C1)OC2C=O	C[C@H]1C[C@@]2(C1)O[C@@H]2C=O	
InChI=1S/C7H10O2/c1-5-2-7(3-5)6(4-8)9-7/h4-6H,2-3H2,1H3	InChI=1S/C7H10O2/c1-5-2-7(3-5)6(4-8)9-7/h4-6H,2-3H2,1H3/t5-,6-,7-/m1/s1
