19
gdb 1543	3.3981134	1.4658733	1.4049239	1.7328	73.74	-0.23394	0.06449	0.29843000000000003	1008.4446	0.155976	-422.505085	-422.497276	-422.496332	-422.536837	31.166	
C	 2.213814591	 1.1949940734	 0.5736055153	-0.41912
C	 1.4770604946	-0.0795139183	 0.1661740116	 0.351476
C	 0.0760360455	-0.142373193	 0.7714139175	-0.419142
O	 1.3550258769	-0.1007090705	-1.295131735	-0.310557
C	 2.0464603816	-1.2596475214	-1.6606113987	 0.081453
C	 3.3222459339	-1.4678049756	-0.7885376632	 0.019274
O	 3.1614073706	-2.9221172219	-0.8537158011	-0.320014
C	 1.8011739308	-2.419599853	-0.647811947	 0.019272
C	 2.2945965234	-1.3544056624	 0.3804165533	-0.096895
H	 2.3349540738	 1.2435780405	 1.6607448379	 0.115647
H	 3.2048728862	 1.239422104	 0.1138531247	 0.119382
H	 1.6503906612	 2.0756999299	 0.2516086186	 0.126816
H	 0.1242601891	-0.1376275626	 1.8652853067	 0.115643
H	-0.5125168685	 0.7220642473	 0.4502913668	 0.12685
H	-0.4487809405	-1.0473173612	 0.4533054547	 0.119362
H	 2.0537194261	-1.4301144744	-2.7351885167	 0.099679
H	 4.3269858421	-1.0567505289	-0.8809452939	 0.094194
H	 0.9910413361	-3.1441650745	-0.5723223096	 0.094193
H	 2.5784725062	-1.6593575675	 1.3862846481	 0.082486
140.9885	200.6201	231.2003	232.6263	322.7243	343.4336	476.7587	495.4684	501.9544	592.7726	689.8593	783.7444	794.7638	821.0737	881.6339	891.0118	892.1734	915.5799	936.1575	964.706	980.4119	1007.7016	1017.3482	1093.5749	1133.2742	1144.9124	1150.1601	1171.5343	1182.5002	1201.446	1232.8739	1236.9859	1275.9827	1326.2633	1359.4872	1399.228	1416.6116	1474.3412	1483.2486	1497.0184	1503.8575	3036.3162	3041.4334	3107.4418	3113.3668	3115.9615	3118.8644	3122.3034	3123.9085	3143.8846	3158.2878
CC1(C)OC2C3OC2C13	CC1(C)O[C@H]2[C@@H]3O[C@H]2[C@H]13	
InChI=1S/C7H10O2/c1-7(2)3-4-6(9-7)5(3)8-4/h3-6H,1-2H3	InChI=1S/C7H10O2/c1-7(2)3-4-6(9-7)5(3)8-4/h3-6H,1-2H3/t3-,4-,5+,6+
