19
gdb 2989	2.4782716	1.7745695	1.3184132	2.3615	74.15	-0.24039	-0.02004	0.22035	1019.798	0.157898	-422.57653	-422.568661	-422.567717	-422.608957	30.565	
C	-0.2907161711	-2.1439074849	 1.2115203519	-0.406999
C	-0.8314764887	-1.3431775953	 0.0165315894	-0.081544
C	-2.3291255871	-1.0530163959	 0.1460034426	 0.085924
C	-2.8048415081	 0.0060872288	-0.8671866207	-0.273211
C	-2.3490409579	 0.9686435205	 0.2486674892	 0.087947
C	-0.8577835826	 1.2757676246	 0.1504218197	-0.315198
C	-0.0637088087	-0.0117183526	-0.119307748	 0.386837
O	 1.1064144842	 0.0131883864	-0.4144421813	-0.322256
O	-2.5144786276	-0.0956786844	 1.2304216145	-0.298938
H	-0.7413915306	-3.1410740963	 1.241072767	 0.114384
H	 0.7933437349	-2.2536194001	 1.1342964815	 0.137749
H	-0.5293867556	-1.6328945103	 2.1485798656	 0.135792
H	-0.6392000349	-1.9066490783	-0.9059489908	 0.097371
H	-2.9263082488	-1.9579172405	 0.2901017946	 0.080014
H	-2.3062252623	 0.0599547252	-1.8384786808	 0.106055
H	-3.8879025258	 0.0023404862	-0.9953029157	 0.1163
H	-2.9606107249	 1.8441135673	 0.4797919709	 0.084175
H	-0.6230956734	 2.0034022175	-0.6342520331	 0.125735
H	-0.502219941	 1.6974018122	 1.0981128636	 0.139863
59.7591	192.6235	235.0608	259.071	330.9706	376.0983	424.3921	453.8495	535.8847	614.9108	649.0729	700.6058	838.2067	851.8857	868.0841	907.3415	926.959	938.0247	978.7406	1020.6193	1027.7803	1064.2339	1082.4865	1108.0652	1117.2291	1171.2281	1186.2406	1238.8131	1251.1178	1288.724	1306.8678	1309.7902	1347.6609	1353.5709	1368.4235	1398.1376	1438.3038	1491.9993	1495.8488	1507.4626	1817.6605	3029.1891	3041.4293	3042.1237	3065.1008	3072.096	3083.234	3087.5992	3112.8958	3132.9271	3135.5824
CC1C2CC(CC1=O)O2	C[C@H]1[C@@H]2C[C@H](CC1=O)O2	
InChI=1S/C7H10O2/c1-4-6(8)2-5-3-7(4)9-5/h4-5,7H,2-3H2,1H3	InChI=1S/C7H10O2/c1-4-6(8)2-5-3-7(4)9-5/h4-5,7H,2-3H2,1H3/t4-,5+,7+/m1/s1
