19
gdb 4291	3.7863449	1.2459073	1.0613665	1.8597	77.88	-0.23889	0.00328	0.24217	1170.4567	0.158032	-422.554595	-422.546602	-422.545658	-422.587253	30.286	
C	-0.1873784788	 1.5265547769	 0.1100856619	-0.390222
C	 0.0697676685	 0.0258620604	 0.0272794005	 0.105159
O	-1.1919478883	-0.6673380956	-0.07949592	-0.292074
C	-1.1422328184	-1.8294098885	 0.7214401309	 0.044528
C	-2.246613835	-2.0545068993	 1.7645094902	-0.100212
O	-1.596171147	-2.8333682266	 2.7779759517	-0.274792
C	-0.2000596043	-2.482199154	 2.8528081683	-0.165285
C	 0.0262273275	-1.6290661198	 1.6483432743	 0.286456
C	 0.718396716	-0.5656532271	 1.2661622767	-0.288347
H	 0.7579588243	 2.0788334623	 0.119821211	 0.113359
H	-0.7672031843	 1.8537531101	-0.7573933973	 0.129541
H	-0.7489711026	 1.7701893895	 1.0164997712	 0.121249
H	 0.6654395657	-0.1828641073	-0.8785309534	 0.081492
H	-1.0385787936	-2.7306867845	 0.0940410053	 0.082094
H	-2.5920351345	-1.0829023014	 2.148634406	 0.096582
H	-3.1053752485	-2.6330900525	 1.4164253357	 0.110676
H	 0.0149565145	-1.9480308781	 3.7880545603	 0.114494
H	 0.381183431	-3.4130879748	 2.8535120962	 0.118101
H	 1.5684343376	-0.1082902698	 1.7571529107	 0.107201
78.4755	157.8507	178.0174	227.8749	311.1085	323.8137	407.3814	467.5338	593.9886	642.5646	675.8385	749.7879	825.2037	851.0596	862.8031	908.6697	916.7448	1006.2766	1018.1329	1036.0016	1060.3692	1095.2745	1101.0934	1122.2831	1137.6667	1180.1059	1203.5794	1211.7492	1263.254	1300.5298	1319.9513	1325.1307	1363.4446	1373.2961	1397.6185	1402.9885	1484.519	1496.2068	1505.5057	1517.1752	1754.9002	2944.9271	2958.6713	2996.1664	3009.645	3038.5439	3039.9536	3103.3296	3114.3062	3123.0921	3211.6081
CC1OC2COCC2=C1	C[C@@H]1O[C@@H]2COC[C]2[CH]1	
InChI=1S/C7H10O2/c1-5-2-6-3-8-4-7(6)9-5/h2,5,7H,3-4H2,1H3	InChI=1S/C7H10O2/c1-5-2-6-3-8-4-7(6)9-5/h2,5,7H,3-4H2,1H3/t5-,7+/m0/s1
