19
gdb 1982	3.2193602	1.4409541	1.2947627	0.8329	74.02	-0.24634	0.07825	0.32459	1050.4557	0.157684	-422.541284	-422.533531	-422.532587	-422.573459	30.024	
C	-0.0484800171	-0.0222963203	-0.1198912169	-0.486707
C	 1.4552500402	-0.0249135221	-0.1032009559	 0.418601
C	 2.2402291144	 1.2807800762	-0.1979631737	-0.300637
C	 3.5718532702	 0.89882472	-0.8598822238	 0.134406
O	 3.5253190297	 1.0587250447	-2.3013492741	-0.294006
C	 3.7701329728	-0.3451007285	-2.5207658407	-0.08913
C	 3.6509088073	-0.6472324001	-1.015873708	-0.111829
C	 2.2983168322	-1.1441536827	-0.5656304496	-0.032036
O	 2.077534705	-0.9300163761	 0.8328597554	-0.304634
H	-0.4428564194	 0.5628063546	 0.7182895956	 0.128651
H	-0.4242308477	 0.4244941165	-1.0462277543	 0.126288
H	-0.4377712212	-1.0400059631	-0.035602096	 0.129055
H	 1.729980758	 2.0223387886	-0.8204726193	 0.115656
H	 2.3795070081	 1.7077989305	 0.8007691736	 0.1092
H	 4.4421107718	 1.4108272828	-0.4363116026	 0.076061
H	 3.0168066781	-0.7991845635	-3.1771319261	 0.099826
H	 4.7662442691	-0.5249490349	-2.9450515313	 0.100392
H	 4.4788567262	-1.1807290529	-0.5466125786	 0.089731
H	 1.8808048724	-2.0638552796	-0.9732645334	 0.09111
97.2309	148.0454	199.7504	304.9066	327.1628	359.655	403.3198	463.8528	584.9451	669.4169	749.181	805.716	832.8833	862.4063	886.0716	899.1354	925.3432	984.7549	1006.8059	1024.3938	1026.7005	1045.871	1076.0566	1108.2232	1131.51	1168.6156	1200.2489	1212.5865	1249.6019	1260.6154	1286.7664	1313.0149	1340.9552	1357.2398	1364.138	1410.131	1445.4592	1464.7262	1486.2138	1497.5482	1526.4923	3008.0652	3035.0217	3042.9149	3048.9864	3055.4153	3095.961	3099.0039	3102.3212	3121.4501	3123.7773
CC12CC3OCC3C1O2	C[C@]12C[C@@H]3OC[C@@H]3[C@H]1O2	
InChI=1S/C7H10O2/c1-7-2-5-4(3-8-5)6(7)9-7/h4-6H,2-3H2,1H3	InChI=1S/C7H10O2/c1-7-2-5-4(3-8-5)6(7)9-7/h4-6H,2-3H2,1H3/t4-,5-,6+,7-/m0/s1
