19
gdb 639	2.5725925	1.5556776	1.062945	2.026	78.66	-0.23888	0.02236	0.26124	1141.9191	0.158014	-422.495876	-422.487431	-422.486487	-422.528668	31.789	
C	-0.8116261892	 0.8640361295	 0.7577597513	-0.085937
C	 0.2164451913	 0.3001405206	-0.2300117837	-0.064323
O	 1.1595547053	-0.6579910082	 0.2191145452	-0.223995
C	 1.9324450144	-0.3230088652	 1.3643877592	-0.217336
C	 1.1187969812	-0.5029467222	 2.5694764095	 0.053929
C	 0.1351336907	-0.6558365229	 3.2479202975	 0.073952
C	-1.2625924508	-0.7524954574	 3.6408011102	-0.347701
C	-2.1044587657	 0.0644090273	 2.6123294436	-0.066768
O	-1.6786181175	-0.1317580372	 1.2786860588	-0.234336
H	-0.3061497829	 1.4045605251	 1.5643201269	 0.105124
H	-1.3995207661	 1.6053543018	 0.1885357673	 0.087488
H	-0.3120983514	-0.2023333058	-1.0460515955	 0.121659
H	 0.7373923993	 1.1760161514	-0.6562600606	 0.084614
H	 2.7977089982	-0.993532991	 1.3462707857	 0.135493
H	 2.3178881154	 0.7076791898	 1.2989993874	 0.110309
H	-1.5785335466	-1.8023802745	 3.6237850217	 0.137582
H	-1.4621344411	-0.3756352249	 4.6508476596	 0.121411
H	-3.1496116689	-0.2585504487	 2.6747470311	 0.108799
H	-2.0673193156	 1.1289478427	 2.8792038947	 0.100034
106.3294	160.5391	195.6128	237.6023	269.163	330.0881	355.4718	359.875	403.4443	520.8139	563.7357	626.5222	750.2244	806.9664	825.4326	870.5669	912.4204	966.0266	1021.0827	1026.9475	1071.0656	1120.0248	1147.0678	1152.4685	1160.2242	1227.7215	1264.9203	1281.8596	1298.0236	1334.5414	1345.895	1373.7046	1393.0169	1420.1234	1431.124	1469.2748	1477.1027	1482.0288	1493.626	1506.3449	2347.7754	2946.7584	2963.3339	2972.8142	3009.808	3030.9988	3061.7165	3062.4366	3068.9453	3075.09	3089.0481
C1COCC#CCCO1	C1COCC#CCCO1	
InChI=1S/C7H10O2/c1-2-4-8-6-7-9-5-3-1/h2,4-7H2	InChI=1S/C7H10O2/c1-2-4-8-6-7-9-5-3-1/h2,4-7H2
