19
gdb 1193	3.3804818	0.9017354	0.7567523	1.7381	78.05	-0.2569	0.03145	0.28835	1481.1915	0.154444	-422.511972	-422.502104	-422.50116	-422.547015	36.194	
O	 2.3650788895	 7.0464411949	-0.3537727915	-0.427529
C	 1.7810264292	 6.2192488438	 0.6499265657	-0.067823
C	 0.9610274625	 6.9975903612	 1.5850999675	 0.3047
C	 0.3042923239	 7.6563919903	 2.347144672	-0.462563
C	 0.9654006168	 5.1541547937	-0.0751659609	 0.055125
C	 1.7387852977	 4.1304744998	-0.9501917652	-0.257976
C	 0.7808748985	 3.0366706992	-0.4386907187	 0.140737
O	 1.4101701806	 1.8062551417	-0.1691438046	-0.43061
C	 0.4005175963	 3.9671287268	 0.7492340544	-0.288543
H	 2.7692951414	 7.8026633921	 0.0842215817	 0.288042
H	 2.5714562162	 5.710109505	 1.2277111022	 0.090056
H	-0.2786722601	 8.2335870326	 3.0217807431	 0.199558
H	 0.1802354788	 5.6544373846	-0.6484691728	 0.086452
H	 1.8026677146	 4.307481937	-2.024503623	 0.106459
H	 2.7434771405	 3.9511532596	-0.554648157	 0.112156
H	-0.0718365707	 2.9068178835	-1.1207846	 0.066532
H	 0.7402022967	 1.1793109139	 0.1215493347	 0.281252
H	-0.6418335227	 4.0117876915	 1.0719348044	 0.098042
H	 1.0376320501	 3.7417560989	 1.610713488	 0.105934
59.733	79.7036	119.208	201.8976	239.3893	267.2314	276.9559	354.77	360.7938	410.7315	458.8721	485.3752	584.8561	625.0374	651.9066	668.4511	804.4929	811.4474	927.3712	935.3899	960.1357	1023.4013	1027.9612	1066.6597	1087.9255	1108.4918	1139.7883	1188.5539	1220.1359	1247.5047	1265.3146	1272.5271	1285.0866	1327.3472	1340.1707	1353.1756	1410.9433	1434.966	1469.7972	1499.4181	2229.4763	2952.041	2992.6316	3052.8048	3063.2168	3074.4798	3116.3095	3129.5204	3501.4781	3815.4495	3817.1931
OC(C#C)C1CC(O)C1	O[C@@H](C#C)[C@H]1C[C@@H](O)C1	
InChI=1S/C7H10O2/c1-2-7(9)5-3-6(8)4-5/h1,5-9H,3-4H2	InChI=1S/C7H10O2/c1-2-7(9)5-3-6(8)4-5/h1,5-9H,3-4H2/t5-,6+,7-/m0/s1
