19
gdb 2608	2.1618864	1.7760237	1.20058	3.3618	75.52	-0.23463	-0.01896	0.21567	1086.3814	0.155319	-422.553725	-422.544668	-422.543724	-422.587518	33.67	
C	-0.7232666607	-2.0552237833	 1.1830129602	-0.414368
C	-0.9443680663	-1.0595260908	 0.0475539155	-0.185408
C	 0.0386376362	 0.1347344453	 0.0350954047	 0.423
O	 1.2330988159	 0.2007558986	 0.1057505506	-0.316657
C	-1.0843494257	 1.1626348316	 0.026292161	-0.203705
C	-1.6907317938	 1.3846703186	-1.4052852304	-0.234333
C	-2.8326702727	 0.371037899	-1.0980124514	-0.293504
C	-2.1125817395	-0.0121317924	 0.2160301386	 0.400333
O	-2.8440780047	-0.0728010952	 1.4042505273	-0.471352
H	-1.476654137	-2.8502926344	 1.1694864265	 0.1089
H	 0.2608704511	-2.5207722821	 1.0808948634	 0.138688
H	-0.76986763	-1.5596885661	 2.1559404272	 0.136157
H	-0.9693214907	-1.5822101825	-0.9160949743	 0.09073
H	-1.0148420618	 2.034465078	 0.6762804911	 0.096557
H	-2.0250735313	 2.4082057884	-1.5776090482	 0.120739
H	-1.023347445	 1.1016586349	-2.2224683732	 0.116297
H	-3.7787336621	 0.8764946025	-0.8882321126	 0.110834
H	-3.0084720477	-0.427851223	-1.8242741052	 0.09534
H	-3.3568789243	-0.8890375671	 1.4097414793	 0.281753
50.6818	175.7574	186.8864	191.2653	213.9809	237.1406	330.1625	346.4857	427.352	442.9862	592.214	659.6109	702.1539	738.0814	776.2457	808.1597	870.4864	918.0624	943.8531	966.8275	1016.9145	1028.2991	1049.5798	1090.5095	1113.0096	1140.8794	1169.1982	1208.4072	1221.4188	1238.4812	1256.4871	1262.0008	1300.0442	1320.066	1352.7879	1402.3089	1476.8409	1491.787	1495.0152	1501.0575	1880.7661	3035.3506	3039.4207	3052.816	3074.5781	3105.842	3106.3538	3121.6528	3127.6779	3134.4005	3794.8357
CC1C(=O)C2CCC12O	C[C@@H]1C(=O)[C@H]2CC[C@@]12O	
InChI=1S/C7H10O2/c1-4-6(8)5-2-3-7(4,5)9/h4-5,9H,2-3H2,1H3	InChI=1S/C7H10O2/c1-4-6(8)5-2-3-7(4,5)9/h4-5,9H,2-3H2,1H3/t4-,5-,7-/m1/s1
