19
gdb 2361	2.9081274	1.6777441	1.3123496	0.356	74.24	-0.23694	0.05994	0.29688000000000003	1010.7935	0.157313	-422.504629	-422.49689	-422.495945	-422.536653	29.978	
C	 0.2686684523	 1.1509026999	 0.5991891319	-0.482878
C	 1.6695526254	 0.6623800575	 0.3442874189	 0.449256
O	 1.8462936986	 0.2057832031	-1.0221694584	-0.32777
C	 3.0051674391	 1.0463367267	-1.2191768047	-0.098779
C	 2.9896251511	 1.5146657466	 0.2404871691	-0.166236
C	 3.6762084421	 0.5218470358	 1.1928678061	 0.122994
O	 3.5620137729	 0.9281077035	 2.5694762905	-0.294931
C	 2.4136666746	 0.0738954905	 2.7804685303	-0.096596
C	 2.3724834833	-0.3351422918	 1.2995338728	-0.144491
H	 0.1565691977	 1.5457437491	 1.6130140052	 0.123574
H	 0.0036686238	 1.9401132345	-0.1103082148	 0.126605
H	-0.4431215185	 0.3275498958	 0.4699169829	 0.129456
H	 3.8850815153	 0.4747057504	-1.5425249607	 0.099791
H	 2.8070834029	 1.8348324316	-1.9561743514	 0.103894
H	 3.0851283921	 2.575255361	 0.4688963173	 0.086139
H	 4.6753661923	 0.1522649161	 0.9425742143	 0.077169
H	 2.6530555223	-0.7508429338	 3.464026576	 0.104324
H	 1.5529672379	 0.6227839485	 3.1810099461	 0.102187
H	 2.2796573246	-1.3898453949	 1.0453164985	 0.086292
105.8269	197.6061	204.2981	246.1019	309.1349	357.958	383.6127	442.2307	608.6948	666.1029	805.2496	828.0934	843.4388	880.1917	897.2749	939.2044	970.1598	997.9287	1013.6292	1016.5517	1024.1017	1059.205	1084.4838	1118.8849	1149.3726	1158.2145	1169.6024	1179.8714	1190.9287	1237.1705	1254.1308	1272.6739	1311.0948	1314.5631	1356.072	1364.8624	1409.1503	1480.4321	1486.5078	1525.2564	1525.7281	3006.2752	3011.7553	3035.3011	3045.9781	3055.1735	3060.7062	3103.7651	3117.7211	3124.907	3128.2285
CC12OCC1C1OCC21	C[C@@]12OC[C@@H]1[C@H]1OC[C@@H]21	
InChI=1S/C7H10O2/c1-7-4-2-8-6(4)5(7)3-9-7/h4-6H,2-3H2,1H3	InChI=1S/C7H10O2/c1-7-4-2-8-6(4)5(7)3-9-7/h4-6H,2-3H2,1H3/t4-,5-,6+,7+/m1/s1
