19
gdb 789	2.4961092	1.2103638	0.9618668	2.087	76.18	-0.25659	-0.03737	0.21921999999999997	1282.155	0.155037	-422.527969	-422.518855	-422.517911	-422.562553	33.049	
O	 0.6393761638	 0.1314366451	-0.9579981988	-0.257029
C	 0.323230402	-0.1471999268	 0.1704344899	 0.125594
C	-0.3782070584	 0.7879312568	 1.1094500437	 0.322636
C	-0.9871092009	 2.0513351402	 0.5397721484	-0.322802
C	-2.1132890085	 1.785277254	-0.441074499	 0.026095
C	-3.4883480136	 1.4330989682	 0.0679381932	-0.249528
C	-3.2419193336	 2.7751809745	-0.575788497	-0.280434
C	 0.0713565663	 0.7115533627	 2.5197152711	-0.226289
O	-1.1310102126	 0.0820592255	 2.1146991684	-0.258215
H	 0.5308442754	-1.1441026607	 0.6196494447	 0.088537
H	-1.3568292017	 2.6595699914	 1.3727769934	 0.100157
H	-0.1903363588	 2.6214352643	 0.0473679214	 0.121092
H	-1.7950422232	 1.2943389229	-1.3547560582	 0.10648
H	-4.0671361276	 0.6971744348	-0.4789001558	 0.111985
H	-3.6322363368	 1.4006482249	 1.1422401074	 0.119475
H	-3.6488299265	 2.9579385196	-1.5640588603	 0.113077
H	-3.2286718762	 3.6513691126	 0.064932384	 0.107661
H	 0.8813749585	 0.0414560109	 2.8067793084	 0.123381
H	-0.0377036177	 1.6039017791	 3.1345209249	 0.128126
57.9778	81.0041	130.4927	150.7365	231.2246	317.1079	333.0182	371.8639	389.6661	485.8818	543.7415	767.4668	775.8074	821.9145	831.6025	855.2741	882.3716	899.525	956.6853	971.2529	1005.0197	1050.4662	1058.8974	1078.1052	1127.2449	1135.7531	1148.8381	1164.6766	1199.864	1226.9295	1254.2873	1307.6122	1332.3435	1355.6675	1410.4826	1434.9661	1460.1632	1474.5239	1509.3676	1522.6759	1824.7877	2890.8782	3034.1557	3078.1621	3080.7111	3129.5038	3138.8106	3167.3411	3169.9295	3208.7736	3225.954
O=CC1(CC2CC2)CO1	O=C[C@]1(CC2CC2)CO1	
InChI=1S/C7H10O2/c8-4-7(5-9-7)3-6-1-2-6/h4,6H,1-3,5H2	InChI=1S/C7H10O2/c8-4-7(5-9-7)3-6-1-2-6/h4,6H,1-3,5H2/t7-/m1/s1
