19
gdb 3257	3.0033299	1.7281623	1.6901709	1.8742	72.43	-0.24491	0.06819	0.3131	902.2103	0.16092	-422.573851	-422.567196	-422.566252	-422.604441	28.011	
O	 0.495805497	 0.238402354	-0.0639751007	-0.427943
C	-0.6516079324	 0.6081263314	 0.6683529684	 0.131335
C	-1.9875186944	 0.1377840022	 0.0612194995	-0.099343
C	-1.9119399157	-1.3360354912	-0.4041505476	-0.218389
C	-2.0012409098	-2.0677399997	 0.9521215028	 0.059381
C	-0.7810271065	-1.6758950319	 1.8146303564	-0.215842
C	-1.0189228476	-0.1562089967	 1.969785143	-0.130107
C	-2.5269544414	-0.0706833581	 1.5263195847	 0.108899
O	-3.0736164259	-1.3694949223	 1.6056155947	-0.255273
H	 1.2736488259	 0.530102624	 0.422029563	 0.28407
H	-0.6696603178	 1.693468596	 0.8432248288	 0.063917
H	-2.5025633287	 0.8021517901	-0.6322756327	 0.066318
H	-2.7773067788	-1.5900886426	-1.0214932223	 0.100558
H	-0.9981035932	-1.5533638969	-0.959669794	 0.119381
H	-2.2324142753	-3.1320041277	 0.9073694147	 0.072667
H	-0.8269632567	-2.1807022377	 2.7828339968	 0.100223
H	 0.1745825256	-1.9016529667	 1.3358469146	 0.103677
H	-0.7009542972	 0.2575941622	 2.9275833232	 0.059472
H	-3.1880939271	 0.6664505517	 1.9754577465	 0.076999
190.253	251.6131	277.5544	385.0479	458.099	538.4415	568.1468	609.3836	641.9709	764.3229	797.0878	826.1408	845.6569	869.5228	878.4702	915.6123	921.5968	981.6243	993.2251	1027.7659	1030.6819	1066.9886	1078.8561	1095.7267	1099.0338	1152.724	1182.0646	1191.1197	1222.0614	1243.3919	1255.9065	1272.7709	1294.05	1307.9931	1315.6555	1345.8454	1351.8461	1372.475	1428.4298	1470.2542	1487.2634	2993.6632	3065.3237	3069.4119	3096.9545	3108.6941	3118.9796	3122.4984	3130.4155	3151.8807	3817.8007
OC1C2CC3CC1C2O3	O[C@H]1[C@H]2C[C@H]3C[C@@H]1[C@@H]2O3	
InChI=1S/C7H10O2/c8-6-4-1-3-2-5(6)7(4)9-3/h3-8H,1-2H2	InChI=1S/C7H10O2/c8-6-4-1-3-2-5(6)7(4)9-3/h3-8H,1-2H2/t3-,4+,5-,6-,7+
