19
gdb 2480	2.6335782	1.7890249	1.3814598	2.151	73.85	-0.24893	0.07085	0.31978	986.3168	0.158542	-422.539028	-422.531509	-422.530565	-422.570523	30.269	
O	 0.4038727593	 0.2179735384	 0.3877627476	-0.485912
C	-0.9393026557	 0.6238839049	 0.4605445175	 0.378637
C	-1.045751886	 2.0445029833	-0.1154149166	-0.119991
O	-2.3386253469	 2.1699049433	-0.6785400638	-0.249494
C	-2.6388856122	 0.9123215659	-1.274421176	-0.106594
C	-2.099291073	-0.1455675488	-0.3154583108	-0.117132
C	-2.8414145042	-0.2675203863	 1.0165827956	-0.017564
C	-2.0076325603	-1.0402883177	 1.9920974565	-0.328125
C	-1.697094957	 0.4193345366	 1.7669572404	-0.102659
H	 0.5148263599	-0.5465055374	 0.9619871627	 0.281188
H	-0.9253958151	 2.8300046883	 0.6356610389	 0.106577
H	-0.2571784658	 2.1573880916	-0.8761373416	 0.098769
H	-3.7215643816	 0.8685488761	-1.4265328915	 0.105543
H	-2.1458414463	 0.817735928	-2.2558462394	 0.091314
H	-1.8397198667	-1.0855719916	-0.8100312223	 0.070127
H	-3.9050454299	-0.1148448562	 1.1531050834	 0.091095
H	-2.4730470267	-1.2624193324	 2.9468882887	 0.118048
H	-1.340134159	-1.8255616024	 1.6395636226	 0.098176
H	-1.7460560929	 1.1400779761	 2.5754875981	 0.087997
149.349	205.5731	266.9097	297.397	324.7318	376.8093	409.8567	475.4713	592.315	634.7317	717.6781	784.3049	788.4814	877.2567	889.0272	935.6722	943.0745	966.8301	985.6177	1013.6806	1043.115	1063.0984	1066.5937	1088.921	1102.6573	1121.6411	1131.5264	1163.4566	1183.268	1215.6787	1247.6056	1270.6998	1289.1184	1319.1152	1342.5758	1358.0054	1393.2764	1408.02	1495.7054	1499.9418	1515.037	2971.6105	2986.5505	3072.2073	3080.4989	3090.9282	3093.3877	3171.1598	3185.2136	3198.4855	3819.2861
OC12COCC1C1CC21	O[C@@]12COC[C@@H]1[C@H]1C[C@@H]21	
InChI=1S/C7H10O2/c8-7-3-9-2-6(7)4-1-5(4)7/h4-6,8H,1-3H2	InChI=1S/C7H10O2/c8-7-3-9-2-6(7)4-1-5(4)7/h4-6,8H,1-3H2/t4-,5+,6+,7+/m0/s1
