19
gdb 5798	3.8381166	1.0957161	0.9650294	2.4514	77.88	-0.24244	0.00093	0.24336999999999998	1257.371	0.157864	-422.524951	-422.516737	-422.515793	-422.558053	31.098	
O	 0.1486347885	 1.1800727282	 0.3566305566	-0.418738
C	 0.0161469451	-0.1387925632	-0.1364044254	-0.065989
C	-1.4469453066	-0.5414706515	-0.1975347636	 0.033378
O	-2.0567420454	-0.5102511777	 1.1431646739	-0.346436
C	-2.7086693169	-1.8097067492	 0.9028662856	 0.120225
C	-2.4413212354	-3.0473930219	 1.7718642061	-0.251865
C	-1.9876757259	-4.1045206815	 0.705107532	-0.244211
C	-1.3317374874	-3.2391406745	-0.3732733947	-0.207696
C	-1.8100800941	-2.0044327076	-0.2727377066	 0.1703
H	-0.3090274501	 1.1975497854	 1.2057259805	 0.295623
H	 0.4515711739	-0.1519262879	-1.1418181007	 0.110503
H	 0.5602776559	-0.8656934394	 0.4845901479	 0.089145
H	-1.9995343836	 0.1295486292	-0.8682596645	 0.09026
H	-3.7759562716	-1.6394166814	 0.7089476469	 0.08176
H	-1.6075401058	-2.8322031147	 2.447602841	 0.118113
H	-3.2968988688	-3.373225673	 2.3695024224	 0.098239
H	-1.2847798718	-4.8346635499	 1.1190041417	 0.110974
H	-2.8425415367	-4.679127223	 0.3238864186	 0.113275
H	-0.5334743333	-3.5938107464	-1.0142516977	 0.10314
78.1073	116.9222	139.4114	241.9427	309.9911	360.7591	437.3416	467.1221	470.4957	600.4009	686.4626	747.9326	816.1953	839.695	862.3791	876.1257	902.6694	946.8291	961.9782	996.3555	1037.3728	1056.4855	1077.3615	1092.1545	1125.6268	1157.3145	1205.3526	1210.6694	1231.7575	1269.4161	1271.9392	1308.4315	1318.754	1339.5657	1362.4714	1399.39	1428.9677	1479.6968	1494.3657	1495.9438	1738.1269	2995.3564	3012.8049	3019.0993	3023.4535	3055.4662	3074.188	3074.3189	3110.2647	3203.1327	3792.5952
OCC1OC2CCC=C12	OC[C@@H]1O[C@@H]2CC[CH][C]12	
InChI=1S/C7H10O2/c8-4-7-5-2-1-3-6(5)9-7/h2,6-8H,1,3-4H2	InChI=1S/C7H10O2/c8-4-7-5-2-1-3-6(5)9-7/h2,6-8H,1,3-4H2/t6-,7+/m1/s1
