19
gdb 2559	2.6794508	1.6061149	1.5850857	1.4556	75.82	-0.24108	0.00859	0.24967	984.3753	0.158875	-422.560385	-422.552786	-422.551842	-422.592089	29.862	
C	 0.6477049794	 1.4780620253	 1.0108019984	-0.509683
C	-0.4264238446	 0.4980098373	 0.6622734779	 0.357975
C	-0.435274769	-0.8194815531	 0.8852316162	-0.191788
C	-1.7050891317	-1.478124312	 0.4078359008	 0.027576
C	-1.8647457367	-1.1742858805	-1.0916583084	-0.066397
O	-1.8547548464	 0.2437540436	-1.2752847055	-0.276605
C	-1.7086692189	 0.9331443824	-0.0204922084	-0.030283
C	-2.8918631011	 0.5173897175	 0.8703191498	-0.069913
O	-2.8443591063	-0.894946632	 1.0737336657	-0.277311
H	 0.2725185465	 2.2637848109	 1.6790449258	 0.12833
H	 1.4912659774	 0.9883872341	 1.5052114042	 0.126476
H	 1.0226817812	 1.9848014233	 0.1126510491	 0.134898
H	 0.3711099135	-1.3779036931	 1.3483183025	 0.091998
H	-1.751344481	-2.5491399078	 0.6081812627	 0.079724
H	-1.0515857735	-1.625211086	-1.6756795736	 0.096698
H	-2.823357001	-1.5719512715	-1.448459356	 0.102647
H	-1.7381449376	 1.9993506003	-0.2535880548	 0.077236
H	-2.8556038283	 1.03311042	 1.8398578414	 0.095297
H	-3.8345367818	 0.7727496715	 0.3695524521	 0.103124
142.0043	183.3062	198.9422	280.8548	338.5971	397.9262	421.7832	488.717	542.2172	653.9186	697.6441	807.6106	823.8073	847.4	865.2782	879.4314	949.5262	968.1245	997.7294	1025.7948	1062.5307	1069.5622	1078.9066	1092.176	1100.1909	1197.4825	1227.9666	1232.3002	1288.4346	1303.0076	1315.1904	1330.4266	1372.9891	1392.8764	1394.7864	1412.6603	1478.3394	1486.6296	1509.1107	1513.8033	1715.4263	3001.3259	3007.1241	3016.9675	3043.7289	3049.2582	3064.9526	3097.546	3110.0771	3111.4039	3183.5788
CC1=CC2COC1CO2	CC1=C[C@@H]2CO[C@H]1CO2	
InChI=1S/C7H10O2/c1-5-2-6-3-9-7(5)4-8-6/h2,6-7H,3-4H2,1H3	InChI=1S/C7H10O2/c1-5-2-6-3-9-7(5)4-8-6/h2,6-7H,3-4H2,1H3/t6-,7+/m1/s1
