19
gdb 2689	2.4409421	1.1020469	0.9240375	2.2897	77.54	-0.24	0.04693	0.28693	1338.2698	0.153182	-422.508432	-422.498153	-422.497208	-422.543892	37.787	
C	 3.1355685841	-3.5163483162	-1.6572671391	-0.440765
C	 3.3475894379	-2.0275301119	-1.5659269098	 0.406695
O	 3.0075443791	-1.3628297202	-2.7484233304	-0.467914
C	 4.5124533984	-1.4422989257	-0.809169578	-0.024278
O	 5.1228943288	-0.3584502894	-1.4607841677	-0.429974
C	 3.1041637669	-1.290884533	-0.2528732985	-0.124378
C	 2.4115217418	 0.0653816516	-0.2498861354	-0.374516
C	 1.0433773194	-0.0145986412	 0.2504117144	 0.298097
C	-0.0777443709	-0.0943302713	 0.6755792483	-0.445294
H	 3.4036036168	-4.0092333449	-0.7181004907	 0.111994
H	 2.0847284222	-3.7370100262	-1.8702866249	 0.133331
H	 3.7439086864	-3.9421524787	-2.4616487858	 0.12265
H	 3.7214246042	-0.7337835704	-2.9235008829	 0.296108
H	 5.2063241897	-2.1067932629	-0.2959822268	 0.09229
H	 5.2455825017	 0.3601988188	-0.832092157	 0.299888
H	 2.8843451989	-1.9098572954	 0.6117893049	 0.097456
H	 2.9714557551	 0.7851340648	 0.3645112809	 0.113551
H	 2.4001735936	 0.4610355987	-1.2709867082	 0.141458
H	-1.0724287739	-0.1556924164	 1.0413253867	 0.193603
30.8562	104.2456	190.3708	200.5214	211.5354	241.0562	273.3696	292.3897	333.5103	359.567	446.0918	480.3808	544.5443	551.5799	614.6252	620.0446	641.7046	713.328	811.4331	854.6196	944.3081	967.7062	991.7015	1031.0181	1073.3142	1112.1612	1120.3808	1147.3999	1215.6679	1252.97	1264.2453	1301.7116	1322.0702	1370.6039	1387.2953	1417.7995	1461.2754	1466.2416	1481.7728	1502.5269	2241.2321	2999.189	3036.0504	3068.9946	3106.001	3107.5406	3113.6947	3155.6115	3507.999	3740.1254	3810.8432
CC1(O)C(O)C1CC#C	C[C@]1(O)[C@@H](O)[C@H]1CC#C	
InChI=1S/C7H10O2/c1-3-4-5-6(8)7(5,2)9/h1,5-6,8-9H,4H2,2H3	InChI=1S/C7H10O2/c1-3-4-5-6(8)7(5,2)9/h1,5-6,8-9H,4H2,2H3/t5-,6+,7-/m1/s1
