19
gdb 4741	2.4387936	0.9721892	0.8247046	2.6712	82.22	-0.25243	-0.03983	0.21259999999999998	1504.6863	0.152393	-422.545727	-422.5346	-422.533656	-422.583891	37.951	
C	-4.7500379037	-1.2311760478	 0.952267855	-0.404881
C	-3.2215534991	-1.1659558262	 0.9466548282	-0.19556
C	-2.6555059791	-0.2019435983	-0.1263345104	 0.067912
O	-3.1296550354	-0.5688753294	-1.4010772853	-0.447679
C	-3.1001091075	 1.2375930906	 0.1758334496	 0.133253
O	-3.6913259992	 1.9026636795	-0.636075571	-0.268471
C	-1.1849975076	-0.1703493192	-0.0676019368	 0.066365
C	 0.0163454907	-0.1085808981	 0.0023243165	 0.08343
C	 1.4691496878	-0.0543888054	 0.0641633285	-0.501453
H	-5.0982255655	-1.9691600198	 1.6803470224	 0.115558
H	-5.2002588195	-0.2678019738	 1.2166979228	 0.117889
H	-5.1215830071	-1.5154456813	-0.0345708182	 0.142098
H	-2.8339225956	-0.8596349372	 1.925251525	 0.104671
H	-2.7980585598	-2.1531144881	 0.7368146929	 0.123746
H	-3.4823853072	 0.2471648246	-1.7917552569	 0.293223
H	-2.8216015844	 1.6260389674	 1.1748651164	 0.106529
H	 1.8429925498	-0.4651587192	 1.0082133285	 0.152013
H	 1.9164084774	-0.6328797626	-0.7513781083	 0.158064
H	 1.8327417951	 0.9754256342	-0.0203789189	 0.153291
13.5847	68.9482	89.0157	106.0828	134.2488	219.6589	249.4426	296.2772	307.1586	319.5189	355.8804	391.4838	455.2138	494.5887	544.5858	591.2225	775.3046	805.5155	875.6421	924.9923	991.3982	1037.142	1050.0678	1054.2045	1077.172	1118.2897	1177.8724	1208.7464	1303.1706	1351.7032	1380.0001	1408.2448	1413.0131	1425.576	1475.6617	1476.7344	1479.5426	1495.5254	1508.7521	1817.5593	2358.4038	2948.5141	3030.2346	3039.9427	3043.5473	3084.7756	3092.4743	3094.0632	3106.8956	3134.4889	3681.7252
CCC(O)(C=O)C#CC	CC[C@@](O)(C=O)C#CC	
InChI=1S/C7H10O2/c1-3-5-7(9,4-2)6-8/h6,9H,4H2,1-2H3	InChI=1S/C7H10O2/c1-3-5-7(9,4-2)6-8/h6,9H,4H2,1-2H3/t7-/m0/s1
