19
gdb 3921	3.08873	1.5848109	1.3689485	1.8843	76.4	-0.22065	0.05435	0.275	1009.0477	0.15564	-422.423044	-422.415132	-422.414188	-422.454637	32.282	
C	 0.7331798432	-0.6081819099	-0.716370864	-0.412477
C	 0.9813847255	 0.1171561131	 0.5956762199	-0.052566
C	 1.8230251574	 1.4897953311	 0.5553356473	-0.357068
C	 2.3664802106	 1.0109152904	 1.9050164235	 0.322269
C	 1.5284511784	 0.887125958	 3.2018410811	-0.259477
C	 2.4202266907	-0.3434309328	 3.090863427	-0.054052
O	 3.5796252902	 0.6076740906	 2.703878958	-0.40675
C	 2.1164533557	-0.4403249051	 1.5552540555	 0.393042
O	 3.0843756064	-1.095078272	 0.7951356639	-0.47509
H	 0.2034249017	-1.5509878452	-0.5444856447	 0.120887
H	 0.1155782812	 0.0075354732	-1.3795045364	 0.111991
H	 1.6731638422	-0.8360095003	-1.2216106262	 0.141332
H	 0.0379216905	 0.2787554153	 1.1178714436	 0.092626
H	 2.567640716	 1.4378900898	-0.2415829052	 0.13195
H	 1.2864157083	 2.4405138383	 0.5112829829	 0.109228
H	 1.8169992592	 1.5851225426	 3.986821052	 0.11461
H	 0.4483844978	 0.7554459307	 3.128010522	 0.105387
H	 2.6996034237	-1.0905209383	 3.8405069358	 0.089725
H	 3.9275512414	-0.8434350296	 1.2040086139	 0.284435
175.342	208.6751	243.4309	300.8851	304.1378	368.9154	424.0921	478.8929	511.9589	573.1166	597.9434	637.2082	672.6094	725.1254	774.1981	841.4896	877.4949	916.3163	947.0258	960.0771	979.971	1011.6883	1029.4086	1070.7331	1108.796	1140.4072	1162.3592	1176.9211	1190.2463	1200.2986	1223.65	1241.1223	1282.8691	1290.0747	1344.5758	1384.8428	1405.7947	1470.6265	1485.9378	1492.6704	1501.6349	3036.4908	3064.0624	3068.309	3085.63	3097.4194	3103.8867	3135.2851	3141.9574	3161.6541	3702.008
CC1CC23CC(O2)C13O	C[C@@H]1C[C@]23C[C@H](O2)[C@@]13O	
InChI=1S/C7H10O2/c1-4-2-6-3-5(9-6)7(4,6)8/h4-5,8H,2-3H2,1H3	InChI=1S/C7H10O2/c1-4-2-6-3-5(9-6)7(4,6)8/h4-5,8H,2-3H2,1H3/t4-,5+,6-,7+/m1/s1
