19
gdb 4017	3.2565232	1.3306824	1.07849	3.9248	75.07	-0.23	-0.02883	0.20117000000000002	1153.5686	0.157402	-422.572904	-422.564697	-422.563753	-422.605885	30.937	
C	-3.1401331158	-2.5930537534	-1.644312186	-0.408338
C	-2.271001993	-1.3802185706	-1.3820281141	 0.161317
O	-0.8700061797	-1.7415522382	-1.2192189479	-0.314977
C	-0.8460066854	-1.229844596	 0.1357986194	 0.025047
C	-2.3134698108	-0.755340685	 0.0332531726	-0.096225
C	-2.2928036233	 0.7867320195	 0.0965220055	-0.245396
C	-0.8627936203	 1.1989313996	-0.3071155064	-0.327819
C	 0.0122116168	 0.0440763863	 0.1866285276	 0.40675
O	 1.1502500924	 0.1099617149	 0.569599554	-0.30761
H	-3.0523549247	-3.3202013153	-0.8310638764	 0.123254
H	-4.1911257007	-2.2967549031	-1.7362024242	 0.11732
H	-2.8392703188	-3.0822978108	-2.5757783743	 0.131693
H	-2.3859241785	-0.6479150178	-2.193721173	 0.07596
H	-0.5361538419	-1.9820236636	 0.865867467	 0.090377
H	-3.0423329503	-1.205290652	 0.7083069963	 0.081462
H	-3.0630791475	 1.2329186508	-0.5396405177	 0.108214
H	-2.4941694044	 1.1121593486	 1.1230577564	 0.112312
H	-0.7599518436	 1.2545848311	-1.3982875305	 0.139824
H	-0.5273193505	 2.1522785547	 0.1038046919	 0.126836
72.3246	122.8445	193.1375	233.5672	273.1634	309.4657	417.6549	450.5283	524.9985	606.4012	678.4703	767.5297	792.0179	819.5268	874.4027	876.8219	909.7838	952.0428	996.8518	1012.7772	1041.3421	1079.1326	1090.4284	1118.401	1171.0145	1175.9424	1182.8413	1242.0356	1259.7618	1280.1287	1290.4971	1307.6284	1325.5494	1351.0405	1395.0815	1407.4954	1457.1527	1482.9369	1492.9007	1493.972	1851.9439	3000.4171	3032.8813	3040.3267	3043.9931	3079.213	3087.1539	3104.5735	3105.2584	3114.6275	3125.2174
CC1OC2C1CCC2=O	C[C@@H]1O[C@@H]2[C@H]1CCC2=O	
InChI=1S/C7H10O2/c1-4-5-2-3-6(8)7(5)9-4/h4-5,7H,2-3H2,1H3	InChI=1S/C7H10O2/c1-4-5-2-3-6(8)7(5)9-4/h4-5,7H,2-3H2,1H3/t4-,5-,7+/m0/s1
