19
gdb 5358	3.3618767	1.1110035	0.9609668	1.3433	77.2	-0.24525	-0.00484	0.24040999999999998	1258.9811	0.158019	-422.548827	-422.540452	-422.539508	-422.582148	31.592	
O	 1.9220349153	 0.4994089382	-0.1140442423	-0.409401
C	 0.5305129703	 0.7714779911	 0.0323921271	-0.158858
C	-0.2523259465	 0.4456783229	-1.2134210485	 0.288475
C	-1.2540072912	-0.4395625544	-1.2022386329	-0.186109
C	-2.0395701216	-0.746370589	-2.4235970302	 0.015206
O	-1.4755181274	-1.6998402652	-3.3498648323	-0.258912
C	-1.5075416686	-0.3169400391	-3.7241770684	 0.037019
C	-0.1616361732	 0.3957821005	-3.7677984363	-0.238144
C	 0.1493458581	 1.1766703257	-2.4765799652	-0.308738
H	 2.0091267417	-0.4409148908	-0.3048516942	 0.284677
H	 0.1045482954	 0.2392456479	 0.8955212498	 0.093643
H	 0.4744778178	 1.8461183384	 0.2468117456	 0.114192
H	-1.5289506861	-0.9481142637	-0.280773364	 0.086524
H	-3.1164118682	-0.8544045493	-2.2946236597	 0.090373
H	-2.2096316105	-0.0980086616	-4.5281123806	 0.090938
H	 0.606006636	-0.3689131597	-3.926171928	 0.121031
H	-0.1220851106	 1.0715973724	-4.6279364363	 0.099957
H	 1.2185700746	 1.403535081	-2.4273182526	 0.125416
H	-0.3646158154	 2.1492701746	-2.490476401	 0.112711
73.2509	103.2708	150.6363	243.4824	316.7864	389.1877	395.2085	415.1207	491.1396	530.7272	582.0872	729.2642	762.8511	805.3489	829.8947	874.136	916.7674	947.767	963.9218	1009.2742	1040.013	1054.8248	1071.1567	1082.2578	1147.7533	1174.7923	1195.3151	1220.4854	1264.219	1285.1857	1331.2429	1346.8552	1364.8359	1384.7335	1403.074	1415.8426	1458.0582	1476.7537	1483.7179	1495.1483	1724.1142	2994.5233	3001.6502	3045.2304	3051.267	3080.2758	3089.2523	3104.8795	3116.8573	3150.6478	3804.9677
OCC1=CC2OC2CC1	OCC1=C[C@@H]2O[C@@H]2CC1	
InChI=1S/C7H10O2/c8-4-5-1-2-6-7(3-5)9-6/h3,6-8H,1-2,4H2	InChI=1S/C7H10O2/c8-4-5-1-2-6-7(3-5)9-6/h3,6-8H,1-2,4H2/t6-,7+/m1/s1
