19
gdb 4354	1.923847	1.67995	1.0086748	2.809	76.24	-0.24651	-0.03502	0.21149	1200.1556	0.155608	-422.606725	-422.597652	-422.596708	-422.641016	32.926	
C	-3.4353206296	-1.5654283809	 0.6473163403	-0.41732
C	-2.1062203066	-0.8423678469	 0.8514294463	 0.028579
C	-2.1875000934	 0.6972239889	 0.7246358347	-0.236254
C	-0.7371429711	 1.1485086664	 0.5053872562	-0.323696
C	-0.0942915453	 0.0097018266	-0.2837127425	 0.383774
O	 0.9331412628	 0.0466884887	-0.9076672413	-0.312064
C	-1.0079183141	-1.2332629572	-0.1484280798	-0.201507
C	-0.2005011788	-2.4698996892	 0.1898905247	 0.14402
O	-0.4383119416	-3.1946622264	 1.1220735132	-0.242878
H	-4.1820811857	-1.2236519675	 1.3715146228	 0.116901
H	-3.8359250011	-1.3796216622	-0.3565669871	 0.110157
H	-3.3135936652	-2.6447687846	 0.7734932396	 0.136587
H	-1.7299865218	-1.0901432538	 1.8521167361	 0.097108
H	-2.7973762473	 0.9632497304	-0.1481052531	 0.104478
H	-2.6543864538	 1.1592563705	 1.5981666892	 0.108654
H	-0.6088622641	 2.1022332243	-0.0111784767	 0.13235
H	-0.1988677968	 1.2226868317	 1.4604301974	 0.138222
H	-1.4183418334	-1.3977846358	-1.1582018204	 0.124317
H	 0.6558897869	-2.653970083	-0.4912567896	 0.108573
52.6735	103.8634	160.7984	181.6384	235.1445	254.2915	274.301	405.9468	467.3942	500.998	542.3004	618.7172	653.7294	740.5493	811.0667	882.0255	897.5764	945.5973	970.5985	993.8997	1011.9181	1068.0384	1105.962	1150.4554	1155.8971	1181.9554	1204.7079	1235.6188	1269.3846	1299.397	1319.8215	1346.5487	1387.392	1407.4678	1415.7644	1450.1053	1494.0524	1500.4992	1504.0848	1814.1964	1846.0384	2924.7781	2990.9761	3025.0058	3026.1571	3029.3718	3039.7401	3091.8903	3098.3376	3112.2297	3115.2164
CC1CCC(=O)C1C=O	C[C@@H]1CCC(=O)[C@H]1C=O	
InChI=1S/C7H10O2/c1-5-2-3-7(9)6(5)4-8/h4-6H,2-3H2,1H3	InChI=1S/C7H10O2/c1-5-2-3-7(9)6(5)4-8/h4-6H,2-3H2,1H3/t5-,6+/m1/s1
