19
gdb 1953	2.710637	1.5648318	1.3534949	1.9515	74.73	-0.23675	0.0712	0.30795	1041.3229	0.155393	-422.506308	-422.497951	-422.497007	-422.538555	32.894	
C	-0.0515803181	 0.1604356155	-0.0288060671	-0.505191
C	 1.4263680516	 0.0095865251	-0.181757949	 0.413963
O	 2.2517225989	 0.2342742682	 0.9775869451	-0.281631
C	 2.5397599124	 0.9780168543	-0.2109631415	-0.083389
C	 3.3728464532	 0.0759365327	-1.1527448391	 0.397866
O	 3.7577052916	 0.7870233465	-2.2881040761	-0.485556
C	 4.3306106274	-0.9562666875	-0.4912537783	-0.289336
C	 3.1573137285	-1.9841644729	-0.4010984831	-0.227261
C	 2.2019259012	-0.9754521057	-1.1036730759	-0.187627
H	-0.2843314194	 1.0424718135	 0.5740174265	 0.134362
H	-0.5330360425	 0.2642520165	-1.0064450812	 0.126207
H	-0.4827395982	-0.7167354122	 0.4674443088	 0.129646
H	 2.5729987906	 2.0606336158	-0.1379544588	 0.100576
H	 4.1259413612	 0.1674392477	-2.92656932	 0.28102
H	 5.1241292719	-1.2657447971	-1.1798936207	 0.087173
H	 4.7849599089	-0.6522425894	 0.4536936148	 0.112447
H	 3.3243118877	-2.8972242196	-0.9769247682	 0.09302
H	 2.8664357208	-2.2519914906	 0.6150196236	 0.114247
H	 1.6770420924	-1.279191131	-2.0102162399	 0.069464
133.8539	195.0431	216.3553	250.7877	288.9665	318.2399	343.5323	379.2966	482.5239	543.9088	584.5412	644.6303	726.9471	748.0556	795.0971	846.1733	878.9782	921.6168	943.8788	960.5508	997.3658	1006.4732	1058.4294	1075.9792	1086.6426	1092.5527	1128.3818	1195.0161	1204.2151	1221.6368	1234.057	1257.2196	1279.0529	1305.4003	1393.5298	1403.326	1458.5924	1459.043	1479.3048	1482.468	1494.0186	3032.2626	3046.6058	3071.855	3095.3431	3108.9485	3113.7758	3119.9537	3136.02	3168.6656	3811.1202
CC12OC1C1(O)CCC21	C[C@]12O[C@H]1[C@@]1(O)CC[C@@H]21	
InChI=1S/C7H10O2/c1-6-4-2-3-7(4,8)5(6)9-6/h4-5,8H,2-3H2,1H3	InChI=1S/C7H10O2/c1-6-4-2-3-7(4,8)5(6)9-6/h4-5,8H,2-3H2,1H3/t4-,5+,6+,7+/m0/s1
