19
gdb 1519	3.2669443	1.2657601	1.1440953	2.4666	75.86	-0.24401	0.07047	0.31448	1137.1494	0.154753	-422.500268	-422.49156	-422.490616	-422.533107	33.615	
C	 0.0002871041	-0.0703803414	-0.0306017963	-0.445894
C	 1.5103703738	-0.008520155	-0.0284176154	 0.318108
O	 2.1071824893	-0.5339999902	 1.1332514598	-0.464477
C	 2.2870002829	-0.1426937972	-1.3225430421	-0.416858
C	 2.2376263768	 1.1736587995	-0.5869676008	 0.326676
C	 1.6431374161	 2.5430668699	-1.0076532787	-0.352914
C	 2.8436815136	 3.1964253304	-0.2954894272	 0.036731
O	 4.0361645329	 2.695090846	-0.9054823612	-0.250886
C	 3.3905610815	 1.8858488306	 0.0926801461	-0.05218
H	-0.4072931067	 0.4437181706	 0.8461183762	 0.12598
H	-0.4175990772	 0.3909050799	-0.9297290819	 0.121755
H	-0.3437397917	-1.1114976507	-0.0007317156	 0.11018
H	 2.0019024843	-1.4917665571	 1.1118868577	 0.28189
H	 3.2214020371	-0.6936720992	-1.2910750046	 0.116175
H	 1.732512527	-0.2326429912	-2.2518760899	 0.110656
H	 1.5747005978	 2.7469032583	-2.0793618869	 0.110572
H	 0.6854478577	 2.7584904249	-0.5252849833	 0.108918
H	 2.899108967	 4.1608591557	 0.1954663006	 0.103557
H	 3.9742631937	 1.5709707862	 0.9476586135	 0.112012
121.5329	152.3242	170.0251	226.0153	283.5587	290.2456	380.6418	399.9236	429.3951	444.0808	568.999	587.8923	716.7626	790.6527	840.763	858.2648	876.7688	903.4613	918.0834	934.2792	970.7618	986.2433	1031.6324	1040.5697	1072.6096	1081.1734	1135.9392	1164.1536	1173.6509	1223.6755	1235.1453	1252.8	1276.1851	1319.9732	1376.8156	1407.3023	1423.6439	1469.1632	1481.8159	1485.8882	1510.6027	3025.4257	3056.4745	3087.9582	3112.9599	3115.3121	3121.3581	3186.2319	3211.1529	3213.0792	3791.5943
CC1(O)CC11CC2OC12	C[C@@]1(O)C[C@]21C[C@@H]1O[C@H]21	
InChI=1S/C7H10O2/c1-6(8)3-7(6)2-4-5(7)9-4/h4-5,8H,2-3H2,1H3	InChI=1S/C7H10O2/c1-6(8)3-7(6)2-4-5(7)9-4/h4-5,8H,2-3H2,1H3/t4-,5-,6+,7+/m0/s1
