19
gdb 1022	2.2247836	0.9761772	0.7305297	2.7522	82.17	-0.23638	0.05663	0.29301	1545.9019	0.15405	-422.522377	-422.511798	-422.510854	-422.560077	36.699	
C	 1.580397235	 0.2138646005	-0.1891354298	-0.498544
C	 0.1332154052	 0.0989042576	-0.0802903295	 0.089087
C	-1.0657397716	 0.0127562158	 0.0018304476	 0.035568
C	-2.5013469347	-0.1185473858	 0.1250182852	-0.172558
C	-3.1790419887	-1.5006464024	-0.0922958739	 0.121997
O	-3.6754119741	-1.6718142478	-1.3961995872	-0.427904
C	-4.1721499393	-1.1606662825	 1.0536913561	-0.323066
C	-3.1708764151	-0.0705393401	 1.5272019466	 0.121998
O	-3.6589887962	 1.2046297602	 1.8611717453	-0.427904
H	 2.0368921896	 0.4420304146	 0.7806745935	 0.144818
H	 2.0285991752	-0.7174618356	-0.5534500788	 0.144868
H	 1.8660340842	 1.0114438512	-0.8840980487	 0.147656
H	-3.0280782073	 0.603388581	-0.5098335641	 0.119661
H	-2.4968829174	-2.3127970191	 0.1904169716	 0.074967
H	-4.0313964543	-2.5626921251	-1.4724153289	 0.284087
H	-5.0680048904	-0.6884101139	 0.6411804806	 0.114826
H	-4.452037334	-1.9514594389	 1.7534170926	 0.09139
H	-2.4862779314	-0.4549850926	 2.2942629303	 0.074966
H	-4.0100609548	 1.1718072631	 2.7566426015	 0.284087
11.85	76.6487	84.0129	119.1897	224.4584	236.2298	256.8722	267.784	293.8368	399.4026	432.0192	432.981	486.5873	528.4829	557.8077	768.4828	843.9272	926.0412	947.6982	999.6493	1047.7739	1052.3544	1053.9635	1080.0785	1098.7339	1166.2679	1184.1918	1196.8593	1208.249	1226.6589	1240.3204	1303.5424	1328.1306	1357.1837	1414.7234	1415.6861	1443.8153	1478.4188	1479.3603	1485.4111	2369.1218	3014.036	3018.5099	3023.6997	3052.9954	3061.0375	3082.7332	3084.0318	3124.7595	3817.592	3817.8429	11.8571	76.6482	84.0119	119.1894	224.4592	236.2305	256.8729	267.7843	293.8384	399.4045	432.021	432.981	486.5881	528.4837	557.808	768.483	843.9272	926.0414	947.6982	999.6493	1047.7739	1052.3548	1053.9637	1080.0787	1098.7341	1166.268	1184.1922	1196.8597	1208.2493	1226.6592	1240.3206	1303.5428	1328.1308	1357.1838	1414.7232	1415.6866	1443.8158	1478.4186	1479.3601	1485.4116	2369.1225	3014.036	3018.5099	3023.6996	3052.9953	3061.0374	3082.7332	3084.0318	3124.7594	3817.5922	3817.8431
CC#CC1C(O)CC1O	CC#C[C@H]1[C@H](O)C[C@@H]1O	
InChI=1S/C7H10O2/c1-2-3-5-6(8)4-7(5)9/h5-9H,4H2,1H3	InChI=1S/C7H10O2/c1-2-3-5-6(8)4-7(5)9/h5-9H,4H2,1H3/t5-,6+,7-
