19
gdb 2666	2.6281337	1.5455753	1.1923138	1.3207	77.05	-0.22959	0.07747	0.30706	1080.2346	0.156823	-422.447426	-422.439422	-422.438478	-422.479433	31.943	
O	-2.7921982328	 0.1694356531	 1.6363239668	-0.437014
C	-2.0819642978	-0.1932676905	 0.4779175598	 0.01643
C	-0.8014356703	 0.7182843591	 0.2488831932	 0.011332
O	 0.4694546911	 0.2486232105	 0.6057173626	-0.43853
C	-1.1603141019	 0.669871708	-1.2381443651	 0.282734
C	-1.6470748252	 1.3331207006	-2.5644319854	-0.309279
C	-2.4531219128	-0.0288563187	-2.4013467319	-0.086984
C	-1.1090633371	-0.6850693758	-2.0216930166	-0.238873
C	-2.6307427835	 0.3700693198	-0.8906672449	-0.059075
H	-3.5672881843	-0.3974554141	 1.7069563958	 0.28441
H	-1.8104629127	-1.2538120112	 0.4836023975	 0.080746
H	-1.0230422441	 1.7059741753	 0.6798610879	 0.084835
H	 0.5676202714	 0.3388429088	 1.5592484693	 0.289231
H	-2.2245894267	 2.2550974497	-2.4603718537	 0.097329
H	-0.9493851849	 1.3822664209	-3.4065838694	 0.094047
H	-3.2022457193	-0.4099759075	-3.1016992204	 0.067713
H	-1.1482607666	-1.6145153969	-1.4546860911	 0.097624
H	-0.3520834568	-0.7438080263	-2.807991933	 0.090329
H	-3.2522657057	 1.2499339351	-0.6971972414	 0.072993
137.5405	226.5212	235.7507	263.7844	284.1327	308.1153	401.9277	461.9637	513.7675	549.7645	601.6681	689.4976	756.2745	839.4765	848.7718	885.5996	922.9565	955.5829	967.0285	997.8219	1025.9628	1045.3903	1084.0519	1093.5756	1112.7726	1116.4203	1139.4738	1155.0331	1175.1443	1189.3706	1207.7891	1216.0184	1228.4171	1252.7854	1269.4569	1303.4907	1339.5367	1410.1871	1445.6608	1498.3526	1540.2624	3000.7793	3040.8509	3044.269	3055.5136	3062.6569	3073.2818	3116.7272	3140.0952	3810.8291	3815.1453
OC1C(O)C23CC(C2)C13	O[C@@H]1[C@@H](O)[C@@]23C[C@@H](C2)[C@@H]13	
InChI=1S/C7H10O2/c8-5-4-3-1-7(4,2-3)6(5)9/h3-6,8-9H,1-2H2	InChI=1S/C7H10O2/c8-5-4-3-1-7(4,2-3)6(5)9/h3-6,8-9H,1-2H2/t3-,4-,5-,6+,7-/m0/s1
