19
gdb 3997	4.0451424	1.2103216	1.1344583	0.889	74.75	-0.23598	0.07141	0.30739	1140.659	0.156264	-422.500159	-422.491993	-422.491048	-422.532332	32.136	
C	-0.0512122721	 0.3033220995	-0.1511470933	-0.407081
C	 1.4336273755	 0.0178636857	-0.0367296153	 0.12883
O	 2.1646225509	 1.1773434053	 0.4734950005	-0.319563
C	 2.530436655	 0.4686176409	 1.6802570904	 0.033297
C	 1.8748029156	-0.8302710922	 1.1821310726	-0.072534
C	 3.2618198641	-1.5109453952	 1.1794805042	-0.141737
C	 4.2783003482	-0.7465294047	 0.3508292532	-0.358572
C	 3.915258925	-0.2298441664	 1.7060756269	 0.378238
O	 4.8197182733	-0.0939054069	 2.7427891785	-0.462506
H	-0.4732418321	 0.5811901253	 0.819928217	 0.119553
H	-0.2281913498	 1.1278470657	-0.848541964	 0.126152
H	-0.5819209111	-0.5810835086	-0.521569979	 0.113874
H	 1.8376075642	-0.301314334	-1.0056968209	 0.076328
H	 2.257599685	 0.990535082	 2.6008474398	 0.08203
H	 1.0975485997	-1.3441807623	 1.74639533	 0.077417
H	 3.4425753288	-2.5408730081	 1.4607819398	 0.096289
H	 5.2496127861	-1.2305539987	 0.3182352912	 0.11255
H	 4.0069425346	-0.205036319	-0.5487185078	 0.129432
H	 5.4853430491	 0.5525973018	 2.4820462962	 0.288003
128.3514	196.7593	231.983	248.4303	269.4196	320.2571	365.9696	410.8984	513.289	532.2469	633.3691	719.6922	803.6179	812.1655	861.6729	867.2389	898.7649	912.1557	969.1607	972.9484	977.5234	1034.329	1038.2396	1075.5519	1078.0675	1093.0827	1143.8852	1176.3116	1197.2207	1217.3879	1239.552	1267.7235	1286.9369	1316.314	1327.3414	1381.7377	1404.2227	1413.0658	1483.9344	1494.6054	1495.7328	3023.0961	3031.4398	3082.1599	3103.3359	3111.4466	3119.2542	3130.282	3190.9579	3216.7382	3788.4425
CC1OC2C1C1CC21O	C[C@H]1O[C@H]2[C@@H]1[C@H]1C[C@@]21O	
InChI=1S/C7H10O2/c1-3-5-4-2-7(4,8)6(5)9-3/h3-6,8H,2H2,1H3	InChI=1S/C7H10O2/c1-3-5-4-2-7(4,8)6(5)9-3/h3-6,8H,2H2,1H3/t3-,4-,5+,6+,7+/m1/s1
