19
gdb 3478	2.1741034	1.8178991	1.4179303	0.8391	75.13	-0.24857	-0.00388	0.24469000000000002	1012.3454	0.157138	-422.552526	-422.54417	-422.543226	-422.585319	32.038	
C	 0.1018307711	 1.2348755282	-3.2502273711	-0.495291
C	 0.3370664379	 0.0531881838	-2.3247283282	 0.263596
C	 1.4660299041	-0.9135453553	-2.7683219207	-0.11776
O	 0.5346951904	-1.9828850095	-3.0358931168	-0.296711
C	-0.5601527989	-1.201806727	-2.488982952	 0.053502
C	-0.9284885436	-1.598705472	-1.0852637147	-0.089735
C	-0.4662674536	-0.7255161696	-0.1899369307	-0.126985
C	 0.3005352031	 0.4208896777	-0.8135397895	 0.022492
O	 1.5675801319	 0.657570452	-0.2120874996	-0.430458
H	-0.8538732802	 1.7236771357	-3.0293580816	 0.118414
H	 0.8941076375	 1.9822074936	-3.128536204	 0.129374
H	 0.0869372165	 0.9251241466	-4.3002380182	 0.121322
H	 2.009502255	-0.6133531484	-3.671576641	 0.105336
H	 2.1996075898	-1.1863643287	-1.9982394851	 0.079926
H	-1.4052151485	-1.1649317521	-3.1862366515	 0.077837
H	-1.4874623397	-2.5006894317	-0.8613829314	 0.10742
H	-0.5915252348	-0.7919300052	 0.8862241198	 0.1065
H	-0.2317876224	 1.3713801462	-0.6789071459	 0.091258
H	 2.0102416143	-0.1923872442	-0.1135875176	 0.279963
61.4675	192.0123	241.1743	260.0069	273.4463	306.9319	313.4287	383.5462	501.2263	555.5749	594.7594	668.5618	771.5629	800.9645	861.1977	894.0045	933.5924	954.7614	980.0584	988.4306	1009.1628	1022.5891	1027.7207	1067.4367	1122.3037	1147.9885	1176.2555	1192.5604	1242.8899	1251.6068	1275.3125	1298.5682	1335.5013	1365.5433	1377.7221	1410.0677	1427.6414	1494.8518	1496.215	1518.4398	1675.0922	3005.684	3021.5533	3025.5643	3040.3995	3055.6848	3091.4458	3099.2387	3178.9377	3205.0072	3801.8669
CC12COC1C=CC2O	C[C@]12CO[C@H]1C=C[C@H]2O	
InChI=1S/C7H10O2/c1-7-4-9-6(7)3-2-5(7)8/h2-3,5-6,8H,4H2,1H3	InChI=1S/C7H10O2/c1-7-4-9-6(7)3-2-5(7)8/h2-3,5-6,8H,4H2,1H3/t5-,6+,7-/m1/s1
