19
gdb 5714	2.3503861	1.0183046	0.8533067	1.8746	78.83	-0.24737	-0.0902	0.15717	1438.1361	0.154482	-422.568454	-422.558624	-422.55768	-422.604321	34.338	
C	-3.552923819	 1.5253171074	 2.3084975894	-0.375717
C	-3.1232056905	 2.7360821428	 1.4733859683	-0.204658
C	-1.6402814556	 2.7554479878	 1.1747205782	 0.028597
C	-1.0868076901	 3.432739098	-0.0246600238	-0.301116
C	-1.0994030662	 1.9064491853	 0.0153489059	-0.137572
C	 0.1831657618	 1.2160226445	 0.2225880526	 0.280349
O	 1.1276185187	 1.6598219819	 0.8463613563	-0.316014
C	 0.331865517	-0.1845166301	-0.3889349668	 0.091855
O	-0.5282015509	-0.7395194883	-1.0207803877	-0.222398
H	-3.0262357311	 1.5015886421	 3.2685887589	 0.119352
H	-4.6264356907	 1.5509107527	 2.5178855988	 0.116687
H	-3.3332807812	 0.5888242194	 1.7857275779	 0.123757
H	-3.6823127785	 2.7562933321	 0.5294972881	 0.099455
H	-3.3852523837	 3.6617343398	 2.0023742781	 0.106976
H	-0.9866243251	 2.7487119839	 2.0439955456	 0.109615
H	-1.7727794818	 3.8983372614	-0.7243098094	 0.122001
H	-0.1088578698	 3.8945129207	 0.0538877992	 0.137629
H	-1.8179437762	 1.3810252438	-0.6015020522	 0.11504
H	 1.3267690628	-0.6326172251	-0.1824081274	 0.106162
37.1983	98.0724	110.5447	135.4743	164.29	217.9786	258.8948	285.543	372.292	439.9808	513.9464	602.578	641.2359	746.1044	792.4252	810.758	855.9432	928.0027	946.4889	994.3466	1033.9289	1037.8364	1079.4585	1104.3698	1120.8248	1143.8596	1172.064	1205.4141	1224.2676	1294.3287	1336.6029	1362.3189	1378.732	1412.2081	1440.1253	1480.3162	1483.9346	1498.7272	1506.9891	1774.0444	1823.3611	2924.7351	3019.379	3035.2354	3051.8476	3103.5424	3109.7795	3134.1976	3143.2136	3197.6816	3229.0447
CCC1CC1C(=O)C=O	CC[C@@H]1C[C@H]1C(=O)C=O	
InChI=1S/C7H10O2/c1-2-5-3-6(5)7(9)4-8/h4-6H,2-3H2,1H3	InChI=1S/C7H10O2/c1-2-5-3-6(5)7(9)4-8/h4-6H,2-3H2,1H3/t5-,6-/m1/s1
