19
gdb 2991	5.0753285	0.8898878	0.8128669	3.4147	76.42	-0.23438	0.06928	0.30366	1437.252	0.155743	-422.484688	-422.476158	-422.475214	-422.518168	31.635	
C	 4.236956598	 1.3535800241	 2.4470329165	-0.424462
C	 4.3039374189	 0.822657098	 1.0317595701	-0.040295
C	 3.2207381681	 1.2228717353	 0.0799147012	 0.093274
O	 3.5134415837	 0.7929543797	-1.2512492669	-0.302007
C	 3.4684351032	-0.6045321223	-0.8258923115	 0.080716
C	 2.3189704045	-1.3291153895	-1.4638555165	 0.080619
C	 2.3195723467	-2.7944175833	-1.5749807619	-0.18636
O	 2.57944997	-1.972805722	-2.7111898398	-0.230023
C	 3.2427849792	-0.187234581	 0.6273482156	-0.150176
H	 4.7100868189	 0.6637591213	 3.1539127384	 0.123884
H	 4.7440093649	 2.3205249207	 2.5283069932	 0.125825
H	 3.1989913544	 1.4938573839	 2.7685373487	 0.116693
H	 5.3036726454	 0.7059302015	 0.6164669073	 0.091788
H	 2.5431277254	 2.0595320843	 0.2106995485	 0.102416
H	 4.406000057	-1.1251066251	-1.05841795	 0.088419
H	 1.3631025924	-0.8071004024	-1.4139063252	 0.100324
H	 3.1720094053	-3.3638012369	-1.2054418316	 0.11458
H	 1.3727176531	-3.3319770116	-1.5858248449	 0.117949
H	 2.5985958409	-0.6868332446	 1.3395270587	 0.096834
74.9201	113.8762	158.008	218.4142	259.7569	286.0232	329.1778	395.0477	488.1413	512.4793	780.1097	825.9063	852.1276	862.2528	880.006	894.9667	937.4007	953.9271	1002.0051	1024.2647	1031.3676	1059.7596	1067.9248	1091.8031	1110.6579	1143.0715	1152.272	1160.9805	1182.4415	1210.2255	1219.3775	1273.1118	1283.9413	1298.0952	1317.5721	1417.8695	1420.0988	1451.2993	1493.5234	1504.6328	1530.7148	3029.8623	3034.1748	3082.5036	3092.6976	3098.0512	3114.133	3120.9631	3168.8376	3171.0322	3194.2512
CC1C2OC(C3CO3)C12	C[C@@H]1[C@H]2O[C@H]([C@@H]3CO3)[C@@H]12	
InChI=1S/C7H10O2/c1-3-5-6(3)9-7(5)4-2-8-4/h3-7H,2H2,1H3	InChI=1S/C7H10O2/c1-3-5-6(3)9-7(5)4-2-8-4/h3-7H,2H2,1H3/t3-,4-,5-,6+,7+/m0/s1
