19
gdb 1576	3.2896242	1.1853403	1.0669963	4.1979	78.65	-0.23747	-0.05238	0.18508999999999998	1189.5551	0.156447	-422.60193	-422.593131	-422.592187	-422.634997	33.799	
C	-4.0142037747	 0.3862858287	-1.4336749414	-0.449813
C	-2.9345582542	 0.0973889848	-0.3839252317	 0.316979
O	-3.5467702225	-0.1351142364	 0.8954837517	-0.466849
C	-2.070082705	-1.1089598671	-0.7951933524	-0.245635
C	-0.8482862834	-1.2620188354	 0.1158639292	-0.327008
C	 0.0014361497	-0.0004416235	 0.1306769337	 0.382731
O	 1.2088921786	-0.0207094381	 0.255738517	-0.330177
C	-0.7476670933	 1.2757515483	 0.028684441	-0.170361
C	-2.0670667347	 1.3233488994	-0.1763213303	-0.02402
H	-4.6592722645	 1.2033052747	-1.0975867421	 0.127293
H	-3.5726518397	 0.6623751521	-2.3960092148	 0.128232
H	-4.6373717937	-0.5015771171	-1.5960438415	 0.111099
H	-4.2488051821	-0.7836300006	 0.7678373027	 0.27889
H	-2.6874112786	-2.014963371	-0.7678687516	 0.090457
H	-1.7458730486	-0.9786377679	-1.8347608249	 0.106802
H	-1.1920444205	-1.4299013484	 1.1446782071	 0.138697
H	-0.2165661584	-2.1070426022	-0.1669290119	 0.116843
H	-0.1559121059	 2.1775655455	 0.1549039858	 0.109497
H	-2.5857319388	 2.2794680842	-0.1894046157	 0.106342
72.6173	186.0581	213.4099	252.7975	288.8733	310.1666	330.5389	393.9075	424.375	471.1921	483.0714	533.2072	637.3777	711.6041	724.1272	757.8597	835.4495	917.319	927.3885	954.6372	994.1023	1028.8865	1034.3713	1097.5742	1119.2411	1131.5085	1205.7718	1213.5921	1247.5341	1267.5962	1342.0995	1371.5182	1376.1266	1402.8849	1416.7607	1457.327	1482.1039	1491.7431	1495.3076	1691.914	1784.5751	3023.6646	3029.496	3037.5608	3067.3701	3096.373	3110.4589	3117.7757	3151.5514	3184.9643	3791.9882
CC1(O)CCC(=O)C=C1	C[C@@]1(O)CCC(=O)C=C1	
InChI=1S/C7H10O2/c1-7(9)4-2-6(8)3-5-7/h2,4,9H,3,5H2,1H3	InChI=1S/C7H10O2/c1-7(9)4-2-6(8)3-5-7/h2,4,9H,3,5H2,1H3/t7-/m0/s1
