19
gdb 3517	2.0642627	1.7031771	1.3222092	3.4241	76.66	-0.23187	-0.02365	0.20822	1064.3008	0.157872	-422.5827	-422.574116	-422.573172	-422.615652	32.566	
O	-1.6366727214	-1.1444728383	 1.1896713262	-0.435309
C	-0.7777090545	-1.347005064	 0.06754718	-0.00194
C	-1.5455590238	-1.6629493686	-1.2033031699	-0.118627
C	-2.4806823628	-0.8686462339	-1.7303358079	-0.04629
C	-2.900644517	 0.4863696569	-1.1997298545	-0.243289
C	-1.7540516012	 1.5143735212	-1.1187577526	-0.199214
C	-0.7094476549	 1.2542094519	-0.0092801025	-0.289588
C	 0.0343950856	-0.061179088	-0.1602126976	 0.39011
O	 1.198253608	-0.1270848581	-0.478665259	-0.314106
H	-2.3199128749	-1.8220328899	 1.1544099314	 0.286225
H	-0.0511631874	-2.1430118214	 0.2708766341	 0.088766
H	-1.2951847919	-2.5971170717	-1.6975325823	 0.100215
H	-2.9831033894	-1.2097497232	-2.6328889114	 0.09981
H	-3.6832687366	 0.8909695506	-1.8487413663	 0.100295
H	-3.3444874549	 0.3728163452	-0.2035141001	 0.119946
H	-1.2460729018	 1.5681622996	-2.0888908269	 0.112424
H	-2.1874489631	 2.5045714644	-0.9367929695	 0.103488
H	 0.0409691206	 2.0489457965	-0.0186442102	 0.114534
H	-1.2148786986	 1.2549111609	 0.9618924289	 0.132552
104.6661	117.8767	216.8584	222.9934	260.4264	317.1277	346.5843	389.2235	470.6613	501.6161	585.3739	650.277	679.4988	750.527	802.3625	852.1416	897.4191	910.0722	939.1081	990.9084	993.7095	1053.0014	1060.7279	1093.1051	1143.0835	1186.8938	1227.3339	1253.9776	1266.3897	1291.1803	1345.5065	1355.2735	1364.3512	1379.8115	1382.6667	1413.0847	1467.4429	1482.8319	1489.2905	1703.8359	1814.3431	3029.771	3032.1478	3035.8224	3052.6467	3073.4359	3081.1288	3112.5525	3145.7666	3174.8679	3812.9453
OC1C=CCCCC1=O	O[C@H]1C=CCCCC1=O	
InChI=1S/C7H10O2/c8-6-4-2-1-3-5-7(6)9/h2,4,6,8H,1,3,5H2	InChI=1S/C7H10O2/c8-6-4-2-1-3-5-7(6)9/h2,4,6,8H,1,3,5H2/t6-/m0/s1
