19
gdb 2176	2.7076836	1.6555862	1.5836226	2.5907	74.61	-0.23698	0.07681	0.31379	962.0815	0.159122	-422.525067	-422.51779	-422.516846	-422.556272	29.654	
O	-0.7015691239	 0.0516069034	 0.4991854595	-0.472913
C	-1.8237566622	 0.8306048092	 0.300497939	 0.369492
C	-3.2952967664	 0.3964111427	 0.0589846651	-0.306642
C	-3.2972725973	 1.9434150648	-0.049498877	-0.125723
C	-2.3650327273	 1.986899454	 1.2109037589	-0.067722
C	-1.438953057	 3.1881217767	 1.3753184656	-0.266063
C	-1.2535324837	 3.8526906574	 0.009421822	-0.064433
O	-1.1107414465	 2.8873913532	-1.0246510849	-0.276779
C	-1.9885398086	 1.8037396921	-0.8969190158	 0.121302
H	-0.8204590758	-0.4606803168	 1.3064435924	 0.282383
H	-3.5041163278	-0.1651048354	-0.8558468754	 0.095212
H	-3.8253356884	-0.017660572	 0.9209440104	 0.089166
H	-4.1602542617	 2.5726888134	-0.2542269224	 0.082477
H	-2.8333902231	 1.659933614	 2.1455719533	 0.056519
H	-1.8474752779	 3.9168273397	 2.0842269731	 0.096698
H	-0.4761849606	 2.8479133273	 1.7764763912	 0.10919
H	-2.1265319156	 4.4886053518	-0.2062660727	 0.091288
H	-0.3622066451	 4.4844147474	-0.0294761542	 0.10669
H	-2.0831006915	 1.342053177	-1.8832077281	 0.079858
182.139	201.903	258.2028	285.6676	390.8094	442.0041	459.9181	523.0656	565.8293	656.797	715.2143	774.5152	805.0168	834.1097	877.6697	922.511	953.6235	969.366	987.9004	1034.9943	1041.107	1065.915	1091.6794	1106.2445	1116.3867	1140.1184	1158.9154	1199.3793	1209.0494	1220.6958	1259.0968	1273.037	1304.3513	1341.5986	1365.4668	1369.4767	1419.7052	1433.7576	1482.9505	1510.6447	1518.0623	2979.0035	3026.6748	3045.7758	3051.6048	3070.6099	3082.5935	3090.435	3116.6755	3144.6654	3804.2684
OC12CC3C1CCOC23	O[C@@]12C[C@H]3[C@@H]1CCO[C@@H]23	
InChI=1S/C7H10O2/c8-7-3-4-5(7)1-2-9-6(4)7/h4-6,8H,1-3H2	InChI=1S/C7H10O2/c8-7-3-4-5(7)1-2-9-6(4)7/h4-6,8H,1-3H2/t4-,5-,6+,7-/m0/s1
