19
gdb 5876	4.8459729	0.5416149	0.529352	0.632	82.28	-0.24494	0.02549	0.27043	2025.6871	0.155714	-422.497853	-422.48778	-422.486835	-422.536036	34.094	
O	 3.6852197145	-5.0151432129	-0.5551716335	-0.408467
C	 2.8943778138	-3.8434658496	-0.500077925	-0.055392
C	 3.7358144376	-2.5676919039	-0.7088150825	-0.359791
C	 2.929253281	-1.3552731702	-0.695056335	 0.043399
C	 2.2219566444	-0.3796897446	-0.6701426771	 0.114648
C	 1.385383703	 0.8063935601	-0.653413621	-0.033599
C	-0.0167501913	 0.7197656244	-1.3194847498	-0.283594
C	-0.5446080963	 1.1267559537	 0.0685143766	-0.058622
O	 0.7802717999	 1.0815315089	 0.6400000941	-0.279862
H	 4.2441739741	-5.0352474499	 0.2280880586	 0.284806
H	 2.1610277427	-3.9308562337	-1.306947401	 0.123321
H	 2.3365936422	-3.765512402	 0.4440475998	 0.104371
H	 4.5025266067	-2.5112538312	 0.076762949	 0.121947
H	 4.2752990289	-2.6588726837	-1.6593309165	 0.139901
H	 1.9682695516	 1.6750186826	-0.989877062	 0.100076
H	-0.1918977353	 1.4225668039	-2.1345879056	 0.114767
H	-0.2887664414	-0.2867186047	-1.6368546553	 0.121743
H	-0.9788157488	 2.1328286506	 0.126738586	 0.101877
H	-1.2237496174	 0.4187087422	 0.5568518103	 0.108471
13.0785	47.6852	75.8352	86.056	138.4351	211.3451	304.856	333.859	353.3244	399.0307	519.5638	569.4645	702.0885	777.7453	799.4636	846.8555	933.8516	947.116	1006.1939	1009.5333	1029.8125	1050.2024	1083.3911	1088.1226	1163.6355	1167.4536	1180.9662	1214.9353	1256.3798	1261.7383	1292.2589	1311.5198	1352.6629	1369.2135	1395.7613	1412.1184	1469.5363	1488.5605	1509.4312	1531.8659	2358.9103	3000.5495	3004.9167	3010.2183	3017.3675	3055.5211	3059.3942	3090.1429	3093.9096	3150.1325	3817.2575	13.0773	47.6842	75.8347	86.0554	138.4349	211.3447	304.8553	333.8584	353.3243	399.0305	519.563	569.4641	702.0884	777.7453	799.4636	846.8556	933.8516	947.116	1006.1939	1009.5332	1029.8125	1050.2023	1083.391	1088.1226	1163.6357	1167.4535	1180.966	1214.9355	1256.3799	1261.7382	1292.2588	1311.5198	1352.6631	1369.2135	1395.7614	1412.1183	1469.5362	1488.5607	1509.4311	1531.8663	2358.9099	3000.5495	3004.9167	3010.2183	3017.3675	3055.5211	3059.3942	3090.1429	3093.9096	3150.1325	3817.2572
OCCC#CC1CCO1	OCCC#C[C@H]1CCO1	
InChI=1S/C7H10O2/c8-5-2-1-3-7-4-6-9-7/h7-8H,2,4-6H2	InChI=1S/C7H10O2/c8-5-2-1-3-7-4-6-9-7/h7-8H,2,4-6H2/t7-/m0/s1
