19
gdb 1390	3.8791883	0.7171576	0.6314062	1.4516	78.99	-0.26492	0.00515	0.27007	1723.0865	0.153859	-422.554937	-422.544551	-422.543607	-422.591593	36.087	
C	-2.5715217101	 2.4386848629	 1.0713398888	-0.405463
C	-1.8479660502	 1.4823038762	 0.1169191817	-0.000702
C	-0.4700756536	 1.1417147869	 0.6714201326	-0.070033
O	 0.1289641264	 0.1378041458	-0.1779553046	-0.211968
C	 1.3642100455	-0.2546094055	 0.1599047988	 0.182435
O	 2.0028255246	 0.1504612542	 1.0915270783	-0.298788
C	-1.7307913231	 2.0683782322	-1.3117399851	-0.354903
C	-3.0204894106	 2.2825090073	-1.955378783	 0.29923
C	-4.0940602102	 2.4450544927	-2.4715088114	-0.441881
H	-2.7016090163	 1.9889584104	 2.0606108312	 0.11853
H	-2.0089765125	 3.3713451084	 1.1972643209	 0.11796
H	-3.5587173339	 2.6935893537	 0.6788330186	 0.139627
H	-2.4207107728	 0.5496202579	 0.0479688543	 0.099891
H	 0.1853379642	 2.0195623316	 0.6999522958	 0.123654
H	-0.5376140203	 0.7460284908	 1.6894157675	 0.125189
H	 1.7026720507	-1.0158850928	-0.560096709	 0.11207
H	-1.1815860621	 3.0193678175	-1.2643802282	 0.125919
H	-1.125446488	 1.3914464986	-1.924304135	 0.143585
H	-5.0354194977	 2.5933379012	-2.9397067521	 0.195649
31.3482	63.7875	109.8674	143.8774	165.5581	226.0759	239.3347	338.2077	341.1846	352.4352	409.3583	433.4814	537.9948	616.916	640.9779	781.6366	838.9262	884.2158	917.9385	951.1335	978.7515	993.6627	1045.2769	1109.1052	1130.1041	1173.8978	1212.1887	1236.1737	1272.0501	1314.8198	1342.1242	1377.557	1404.7903	1406.9394	1416.691	1473.8506	1497.1086	1502.2363	1506.5301	1823.3132	2237.5657	3012.3159	3029.8585	3032.547	3038.4914	3048.1405	3071.6846	3091.6855	3101.384	3125.2981	3506.3705
CC(COC=O)CC#C	C[C@H](COC=O)CC#C	
InChI=1S/C7H10O2/c1-3-4-7(2)5-9-6-8/h1,6-7H,4-5H2,2H3	InChI=1S/C7H10O2/c1-3-4-7(2)5-9-6-8/h1,6-7H,4-5H2,2H3/t7-/m0/s1
