19
gdb 2347	2.9834851	1.4289311	1.1679216	1.8559	75.28	-0.24702	0.06449	0.31151	1096.4983	0.156295	-422.511587	-422.503442	-422.502498	-422.544246	31.928	
O	-1.9867708353	 0.3091724921	-2.9587645245	-0.476743
C	-1.1008082763	-0.4219200295	-2.168657822	 0.427878
C	-1.1472682366	-1.9663107581	-2.1920978893	-0.293441
C	-0.9320172557	-1.9948964821	-0.6479282339	-0.229131
C	-1.0655509237	-0.4462175985	-0.5737705159	-0.215752
C	 0.2791850379	 0.265268776	-0.6457847012	 0.478552
C	 0.8403028843	 1.2804729516	 0.2450964875	-0.272047
O	 1.379997233	-0.0487193782	 0.1925686713	-0.274452
C	 0.3208333477	 0.1989040107	-2.1790871609	-0.364842
H	-2.8592936634	-0.0927510359	-2.8898002227	 0.277486
H	-2.1431292649	-2.3295386175	-2.4707427314	 0.089916
H	-0.4118863638	-2.4737165293	-2.8233385184	 0.103039
H	-1.7040745587	-2.537378321	-0.0996060651	 0.102443
H	 0.0426888583	-2.3624405917	-0.3203081747	 0.122693
H	-1.8426304503	-0.0333991578	 0.0710196399	 0.066654
H	 1.483113503	 2.0618292634	-0.1599315645	 0.11411
H	 0.3237387777	 1.5375304266	 1.1695180644	 0.11331
H	 0.339163648	 1.1728106981	-2.6734375318	 0.119813
H	 1.1103897991	-0.4335902888	-2.5936124668	 0.110512
56.5042	189.9559	250.5279	279.7866	323.2061	358.2969	385.8233	389.0702	494.4056	541.2396	633.8918	718.599	755.1926	825.6192	856.5146	872.0684	900.2977	931.6914	947.6279	950.7174	993.712	1048.1348	1064.8747	1098.8961	1119.0397	1126.4598	1145.1614	1166.2873	1201.1921	1215.9619	1234.5785	1238.9017	1264.4546	1275.4316	1319.0155	1386.1865	1432.8822	1465.6985	1479.6571	1499.9086	1534.8587	3034.6789	3061.6591	3073.9026	3074.9431	3087.6541	3100.6773	3121.1389	3126.9889	3160.9149	3807.28
OC12CCC1C1(CO1)C2	O[C@]12CC[C@H]1[C@]1(CO1)C2	
InChI=1S/C7H10O2/c8-6-2-1-5(6)7(3-6)4-9-7/h5,8H,1-4H2	InChI=1S/C7H10O2/c8-6-2-1-5(6)7(3-6)4-9-7/h5,8H,1-4H2/t5-,6+,7-/m1/s1
