19
gdb 4075	4.3935513	1.1968864	1.0923856	1.2714	76.22	-0.23728	0.06416	0.30144	1159.3723	0.157441	-422.463801	-422.456161	-422.455217	-422.495821	30.337	
C	-0.0786943911	 0.2507360252	-0.0003983202	-0.393512
C	 1.363238662	-0.1762302066	 0.1340324001	 0.192661
O	 1.4899356464	-1.294537514	 1.1073185418	-0.33518
C	 1.9101979059	-2.3544248018	 0.2691090895	 0.129577
C	 3.0150455789	-3.4837883681	 0.2112842959	-0.13664
C	 2.7039951994	-4.1816156313	-1.084259303	-0.27802
C	 3.4768233712	-2.8948388542	-1.1638517602	-0.151146
C	 2.7581854686	-1.6237571807	-0.7036477072	 0.199901
O	 1.8757667229	-0.5880829051	-1.152685146	-0.315042
H	-0.4613688391	 0.5759576226	 0.970365161	 0.12844
H	-0.1570254524	 1.0807528894	-0.708370687	 0.128399
H	-0.6871143158	-0.5813113487	-0.3630830729	 0.128698
H	 1.9965173195	 0.6271586039	 0.5355261629	 0.084914
H	 1.0126924854	-2.7942263975	-0.1845181226	 0.07731
H	 3.6292337991	-3.8948876748	 1.0001743438	 0.109397
H	 3.3003328339	-5.0613720154	-1.3079421673	 0.120784
H	 1.6742414882	-4.2560110474	-1.4254222417	 0.121829
H	 4.4826830719	-2.8779004914	-1.5654421496	 0.101333
H	 3.5412455052	-1.1174521839	-0.1182916269	 0.086295
77.5666	214.6053	250.7062	256.337	353.785	414.208	439.9294	532.3153	549.3539	675.6981	687.2236	728.3442	748.9835	834.5665	850.2538	880.1184	900.2366	957.5379	1006.5535	1019.1307	1049.9569	1073.9128	1079.4837	1105.176	1121.262	1132.6377	1150.4756	1170.787	1181.7782	1216.4981	1236.2697	1304.0114	1341.4062	1357.6915	1385.8405	1416.0729	1472.1159	1481.6288	1483.8135	1493.3072	1507.834	2968.2809	2999.4686	3005.4956	3050.8427	3110.3153	3128.1526	3135.8266	3182.0772	3194.7255	3218.0924
CC1OC2C3CC3C2O1	C[C@H]1O[C@@H]2[C@H]3C[C@H]3[C@H]2O1	
InChI=1S/C7H10O2/c1-3-8-6-4-2-5(4)7(6)9-3/h3-7H,2H2,1H3	InChI=1S/C7H10O2/c1-3-8-6-4-2-5(4)7(6)9-3/h3-7H,2H2,1H3/t3-,4-,5+,6-,7-/m1/s1
