19
gdb 3963	3.6195924	1.1934632	1.0063827	2.5309	77.73	-0.22082	0.02942	0.25024	1202.7094	0.158377	-422.567533	-422.55936	-422.558416	-422.600597	30.621	
O	 0.3084289745	-0.045583802	 0.7085714527	-0.434452
C	-0.217014863	 1.2219293857	 0.3342272514	 0.129694
C	-1.2585228985	 1.7480858896	 1.379708739	-0.377571
C	-2.5663327939	 1.4108075117	 0.7302489514	 0.2467
C	-2.4299364548	 1.0126040193	-0.5304701108	 0.244857
C	-3.7693170596	 0.724892575	-1.1282994211	-0.188633
O	-4.6975501049	 0.9988381532	-0.0698256664	-0.27465
C	-4.0115600787	 1.4305321731	 1.1128193906	-0.186816
C	-1.0038648698	 0.9949069073	-0.9902352194	-0.350231
H	 0.7880244596	 0.0637282783	 1.5359316098	 0.280779
H	 0.6011761692	 1.9422009701	 0.1957947342	 0.064012
H	-1.1042326272	 1.2577858314	 2.349592412	 0.099461
H	-1.1507330112	 2.8280222824	 1.551460638	 0.105492
H	-4.0021943971	 1.3611841002	-1.9973205304	 0.101482
H	-3.8804522777	-0.3210307282	-1.4554198084	 0.105493
H	-4.3701317048	 2.4313988143	 1.4030447649	 0.100655
H	-4.247926653	 0.7496273725	 1.9461064132	 0.103068
H	-0.6862686544	 0.0477712135	-1.4390666906	 0.12478
H	-0.7976675243	 1.7845605425	-1.7244451801	 0.105882
64.1957	134.5998	189.1006	206.0085	303.2494	338.2518	395.8433	460.3586	484.2668	580.7533	682.1617	770.3942	823.6387	867.9168	902.0765	913.467	931.5409	990.3523	1000.0761	1031.2639	1060.0974	1071.949	1082.9036	1163.2927	1170.2902	1207.7858	1213.6669	1218.7127	1229.4859	1251.1857	1303.1328	1330.0298	1342.8133	1399.0567	1405.0246	1422.0782	1471.803	1479.5432	1517.3847	1527.9332	1741.7345	2965.0999	2972.4363	2982.2447	2986.5771	2993.7293	3011.7394	3026.3191	3042.8354	3073.4374	3815.5544
OC1CC2=C(COC2)C1	O[C@@H]1CC2=C(COC2)C1	
InChI=1S/C7H10O2/c8-7-1-5-3-9-4-6(5)2-7/h7-8H,1-4H2	InChI=1S/C7H10O2/c8-7-1-5-3-9-4-6(5)2-7/h7-8H,1-4H2
