19
gdb 2890	3.1974686	1.5190538	1.2870768	1.9358	74.12	-0.24826	0.07006	0.31832	1017.6378	0.158738	-422.52751	-422.520045	-422.519101	-422.558838	30.489	
O	-3.45860667	 2.9562968939	 0.5605283182	-0.457213
C	-2.6899413266	 1.8211415124	 0.8918684132	 0.164807
C	-2.0288526415	 1.8838344158	 2.2813600647	-0.073509
C	-0.8148566943	 2.6672782166	 1.664112405	-0.060775
C	 0.1458295822	 1.8652148829	 2.5531366754	-0.232018
C	-0.9203466944	 0.7506856911	 2.39342285	-0.111983
C	-0.7853107653	 0.4086872852	 0.8852852678	 0.153219
O	 0.5194108262	 0.0800656751	 0.4457198532	-0.446233
C	-1.2157898747	 1.7977713046	 0.3890986311	-0.102562
H	-2.9782087102	 3.7429855813	 0.8406949384	 0.280256
H	-3.3166092955	 0.9624684777	 0.6322810601	 0.077478
H	-2.5558350185	 2.1865253835	 3.1866990019	 0.070328
H	-0.7649631607	 3.7506589883	 1.5562574355	 0.063491
H	 1.1585666387	 1.6561627977	 2.2053920625	 0.107091
H	 0.1631056591	 2.2710423378	 3.5687894981	 0.092829
H	-1.0068143849	-0.0763737272	 3.0996924542	 0.058124
H	-1.494780736	-0.3699741623	 0.5717001074	 0.063951
H	 0.7724524161	-0.7532795579	 0.8569269736	 0.279768
H	-0.9488326397	 2.0746069736	-0.6296391301	 0.072951
215.0111	227.7486	252.6142	274.2606	302.4991	362.2625	440.7547	485.0171	544.2013	689.1013	746.554	818.8726	827.4668	849.6709	859.8312	894.9904	936.8758	965.7398	966.6675	992.5288	1006.6062	1038.559	1065.3555	1068.3636	1101.4442	1133.2509	1148.9803	1176.8565	1189.2276	1202.1565	1227.4269	1247.3346	1249.7065	1280.6071	1286.2035	1288.8301	1312.2623	1349.506	1429.4827	1448.3098	1488.2509	2994.7974	3060.7204	3064.1069	3100.4192	3107.0443	3117.7215	3126.1393	3134.9891	3805.8296	3807.0906
OC1C2C3CC2C(O)C13	O[C@@H]1[C@@H]2[C@H]3C[C@@H]2[C@H](O)[C@@H]13	
InChI=1S/C7H10O2/c8-6-3-1-2-4(3)7(9)5(2)6/h2-9H,1H2	InChI=1S/C7H10O2/c8-6-3-1-2-4(3)7(9)5(2)6/h2-9H,1H2/t2-,3+,4-,5+,6+,7-/m1/s1
