19
gdb 1742	2.6646868	1.689929	1.3117331	1.5868	74.68	-0.23254	0.07217	0.30471	1022.8849	0.155916	-422.511186	-422.502832	-422.501888	-422.543261	33.499	
C	-0.1765169754	-0.0326584566	 0.1594488604	-0.472912
C	 1.3279302578	 0.0737799735	-0.0424457635	 0.434766
O	 2.0118437637	-0.8034901125	 0.85601797	-0.490368
C	 1.9497526741	-0.1499026374	-1.4145251026	-0.182742
C	 2.0150015541	 1.2267078065	-2.1425946436	-0.129481
C	 1.3885490609	 2.2691178088	-1.2168653044	-0.250316
C	 2.0316563046	 1.4702043017	-0.0536002818	-0.202215
C	 3.042615527	 0.8440049268	-1.1250869157	 0.400469
O	 4.4042031064	 0.7880100974	-1.2190684401	-0.458023
H	-0.4628247084	 0.3145360078	 1.1607750859	 0.102788
H	-0.7331170723	 0.5586508366	-0.5710333436	 0.124247
H	-0.4884530861	-1.0772542303	 0.0629932637	 0.124945
H	 1.741068336	-0.5680438113	 1.7504976684	 0.272583
H	 2.0134174436	-1.0773873304	-1.9695827048	 0.087193
H	 2.1269129611	 1.2544672795	-3.2190478749	 0.09071
H	 1.8650706908	 3.2447603265	-1.3477973201	 0.105137
H	 0.3010759591	 2.3966398099	-1.2092714686	 0.088348
H	 2.2901764309	 1.9431598911	 0.8933148606	 0.060794
H	 4.7082719023	 0.1020887723	-0.6123506855	 0.294077
136.5826	209.3714	222.4344	306.5497	310.6373	340.5048	390.274	396.6137	408.2596	486.9187	548.382	597.6837	649.7691	732.5342	793.9109	858.3584	902.8084	912.7126	923.9452	952.8102	957.9078	988.0335	1018.3262	1040.5245	1082.2629	1095.0971	1114.5324	1145.2545	1159.6438	1187.9369	1203.686	1235.8513	1265.7022	1291.7297	1317.9575	1396.175	1406.408	1484.5373	1487.5886	1500.0146	1515.9154	3022.9178	3044.0884	3092.4644	3096.6389	3122.2643	3126.5095	3194.631	3203.5036	3779.4539	3794.7163
CC1(O)C2C3CC1C23O	C[C@@]1(O)[C@H]2[C@H]3C[C@@H]1[C@@]23O	
InChI=1S/C7H10O2/c1-6(8)4-2-3-5(6)7(3,4)9/h3-5,8-9H,2H2,1H3	InChI=1S/C7H10O2/c1-6(8)4-2-3-5(6)7(3,4)9/h3-5,8-9H,2H2,1H3/t3-,4+,5-,6+,7-/m1/s1
