19
gdb 3796	3.5140034	0.9478473	0.8011847	4.176	77.43	-0.24026	-0.02195	0.21831	1453.818	0.154816	-422.542206	-422.532979	-422.532034	-422.577208	33.049	
C	-2.1209010246	-3.9156374526	 2.6272221711	-0.419656
C	-1.6499608561	-3.2537858879	 1.3585721143	 0.074523
O	-0.2349859077	-3.1822374964	 1.1551657372	-0.252978
C	-0.9496393526	-1.9590289562	 1.3495563681	 0.046951
C	-1.0192965957	-1.0149567992	 0.1815585929	-0.118467
C	-2.0994692547	 0.1174972576	 0.1675333653	-0.258063
C	-1.0294141097	 1.1530771423	-0.2908512451	-0.336141
C	 0.0401638413	 0.1087983187	 0.070028117	 0.384367
O	 1.2092893985	 0.1654079871	 0.3109409028	-0.286596
H	-2.0242297763	-5.0037295853	 2.551921014	 0.132147
H	-1.5289014281	-3.579270159	 3.4826020953	 0.129895
H	-3.1747905785	-3.6837141533	 2.8153580928	 0.121496
H	-2.2058832494	-3.521655646	 0.4573567356	 0.085484
H	-0.7584271359	-1.4859676749	 2.3150707247	 0.092711
H	-1.0355488371	-1.5930865683	-0.7495461947	 0.110285
H	-2.9465567678	-0.0394329091	-0.5005553287	 0.112969
H	-2.4761803869	 0.3332955948	 1.1707208485	 0.115885
H	-1.051809757	 1.3470714087	-1.3682588042	 0.134464
H	-0.9681740518	 2.109167499	 0.2340367233	 0.130723
48.6456	80.566	100.0097	178.2309	194.8559	269.8841	326.792	359.5137	464.6117	472.7667	563.9504	686.14	747.5441	761.9928	815.4419	874.7764	918.1495	932.4862	978.771	996.3702	1032.4081	1043.8887	1080.4081	1093.3691	1151.9412	1166.9646	1177.9966	1199.4641	1227.2849	1232.8138	1248.7352	1281.1592	1297.6579	1377.7971	1411.6385	1442.609	1473.7172	1489.1406	1492.4297	1507.6033	1893.1424	3036.1348	3051.4309	3059.7599	3073.1347	3081.3388	3090.4123	3101.3587	3116.5039	3123.1569	3136.2884
CC1OC1C1CCC1=O	C[C@@H]1O[C@H]1[C@H]1CCC1=O	
InChI=1S/C7H10O2/c1-4-7(9-4)5-2-3-6(5)8/h4-5,7H,2-3H2,1H3	InChI=1S/C7H10O2/c1-4-7(9-4)5-2-3-6(5)8/h4-5,7H,2-3H2,1H3/t4-,5-,7+/m0/s1
