19
gdb 5536	2.7634207	1.3061194	1.0369927	2.0154	75.84	-0.23588	0.06035	0.29623	1191.9906	0.155951	-422.454646	-422.446186	-422.445242	-422.48786	32.276	
O	 1.7671051801	 0.2082670184	 0.2479565992	-0.415464
C	 0.3553556811	 0.3198016753	 0.1072094083	-0.117653
C	-0.0263496513	 0.9916974583	-1.2014640505	 0.015538
C	-0.1087618963	 0.2343592731	-2.5669638216	-0.080377
O	-0.9182233423	 1.3658860595	-3.0825183863	-0.305025
C	-1.4847133124	 1.0512267703	-1.7450406132	-0.084433
C	-1.4191964277	-0.4347193768	-2.128183871	 0.459065
C	-1.8192880148	-1.729617232	-1.5043712221	-0.359187
C	-2.3737781482	-1.304201216	-2.8600487073	-0.361831
H	 2.0867508392	-0.3686496426	-0.4528563284	 0.282219
H	-0.1362397915	-0.6542214917	 0.2211483436	 0.100449
H	 0.0292295928	 0.9491387496	 0.9429196275	 0.11262
H	 0.4846818751	 1.951523077	-1.3116519301	 0.092315
H	 0.6874773583	-0.145154551	-3.2097309816	 0.092006
H	-2.331375831	 1.6474896898	-1.4021456057	 0.094748
H	-1.1008075963	-2.5433134119	-1.4821839137	 0.116071
H	-2.4909370301	-1.7118106331	-0.6516633426	 0.119444
H	-2.0226611128	-1.8332874069	-3.740003395	 0.119217
H	-3.4148847819	-1.0023767995	-2.9097298296	 0.120278
66.0677	147.198	181.1006	252.199	277.417	283.7102	322.1174	424.442	504.4589	622.959	673.283	721.7495	768.4091	785.5498	846.5284	875.027	911.7485	915.9604	960.2017	989.3691	1030.5575	1053.9877	1067.4154	1071.0667	1079.565	1103.6182	1135.8806	1139.2034	1181.1653	1182.7437	1203.8957	1231.4511	1247.0651	1252.9099	1341.9672	1397.0985	1415.8631	1429.6909	1461.0287	1505.744	1519.0099	3027.9839	3068.6846	3091.86	3103.5426	3113.8076	3121.4202	3129.1442	3199.1712	3215.2221	3817.5606
OCC1C2OC1C21CC1	OC[C@H]1[C@@H]2O[C@H]1C12CC1	
InChI=1S/C7H10O2/c8-3-4-5-7(1-2-7)6(4)9-5/h4-6,8H,1-3H2	InChI=1S/C7H10O2/c8-3-4-5-7(1-2-7)6(4)9-5/h4-6,8H,1-3H2/t4-,5-,6+
