19
gdb 674	3.0683169	1.4270511	1.2351483	4.413	73.9	-0.26052	0.0184	0.27891999999999995	1070.3647	0.160273	-422.628991	-422.621573	-422.620629	-422.661435	28.733	
O	 1.3749362821	-0.2620076394	-0.3240276175	-0.336773
C	 0.1868491951	-0.2113122266	-0.1910459902	 0.421204
C	-0.7729413381	-1.3400440129	 0.1647281976	-0.373447
C	-2.1767949875	-0.7688378845	-0.0642433369	-0.036984
C	-2.8367771292	-1.130617426	-1.4253720192	-0.219345
C	-2.6189559952	 0.0934206418	-2.3377308423	-0.212007
C	-2.6857674874	 1.2765935829	-1.3594132013	-0.216152
C	-1.9290350336	 0.7712950512	-0.1314228948	 0.109248
O	-0.512637865	 0.9446839086	-0.339393219	-0.23041
H	-0.5405839625	-2.2235828256	-0.4337284035	 0.138336
H	-0.5959548686	-1.6079572528	 1.2116570292	 0.139432
H	-2.8421134013	-1.0218668421	 0.7628080242	 0.083767
H	-2.4338369855	-2.0553580433	-1.847860365	 0.103373
H	-3.9100376376	-1.2905077405	-1.276370846	 0.103897
H	-1.6283969734	 0.0553066019	-2.8040629252	 0.118403
H	-3.3549210364	 0.1591281395	-3.1428314173	 0.101555
H	-2.2571237927	 2.2047391545	-1.7443442083	 0.118471
H	-3.7258498373	 1.4773783317	-1.074599839	 0.101368
H	-2.1888825258	 1.3033306418	 0.7882098744	 0.086064
62.6797	100.2394	226.3242	341.1545	381.0495	498.8817	537.4831	572.9164	596.0496	658.6981	774.7746	813.3346	833.2966	854.807	888.2828	903.543	916.9863	970.7345	1002.4913	1005.4122	1046.9644	1073.5441	1115.3892	1156.0992	1175.5708	1188.97	1209.0019	1231.1066	1276.2665	1288.9092	1317.0477	1333.465	1340.9677	1358.0408	1363.8576	1386.178	1459.6067	1478.5593	1494.5374	1508.1999	1878.8437	3038.6696	3044.5648	3051.3149	3059.7463	3066.1844	3088.8143	3093.861	3105.0212	3112.0424	3113.4719
O=C1CC2CCCC2O1	O=C1C[C@@H]2CCC[C@@H]2O1	
InChI=1S/C7H10O2/c8-7-4-5-2-1-3-6(5)9-7/h5-6H,1-4H2	InChI=1S/C7H10O2/c8-7-4-5-2-1-3-6(5)9-7/h5-6H,1-4H2/t5-,6-/m0/s1
