19
gdb 3034	2.826444	1.364004	1.1291041	0.8678	75.4	-0.25103	0.06454	0.31556999999999996	1128.7616	0.156938	-422.486008	-422.477817	-422.476873	-422.519152	31.308	
O	-2.952252018	 0.9897167851	 1.1407084071	-0.448492
C	-1.9486583437	 0.4685148728	 1.9617749861	 0.151613
C	-1.9602913914	-1.0127112456	 2.4475266265	-0.107637
C	-0.4561064368	-0.8099722477	 2.7775266249	-0.263695
C	-0.644287373	-0.1744909283	 1.365026989	 0.318345
C	-1.5032792502	-1.4304685121	 1.0155548246	-0.29782
C	 0.3945201939	 0.4840416617	 0.5288275812	-0.085244
C	 0.3615884968	 0.4520905413	-0.9395711503	-0.175749
O	 1.2699151073	-0.3758807086	-0.214134904	-0.235888
H	-3.2039883361	 0.3311968667	 0.4854931743	 0.283139
H	-1.7810292018	 1.2181756383	 2.7400174692	 0.083608
H	-2.7108376082	-1.5021571768	 3.0682590139	 0.077796
H	-0.2153264718	-0.1282042442	 3.5985001684	 0.093017
H	 0.1549307121	-1.7136177755	 2.8099513445	 0.107119
H	-2.2277900017	-1.3460351309	 0.1986848541	 0.075074
H	-0.9594844248	-2.3736017476	 0.9321794454	 0.110687
H	 0.9022163611	 1.3265884129	 1.0026304288	 0.090293
H	-0.4444534854	-0.0744786771	-1.4481416329	 0.107705
H	 0.8143260717	 1.2650318754	-1.5055578009	 0.116129
52.878	137.5718	177.556	235.8216	301.7435	338.8366	409.8488	495.3018	538.1326	620.2833	643.4747	767.0272	826.1549	851.7027	870.1818	896.5448	927.9146	941.0317	957.175	1003.9628	1023.4688	1054.5789	1073.7905	1093.5122	1133.4603	1139.2001	1148.6783	1156.2624	1168.5336	1177.6942	1212.4781	1230.3019	1244.0624	1278.0371	1283.5703	1324.0144	1443.1826	1452.3877	1505.569	1526.3375	1546.9427	3039.9594	3055.8214	3079.7146	3083.6208	3091.2535	3112.7255	3117.2335	3130.0274	3170.4434	3818.498
OC1C2CC1(C2)C1CO1	O[C@H]1[C@@H]2C[C@]1(C2)[C@@H]1CO1	
InChI=1S/C7H10O2/c8-6-4-1-7(6,2-4)5-3-9-5/h4-6,8H,1-3H2	InChI=1S/C7H10O2/c8-6-4-1-7(6,2-4)5-3-9-5/h4-6,8H,1-3H2/t4-,5-,6-,7+/m0/s1
