19
gdb 1511	2.5764893	1.2823235	1.0125821	2.1577	76.87	-0.23528	0.04986	0.28514	1215.997	0.152704	-422.513674	-422.503565	-422.50262	-422.547907	38.239	
C	 4.3263461797	-1.3872462469	 1.078082977	-0.458012
C	 4.0216215474	-0.1786646124	 1.9285408604	 0.308961
O	 5.1796746242	 0.4122843582	 2.4909574438	-0.470235
C	 2.7450539163	-0.0668721107	 2.7464859819	-0.41666
C	 2.9934306161	 0.8746783103	 1.5831646641	 0.402444
O	 3.351498187	 2.1956119313	 1.8657700748	-0.471906
C	 2.1305772835	 0.8695362826	 0.3221374305	-0.423522
C	 1.3255744936	-0.3203230282	 0.0793436125	 0.299158
C	 0.6404777059	-1.2862969798	-0.1296940976	-0.449369
H	 4.7567176611	-2.186089791	 1.6944428087	 0.10814
H	 3.4263065071	-1.7770233747	 0.5994497915	 0.142947
H	 5.0552797278	-1.1324153198	 0.3020560992	 0.124635
H	 5.3821052923	-0.039638484	 3.3168093314	 0.290197
H	 2.0012219764	-0.8480451062	 2.6323500147	 0.127091
H	 2.8216782104	 0.3693950721	 3.7374827531	 0.106811
H	 4.2410846946	 2.1495538745	 2.2456850198	 0.291411
H	 1.4621208707	 1.7349600519	 0.4137363564	 0.152406
H	 2.7692335213	 1.0748182045	-0.5463155646	 0.138199
H	 0.0347009047	-2.1377018717	-0.3185836674	 0.197302
78.4835	132.9462	181.33	202.6439	229.3926	256.1135	313.3659	348.0027	364.6385	386.4755	403.7735	463.629	497.5861	513.3169	593.1122	615.7588	648.3135	709.0903	716.8841	865.0996	916.4516	932.3031	971.2823	986.2404	992.6806	1041.7581	1085.3731	1166.4411	1182.0667	1226.503	1259.3585	1300.5483	1333.775	1378.3718	1415.9722	1419.402	1462.2891	1475.6371	1492.4806	1505.0649	2235.9461	3024.7784	3028.1699	3056.3948	3090.2264	3125.3395	3139.5252	3222.0347	3504.3859	3724.1053	3807.6743
CC1(O)CC1(O)CC#C	C[C@]1(O)C[C@]1(O)CC#C	
InChI=1S/C7H10O2/c1-3-4-7(9)5-6(7,2)8/h1,8-9H,4-5H2,2H3	InChI=1S/C7H10O2/c1-3-4-7(9)5-6(7,2)8/h1,8-9H,4-5H2,2H3/t6-,7+/m0/s1
