19
gdb 3188	2.7011493	1.6908059	1.2199555	1.8534	75.11	-0.23304	0.06759	0.30063	1050.8262	0.155751	-422.512081	-422.503402	-422.502458	-422.544553	33.769	
C	-3.3292625585	 3.3900477214	 0.104239168	-0.51275
C	-2.7070900377	 2.0308123195	 0.2193828226	 0.268469
C	-3.3043113406	 0.7683526078	 0.8468916612	-0.29237
C	-2.14946085	 0.0044426886	 0.1506451658	-0.103634
C	-1.9898380306	 1.2203581527	-0.852095695	-0.205377
C	-1.1728482315	 1.8534176625	 0.2502762551	 0.292696
O	-0.3064644694	 2.915029981	 0.0852900812	-0.460635
C	-0.8640104107	 0.4964429885	 0.8853469154	 0.093958
O	 0.3394256845	-0.0831402236	 0.4402732661	-0.446332
H	-3.5170574887	 3.8261053857	 1.0934359935	 0.114831
H	-2.6721534795	 4.0727064026	-0.4431309876	 0.130015
H	-4.2889153153	 3.3456333543	-0.4223619678	 0.120928
H	-3.3671048243	 0.7002483533	 1.9407528058	 0.084543
H	-4.2815501053	 0.5331517917	 0.4127233658	 0.097624
H	-2.2266730605	-1.0447849955	-0.1247154614	 0.077746
H	-1.9650341237	 1.3203872459	-1.9276382919	 0.095352
H	-0.2762999194	 3.418966406	 0.9069038949	 0.28861
H	-0.8591075192	 0.4040442058	 1.9780563383	 0.072081
H	 0.4850779705	 0.2071046618	-0.46825436	 0.284244
157.7459	184.8241	210.5474	228.4519	285.1483	294.6201	314.0312	344.1532	422.5271	458.9599	500.7748	634.5582	672.1686	758.9656	822.0889	827.4401	888.0226	895.0991	924.3022	940.2573	967.8669	1006.8602	1046.8521	1067.5313	1099.3361	1131.0917	1153.4754	1169.2108	1210.3291	1230.7629	1240.0129	1271.6489	1291.58	1306.7299	1365.8231	1411.6429	1421.5681	1453.4038	1490.4409	1498.488	1506.6468	3015.3955	3021.5901	3040.5358	3076.2938	3078.1779	3106.2393	3145.9246	3221.2037	3783.6641	3784.8945
CC12CC3C1C2(O)C3O	C[C@@]12C[C@H]3[C@@H]1[C@]2(O)[C@@H]3O	
InChI=1S/C7H10O2/c1-6-2-3-4(6)7(6,9)5(3)8/h3-5,8-9H,2H2,1H3	InChI=1S/C7H10O2/c1-6-2-3-4(6)7(6,9)5(3)8/h3-5,8-9H,2H2,1H3/t3-,4-,5+,6+,7-/m0/s1
