19
gdb 3229	2.3129874	2.0338087	1.5293727	0.7133	72.95	-0.23676	0.06092	0.29768	941.2123	0.158992	-422.575818	-422.568191	-422.567247	-422.607304	30.916	
O	 0.3636968632	 0.0866629796	-0.0022571719	-0.455226
C	-0.8153080767	 0.3415760055	 0.7443923517	 0.079783
C	-2.0841050124	 0.1637665294	-0.1150797199	-0.075917
C	-2.0797256525	-1.3608500666	-0.3900814087	-0.218801
C	-1.9401708749	-1.8039259275	 1.0632433862	-0.142546
C	-2.6407639352	-0.7519485711	 1.9238573691	-0.109084
C	-3.1891771068	 0.3013239305	 0.9626890292	-0.230711
C	-1.1394895367	-0.7347411302	 1.7764464369	 0.377897
O	-0.2830271933	-0.9821064479	 2.8448110823	-0.488609
H	 1.1022252949	 0.1227275573	 0.614397292	 0.279645
H	-0.772764067	 1.3416490793	 1.2016659046	 0.06258
H	-2.1597577827	 0.8174641617	-0.9829163823	 0.06998
H	-3.0104977861	-1.7009384215	-0.8561475634	 0.08995
H	-1.2351047158	-1.6651976384	-1.0122858895	 0.111841
H	-1.8954619764	-2.8386439481	 1.3786269003	 0.079962
H	-3.1063491235	-1.0138875607	 2.8646637529	 0.089183
H	-4.1834214145	 0.0540593273	 0.5763476456	 0.097247
H	-3.2292115852	 1.3036674249	 1.4016468156	 0.097827
H	 0.3357468616	-1.6685460635	 2.5747899793	 0.284997
153.2585	205.1606	237.0697	298.1032	363.7271	383.3588	420.8972	469.4935	541.6086	609.9535	660.5024	756.9143	798.7325	853.2179	901.394	903.1512	915.1013	926.5164	937.7191	960.3827	999.1045	1005.5312	1051.1707	1067.5318	1105.9893	1138.4233	1154.0217	1181.8174	1186.2489	1224.6898	1247.7782	1278.898	1285.6327	1306.1933	1321.7095	1337.9638	1348.935	1419.0349	1446.6922	1486.2802	1506.298	2990.5314	3042.6573	3050.6836	3085.2718	3109.9031	3128.8822	3194.2374	3208.1972	3804.9595	3811.9581
OC1C2CC3C(C2)C13O	O[C@H]1[C@H]2C[C@@H]3[C@H](C2)[C@]13O	
InChI=1S/C7H10O2/c8-6-3-1-4-5(2-3)7(4,6)9/h3-6,8-9H,1-2H2	InChI=1S/C7H10O2/c8-6-3-1-4-5(2-3)7(4,6)9/h3-6,8-9H,1-2H2/t3-,4+,5-,6-,7-/m0/s1
