19
gdb 3237	2.4060323	1.978329	1.6104655	2.1497	73.64	-0.24017	0.07566	0.31583	934.805	0.158203	-422.53435	-422.527004	-422.52606	-422.565523	30.224	
C	 1.8057426146	-0.0463930338	-2.9651647947	-0.511907
C	 0.5405331309	 0.2545983285	-2.220587353	 0.368183
O	 0.3210553278	 1.6894416623	-1.940068874	-0.346241
C	-1.0595752761	 1.3051414135	-1.8088989585	 0.108055
C	-1.17519086	 0.1212656717	-0.7430515849	-0.139644
C	-1.7641504533	-0.7632048976	-1.8726287545	-0.263227
C	-0.9238197766	 0.1334140769	-2.8004154835	-0.117083
C	 0.3150087216	-0.2955991444	-0.7824492485	 0.159786
O	 1.1600221092	 0.3076669934	 0.1603628011	-0.459024
H	 2.6730446882	 0.1990835992	-2.3441917458	 0.139134
H	 1.8524038172	-1.1124627467	-3.210012744	 0.124906
H	 1.864593914	 0.5276507077	-3.8938606641	 0.128233
H	-1.779799195	 2.1205808578	-1.836806897	 0.088257
H	-1.6432436902	 0.2304990225	 0.2329998266	 0.074494
H	-1.5622746596	-1.8376533159	-1.8310420875	 0.099005
H	-2.8328544502	-0.5994915768	-2.0350997322	 0.105588
H	-1.0573858821	 0.2242393791	-3.8775525993	 0.076684
H	 0.4479312034	-1.3774248184	-0.6968647185	 0.08171
H	 1.1820172963	 1.2431758813	-0.0898384377	 0.283092
194.8673	205.4476	242.4855	288.2509	362.3621	423.4962	499.1185	555.7293	598.5507	634.8315	702.1734	769.0989	808.0735	826.7364	838.1082	859.4797	888.5976	923.4805	960.2838	976.5188	1007.4853	1026.8506	1042.0543	1101.1204	1123.4937	1140.0751	1161.1703	1173.9549	1191.1601	1214.9	1253.8176	1260.8917	1272.4656	1288.0917	1326.1978	1354.2058	1411.9648	1450.7708	1478.6353	1490.111	1502.9028	3039.3018	3051.0026	3079.8318	3105.0588	3111.0917	3118.29	3124.6144	3137.9415	3146.9079	3727.8592
CC12OC3C(CC13)C2O	C[C@@]12O[C@@H]3[C@@H](C[C@H]13)[C@@H]2O	
InChI=1S/C7H10O2/c1-7-4-2-3(6(7)8)5(4)9-7/h3-6,8H,2H2,1H3	InChI=1S/C7H10O2/c1-7-4-2-3(6(7)8)5(4)9-7/h3-6,8H,2H2,1H3/t3-,4+,5-,6+,7-/m1/s1
