19
gdb 4381	3.1785301	1.192617	1.1093741	2.1896	77.03	-0.25051	0.0284	0.27891	1166.9354	0.156178	-422.545736	-422.536691	-422.535747	-422.579281	34.948	
O	 0.2495323416	-0.3560168272	-2.6793811675	-0.448772
C	-0.4271244209	 0.8065609424	-3.1261040209	 0.137738
C	 0.3362448602	 2.1155060088	-2.7859878899	-0.242185
C	-0.3254634159	 2.6938511445	-1.5054323932	-0.234226
C	-1.4028882999	 1.6628594773	-1.0846342913	 0.180068
O	-0.7231345253	 0.7086989591	-0.234708353	-0.464601
C	-1.7860276647	 0.9923523692	-2.4240465338	-0.264045
C	-2.537275549	 2.2421128313	-0.3686990995	 0.24486
C	-3.4837183849	 2.6885100196	 0.2234032226	-0.413849
H	 0.2674141763	-0.2983117856	-1.7139103687	 0.280467
H	-0.5449722083	 0.6779283312	-4.205319396	 0.073326
H	 1.3955330258	 1.8876497216	-2.6499900953	 0.114385
H	 0.2607465922	 2.8304772578	-3.6106016246	 0.101221
H	 0.3715701336	 2.841946485	-0.6785410832	 0.123071
H	-0.8085336106	 3.6522697729	-1.7070133282	 0.11501
H	-1.3874829677	 0.0957102626	 0.1013078071	 0.288104
H	-2.3216406589	 0.0492547543	-2.285727948	 0.103377
H	-2.4278199141	 1.6728892014	-2.9944778087	 0.109688
H	-4.3140452994	 3.0931813538	 0.7479356122	 0.196363
61.4842	138.0039	144.0578	228.7173	316.572	356.8759	370.2252	404.7761	432.0603	513.0914	533.4652	583.378	593.4677	628.5831	672.021	742.642	766.0142	796.0952	840.466	890.4352	940.0296	961.2756	985.5603	1041.2591	1075.6358	1085.6399	1109.7749	1186.8667	1197.1766	1254.1911	1278.7494	1287.3206	1314.0079	1334.8444	1345.3268	1374.1738	1461.6008	1472.6575	1476.947	1498.1795	2233.2224	3048.1599	3056.2609	3076.3924	3082.1242	3105.5748	3107.3429	3130.582	3499.7714	3736.661	3800.3592
OC1CCC(O)(C1)C#C	O[C@@H]1CC[C@](O)(C1)C#C	
InChI=1S/C7H10O2/c1-2-7(9)4-3-6(8)5-7/h1,6,8-9H,3-5H2	InChI=1S/C7H10O2/c1-2-7(9)4-3-6(8)5-7/h1,6,8-9H,3-5H2/t6-,7+/m1/s1
