19
gdb 5397	2.3960524	1.4860157	1.0306205	3.9375	77.	-0.23345	-0.00659	0.22685999999999998	1191.4297	0.155033	-422.547132	-422.537773	-422.536828	-422.581274	34.319	
C	 1.306687858	-0.2493522566	 1.1526681513	-0.394716
C	 0.7210555819	 0.014155307	-0.2378305764	-0.185463
C	 1.6072940821	-0.5454943742	-1.3563069467	-0.184134
C	 1.4455444849	-2.0848494116	-1.5197254667	 0.443652
O	 1.513606181	-2.9855237143	-0.7263746769	-0.333903
C	 0.9313848135	-1.9879624797	-2.9145001782	-0.262147
C	 1.8856404087	-1.1202597359	-3.7555637338	-0.361027
C	 1.033776856	-0.4196993511	-2.7770210337	 0.419768
O	 0.1165737299	 0.5641368148	-3.0568319115	-0.451906
H	 1.4410519065	-1.3213468208	 1.3182801645	 0.148674
H	 2.2831781835	 0.2348113735	 1.2666405843	 0.109476
H	 0.6476311318	 0.1421769088	 1.9334941514	 0.109982
H	-0.2800315235	-0.4279312519	-0.3123558876	 0.105653
H	 0.5921373636	 1.0897650831	-0.403961025	 0.108132
H	 2.634909326	-0.1767691694	-1.244697349	 0.081663
H	 0.2152954533	-2.6432190024	-3.3957329516	 0.109858
H	 2.9643614422	-1.1947380989	-3.6353788984	 0.125096
H	 1.5651984953	-1.052601018	-4.7934228048	 0.116448
H	 0.0917540252	 0.7174943278	-4.0062774813	 0.294894
84.8975	114.7106	133.0968	161.5486	202.689	266.3243	306.9876	362.0208	403.261	462.4414	494.1535	596.681	673.7973	716.9583	763.0797	813.2653	861.6537	888.3644	923.7371	959.5455	985.5664	1035.1283	1066.5559	1074.7646	1094.346	1122.8789	1137.298	1164.3771	1223.4671	1242.7129	1275.5512	1322.8955	1370.2422	1386.551	1408.4447	1413.3945	1489.0089	1499.6873	1502.8752	1513.9303	1863.0996	3022.9535	3032.0307	3035.9895	3066.9637	3094.0258	3100.5689	3127.4437	3174.2011	3193.2974	3830.2208
CCC1C(=O)C2CC12O	CC[C@H]1C(=O)[C@@H]2C[C@]12O	
InChI=1S/C7H10O2/c1-2-4-6(8)5-3-7(4,5)9/h4-5,9H,2-3H2,1H3	InChI=1S/C7H10O2/c1-2-4-6(8)5-3-7(4,5)9/h4-5,9H,2-3H2,1H3/t4-,5-,7-/m0/s1
