19
gdb 1671	2.9179973	1.5184891	1.3356636	2.4833	74.66	-0.2394	-0.02864	0.21076	1028.2686	0.156318	-422.552059	-422.543849	-422.542905	-422.585133	31.41	
C	-0.0520678241	-0.386879254	 0.0797883955	-0.453234
C	 1.4078997123	 0.0509707532	-0.0221609326	 0.312959
O	 1.7423393429	 0.4908251637	-1.3622666293	-0.329764
C	 2.2441488836	 1.8240855313	-1.1332536808	 0.113862
C	 3.1717467912	 1.659343735	 0.0941897215	-0.250706
C	 1.7977306333	 1.3268516314	 0.7672628171	-0.082711
C	 1.2054459886	 2.4339803637	-0.1636608258	-0.249967
C	 2.2995254869	-1.1363662516	 0.3480782351	 0.119037
O	 2.2707607754	-1.6803320921	 1.421611086	-0.26516
H	-0.2315142546	-0.8290674885	 1.0634726183	 0.140157
H	-0.7338821628	 0.4527440658	-0.067835462	 0.1214
H	-0.2720518446	-1.1398505897	-0.683117797	 0.131213
H	 2.5435623422	 2.2677845236	-2.0809842986	 0.084317
H	 3.9443131639	 0.8888234276	 0.0487982663	 0.105385
H	 3.5909645352	 2.6019810637	 0.448249575	 0.1075
H	 1.6525735169	 1.2994323054	 1.8452262786	 0.091706
H	 0.154903866	 2.3879785836	-0.4535903744	 0.105216
H	 1.46864112	 3.437293219	 0.1755159249	 0.10644
H	 2.9789227076	-1.465611991	-0.4689998175	 0.092348
40.74	178.9735	199.9928	223.1776	289.5639	312.3854	447.5675	498.1144	510.7812	530.7235	669.7713	738.1412	836.9438	840.3815	857.4764	872.2501	909.9087	951.8584	961.0256	979.5388	992.6568	1037.9909	1043.9957	1063.1547	1102.3502	1122.4747	1164.8476	1195.7186	1211.3256	1220.2923	1249.7697	1256.7292	1288.7185	1323.9055	1381.6084	1402.4467	1476.6869	1488.3882	1494.4991	1517.509	1827.0256	2891.049	3048.5253	3074.3037	3080.5	3120.2436	3134.7887	3139.2017	3141.899	3143.9502	3146.4231
CC1(OC2CC1C2)C=O	C[C@]1(O[C@@H]2C[C@H]1C2)C=O	
InChI=1S/C7H10O2/c1-7(4-8)5-2-6(3-5)9-7/h4-6H,2-3H2,1H3	InChI=1S/C7H10O2/c1-7(4-8)5-2-6(3-5)9-7/h4-6H,2-3H2,1H3/t5-,6+,7-/m0/s1
