19
gdb 918	4.6597045	0.7762813	0.74297	1.7753	77.	-0.24736	-0.02469	0.22267	1529.5253	0.15511	-422.51959	-422.510417	-422.509473	-422.555032	32.211	
O	 1.4194024136	-0.4969139117	-0.0585291781	-0.235613
C	 0.2783429623	-0.1191981425	-0.0043300733	 0.171848
C	-0.303234937	 0.7229071863	 1.1131075831	-0.30644
C	-0.9562472546	 1.9847940692	 0.5753413623	-0.083036
C	-0.1147794753	 3.2090030328	 0.2749924065	-0.34999
C	-1.0674165992	 3.2118979912	 1.4299516881	 0.27941
C	-2.2879574069	 4.0954389173	 1.6696470536	-0.13585
O	-1.9711791168	 4.1858616443	 3.0756758852	-0.27425
C	-0.7844582314	 3.3773274154	 2.9208562689	-0.135513
H	-0.4482084695	-0.3720130728	-0.8123699739	 0.072201
H	-1.05324179	 0.1125025182	 1.6377588487	 0.123371
H	 0.4987013275	 0.9524359012	 1.8211138117	 0.1226
H	-1.7925612327	 1.8065614197	-0.0982214834	 0.093298
H	 0.9480322585	 3.156278327	 0.493900967	 0.125551
H	-0.3615067859	 3.805343396	-0.5978051409	 0.118933
H	-2.2687351026	 5.0784700006	 1.1801719303	 0.103887
H	-3.2661837485	 3.626939693	 1.4968801641	 0.101492
H	 0.1275779871	 3.9329813381	 3.1755764793	 0.105206
H	-0.8284710587	 2.4640061966	 3.529226531	 0.102895
43.951	63.0169	88.1097	141.2889	192.7208	267.0997	325.2887	400.6123	436.4908	519.762	587.6912	758.7729	848.2876	862.8667	870.9347	886.555	929.6706	982.1078	994.2521	1031.852	1047.1759	1056.3293	1084.1567	1105.0425	1132.1684	1151.9662	1156.4452	1166.7278	1209.8884	1245.1934	1289.4881	1311.4307	1324.6168	1381.4337	1430.0206	1439.3212	1460.7149	1501.7746	1510.3669	1534.9235	1837.4783	2854.989	2994.8327	3005.7167	3007.9902	3039.8976	3041.8804	3091.4653	3120.0245	3124.0963	3205.5186
O=CCC1CC11COC1	O=CC[C@@H]1CC21COC2	
InChI=1S/C7H10O2/c8-2-1-6-3-7(6)4-9-5-7/h2,6H,1,3-5H2	InChI=1S/C7H10O2/c8-2-1-6-3-7(6)4-9-5-7/h2,6H,1,3-5H2/t6-/m1/s1
