19
gdb 2414	2.5339916	1.7807166	1.3014453	0.471	76.58	-0.23274	0.01264	0.24538000000000001	1017.0343	0.157337	-422.548795	-422.540718	-422.539773	-422.581048	31.633	
O	 0.4748778196	 0.525678545	 0.9954166482	-0.48425
C	-0.760161952	 1.0179728241	 0.492017681	 0.347283
C	-1.8182816675	-0.1134594064	 0.2597029267	-0.284944
C	-2.4612228688	 0.2546759637	 1.6292170126	-0.257146
C	-1.694705829	 1.5968097779	 1.6025247401	 0.066327
O	-2.5621367899	 2.599386839	 1.1115565151	-0.264378
C	-1.9013217123	 3.6722480909	 0.4649468828	-0.126291
C	-0.9291605106	 3.2164865766	-0.5916088894	-0.085698
C	-0.4312200608	 1.9837711546	-0.5989760216	-0.089438
H	 0.2893789924	-0.182421177	 1.6213367952	 0.279662
H	-2.4789802741	 0.1035675066	-0.5814671079	 0.116841
H	-1.4068845863	-1.1192551364	 0.1393363047	 0.096379
H	-3.5469632563	 0.3528480862	 1.6645939018	 0.115123
H	-2.1388504668	-0.3977574954	 2.4456193517	 0.096023
H	-1.1771357532	 1.9258472745	 2.5162493517	 0.060758
H	-2.6938139519	 4.2823424222	 0.0173881318	 0.116599
H	-1.3832709988	 4.3141294565	 1.2009274191	 0.102178
H	-0.6516848708	 3.9435609982	-1.3500124999	 0.097278
H	 0.2655324669	 1.6480947694	-1.3622313738	 0.097693
94.0588	185.0116	235.259	242.0035	311.8375	350.3706	415.0069	469.1898	482.9975	516.582	633.4761	705.2399	731.6717	807.3426	860.9951	880.3443	918.769	943.1956	966.531	993.105	996.4491	1042.9071	1052.4799	1099.4454	1124.9246	1155.8817	1166.5773	1191.0273	1221.3937	1246.4316	1266.3441	1270.3904	1288.9161	1348.5869	1365.7041	1402.062	1433.0442	1467.1654	1482.7215	1488.7227	1725.0101	2939.9411	2987.6605	3058.5405	3060.7315	3067.0076	3119.5374	3134.2772	3155.3964	3177.5047	3806.5172	94.0589	185.0117	235.259	242.0033	311.8375	350.3706	415.0069	469.1898	482.9975	516.582	633.4761	705.2399	731.6717	807.3426	860.9951	880.3443	918.769	943.1956	966.531	993.1051	996.4491	1042.907	1052.4799	1099.4454	1124.9245	1155.8817	1166.5772	1191.0273	1221.3936	1246.4316	1266.3441	1270.3901	1288.9159	1348.5866	1365.7043	1402.0617	1433.0442	1467.1655	1482.7215	1488.7223	1725.0101	2939.9411	2987.6605	3058.5405	3060.7315	3067.0076	3119.5374	3134.2772	3155.3965	3177.5048	3806.517
OC12CCC1OCC=C2	O[C@@]12CC[C@@H]1OCC=C2	
InChI=1S/C7H10O2/c8-7-3-1-5-9-6(7)2-4-7/h1,3,6,8H,2,4-5H2	InChI=1S/C7H10O2/c8-7-3-1-5-9-6(7)2-4-7/h1,3,6,8H,2,4-5H2/t6-,7-/m0/s1
