19
gdb 5206	3.807044	1.1729936	1.0880963	1.0757	75.09	-0.2384	0.08034	0.31874	1170.8476	0.156298	-422.491175	-422.48281	-422.481866	-422.523959	32.104	
C	 1.4089048682	 0.1644348084	 0.0227399102	-0.260272
O	 0.0096665777	-0.0180483386	 0.1757060015	-0.283747
C	-0.5023831909	 0.5869540758	 1.2954094896	 0.449101
C	-0.3875408378	 0.1174906446	 2.746979865	-0.312885
C	-1.5674316355	 1.0948822368	 3.0106091274	-0.109264
C	-1.9170884331	 1.0433647642	 1.4628876189	-0.194131
C	-0.8194850057	 2.0984773918	 1.3164582177	-0.18687
C	-0.9604630263	 2.5110561674	 2.7790724503	 0.161283
O	-1.851776928	 3.5807850732	 3.0033564056	-0.445245
H	 1.9680655896	-0.277323594	 0.8588842785	 0.115642
H	 1.6960679168	-0.3404320187	-0.901850652	 0.129148
H	 1.6680883976	 1.229602406	-0.0485025718	 0.113107
H	-0.6905950993	-0.9290951638	 2.8432278623	 0.106009
H	 0.542322746	 0.2909240744	 3.3012148396	 0.090794
H	-2.2632420473	 0.9324617195	 3.8308494122	 0.078958
H	-2.8080545099	 0.8304671944	 0.8911375471	 0.100373
H	-0.6052489109	 2.7161994019	 0.4526923059	 0.090755
H	-0.0571076699	 2.7578490865	 3.347558227	 0.078779
H	-2.6128025012	 3.4477862202	 2.4250961549	 0.278465
93.6997	151.4175	164.4522	231.5768	293.5894	349.5441	383.9382	415.6089	478.2547	489.8701	640.2733	743.8998	791.6363	829.1669	840.6836	889.8376	924.6347	931.0233	955.2782	982.4506	1018.3787	1036.6208	1064.2695	1093.7215	1119.1647	1133.1849	1141.1457	1178.1425	1183.6152	1204.8608	1228.5287	1252.0016	1276.7647	1289.3998	1303.6114	1397.7612	1433.4743	1483.3126	1488.4621	1504.6631	1509.2609	2997.2823	3030.698	3052.3978	3053.2805	3096.1479	3126.2166	3143.173	3192.4588	3229.1857	3781.1502
COC12CC3C1C2C3O	CO[C@]12C[C@@H]3[C@H]1[C@H]2[C@H]3O	
InChI=1S/C7H10O2/c1-9-7-2-3-4(7)5(7)6(3)8/h3-6,8H,2H2,1H3	InChI=1S/C7H10O2/c1-9-7-2-3-4(7)5(7)6(3)8/h3-6,8H,2H2,1H3/t3-,4+,5+,6+,7-/m1/s1
