19
gdb 1800	2.9702384	1.7531886	1.429634	1.5381	73.32	-0.24172	0.06992	0.31164	965.3408	0.158352	-422.523251	-422.516017	-422.515073	-422.554464	29.329	
C	-0.0154437323	-0.2594861235	-0.1325920949	-0.501603
C	 1.4829175012	-0.2042513271	-0.0443043627	 0.404391
C	 2.4280607744	-0.2670861863	-1.2743734842	-0.287885
C	 3.2785795392	 0.5654990752	-0.3038024867	 0.049961
O	 2.0433896601	 1.1378651247	 0.2365365006	-0.334775
C	 3.628105175	-0.4265530519	 0.8333379457	 0.122338
O	 4.1405670296	-1.7201936446	 0.4345819752	-0.300685
C	 2.8765239416	-2.3590758464	 0.7362152215	-0.11296
C	 2.2141993326	-1.0057259242	 1.0636903393	-0.094922
H	-0.4674821826	 0.0277683684	 0.822507724	 0.130017
H	-0.3872071463	 0.4156159865	-0.9079208631	 0.129285
H	-0.3433669719	-1.2767834205	-0.3715229469	 0.124295
H	 2.8095287355	-1.2227579937	-1.6344923362	 0.115346
H	 2.0413369795	 0.3448594123	-2.0898289133	 0.107323
H	 4.0137883762	 1.3048079721	-0.6186581504	 0.079315
H	 4.1969625883	 0.0150360293	 1.6552790214	 0.0817
H	 2.4773996248	-2.9206960315	-0.1175455539	 0.100262
H	 2.9703388463	-3.0336186262	 1.5954856289	 0.1056
H	 1.7350376887	-0.8998376724	 2.0364334858	 0.082998
176.8318	194.6808	251.8102	309.3773	321.7668	428.2507	524.4005	544.6422	588.7687	687.9527	768.5232	824.4666	839.2971	851.4001	885.1841	922.5163	947.4048	973.5948	989.7338	1009.2169	1011.0342	1027.8853	1065.9848	1078.2763	1132.0612	1152.8135	1173.9371	1214.717	1216.9732	1248.1241	1255.7036	1263.5032	1296.9008	1329.098	1352.8855	1365.4	1416.1668	1478.8385	1489.2191	1494.5114	1521.3828	3015.6479	3037.105	3058.7019	3080.7898	3089.1033	3105.0045	3118.5012	3119.6507	3133.5115	3154.895
CC12CC(O1)C1OCC21	C[C@@]12C[C@@H](O1)[C@@H]1OC[C@H]21	
InChI=1S/C7H10O2/c1-7-2-5(9-7)6-4(7)3-8-6/h4-6H,2-3H2,1H3	InChI=1S/C7H10O2/c1-7-2-5(9-7)6-4(7)3-8-6/h4-6H,2-3H2,1H3/t4-,5+,6+,7-/m0/s1
