19
gdb 5364	4.2212507	1.0235402	0.9307387	2.518	77.66	-0.24295	0.00841	0.25136000000000003	1286.7191	0.158155	-422.549075	-422.540867	-422.539923	-422.582278	30.786	
O	 1.9494071484	 0.4730395294	-0.1519927143	-0.412137
C	 0.5648062245	 0.7560118594	 0.0435424355	-0.172696
C	-0.2543424582	 0.4546877152	-1.1743242418	 0.299169
C	-1.3065247251	-0.3686234278	-1.2394526137	-0.199119
C	-1.9169933197	-0.4330550896	-2.6100246893	-0.112977
C	-3.0907415728	 0.5434175638	-2.8669286146	-0.074299
O	-2.196016476	 1.5288968828	-3.4213083778	-0.292256
C	-1.0830693804	 0.6026061279	-3.4155021309	 0.117621
C	 0.0743742095	 1.0666862736	-2.5242437826	-0.311879
H	 2.0212180964	-0.4652925825	-0.3567267658	 0.281981
H	 0.162363665	 0.2186384581	 0.9153294878	 0.091755
H	 0.525753728	 1.8278575945	 0.2730883049	 0.118294
H	-1.7083404288	-0.9182049907	-0.3935451045	 0.090568
H	-2.0419372424	-1.4455468618	-3.0016663488	 0.079853
H	-3.8186808701	 0.1902182652	-3.6100624785	 0.094835
H	-3.6251840156	 0.9174731439	-1.98594565	 0.101609
H	-0.7843036531	 0.3394866201	-4.43608206	 0.070503
H	 1.0530293148	 0.7320029785	-2.8884091762	 0.107584
H	 0.1070098554	 2.1625626399	-2.4902655095	 0.121592
72.1098	111.7617	150.8882	222.029	294.4212	369.8279	386.4357	464.042	499.3802	656.143	672.0011	814.8486	855.9891	865.0122	866.7943	890.7039	904.736	965.4641	1004.7582	1015.3213	1038.5373	1049.8046	1066.4343	1079.9138	1152.2964	1161.1044	1180.7447	1202.7272	1237.3062	1261.9394	1283.0589	1315.899	1325.1524	1355.4991	1359.8706	1384.8953	1413.729	1465.9948	1494.9423	1521.8648	1703.8456	2991.3625	3003.1164	3029.2386	3045.3862	3053.6016	3057.916	3066.831	3078.9899	3177.2362	3808.4989
OCC1=CC2COC2C1	OCC1=C[C@H]2CO[C@H]2C1	
InChI=1S/C7H10O2/c8-3-5-1-6-4-9-7(6)2-5/h1,6-8H,2-4H2	InChI=1S/C7H10O2/c8-3-5-1-6-4-9-7(6)2-5/h1,6-8H,2-4H2/t6-,7-/m0/s1
