19
gdb 4694	3.7428396	0.775934	0.7398062	2.2511	78.81	-0.24325	-0.01301	0.23024	1597.5333	0.152633	-422.541579	-422.530749	-422.529805	-422.578418	37.762	
C	 6.9334551863	 1.058293097	 0.8086583675	-0.388924
C	 5.4280841971	 0.9979756184	 0.5596007292	-0.282287
C	 4.6906630468	 0.0951962384	 1.5372485035	 0.390498
O	 5.2742231216	-0.6322689483	 2.3068134815	-0.301116
C	 3.1615658412	 0.1503059497	 1.5371103974	-0.318458
C	 2.5364501275	 0.0345014316	 0.1309859473	-0.074871
O	 3.090740253	-1.0583665594	-0.5964726461	-0.4151
C	 1.0760417804	-0.0439655412	 0.2137297916	 0.293508
C	-0.1179312738	-0.1446106642	 0.3091431782	-0.412806
H	 7.1522452108	 1.4718780167	 1.7969934827	 0.12593
H	 7.370169703	 0.0578497947	 0.7714540394	 0.137518
H	 7.4246654414	 1.682502786	 0.0571751902	 0.10969
H	 4.9742812793	 1.9980893698	 0.5911217779	 0.111488
H	 5.2157553427	 0.6101971984	-0.4459302547	 0.149141
H	 2.8007879998	-0.6573554136	 2.1801576984	 0.124828
H	 2.842045631	 1.0986037548	 1.9887159696	 0.130025
H	 2.8085373855	 0.9177758086	-0.4578320407	 0.125712
H	 2.7942624815	-1.8736294663	-0.1753525049	 0.291783
H	-1.1752569952	-0.2223077412	 0.3765509619	 0.20344
50.1853	56.3013	86.3651	115.5486	171.7932	199.4824	228.2033	267.6503	314.2544	364.8565	430.4197	458.1946	552.521	566.5583	636.888	643.6171	677.594	758.4408	771.9353	866.9092	932.9361	997.3408	1011.7272	1060.6951	1083.2468	1104.0845	1145.34	1206.6302	1267.2743	1286.0478	1300.1439	1355.5663	1373.5579	1412.4773	1418.9143	1456.7984	1461.6348	1493.0544	1498.896	1810.2796	2234.0157	3018.137	3035.0923	3048.5873	3050.5962	3052.8849	3103.2149	3119.9281	3132.3047	3501.9237	3799.6404
CCC(=O)CC(O)C#C	CCC(=O)C[C@@H](O)C#C	
InChI=1S/C7H10O2/c1-3-6(8)5-7(9)4-2/h1,6,8H,4-5H2,2H3	InChI=1S/C7H10O2/c1-3-6(8)5-7(9)4-2/h1,6,8H,4-5H2,2H3/t6-/m0/s1
