19
gdb 5477	3.7891511	1.0372404	0.9577245	0.7529	75.64	-0.20398	0.07907	0.28305	1289.6194	0.155007	-422.461229	-422.452531	-422.451587	-422.494323	33.383	
C	 1.4526881423	 0.0751761285	 0.0618701345	-0.23683
O	 0.0396656137	 0.1194726268	 0.1012850355	-0.251324
C	-0.4511504387	 0.6970767062	 1.2702215619	 0.097339
C	-1.8395573064	 0.2497665717	 1.6059002265	-0.090784
C	-2.4506815192	 0.9145947364	 2.8681763009	-0.165624
C	-1.5022638116	 1.8599474796	 3.5961048919	-0.337222
C	-1.2819847495	 0.3902469931	 3.6992249433	 0.40217
O	-1.2268118119	-0.2082079835	 4.9422716866	-0.450416
C	-0.6634255491	-0.262498842	 2.4274822731	-0.197993
H	 1.8635810162	-0.5247849754	 0.8862410195	 0.109829
H	 1.7333723034	-0.3807856622	-0.8902170753	 0.12762
H	 1.8900322556	 1.0835353491	 0.1166553102	 0.107636
H	-0.1089142107	 1.7198935333	 1.4245484986	 0.084991
H	-2.4243142933	-0.2953710613	 0.8763871905	 0.098224
H	-3.5134961279	 0.9236651018	 3.0738245802	 0.094025
H	-0.8313396624	 2.5516105612	 3.0983755432	 0.11346
H	-1.9483890757	 2.2665186586	 4.4993033968	 0.119416
H	-1.5833063133	-1.1006328646	 4.8624043038	 0.284943
H	-0.2212744414	-1.2513265674	 2.4183952482	 0.09054
92.9607	157.6133	170.0681	224.0091	256.6511	345.1074	380.9428	399.2231	417.6414	466.9917	512.5146	628.8433	741.1518	786.8408	860.0733	872.3871	882.507	901.5085	944.6188	974.1811	984.9524	1013.5131	1034.2324	1067.0681	1078.2178	1104.4611	1138.5396	1169.7555	1171.9097	1183.2142	1230.3328	1241.2434	1265.3895	1287.1158	1313.326	1393.0994	1440.4526	1482.6061	1485.1265	1506.8133	1511.115	2984.5066	3035.953	3092.6161	3120.5522	3129.6403	3185.7512	3191.1624	3201.4508	3205.5845	3782.934
COC1C2C3CC3(O)C12	CO[C@H]1[C@@H]2[C@@H]3C[C@]3(O)[C@H]12	
InChI=1S/C7H10O2/c1-9-6-4-3-2-7(3,8)5(4)6/h3-6,8H,2H2,1H3	InChI=1S/C7H10O2/c1-9-6-4-3-2-7(3,8)5(4)6/h3-6,8H,2H2,1H3/t3-,4+,5-,6-,7+/m0/s1
