19
gdb 5453	3.392457	1.261507	1.1056599	2.7399	75.04	-0.24202	0.07952	0.32154	1155.6978	0.156834	-422.495807	-422.487567	-422.486623	-422.528678	31.473	
C	 1.3238193727	-0.0457425685	-0.1517821396	-0.239571
O	-0.0665783081	 0.1166044787	 0.0143782305	-0.249023
C	-0.4194834334	 0.6808688998	 1.2490476701	 0.16543
C	-0.220355936	 2.1763837284	 1.5265635441	-0.119373
C	-1.4116916399	 2.9177828194	 0.9241913452	-0.114415
C	-1.5399925292	 2.2256874222	 2.2674665699	-0.121491
C	-1.9261616612	 0.9330182496	 1.4350991214	-0.169054
C	-2.3110108659	 1.8754162548	 0.254771575	 0.166413
O	-3.6737133479	 2.2349806736	 0.2192182802	-0.447614
H	 1.7544325471	-0.6885163664	 0.632406567	 0.103176
H	 1.4839511884	-0.5200411681	-1.1227861112	 0.128472
H	 1.8548334871	 0.9178099694	-0.1371970303	 0.107694
H	-0.0005633018	 0.0898392283	 2.0787774399	 0.065194
H	 0.6908737857	 2.7000966524	 1.7862459997	 0.088047
H	-1.3639464183	 3.9799856784	 0.7176279887	 0.089735
H	-1.7679181795	 2.5744453864	 3.263108341	 0.095005
H	-2.603693027	 0.1349137663	 1.7306692951	 0.075964
H	-2.058918619	 1.5308688073	-0.7499078901	 0.09968
H	-3.8968071639	 2.611308898	 1.0794397434	 0.27573
77.3019	142.3291	177.4622	247.5654	278.7091	314.7962	380.998	418.8439	547.122	602.0392	734.2861	784.6823	799.8359	821.8277	839.1737	910.2588	918.2685	967.5379	1001.357	1003.9426	1019.8943	1033.8962	1046.256	1058.2193	1116.0621	1147.584	1161.0615	1169.1776	1183.1218	1190.0326	1233.6488	1249.7402	1275.3119	1287.852	1319.906	1358.6535	1389.3688	1432.9099	1483.2005	1488.3123	1508.2732	2972.3956	2983.0008	3022.8876	3103.5965	3116.3438	3144.675	3189.1256	3197.2213	3233.5693	3778.3461
COC1C2C3C2C1C3O	CO[C@H]1[C@H]2[C@@H]3[C@H]2[C@H]1[C@H]3O	
InChI=1S/C7H10O2/c1-9-7-4-2-3(4)6(8)5(2)7/h2-8H,1H3	InChI=1S/C7H10O2/c1-9-7-4-2-3(4)6(8)5(2)7/h2-8H,1H3/t2-,3+,4-,5+,6+,7+/m1/s1
