19
gdb 6072	3.5493551	0.7138033	0.6031589	3.3311	79.77	-0.24792	-0.01755	0.23037	1826.4376	0.151939	-422.525207	-422.514265	-422.513321	-422.563304	36.988	
C	 2.2723322055	 3.2987462392	-1.836721642	-0.388118
C	 1.6164158639	 2.1020273279	-1.1714799794	-0.030417
O	 1.7882248149	 2.2131783924	 0.2313633684	-0.2421
C	 1.2163335312	 1.1520290204	 0.9509357468	-0.162167
C	 1.4296473151	 1.319467344	 2.4559367928	 0.343811
O	 0.9991386945	 0.4935472395	 3.2182152847	-0.279425
C	 2.201876223	 2.568902547	 2.8913779721	-0.476289
C	 2.3815037288	 2.6878437616	 4.3267685004	 0.311853
C	 2.5339300197	 2.7928439983	 5.5129772571	-0.41586
H	 3.3404845197	 3.3307774948	-1.6043085128	 0.129715
H	 2.155282897	 3.2394870898	-2.9226730789	 0.12134
H	 1.8165452465	 4.2301024841	-1.4891249024	 0.129718
H	 0.5418730547	 2.0601536615	-1.414393954	 0.094223
H	 2.0653758358	 1.1610178032	-1.5297321016	 0.094217
H	 0.1299782088	 1.07825223	 0.7760050079	 0.124739
H	 1.6502242398	 0.1806408894	 0.6604435275	 0.124725
H	 3.1641482918	 2.5609203095	 2.3628688941	 0.162001
H	 1.6782077959	 3.4398585411	 2.4759802194	 0.162029
H	 2.6661616335	 2.8812454863	 6.5626376301	 0.196002
29.4559	49.3483	82.8022	87.5265	120.0759	157.5735	245.1015	269.5742	328.8765	368.1878	397.7853	467.9587	507.5274	625.5743	628.7135	644.5112	815.3178	818.5157	827.6145	906.2274	987.7109	1026.684	1052.7579	1114.9026	1156.7833	1178.484	1184.2769	1204.3526	1254.5963	1298.3776	1335.363	1362.3591	1404.1296	1420.8347	1435.5241	1482.053	1483.795	1500.1038	1530.9354	1830.9643	2250.5046	2960.86	2970.5406	2990.6747	2996.8908	3032.7351	3046.9929	3055.2219	3122.5109	3123.3204	3508.0899
CCOCC(=O)CC#C	CCOCC(=O)CC#C	
InChI=1S/C7H10O2/c1-3-5-7(8)6-9-4-2/h1H,4-6H2,2H3	InChI=1S/C7H10O2/c1-3-5-7(8)6-9-4-2/h1H,4-6H2,2H3
