19
gdb 2722	2.0777904	1.5557357	1.4291109	1.7838	76.02	-0.23496	0.00981	0.24477	1076.3492	0.154358	-422.543628	-422.533955	-422.533011	-422.577643	35.223	
C	-1.0261992551	 0.0463999913	 2.5146662566	-0.448869
C	-1.5491958699	 0.0021509486	 1.0897765193	-0.053016
C	-0.9456509276	 0.9470974496	-0.0249159275	 0.175067
C	-0.9631653928	 2.4462750957	-0.0801793739	-0.514398
C	-1.5412869055	-0.0710385251	-1.0624058941	-0.334804
C	-0.9255207038	-0.9972691504	 0.0528068119	 0.278691
O	-0.9390628286	-2.3667109443	 0.1370106035	-0.469312
C	 0.2505182094	-0.0190631729	 0.0044828891	 0.342017
O	 1.445860764	-0.028331414	-0.0185252867	-0.349776
H	-1.3502122944	-0.8412402109	 3.0676060403	 0.131643
H	 0.0678951611	 0.0800521135	 2.5494015436	 0.133897
H	-1.4065243068	 0.9253122901	 3.0458644581	 0.121209
H	-2.6437501505	-0.009869073	 1.0532466806	 0.078555
H	-0.4705733842	 2.874850942	 0.7986823551	 0.132696
H	-0.4341191204	 2.8100216546	-0.9668135826	 0.13356
H	-1.9869254792	 2.8325397031	-0.1157425152	 0.125133
H	-2.6329056017	-0.0864997298	-1.1028276856	 0.108595
H	-1.0904411557	-0.0990482764	-2.0564954002	 0.107547
H	-0.0508145482	-2.6882875116	-0.0562674424	 0.301566
110.3537	146.9322	169.1712	174.124	196.8954	204.6	232.9461	242.5938	341.4446	465.1588	544.5665	546.0661	604.7199	678.2252	718.9935	749.7461	828.3067	845.0264	861.1368	963.8848	999.376	1018.7478	1070.5968	1091.2106	1106.6143	1128.3593	1141.0585	1172.7529	1192.6955	1319.7783	1336.4599	1379.8088	1411.0332	1417.6511	1434.1566	1488.7484	1489.1568	1493.3992	1498.0113	1519.309	1900.1695	3032.5593	3034.5407	3052.7957	3062.1674	3099.5864	3101.6471	3103.7342	3105.1566	3135.5727	3797.5464
CC1C2(C)CC1(O)C2=O	C[C@H]1[C@]2(C)C[C@@]1(O)C2=O	
InChI=1S/C7H10O2/c1-4-6(2)3-7(4,9)5(6)8/h4,9H,3H2,1-2H3	InChI=1S/C7H10O2/c1-4-6(2)3-7(4,9)5(6)8/h4,9H,3H2,1-2H3/t4-,6-,7-/m0/s1
