19
gdb 1737	2.0949513	2.0460688	1.6269361	1.9487	74.12	-0.22799	0.06571	0.2937	954.7084	0.157063	-422.536305	-422.528309	-422.527365	-422.568077	31.837	
C	 0.0868071787	 0.200409073	-0.1712742215	-0.481624
C	 1.5258905467	 0.0044554969	 0.2309829611	 0.335179
C	 2.0598166296	 0.6742442598	 1.5501687239	-0.275594
C	 3.3188500055	 1.0818677845	 0.7845685534	-0.168429
C	 3.7986651983	-0.106804412	-0.0677490947	-0.119273
C	 3.2740146033	-1.4959972816	 0.274792649	-0.108534
O	 1.8470353893	-1.3859890548	 0.2063125313	-0.303153
C	 2.6698809997	 0.7277052653	-0.5473253993	 0.339684
O	 2.6282708833	 1.3285100233	-1.7859245495	-0.456413
H	-0.5801389166	-0.3157411536	 0.5256017771	 0.130738
H	-0.1761812537	 1.2629785118	-0.1711188104	 0.105699
H	-0.0834359079	-0.2022469154	-1.1739174713	 0.134324
H	 1.4607549133	 1.5405436288	 1.8467354527	 0.094273
H	 2.1650712397	-0.0010518654	 2.4051968321	 0.097991
H	 4.0003709678	 1.8877692675	 1.0303553029	 0.08737
H	 4.7658350397	 0.0112452623	-0.5414741012	 0.097856
H	 3.6026928909	-2.2478890173	-0.4521580862	 0.106967
H	 3.5822189444	-1.8319206997	 1.2748553735	 0.095327
H	 2.078143658	 2.1173224967	-1.7251866129	 0.287611
188.6003	197.344	211.8068	235.84	321.2221	345.7027	362.2639	453.9129	483.1197	579.8215	647.0762	668.6544	747.2907	772.7229	832.536	872.0058	890.6157	933.9001	947.1108	982.0075	1004.8103	1023.3336	1064.5323	1083.1805	1114.6858	1122.2048	1164.1135	1193.017	1217.3341	1228.4267	1246.7554	1286.0685	1324.0536	1335.9579	1372.4907	1411.7962	1469.396	1484.1592	1492.3357	1498.7489	1525.771	3000.3907	3038.8155	3043.3736	3050.6795	3093.7489	3110.5949	3118.5412	3180.969	3196.1662	3794.2634
CC12CC3C(CO1)C23O	C[C@@]12C[C@H]3[C@@H](CO1)[C@@]23O	
InChI=1S/C7H10O2/c1-6-2-4-5(3-9-6)7(4,6)8/h4-5,8H,2-3H2,1H3	InChI=1S/C7H10O2/c1-6-2-4-5(3-9-6)7(4,6)8/h4-5,8H,2-3H2,1H3/t4-,5+,6-,7+/m0/s1
