19
gdb 4151	2.6202001	1.4656353	1.1537078	1.7929	75.64	-0.26038	0.00484	0.26522	1120.399	0.155987	-422.552589	-422.543819	-422.542874	-422.586322	32.422	
C	-2.3148350546	 1.936259833	-1.7447941315	-0.408502
C	-2.3738497206	 1.8717050704	-0.2250238248	-0.044222
C	-2.736500722	 3.165398589	 0.5946410165	-0.24648
C	-1.4579508156	 2.990070561	 1.4255015858	-0.147904
C	-0.2472206494	 3.0320400303	 0.5150502161	-0.32822
C	-1.0749694352	 1.7909342904	 0.585499177	 0.478489
O	-0.5342674914	 0.5847014206	 1.0797407793	-0.25597
C	 0.1518898087	-0.1741964721	 0.2052702648	 0.148594
O	 0.3260165702	 0.0574798207	-0.9575548629	-0.291815
H	-1.9167044074	 1.0077929108	-2.1613739513	 0.139127
H	-3.3139591545	 2.1053885164	-2.1611837714	 0.108728
H	-1.6706996331	 2.753047021	-2.0857503512	 0.115416
H	-3.0322255725	 1.0564203436	 0.0923811644	 0.082678
H	-2.7869942067	 4.0911574016	 0.0122075453	 0.100179
H	-3.6584525651	 3.0599748198	 1.1695951009	 0.107163
H	-1.3666951952	 3.1312045743	 2.4948964991	 0.098986
H	-0.2318095506	 3.6544583137	-0.3758138244	 0.114814
H	 0.7050131414	 2.9573510114	 1.0298965805	 0.12006
H	 0.5295972637	-1.0600521161	 0.7391902479	 0.108879
50.634	126.0349	185.6294	211.8676	229.3031	258.4713	349.1259	387.8049	467.5633	492.4302	605.6335	669.3616	781.0525	815.677	846.0344	873.6633	928.9821	959.4918	973.5502	1016.5657	1026.2281	1044.3483	1078.3627	1090.9863	1111.8226	1144.59	1167.0232	1189.7993	1228.6729	1232.1905	1247.9532	1293.5992	1364.8218	1381.2001	1410.8303	1417.1905	1479.9141	1492.606	1497.7077	1504.1164	1826.1543	3029.1939	3036.6518	3050.0194	3052.0394	3099.8118	3112.9249	3116.084	3124.8587	3194.6235	3209.5373
CC1CC2CC12OC=O	C[C@@H]1C[C@@H]2C[C@]12OC=O	
InChI=1S/C7H10O2/c1-5-2-6-3-7(5,6)9-4-8/h4-6H,2-3H2,1H3	InChI=1S/C7H10O2/c1-5-2-6-3-7(5,6)9-4-8/h4-6H,2-3H2,1H3/t5-,6-,7+/m1/s1
