19
gdb 2398	2.6543841	1.6204207	1.3618639	3.1272	75.2	-0.23978	0.05764	0.29742	1029.5164	0.155877	-422.502161	-422.493889	-422.492945	-422.534904	31.576	
C	 0.1978741451	 0.7565419526	 0.150319745	-0.491967
C	 1.5768557408	 0.1793167324	-0.0244200077	 0.35909
O	 1.5794634826	-1.0148707867	-0.8481152097	-0.321515
C	 2.5707540108	-0.4625040137	-1.7449108343	-0.082005
C	 2.7744378892	 0.7676389813	-0.8529305179	-0.134839
C	 3.7339693953	 0.5150604232	 0.3465148035	-0.34552
C	 2.5299354801	 0.033169377	 1.1721799047	 0.423846
C	 2.2575813633	 0.2308331394	 2.5988871538	-0.263318
O	 2.5317612605	-1.0667137653	 2.0551622738	-0.260217
H	-0.4347486632	 0.0504798118	 0.700174222	 0.137675
H	 0.230964358	 1.6968913593	 0.7092739978	 0.116968
H	-0.2699579035	 0.9403283089	-0.8211846121	 0.125246
H	 3.4357786719	-1.1250754432	-1.8706543071	 0.103505
H	 2.137600552	-0.249277062	-2.7310434602	 0.099428
H	 2.7742024385	 1.7569200139	-1.3070401663	 0.079441
H	 4.4973312543	-0.2474752705	 0.1686477652	 0.117067
H	 4.2177423669	 1.4118667598	 0.7414185628	 0.109044
H	 3.0357095767	 0.6462074544	 3.2390315196	 0.113009
H	 1.2370666907	 0.3833158673	 2.9476208671	 0.115061
66.7682	191.6577	207.4518	225.9789	256.2477	324.7687	381.893	410.5231	484.8095	551.3119	642.2147	764.5507	809.7132	844.6028	868.2829	883.2764	908.7664	920.8805	961.4415	1009.7298	1029.3775	1089.2999	1104.9539	1123.42	1130.6807	1147.5842	1152.4192	1164.9609	1184.0061	1204.1798	1248.9263	1294.6054	1319.6693	1352.4526	1406.0615	1423.1615	1473.7189	1480.8658	1489.1479	1523.2383	1530.8491	3006.5641	3033.3306	3052.5785	3058.5213	3077.1917	3102.5116	3109.4099	3114.5669	3128.6908	3164.2605
CC12OCC1CC21CO1	C[C@@]12OC[C@@H]1C[C@]12CO1	
InChI=1S/C7H10O2/c1-6-5(3-8-6)2-7(6)4-9-7/h5H,2-4H2,1H3	InChI=1S/C7H10O2/c1-6-5(3-8-6)2-7(6)4-9-7/h5H,2-4H2,1H3/t5-,6+,7+/m0/s1
