19
gdb 6043	3.0093478	0.9795182	0.8995828	2.414	79.86	-0.23899	0.04053	0.27952	1391.9349	0.153836	-422.490929	-422.480932	-422.479988	-422.525884	36.432	
C	 1.2370959845	-0.3576592921	 0.0822112221	-0.230485
O	-0.1392143979	-0.2578067689	 0.3765465287	-0.245029
C	-0.4527047977	 0.8867444368	 1.1630790862	-0.091051
C	-1.9484992977	 0.9390569178	 1.3387356255	-0.101018
C	-2.5529019464	 1.1503464129	 2.7058284814	-0.337532
C	-2.5899533555	-0.2258868233	 2.0826758031	 0.221738
O	-1.7166355764	-1.1676070536	 2.6419392637	-0.458801
C	-3.843421699	-0.7468060075	 1.5973055894	 0.30229
C	-4.8836579921	-1.1897652426	 1.1870438734	-0.459941
H	 1.8467181271	-0.4299813071	 0.9962318553	 0.110001
H	 1.3795116118	-1.2627506884	-0.5126359964	 0.131808
H	 1.588775308	 0.509101902	-0.4978181691	 0.11042
H	 0.0530866919	 0.8169948482	 2.1369012723	 0.102147
H	-0.0885912332	 1.7988263887	 0.6640985209	 0.0966
H	-2.5048047801	 1.3155112047	 0.4872549952	 0.10838
H	-1.8753686573	 1.2604212756	 3.5454231066	 0.128216
H	-3.4821573257	 1.7016220898	 2.7801917964	 0.127872
H	-1.1840798216	-1.5058183954	 1.9086399618	 0.291935
H	-5.8016210127	-1.5865291675	 0.8303491534	 0.19245
77.6275	90.7437	116.0515	161.4639	206.0766	238.0336	285.4752	344.1011	363.2899	431.2099	474.0193	526.8606	556.3538	578.2041	598.9983	673.2846	710.5598	823.5101	882.8982	923.5742	952.5946	989.9308	1052.6529	1063.4057	1082.6129	1139.3677	1165.871	1190.8527	1223.1623	1244.3539	1263.8509	1281.1358	1375.0666	1391.8011	1431.525	1473.3804	1479.7649	1486.1626	1500.6192	1521.0977	2233.1403	2972.3003	2982.3693	3017.2812	3025.3467	3119.1472	3142.8529	3171.87	3238.4425	3503.2021	3749.2859
COCC1CC1(O)C#C	COC[C@@H]1C[C@@]1(O)C#C	
InChI=1S/C7H10O2/c1-3-7(8)4-6(7)5-9-2/h1,6,8H,4-5H2,2H3	InChI=1S/C7H10O2/c1-3-7(8)4-6(7)5-9-2/h1,6,8H,4-5H2,2H3/t6-,7-/m0/s1
