19
gdb 661	4.1244149	1.036543	1.0086124	2.5854	75.26	-0.24508	-0.02382	0.22125999999999998	1228.0148	0.156795	-422.566551	-422.558189	-422.557245	-422.600735	30.954	
O	 1.1232976414	-0.7268495258	 0.4572293802	-0.286965
C	 0.0067441284	-0.3608907374	 0.235141649	 0.413992
C	-1.3310948095	-1.0852254756	 0.0211539168	-0.401756
C	-2.0362744619	 0.3132421292	 0.0568578461	 0.330825
C	-0.6508286772	 1.0233024676	 0.0987694702	-0.432679
C	-3.0182027926	 0.6264181628	-1.0784772781	-0.319942
C	-4.3627640858	 0.1113633057	-0.5213397136	-0.064948
O	-4.1949870128	-0.0379093062	 0.8932781683	-0.258631
C	-2.9470614125	 0.5202252043	 1.2678705169	-0.124215
H	-1.3740665182	-1.5885791908	-0.9512128771	 0.127584
H	-1.6126745465	-1.8069096376	 0.793230218	 0.136373
H	-0.3706494846	 1.5287553104	-0.8317524944	 0.131583
H	-0.4710049704	 1.7126181423	 0.9301354882	 0.130456
H	-3.0588732449	 1.70816834	-1.2455939071	 0.109799
H	-2.7445050452	 0.1549070371	-2.0258716477	 0.105815
H	-5.1855747558	 0.8067065815	-0.7309999973	 0.100924
H	-4.6355524672	-0.8672186912	-0.9334223035	 0.106856
H	-3.0397348288	 1.5969184223	 1.493507125	 0.08564
H	-2.6037894058	 0.0113030015	 2.1745567601	 0.109289
32.6174	68.4006	135.2778	249.5859	345.3546	369.8357	396.7256	427.4166	509.6275	658.7066	690.8719	701.6905	746.4058	843.0056	878.9537	909.5498	932.0246	938.3644	983.5501	993.1163	1049.1003	1069.6663	1091.9881	1125.6965	1145.2025	1172.1607	1200.0853	1212.8947	1222.8926	1239.5594	1280.5842	1307.46	1311.6495	1362.9464	1403.7561	1424.3462	1442.5487	1491.1207	1517.4401	1533.5568	1896.3876	2951.8336	3016.5515	3043.1662	3044.3226	3049.538	3054.7986	3070.1084	3097.7165	3099.5478	3104.9266
O=C1CC2(C1)CCOC2	O=C1CC2(C1)CCOC2	
InChI=1S/C7H10O2/c8-6-3-7(4-6)1-2-9-5-7/h1-5H2	InChI=1S/C7H10O2/c8-6-3-7(4-6)1-2-9-5-7/h1-5H2
