19
gdb 3497	2.6867118	1.3935083	1.127012	2.2044	76.35	-0.24355	-0.01097	0.23257999999999998	1143.4532	0.155951	-422.592088	-422.582785	-422.581841	-422.627246	33.596	
C	 0.7658914172	-0.6659016329	 1.226187349	-0.481315
C	 1.0840377567	 0.1068527236	-0.0361466515	 0.398898
O	 2.021829762	 0.8700817815	-0.1030335155	-0.313448
C	 0.1260250427	-0.0872839783	-1.211959745	-0.152341
C	 0.7113713149	 0.334758831	-2.5799956338	-0.28362
C	-0.3670450042	 1.1918922169	-3.1894710896	-0.059136
C	-1.3828970763	 1.4166181886	-2.3588641652	-0.102002
C	-1.1671389263	 0.7967713566	-1.001373915	 0.08041
O	-1.0463486793	 1.7765572443	 0.0288572142	-0.427798
H	 1.5214657519	-0.4664637839	 1.9870160697	 0.138613
H	-0.2169722023	-0.3541216464	 1.5957649053	 0.158805
H	 0.7159535778	-1.7409202938	 1.0212529001	 0.13086
H	-0.1892805863	-1.1346314333	-1.2395437185	 0.083959
H	 1.6444004796	 0.8944692902	-2.4474322278	 0.137563
H	 0.9487758998	-0.5345292056	-3.2036789249	 0.108226
H	-0.2900774324	 1.5825368063	-4.1988674251	 0.101367
H	-2.2553176865	 2.0266534067	-2.5639510719	 0.100974
H	-2.0091658448	 0.1784677927	-0.6752038825	 0.094004
H	-0.3744580143	 2.4101250458	-0.2510772821	 0.285982
33.0172	64.7642	108.6574	164.3975	232.8853	292.754	349.2786	395.6258	407.4185	497.5362	568.6665	595.2691	720.8334	747.9085	765.3992	802.3963	889.9979	933.4057	958.7689	978.4229	995.3605	1006.8223	1015.7953	1066.1704	1098.9672	1132.2882	1175.061	1186.3063	1226.9201	1270.8181	1308.642	1322.9608	1346.2407	1370.0322	1381.9469	1435.6107	1462.6362	1478.5897	1482.8265	1688.9626	1804.2409	3036.8838	3038.4692	3051.5975	3065.3222	3076.3931	3104.9162	3151.6327	3181.9393	3208.7974	3788.2302
CC(=O)C1CC=CC1O	CC(=O)[C@@H]1CC=C[C@@H]1O	
InChI=1S/C7H10O2/c1-5(8)6-3-2-4-7(6)9/h2,4,6-7,9H,3H2,1H3	InChI=1S/C7H10O2/c1-5(8)6-3-2-4-7(6)9/h2,4,6-7,9H,3H2,1H3/t6-,7-/m0/s1
