19
gdb 3250	2.6140143	1.9103308	1.3413775	1.9668	73.92	-0.23939	0.06015	0.29954	985.0218	0.157156	-422.517671	-422.509988	-422.509044	-422.549161	31.066	
C	 0.9346151169	 0.8513701554	 0.2390604837	-0.442885
C	 0.8563576267	-0.6219294119	-0.1540843201	-0.069251
C	 1.5386461453	-1.5391297394	 0.8983160259	 0.109515
O	 1.2444994255	-2.9333882025	 0.6761083524	-0.309072
C	 2.2729984584	-3.0198386429	-0.3376283726	 0.103263
C	 1.7772337679	-2.475516688	-1.6969046765	-0.287137
C	 1.9616887892	-1.0362334198	-1.1754643397	 0.398141
O	 2.3770492408	-0.1414340242	-2.1551117947	-0.478277
C	 2.8274280492	-1.6160940803	 0.0350123705	-0.192404
H	 0.2635396421	 1.0651798054	 1.0767403259	 0.127039
H	 1.9471077539	 1.1350440245	 0.5557459399	 0.114699
H	 0.6426600278	 1.5030421819	-0.5915332168	 0.124469
H	-0.1699495347	-0.8985542116	-0.4163031465	 0.076898
H	 1.4720474697	-1.2610427716	 1.9527531896	 0.074848
H	 2.8095047726	-3.9686814718	-0.3002401505	 0.080555
H	 2.5204293275	-2.6660263151	-2.4779411132	 0.110541
H	 0.7867158759	-2.7884212057	-2.0373922268	 0.102576
H	 2.4744690957	 0.7311611069	-1.7591592356	 0.281316
H	 3.8436703696	-1.3609455393	 0.3221917151	 0.075166
169.8585	235.333	249.0752	284.2001	333.5934	352.3327	389.5376	445.6572	486.9062	618.3874	694.622	756.2858	829.233	842.3337	852.8449	868.4866	896.6672	951.48	967.6465	985.1105	1010.9184	1044.6279	1068.5055	1080.5974	1106.3196	1130.7815	1141.1311	1159.2293	1192.9211	1236.8805	1257.4609	1269.5948	1279.9359	1310.0855	1320.1946	1356.1531	1384.2584	1405.4991	1468.9369	1499.7011	1505.4842	3016.9228	3050.1988	3055.0643	3080.8633	3084.1072	3100.9645	3101.8192	3113.3249	3155.0084	3808.3549
CC1C2OC3CC1(O)C23	C[C@@H]1[C@H]2O[C@H]3C[C@]1(O)[C@@H]23	
InChI=1S/C7H10O2/c1-3-6-5-4(9-6)2-7(3,5)8/h3-6,8H,2H2,1H3	InChI=1S/C7H10O2/c1-3-6-5-4(9-6)2-7(3,5)8/h3-6,8H,2H2,1H3/t3-,4+,5-,6-,7-/m1/s1
