19
gdb 3246	3.4870043	1.3514467	1.2256699	0.5764	73.34	-0.23226	0.06937	0.30163	1063.1101	0.15887	-422.528551	-422.521036	-422.520092	-422.560178	30.07	
O	 0.5417266932	 0.1565223561	-0.1360016844	-0.440981
C	-0.4761864623	 0.4237888917	 0.7839895405	 0.126869
C	-1.9241909329	 0.2601247397	 0.4099001064	-0.085141
C	-3.0574598704	 1.1298422984	 0.9613307505	-0.248337
C	-3.3133994799	 0.8151840282	 2.4449915851	 0.103064
C	-2.0308556525	 0.8715009284	 3.2946915999	-0.258251
C	-1.8906043152	-0.5811252859	 2.7920600071	 0.070751
O	-3.3479989209	-0.6296848034	 2.625492314	-0.296211
C	-1.2722606492	-0.6961924846	 1.4109509149	-0.099268
H	 0.2274152702	-0.5049159582	-0.7606959963	 0.283172
H	-0.1780819603	 1.2663969409	 1.397497644	 0.104416
H	-2.0889685522	-0.1293099735	-0.5917587436	 0.081173
H	-2.8580342082	 2.2016839954	 0.832623546	 0.100295
H	-3.975144172	 0.9061896745	 0.4073963715	 0.110636
H	-4.2185021305	 1.3004621881	 2.8199488732	 0.074086
H	-1.262831752	 1.6118309097	 3.0674687974	 0.101905
H	-2.2593342151	 0.8920237746	 4.3612338075	 0.111338
H	-1.5344785495	-1.3430838741	 3.4886820634	 0.077067
H	-1.0470118801	-1.705071796	 1.0763400529	 0.083417
144.388	189.5917	238.1586	302.6016	321.2544	401.784	443.6843	457.8965	563.2287	668.2611	788.8569	805.8883	843.1471	863.9743	881.224	921.6681	927.0501	953.67	979.8497	990.2604	1041.1589	1062.0023	1071.1009	1093.154	1098.4811	1130.6363	1144.3184	1188.0347	1194.8208	1244.5582	1253.3014	1278.6092	1305.0039	1330.9576	1340.3447	1344.4149	1377.7786	1390.2858	1462.5071	1477.0962	1505.537	3023.6078	3068.7583	3075.2368	3080.9656	3089.8836	3128.8849	3136.5973	3146.4638	3178.5862	3819.6137
OC1C2CC3CC(O3)C12	O[C@H]1[C@@H]2C[C@@H]3C[C@@H](O3)[C@H]12	
InChI=1S/C7H10O2/c8-7-4-1-3-2-5(9-3)6(4)7/h3-8H,1-2H2	InChI=1S/C7H10O2/c8-7-4-1-3-2-5(9-3)6(4)7/h3-8H,1-2H2/t3-,4-,5-,6-,7+/m1/s1
