19
gdb 4769	1.9059964	1.4109796	1.1906148	3.0987	77.24	-0.25299	0.01395	0.26694	1185.3832	0.15375	-422.502085	-422.492097	-422.491152	-422.536794	36.65	
C	 3.4150975074	 0.4227248046	 1.5584249724	-0.418714
C	 2.0353761011	 0.8662068463	 2.0590393115	-0.08851
C	 2.1140264982	 1.546793614	 3.438119417	-0.048179
O	 0.8590678539	 1.6370103482	 4.0807093029	-0.435533
C	 1.3396327937	 1.782428316	 1.0512888116	 0.177933
C	 0.2252290961	 1.2714341958	 0.2250907323	-0.220364
O	-0.0473216088	 2.0820938421	 1.365644651	-0.280046
C	 2.091640826	 2.919387557	 0.5707292189	 0.335569
C	 2.7349885295	 3.8574891089	 0.1821414456	-0.435815
H	 3.8517571195	-0.3038261527	 2.2497537555	 0.122157
H	 3.3501755321	-0.0458510061	 0.5714231699	 0.118477
H	 4.099515183	 1.2725015752	 1.4786946131	 0.135038
H	 1.3931687547	-0.0141020529	 2.1815401507	 0.088201
H	 2.7566982414	 0.9514235118	 4.0963739066	 0.10056
H	 2.5904185452	 2.5357153849	 3.3274257622	 0.09312
H	 0.226078193	 1.972256757	 3.4347629598	 0.29763
H	 0.0113491353	 1.740290843	-0.7328500305	 0.129436
H	-0.0538860889	 0.2225348409	 0.3137864859	 0.124412
H	 3.2949754976	 4.6917037761	-0.1630366465	 0.204628
52.3384	143.5868	155.0857	182.6947	218.1665	242.7481	249.2561	297.2891	365.4453	410.939	437.8125	502.5509	565.67	597.6106	630.9528	652.7299	668.4528	828.5299	864.813	912.7344	942.7447	967.6548	1049.1102	1080.2384	1105.8366	1131.5097	1151.1041	1168.2782	1216.657	1268.5669	1303.9767	1314.1151	1387.3923	1398.7852	1410.0127	1453.976	1495.0761	1500.9001	1514.0339	1514.6724	2236.9187	2964.964	3040.135	3040.2723	3060.6845	3088.8041	3109.0647	3117.371	3184.8958	3500.0137	3791.3314
CC(CO)C1(CO1)C#C	C[C@@H](CO)[C@]1(CO1)C#C	
InChI=1S/C7H10O2/c1-3-7(5-9-7)6(2)4-8/h1,6,8H,4-5H2,2H3	InChI=1S/C7H10O2/c1-3-7(5-9-7)6(2)4-8/h1,6,8H,4-5H2,2H3/t6-,7+/m0/s1
