19
gdb 2429	2.5031517	2.1408781	1.5931179	1.0549	73.12	-0.23017	0.08713	0.3173	911.8185	0.159046	-422.548971	-422.542022	-422.541078	-422.579769	28.805	
C	-0.086794787	-0.3600918947	 0.0282124262	-0.488325
C	 1.3480991167	 0.102517657	-0.0109191623	 0.411228
C	 1.8864087811	 0.7078324835	-1.3456381154	-0.270185
C	 3.2919123813	 0.0893202509	-1.2422371626	 0.056066
O	 2.9483626521	-1.3287350851	-1.1309354906	-0.30234
C	 2.4887968029	-0.9582111508	 0.1892096137	 0.041267
C	 3.5881337241	 0.1158227479	 0.296182612	-0.06734
C	 2.9974667432	 1.2612456651	 1.1061091815	-0.119591
O	 1.5775325435	 1.0466582744	 1.0430263103	-0.308611
H	-0.3338809424	-0.7570101873	 1.0175161903	 0.123327
H	-0.7713699559	 0.4657831021	-0.1877797459	 0.12569
H	-0.2458375086	-1.1452054552	-0.7166872577	 0.127167
H	 1.3761783	 0.3342529986	-2.2359634364	 0.108609
H	 1.8472438913	 1.7997508907	-1.3300568525	 0.106446
H	 4.0415887022	 0.3073310319	-2.0025851086	 0.080538
H	 2.3315053343	-1.7853572291	 0.8804300976	 0.081721
H	 4.5838990777	-0.2317386052	 0.5644013539	 0.087549
H	 3.3080661428	 1.2314100014	 2.1565075604	 0.108915
H	 3.2585567307	 2.2505255238	 0.703804986	 0.097867
223.0867	232.4892	251.8245	311.2091	396.5565	465.3207	516.1152	586.1533	619.0698	728.0073	756.4103	796.5899	824.7819	869.5117	905.9182	908.8878	932.562	957.0554	984.1227	990.5032	1025.0131	1043.1626	1067.4263	1084.6394	1139.1216	1173.6289	1184.599	1206.4838	1219.2013	1231.7347	1249.9379	1287.1923	1297.5175	1337.4469	1350.4412	1381.9005	1415.0301	1474.0494	1484.2751	1497.2113	1523.3933	3000.6837	3040.4433	3055.8705	3069.1603	3110.9161	3118.5169	3122.371	3125.3605	3129.562	3144.9032
CC12CC3OC1C3CO2	C[C@]12C[C@@H]3O[C@H]1[C@@H]3CO2	
InChI=1S/C7H10O2/c1-7-2-5-4(3-8-7)6(7)9-5/h4-6H,2-3H2,1H3	InChI=1S/C7H10O2/c1-7-2-5-4(3-8-7)6(7)9-5/h4-6H,2-3H2,1H3/t4-,5+,6+,7+/m1/s1
