19
gdb 5234	2.5479803	1.4365112	1.1835289	1.9508	75.11	-0.22863	0.07188	0.30051	1121.4793	0.156121	-422.491543	-422.482902	-422.481958	-422.524776	32.477	
C	-1.4346352883	-3.6613106233	 0.7474332193	-0.532275
C	 0.0173053388	-3.4979133936	 1.0595400597	 0.229888
C	 0.7977284226	-2.8939354078	 2.1755975918	-0.008787
O	 1.6016019273	-4.039246535	 2.4423914155	-0.297337
C	 1.2620107606	-4.4775892808	 1.0940360495	 0.020857
C	 2.0367373752	-3.4959296639	 0.1827679306	-0.282734
C	 1.0711555145	-2.435231319	 0.7151653935	 0.205206
C	 0.8807214697	-1.0220055348	 0.2614894947	-0.178108
O	 2.0218269162	-0.2087825513	 0.5033235898	-0.413414
H	-1.8961827951	-4.4169994674	 1.3927735982	 0.131798
H	-1.9730227952	-2.7201107397	 0.9007227312	 0.128291
H	-1.5929981816	-3.965699921	-0.2934208755	 0.125466
H	 0.5187445256	-2.2375764519	 2.9914038427	 0.10378
H	 1.2793779939	-5.5588512588	 0.9710543765	 0.086739
H	 3.1081804648	-3.3937480467	 0.3789321521	 0.103994
H	 1.8573200767	-3.6951801858	-0.8776296131	 0.101183
H	 0.7179699587	-0.9788983558	-0.8216115637	 0.11136
H	-0.0215286248	-0.599713714	 0.7371801828	 0.081621
H	 2.2663772903	-0.3275804194	 1.4273667545	 0.282473
88.8764	119.6508	191.8034	206.815	247.6133	276.5486	340.5337	410.7374	461.7348	546.0239	606.0619	706.3284	735.2898	788.5456	825.84	905.0685	916.08	925.4071	947.211	985.844	1021.8123	1040.4797	1056.4528	1106.2212	1122.9684	1131.8313	1165.2736	1174.28	1216.5511	1232.8306	1255.5825	1294.5448	1342.1199	1364.0592	1412.0788	1424.3557	1463.8117	1483.5552	1490.7322	1500.0668	1504.4785	2951.369	3024.535	3049.6986	3055.5196	3085.3392	3095.8976	3109.0798	3140.3188	3189.4814	3807.0741
CC12C3OC1CC23CO	C[C@@]12[C@H]3O[C@@H]1C[C@@]23CO	
InChI=1S/C7H10O2/c1-6-4-2-7(6,3-8)5(6)9-4/h4-5,8H,2-3H2,1H3	InChI=1S/C7H10O2/c1-6-4-2-7(6,3-8)5(6)9-4/h4-5,8H,2-3H2,1H3/t4-,5-,6+,7+/m1/s1
