19
gdb 5018	2.4501818	1.3654021	1.0874187	2.9237	76.55	-0.24628	-0.02806	0.21822	1166.1636	0.15627	-422.515832	-422.507099	-422.506155	-422.549654	32.226	
O	-0.1903194903	 0.4080664826	 0.8955143043	-0.411307
C	 0.6907572888	-0.0843712107	-0.1031638216	-0.208337
C	 0.3576986901	 0.4380089979	-1.4762350931	 0.305086
C	 1.1130520865	 0.1899324363	-2.8166426441	-0.279678
C	-0.0777547961	 1.1301391345	-3.1754900984	-0.053303
C	-0.965766865	 0.2202771898	-2.2781630441	-0.278507
C	 0.232350657	 1.9618771956	-1.8999675707	-0.08355
C	 1.4313679991	 2.8594041951	-1.81549503	 0.109094
O	 2.2607142876	 3.0149938092	-2.6797156312	-0.250575
H	-1.0756327019	 0.0952796866	 0.6826939008	 0.285816
H	 1.6933536212	 0.2430759368	 0.193495396	 0.118811
H	 0.7043683434	-1.1865075802	-0.1267073869	 0.094165
H	 2.1151325429	 0.6031026315	-2.9165106921	 0.127494
H	 1.0520891313	-0.8289267194	-3.208935419	 0.091781
H	-0.3270277644	 1.5304908738	-4.157260983	 0.085448
H	-1.8767413701	 0.6676413852	-1.8686048225	 0.089674
H	-1.1427945936	-0.7950865129	-2.6439476134	 0.095078
H	-0.622015931	 2.4603669969	-1.4269923839	 0.081437
H	 1.5107684945	 3.4121919915	-0.8504562471	 0.081374
69.7838	89.6351	167.0146	190.8312	234.023	295.47	336.6563	409.411	463.4754	551.3065	646.1303	731.0847	750.1066	811.785	847.3065	901.1115	924.51	968.9698	987.8156	1002.7605	1029.4232	1052.4787	1067.4858	1099.7127	1107.1866	1137.7739	1144.2042	1156.8708	1206.2206	1214.278	1241.3872	1249.1325	1304.5509	1375.2046	1391.5273	1419.6058	1427.8709	1494.6592	1498.9431	1541.3336	1813.0387	2860.5255	2972.3089	3039.8926	3044.9416	3066.5192	3067.3525	3108.6813	3124.7603	3159.3006	3814.68
OCC12CC(C1)C2C=O	OC[C@@]12C[C@@H](C1)[C@@H]2C=O	
InChI=1S/C7H10O2/c8-3-6-5-1-7(6,2-5)4-9/h3,5-6,9H,1-2,4H2	InChI=1S/C7H10O2/c8-3-6-5-1-7(6,2-5)4-9/h3,5-6,9H,1-2,4H2/t5-,6-,7+/m0/s1
