19
gdb 755	2.4629131	1.730039	1.2575621	2.5252	74.67	-0.22933	-0.02037	0.20896	1041.1532	0.15876	-422.564543	-422.556779	-422.555834	-422.597093	29.749	
O	 0.3656747269	 0.1668654069	-1.5480015841	-0.316652
C	-0.2704395034	 0.0207931338	-0.5298598129	 0.347904
C	-0.7053406681	 1.2344958548	 0.2987886323	-0.182846
O	-1.4249248451	 0.9076836156	 1.4701360682	-0.24542
C	-2.5159756786	 0.0404437827	 1.1845570487	-0.103111
C	-2.0244562427	-1.3610865723	 0.8396047403	-0.033401
C	-1.2765672073	-2.091238674	 1.9919260363	-0.218978
C	 0.0781334	-1.7867974212	 1.3035945739	-0.22887
C	-0.6877611791	-1.3224685436	 0.014122219	-0.096093
H	 0.1831777838	 1.7946041881	 0.6057932653	 0.140564
H	-1.2946927381	 1.8904764793	-0.3642532795	 0.120708
H	-3.1419065444	 0.0253820299	 2.0827003349	 0.113208
H	-3.1186934592	 0.4559021054	 0.3592476951	 0.091446
H	-2.8339616654	-1.9303256195	 0.374047211	 0.076669
H	-1.4140445042	-1.6691814653	 2.9906487468	 0.107113
H	-1.5056470431	-3.1587902063	 2.0327363565	 0.104435
H	 0.624254542	-0.9731833049	 1.7848542833	 0.119473
H	 0.7607115848	-2.6250952747	 1.1535847052	 0.111143
H	-0.6353677089	-2.0586337847	-0.7888635201	 0.092709
83.6282	96.0296	215.6416	256.9081	383.0797	423.5589	432.3066	505.3002	584.519	595.0328	737.867	751.9831	770.7845	863.6807	899.879	921.3261	945.4956	969.1338	993.9987	1014.5473	1061.2972	1078.5755	1139.4865	1142.0108	1193.6529	1225.0869	1244.3554	1254.6822	1259.7451	1277.2218	1283.0831	1301.001	1326.7359	1350.727	1356.0501	1405.2121	1454.477	1473.285	1492.2033	1498.139	1812.1757	2963.2631	2972.495	3059.1759	3066.2867	3074.9366	3075.942	3088.4493	3103.2947	3109.2005	3133.2741
O=C1COCC2CCC12	O=C1COC[C@@H]2CC[C@H]12	
InChI=1S/C7H10O2/c8-7-4-9-3-5-1-2-6(5)7/h5-6H,1-4H2	InChI=1S/C7H10O2/c8-7-4-9-3-5-1-2-6(5)7/h5-6H,1-4H2/t5-,6-/m0/s1
