19
gdb 5005	4.0530914	1.1772474	1.07577	3.5512	75.65	-0.23742	-0.00651	0.23091	1160.8571	0.157229	-422.559537	-422.551409	-422.550465	-422.592205	31.285	
C	 1.2652635308	-0.0911094124	-0.0494246728	-0.262591
O	-0.1415701264	-0.0333256037	 0.0739255309	-0.298707
C	-0.6310182928	 0.6514621239	 1.1739472846	 0.456923
C	-0.2883401667	 2.1388093412	 1.5171164114	-0.306659
C	-0.885362809	 1.73877833	 2.9089089022	-0.134859
C	-0.2628577108	 0.3233692673	 2.6586056601	-0.306659
C	-2.332552431	 1.4743619882	 2.5206879997	 0.439606
O	-3.3432960477	 1.8090840841	 3.075594814	-0.334157
C	-2.1679902626	 0.659547192	 1.2211119048	-0.3916
H	 1.7333707355	-0.6030245925	 0.8025602053	 0.11301
H	 1.475694033	-0.6593645213	-0.9578057223	 0.133622
H	 1.7121252154	 0.9077711916	-0.1474674907	 0.113011
H	 0.7843272385	 2.3292056203	 1.5906146505	 0.108387
H	-0.7801260102	 2.9313557173	 0.9470071398	 0.108776
H	-0.6985013717	 2.310517829	 3.8140392152	 0.0872
H	 0.8124065273	 0.3287114019	 2.8484637646	 0.108387
H	-0.7313516897	-0.5435295954	 3.1318996793	 0.108776
H	-2.6012587959	-0.3410382296	 1.3079507535	 0.128767
H	-2.622360896	 1.1624746527	 0.3625984033	 0.128767
79.4225	141.6925	201.0075	208.9673	344.7672	368.3831	444.3935	485.3632	490.6286	593.1648	617.5881	635.6936	768.3072	808.088	810.6136	908.0515	938.1761	944.8321	1001.6556	1010.3017	1018.3088	1066.2079	1066.8396	1121.7137	1132.3529	1180.5909	1190.0185	1190.7193	1220.1249	1226.3348	1232.0362	1265.9537	1282.4339	1330.3295	1461.4034	1484.9432	1485.2617	1491.9412	1506.5406	1524.9398	1873.1206	2997.2676	3049.836	3061.2855	3061.6482	3066.1054	3110.9075	3123.5237	3125.77	3129.0227	3159.3125
COC12CC(C1)C(=O)C2	CO[C@]12C[C@H](C1)C(=O)C2	
InChI=1S/C7H10O2/c1-9-7-2-5(3-7)6(8)4-7/h5H,2-4H2,1H3	InChI=1S/C7H10O2/c1-9-7-2-5(3-7)6(8)4-7/h5H,2-4H2,1H3/t5-,7-
