19
gdb 5401	2.4478107	1.3743155	0.9805601	3.9601	75.97	-0.26898	0.01054	0.27952	1246.3324	0.155919	-422.568018	-422.55909	-422.558146	-422.601817	32.92	
C	 1.1980889338	-0.1557865741	 0.9923057694	-0.387972
C	 0.9265319959	 0.0385670719	-0.5032863264	-0.199246
C	 1.8830104653	-0.7748837377	-1.3754234853	-0.29157
C	 3.3316630892	-0.2735079592	-1.4475069542	 0.459254
O	 4.2321008466	-0.0558074556	-0.701116765	-0.3301
O	 3.3087989945	-0.0866044247	-2.809918327	-0.268117
C	 1.925342666	-0.5226423088	-2.8805113227	 0.452065
C	 1.4283747134	-1.3000281712	-4.0441842835	-0.336156
C	 0.9663878	 0.1355441232	-3.8062626085	-0.332677
H	 1.0498516645	-1.2002395353	 1.2875881909	 0.1164
H	 2.2278752899	 0.1176377779	 1.2382841829	 0.151313
H	 0.524452884	 0.4608874845	 1.5940953506	 0.116264
H	-0.1032140768	-0.256321389	-0.7413870571	 0.102626
H	 1.0137566575	 1.0990994121	-0.7666870935	 0.112488
H	 1.8399386558	-1.8378216845	-1.1149227922	 0.112488
H	 2.12132682	-1.4705424492	-4.8606227076	 0.136436
H	 0.7281372622	-2.1090660472	-3.863758192	 0.124312
H	 1.3587920301	 0.9009602198	-4.4665412564	 0.136928
H	-0.0488734018	 0.3060009072	-3.4635732225	 0.125263
93.3579	107.979	137.9547	185.5271	236.572	259.5589	324.0022	363.6418	481.6525	522.0147	552.2168	699.2151	760.723	779.424	814.1499	863.9696	875.9944	907.8409	960.3987	981.3913	995.7714	1052.6462	1075.124	1079.5244	1086.1653	1108.7433	1155.2486	1185.3163	1214.2262	1266.8856	1277.6435	1339.4741	1367.3018	1399.0542	1417.4329	1451.2141	1491.3994	1499.3255	1505.9689	1511.5049	1931.5647	3026.2515	3038.8611	3054.1748	3070.2917	3106.7558	3124.4138	3133.1058	3135.4113	3216.638	3229.642
CCC1C(=O)OC11CC1	CC[C@@H]1C(=O)OC21CC2	
InChI=1S/C7H10O2/c1-2-5-6(8)9-7(5)3-4-7/h5H,2-4H2,1H3	InChI=1S/C7H10O2/c1-2-5-6(8)9-7(5)3-4-7/h5H,2-4H2,1H3/t5-/m1/s1
