19
gdb 4374	2.7466389	1.2400503	0.9462548	1.3473	77.8	-0.2474	0.02625	0.27365	1266.5019	0.155165	-422.529125	-422.519503	-422.518558	-422.563929	35.071	
C	 1.0600876196	 1.4947906459	 0.1807378815	-0.42718
C	 1.6440441149	 0.1046317351	-0.049493226	-0.003017
C	 2.9472046734	 0.0693998765	-0.8573435297	-0.081384
O	 3.6540621949	-1.1181980302	-0.473379995	-0.27215
C	 3.0057298046	-1.7203234323	 0.6462932617	-0.066622
C	 3.9726658996	-2.223527091	 1.6143031913	 0.291832
C	 4.7245507291	-2.6368957147	 2.456365642	-0.437925
C	 2.0669135362	-0.630181075	 1.2227890698	 0.09028
O	 0.9491498807	-1.1391039978	 1.9109940649	-0.436108
H	 0.1736863212	 1.4341058692	 0.8183729675	 0.135499
H	 1.7887466261	 2.1504628646	 0.6711081093	 0.116372
H	 0.7661709221	 1.9660180893	-0.7626927524	 0.117828
H	 0.8955898002	-0.5291795796	-0.5424001786	 0.091386
H	 2.7756329259	 0.0428349237	-1.9388537022	 0.108761
H	 3.5709091365	 0.9479745453	-0.6351582898	 0.097777
H	 2.3696434012	-2.5550345816	 0.3097181615	 0.102534
H	 5.4050429581	-3.0076662227	 3.182726662	 0.199572
H	 2.6581636497	 0.0426949312	 1.8628510119	 0.080299
H	 1.2598463558	-1.5381703759	 2.7307323702	 0.292245
42.961	104.9571	129.3782	210.1122	219.2308	248.1147	317.8664	337.3822	367.4528	472.5514	500.6737	529.8917	587.5915	617.2774	639.1543	675.0548	863.2668	918.3019	945.198	958.2279	988.2215	1062.5774	1090.1473	1109.9289	1127.5093	1138.9959	1163.4289	1209.2278	1257.748	1276.2858	1322.3441	1334.2615	1352.3934	1383.5631	1395.3967	1410.2206	1446.8647	1495.9099	1502.168	1528.3398	2235.2981	2968.2517	2988.8701	2995.205	3029.0486	3033.7291	3063.0518	3098.4353	3114.6848	3501.7432	3810.3438
CC1COC(C#C)C1O	C[C@H]1CO[C@@H](C#C)[C@@H]1O	
InChI=1S/C7H10O2/c1-3-6-7(8)5(2)4-9-6/h1,5-8H,4H2,2H3	InChI=1S/C7H10O2/c1-3-6-7(8)5(2)4-9-6/h1,5-8H,4H2,2H3/t5-,6-,7+/m0/s1
