19
gdb 482	3.4759521	1.3343516	1.2988738	2.2029	75.08	-0.2122	0.06422	0.27642	1069.6706	0.15847	-422.513316	-422.505579	-422.504634	-422.545869	29.312	
C	 1.8606540186	 2.81197989	-0.311339876	-0.068879
C	 2.5006557272	 1.8215887506	 0.6863733078	-0.370591
C	 1.4110337466	 0.8752707243	 0.1956906812	 0.432753
O	 0.8900105554	 1.8256506471	-0.7372831845	-0.308317
C	 1.5032775007	-0.6009205546	-0.0787360131	-0.197904
C	 0.5735991052	-1.1624496349	-1.1465943059	-0.240119
C	-0.807421516	-0.5802122563	-0.768615381	-0.084293
O	-0.7650685894	-0.2848472606	 0.6326523451	-0.260024
C	 0.5666730525	-0.0692982691	 0.9999016241	 0.017746
H	 1.3755872531	 3.6865680752	 0.1359802192	 0.110395
H	 2.4976713781	 3.1356253119	-1.1415014399	 0.108226
H	 3.5224170142	 1.5181456271	 0.4480036112	 0.114157
H	 2.4418175098	 2.1047705684	 1.7393353421	 0.116432
H	 2.4248134838	-1.1287899689	 0.1459712108	 0.086364
H	 0.8574620945	-0.8748020259	-2.162726671	 0.112739
H	 0.578376035	-2.2555161033	-1.0875999391	 0.106803
H	-0.9961884872	 0.3395366084	-1.3315940763	 0.125023
H	-1.6327070778	-1.27807905	-0.934971921	 0.102952
H	 0.7251977058	-0.1869478293	 2.0675092261	 0.096535
76.2715	154.8687	162.513	205.6759	252.6701	407.2522	523.9281	609.7474	692.5611	713.3954	779.7475	825.0025	832.3687	860.7053	884.716	928.7708	961.1031	973.5324	997.4513	1025.9326	1029.6211	1060.7455	1109.4906	1122.0008	1155.3716	1166.329	1173.9561	1213.1957	1219.9688	1222.2027	1248.2371	1265.3417	1299.0528	1314.7164	1353.7628	1394.807	1443.1311	1489.5267	1491.421	1518.837	1530.0986	3030.288	3046.8641	3051.1102	3069.0257	3074.3026	3088.1264	3105.2984	3122.4081	3152.0566	3161.4653
C1CC2(O1)C1CCOC21	C1C[C@@]2(O1)[C@@H]1CCO[C@H]21	
InChI=1S/C7H10O2/c1-3-8-6-5(1)7(6)2-4-9-7/h5-6H,1-4H2	InChI=1S/C7H10O2/c1-3-8-6-5(1)7(6)2-4-9-7/h5-6H,1-4H2/t5-,6+,7-/m1/s1
