19
gdb 3107	2.8976242	1.4203231	1.2218772	2.9872	76.01	-0.24905	-0.0425	0.20654999999999998	1079.6082	0.157338	-422.514162	-422.506121	-422.505177	-422.546694	31.004	
O	 1.2006475187	 2.5007081931	-2.153476782	-0.465221
C	 0.2822559755	 3.3650617475	-1.5521394373	 0.182718
C	-1.2659246326	 3.156643735	-1.728722142	-0.100192
C	-1.4121993927	 4.0887182844	-0.4957181932	-0.234706
C	-0.271586647	 3.099250179	-0.1208736422	-0.113918
C	-1.1954583066	 1.974699644	-0.7090850525	 0.028684
C	-0.6761580535	 0.5810433524	-1.1470752844	-0.349477
C	 0.3851617348	 0.0542251828	-0.2106533638	 0.155658
O	 1.5052201305	 0.5144494938	-0.1461234029	-0.249963
H	 1.5568329477	 1.8998976152	-1.4792639467	 0.299822
H	 0.6011812055	 4.3998704996	-1.7288312326	 0.069338
H	-1.8411682396	 3.1869086072	-2.6552894743	 0.072813
H	-1.1231298238	 5.133626224	-0.6312870193	 0.096803
H	-2.3390277161	 3.9981265957	 0.0739716059	 0.095626
H	 0.2933467768	 3.0690133295	 0.8121259006	 0.077907
H	-2.1125087138	 1.8451087203	-0.1254130386	 0.072429
H	-1.5138721688	-0.1212816701	-1.1858767072	 0.101695
H	-0.2279366745	 0.6511109574	-2.1406005617	 0.159877
H	 0.1030754995	-0.7871857408	 0.4565739844	 0.100107
102.5177	151.0405	154.8301	244.8894	286.7781	381.6126	402.7563	515.7197	563.0951	600.0408	661.0094	752.0376	788.2646	821.2985	889.367	896.1802	900.8073	942.5879	981.3702	1023.4709	1029.1495	1040.1083	1080.9172	1086.8661	1104.3207	1134.9086	1164.6518	1185.9476	1220.4938	1226.9336	1235.1619	1242.1283	1283.9831	1316.6312	1381.444	1408.8779	1428.0718	1449.9196	1483.2467	1520.2976	1792.0751	2912.5352	3023.0524	3043.5525	3060.3068	3062.806	3100.2816	3106.1796	3120.9542	3128.6412	3652.522
OC1C2CC1C2CC=O	O[C@H]1[C@@H]2C[C@H]1[C@@H]2CC=O	
InChI=1S/C7H10O2/c8-2-1-4-5-3-6(4)7(5)9/h2,4-7,9H,1,3H2	InChI=1S/C7H10O2/c8-2-1-4-5-3-6(4)7(5)9/h2,4-7,9H,1,3H2/t4-,5-,6+,7+
