19
gdb 2043	2.4334273	1.3962928	1.3171428	3.2175	75.55	-0.2379	-0.02293	0.21497	1095.6531	0.153976	-422.53931	-422.530044	-422.529099	-422.573032	34.251	
C	 2.3805166624	-1.3483926826	-1.0349351124	-0.509777
C	 2.3224128978	-0.4962721012	 0.1903875623	 0.378234
O	 3.3623870108	-0.6406181358	 1.1682735962	-0.287752
C	 3.0925631784	 0.6712935162	 0.6516046174	-0.037746
C	 1.9114138055	 1.2246241782	 1.4502806709	-0.308062
C	 1.0452247873	-0.0080944565	 0.9599611889	 0.148908
C	-0.1192976347	 0.3845723025	 0.0610715242	-0.462534
C	 0.6219740426	-0.9491714361	 2.0655058751	 0.116801
O	-0.5154863165	-1.3015151441	 2.2630268052	-0.263152
H	 2.0852721215	-2.378651534	-0.8067948539	 0.138373
H	 1.7091585313	-0.9691553626	-1.8107272704	 0.133078
H	 3.3996538011	-1.3664162864	-1.4300746499	 0.138877
H	 3.9238865732	 1.1985906244	 0.1974760545	 0.107698
H	 2.0855615443	 1.3156059211	 2.5255833993	 0.117824
H	 1.5085492147	 2.1634644329	 1.0640795703	 0.117121
H	-0.8866148699	 0.9070758808	 0.6385428715	 0.13478
H	 0.2135659465	 1.0428092792	-0.7479611882	 0.109478
H	-0.590855311	-0.4981265973	-0.3797275544	 0.131616
H	 1.4566984148	-1.3066890189	 2.7028237033	 0.096236
73.2287	148.0571	188.5145	201.0975	227.8764	248.0306	274.2672	336.4111	405.0533	450.5997	470.1767	533.4348	628.9369	732.4537	779.0386	829.9105	861.2546	895.6369	952.601	958.8999	985.1415	1028.4855	1053.7059	1100.6296	1124.8913	1132.1481	1171.2156	1202.5294	1261.9725	1271.7842	1289.542	1400.3889	1407.5041	1421.0936	1454.4241	1475.3204	1481.9499	1489.7254	1493.0121	1495.0011	1813.2279	2926.9878	3038.0453	3040.7168	3065.197	3103.2997	3111.3148	3119.7524	3124.8194	3125.0965	3184.6523
CC12OC1CC2(C)C=O	C[C@@]12O[C@@H]1C[C@]2(C)C=O	
InChI=1S/C7H10O2/c1-6(4-8)3-5-7(6,2)9-5/h4-5H,3H2,1-2H3	InChI=1S/C7H10O2/c1-6(4-8)3-5-7(6,2)9-5/h4-5H,3H2,1-2H3/t5-,6-,7-/m1/s1
