19
gdb 2622	2.512102	1.6870153	1.1648863	4.2249	74.48	-0.26538	0.01021	0.27559	1087.28	0.156754	-422.594119	-422.585615	-422.584671	-422.626932	32.506	
C	-0.4517751811	-1.9404650199	-1.4333710342	-0.41248
C	-0.7570184352	-1.2034575564	-0.1213870064	-0.224595
C	 0.1036133619	 0.0692574079	-0.037086784	 0.433167
O	 1.2962451769	 0.1449720973	-0.0791823311	-0.339928
O	-0.6911200039	 1.1733803976	 0.0850485356	-0.217866
C	-2.0541768244	 0.800125722	 0.1502014367	 0.059279
C	-2.4604812504	 0.0182894394	 1.3644815234	-0.363811
C	-2.1888550105	-0.6964695011	 0.0472171335	 0.313704
C	-3.337079623	-1.3606246331	-0.6760898045	-0.484987
H	-0.9891036164	-2.8910250004	-1.485458109	 0.121903
H	-0.7295902015	-1.3407619598	-2.305882368	 0.125816
H	 0.6203947667	-2.1422811135	-1.4917898703	 0.146513
H	-0.4570213832	-1.8466669436	 0.7141289122	 0.112938
H	-2.7032186931	 1.5163727487	-0.3379908944	 0.112963
H	-1.7380735703	-0.0590407121	 2.1715954476	 0.125223
H	-3.4947881222	 0.0843167882	 1.6850200398	 0.119994
H	-4.2646981833	-0.8000527378	-0.5243220919	 0.119192
H	-3.1608913751	-1.4230808725	-1.7540954024	 0.127094
H	-3.505381742	-2.3775934809	-0.3037779026	 0.125883
77.7722	199.3664	211.3611	257.579	265.6524	281.2351	311.2598	416.9021	466.3105	496.3231	576.5716	669.487	706.665	759.2077	791.6372	853.	890.1209	918.3621	964.7642	1019.2591	1040.608	1053.6662	1067.7528	1091.3408	1111.5293	1130.3574	1143.3367	1167.7937	1258.5449	1298.6414	1312.4329	1339.8557	1394.6336	1409.1616	1424.2656	1477.3553	1489.1346	1493.5696	1505.4501	1507.2877	1879.2821	3031.4742	3040.9576	3045.3977	3094.1757	3106.8311	3115.4314	3123.8888	3130.934	3192.8898	3215.586
CC1C(=O)OC2CC12C	C[C@H]1C(=O)O[C@@H]2C[C@]12C	
InChI=1S/C7H10O2/c1-4-6(8)9-5-3-7(4,5)2/h4-5H,3H2,1-2H3	InChI=1S/C7H10O2/c1-4-6(8)9-5-3-7(4,5)2/h4-5H,3H2,1-2H3/t4-,5+,7+/m0/s1
