19
gdb 3258	3.047576	1.7268993	1.7090347	2.7037	73.26	-0.2347	0.06962	0.30432	903.2422	0.160422	-422.566366	-422.559629	-422.558685	-422.597035	28.205	
O	 0.4446057842	-0.1312698987	 0.4640315514	-0.426881
C	-0.5304994803	 0.6799086191	 1.0651013387	 0.144173
C	-1.6240821235	 0.0623579191	 1.9813782628	-0.115201
C	-2.1414099148	-1.2536417021	 1.3455250999	-0.223539
C	-3.0113379677	-0.7018296849	 0.1989975259	 0.092748
C	-3.8516896285	 0.3730143024	 0.9072377405	-0.227001
C	-2.6243694521	 1.1366764028	 1.3936610061	-0.063893
C	-1.6728176857	 1.147798664	 0.1439885716	 0.074019
O	-2.1698877224	 0.0795504903	-0.6656520196	-0.273034
H	 1.1183763892	-0.3316744429	 1.1213231756	 0.283063
H	-0.0833205394	 1.5593667478	 1.5530740931	 0.061627
H	-1.4423146307	 0.0126711612	 3.0562687347	 0.05636
H	-1.3225385938	-1.8753005059	 0.9773555485	 0.113417
H	-2.7444788849	-1.8380383997	 2.0478280952	 0.090421
H	-3.5331557053	-1.4400454395	-0.4102425705	 0.072751
H	-4.473371451	 0.9424470824	 0.211435814	 0.103613
H	-4.4695847568	-0.022688395	 1.7179604047	 0.096963
H	-2.7529683069	 2.0685291667	 1.9395013056	 0.069469
H	-1.5315863496	 2.028920793	-0.4848227381	 0.070926
184.2357	239.9317	256.395	408.8825	449.1376	499.8023	537.1592	594.9732	681.3346	769.5593	800.4093	827.4586	840.268	867.5513	869.9968	916.5702	946.4146	964.978	984.5546	993.0668	1033.8294	1046.1712	1071.2454	1114.8794	1122.1705	1153.2014	1185.0141	1198.8629	1209.9059	1230.4093	1245.2901	1257.9128	1290.3303	1301.4475	1311.9352	1336.7098	1355.3902	1375.3678	1434.6742	1471.1912	1487.6092	2984.4302	3050.949	3062.0635	3089.0624	3091.0739	3114.1949	3117.1012	3121.5842	3145.2413	3818.6475
OC1C2CC3CC2C1O3	O[C@@H]1[C@@H]2C[C@H]3C[C@@H]2[C@@H]1O3	
InChI=1S/C7H10O2/c8-6-4-1-3-2-5(4)7(6)9-3/h3-8H,1-2H2	InChI=1S/C7H10O2/c8-6-4-1-3-2-5(4)7(6)9-3/h3-8H,1-2H2/t3-,4+,5-,6+,7-/m0/s1
