19
gdb 2795	3.1386033	1.3926726	1.1883383	0.3124	74.2	-0.24394	0.07223	0.31617	1091.3578	0.156851	-422.512533	-422.50457	-422.503626	-422.544391	31.925	
C	-2.6860499965	 3.4229614309	-1.1722587869	-0.502991
C	-2.7066214262	 2.1280083483	-0.4102715107	 0.40974
C	-3.2785075926	 1.9624250135	 1.0221815788	-0.289376
C	-3.4666032093	 0.5403626776	 0.4551438366	 0.053626
O	-3.7502752282	 1.1688793463	-0.8415840328	-0.328883
C	-2.0463797452	-0.0154517985	 0.2318411286	-0.114365
C	-0.8510224779	 0.6845537733	 0.8318147188	 0.120148
O	 0.3972042911	 0.0597860754	 0.7888333006	-0.441929
C	-1.4507505829	 1.2218347977	-0.4442213639	-0.148559
H	-1.926719255	 4.0938285122	-0.7580524235	 0.127361
H	-2.4432109563	 3.2432275594	-2.2248456838	 0.129682
H	-3.6582095495	 3.9201442364	-1.1230660203	 0.127826
H	-2.6643729812	 2.1487792673	 1.9044079459	 0.098545
H	-4.2386683063	 2.4713468005	 1.1050669115	 0.110092
H	-4.2443158688	-0.1434191197	 0.7924651439	 0.079811
H	-1.9268894187	-1.0151361138	-0.1723452907	 0.089803
H	-0.9268636895	 1.2304329961	 1.7643301464	 0.108465
H	 0.4693231076	-0.4332208913	-0.0353207205	 0.285265
H	-0.8766312748	 1.1670505886	-1.363918178	 0.08574
194.3972	202.2754	221.9302	243.5282	275.8653	365.0274	381.1455	432.1982	531.8055	597.0263	604.6278	701.5128	773.243	798.5795	852.7747	864.6609	895.731	933.0093	940.1097	964.537	983.6957	1023.4287	1043.3925	1078.3635	1091.5477	1118.1025	1123.2804	1145.4891	1210.4894	1216.9522	1235.2822	1247.7305	1277.2802	1305.8625	1320.3687	1373.1081	1413.9183	1452.9113	1480.3668	1491.107	1510.7641	3039.0822	3081.3303	3107.5366	3121.3046	3131.8562	3146.0523	3157.3329	3171.2732	3183.8169	3812.7805
CC12CC(O1)C1C(O)C21	C[C@@]12C[C@@H](O1)[C@@H]1[C@@H](O)[C@H]21	
InChI=1S/C7H10O2/c1-7-2-3(9-7)4-5(7)6(4)8/h3-6,8H,2H2,1H3	InChI=1S/C7H10O2/c1-7-2-3(9-7)4-5(7)6(4)8/h3-6,8H,2H2,1H3/t3-,4+,5-,6-,7+/m1/s1
