19
gdb 3908	3.0429308	1.2879046	1.1186346	1.068	76.54	-0.24544	-0.02866	0.21678	1174.3696	0.155549	-422.55024	-422.541378	-422.540434	-422.584097	32.508	
C	-0.96568017	 2.0194334407	-1.2505952531	-0.404922
C	-0.9658959092	 1.1228284765	-0.0259678615	 0.024599
O	-2.0700022249	 0.1786071742	 0.0143258643	-0.348054
C	-1.2244951104	-0.9833482256	 0.0646153724	 0.341173
C	-1.3377282477	-2.0069879706	 1.2205645004	-0.287762
C	-1.0000725058	-3.1216175693	 0.1924072195	-0.210699
C	-1.3921370385	-2.1410581503	-0.947102001	-0.284408
C	-0.0002661461	-0.0731767351	-0.0136369314	 0.267974
O	 1.1831939343	-0.2271117218	-0.069142143	-0.291559
H	-0.9812655847	 1.4277143317	-2.1701091818	 0.127126
H	-1.844617084	 2.6706143269	-1.2428503594	 0.13479
H	-0.0688118308	 2.6467191777	-1.2521842856	 0.13501
H	-0.9231137455	 1.717485634	 0.8972635629	 0.106001
H	-0.680932889	-1.8723402485	 2.0829079012	 0.109961
H	-2.3762234544	-2.0596683842	 1.5593050393	 0.120151
H	 0.0680328627	-3.3487571075	 0.1793481334	 0.123957
H	-1.5615179159	-4.0541769202	 0.264592437	 0.106143
H	-0.7777017847	-2.114248808	-1.8498592871	 0.110353
H	-2.4454118652	-2.2329308605	-1.2266471065	 0.120165
65.7113	103.0231	154.5291	196.8753	205.0574	269.488	324.7955	390.7597	498.2268	515.0458	666.7235	718.094	724.9489	787.8141	822.3313	868.5897	908.8969	925.8114	962.3202	979.5707	1000.5447	1035.8036	1068.1938	1093.9595	1129.2076	1166.0601	1193.9443	1203.4648	1241.3613	1267.3122	1273.0416	1283.1379	1292.0462	1355.3214	1400.448	1464.5579	1480.1249	1481.3877	1494.3093	1500.2574	1911.0812	3012.0097	3041.8589	3060.4265	3064.1495	3076.9486	3113.7874	3118.1243	3119.5949	3121.8884	3136.9633
CC1OC2(CCC2)C1=O	C[C@H]1OC2(CCC2)C1=O	
InChI=1S/C7H10O2/c1-5-6(8)7(9-5)3-2-4-7/h5H,2-4H2,1H3	InChI=1S/C7H10O2/c1-5-6(8)7(9-5)3-2-4-7/h5H,2-4H2,1H3/t5-/m1/s1
