19
gdb 4429	2.92382	1.5740699	1.2856371	2.2613	74.62	-0.24098	0.06476	0.30574	1037.1978	0.157056	-422.504874	-422.497032	-422.496087	-422.536959	31.193	
O	-0.5308492046	-0.2384905337	 0.4772590898	-0.438489
C	-1.8175279021	-0.3511832716	-0.0609436419	 0.104086
C	-2.6171013532	 0.9234907913	-0.4731023226	-0.264855
C	-3.8833876478	 0.2758202818	 0.1591204895	-0.298088
C	-2.9588884169	-0.6781800391	 0.9362791971	 0.420445
O	-2.622393929	-0.1751823809	 2.2748719668	-0.351835
C	-3.0514060291	-1.4193706182	 2.8490945872	 0.107469
C	-2.2170490128	-2.5593655326	 2.3601231098	-0.31112
C	-3.3579765779	-2.0292748037	 1.5067944131	-0.233858
H	-0.6596691092	 0.097515107	 1.375650669	 0.286696
H	-1.7779629865	-1.0786945243	-0.8783927832	 0.089898
H	-2.2789992724	 1.7914107451	 0.098689609	 0.112761
H	-2.647439851	 1.1822311964	-1.5330888654	 0.100612
H	-4.5332699923	 0.9067137054	 0.7675058533	 0.114776
H	-4.4881286324	-0.2667155092	-0.5740373947	 0.105338
H	-3.5957849229	-1.3765671813	 3.7844860165	 0.108179
H	-1.1873297509	-2.3872727284	 2.0637621817	 0.132808
H	-2.4151973395	-3.5168338535	 2.8322553583	 0.115293
H	-4.1928027994	-2.6322876106	 1.1768325665	 0.099884
113.4939	138.2794	210.4623	273.4945	357.6132	416.7249	457.8813	498.7749	514.8177	607.6364	687.7257	756.4174	774.9639	805.2027	853.3874	885.8468	922.9002	945.8865	955.0641	971.7862	998.7388	1044.3066	1051.6161	1084.3871	1090.6132	1112.6028	1121.4077	1139.3298	1163.8585	1196.0723	1216.9075	1244.6073	1259.1249	1265.8931	1335.2362	1338.2954	1354.6422	1442.6392	1466.8433	1473.7416	1489.2288	3057.4265	3063.0024	3069.8587	3120.6901	3125.2863	3133.0837	3187.4986	3205.9153	3219.2021	3740.5086
OC1CCC11OC2CC12	O[C@@H]1CC[C@@]21O[C@@H]1C[C@H]21	
InChI=1S/C7H10O2/c8-6-1-2-7(6)4-3-5(4)9-7/h4-6,8H,1-3H2	InChI=1S/C7H10O2/c8-6-1-2-7(6)4-3-5(4)9-7/h4-6,8H,1-3H2/t4-,5+,6+,7+/m0/s1
