19
gdb 4245	3.018418	1.7096804	1.5712691	2.7545	72.68	-0.23647	0.06743	0.3039	926.2907	0.160344	-422.552708	-422.54591	-422.544965	-422.583502	28.355	
O	 0.654723764	-0.0924075617	 0.7523008799	-0.432197
C	-0.683487247	 0.3802613066	 0.8757722365	 0.084478
C	-1.2066945664	 0.455586483	 2.346735902	-0.255326
C	-2.0774255345	-0.8022730906	 2.4795202362	-0.050682
C	-1.2032291352	-2.0592250213	 2.1819770332	-0.218099
C	-1.5212092326	-2.1288252888	 0.6772700228	 0.078867
O	-2.9850301133	-2.192711329	 0.713049976	-0.304497
C	-2.8774367397	-0.8132208735	 1.1284208735	 0.078328
C	-1.6293652245	-0.6318564629	 0.2356873268	-0.029006
H	 1.2398299	 0.5647613421	 1.1418322154	 0.283056
H	-0.7773098161	 1.3576251797	 0.3816088964	 0.066502
H	-0.3829855757	 0.4897167319	 3.0671618108	 0.093748
H	-1.8065724565	 1.3634134884	 2.4854965717	 0.094785
H	-2.6746771233	-0.856353111	 3.389694119	 0.064601
H	-0.1456953698	-1.912944811	 2.4044889151	 0.107616
H	-1.5676548225	-2.9600595098	 2.6796420062	 0.102116
H	-1.056537808	-2.8968651678	 0.0608100218	 0.080282
H	-3.7993736758	-0.2372382122	 1.04563431	 0.076817
H	-1.8240140528	-0.5231443319	-0.8298619534	 0.078611
158.6535	241.4008	294.3902	388.0604	421.4479	473.3129	527.7455	591.6183	681.7691	773.5152	796.5198	834.1369	855.085	865.5087	883.4621	906.4952	952.1418	957.714	978.77	1001.784	1021.2729	1041.9603	1072.8162	1090.9714	1107.4713	1158.441	1170.251	1197.3563	1221.1562	1242.319	1243.6761	1260.966	1298.2124	1309.3283	1314.7952	1333.5927	1352.462	1369.898	1429.2342	1477.715	1490.8482	2990.2963	3031.893	3078.2175	3081.2461	3108.6673	3120.1124	3129.5692	3139.0054	3140.2834	3818.3179
OC1CC2CC3OC2C13	O[C@@H]1C[C@@H]2C[C@H]3O[C@@H]2[C@@H]13	
InChI=1S/C7H10O2/c8-4-1-3-2-5-6(4)7(3)9-5/h3-8H,1-2H2	InChI=1S/C7H10O2/c8-4-1-3-2-5-6(4)7(3)9-5/h3-8H,1-2H2/t3-,4-,5-,6+,7+/m1/s1
