19
gdb 3815	2.9649744	1.5955293	1.2561252	2.9532	74.5	-0.22942	0.06893	0.29835	1036.7641	0.157094	-422.511462	-422.503654	-422.50271	-422.543325	31.156	
C	-3.6817375643	-0.6058470436	 2.5021222238	-0.504181
C	-2.6631338699	 0.1752185034	 1.7097911718	 0.351132
C	-1.1726821831	-0.0148854533	 1.9795580937	-0.333615
C	-0.5509072546	 0.9501586995	 0.924417758	 0.091382
O	 0.1788031398	 0.2893113293	-0.1006166635	-0.440645
C	-1.8135237024	 1.5263328276	 0.3115613695	-0.0359
C	-2.9110605458	 1.6921426838	 1.3972357285	-0.00139
O	-3.9646538592	 1.3559885039	 0.4304945876	-0.322673
C	-2.8738824421	 0.399907119	 0.1727641778	 0.021987
H	-3.5838653788	-0.408137293	 3.5755691569	 0.113121
H	-4.6913330706	-0.328609366	 2.187931329	 0.138394
H	-3.5544906098	-1.6840646579	 2.353802358	 0.115414
H	-0.906434328	 0.2492750303	 3.0091652444	 0.096072
H	-0.8446499566	-1.0440128563	 1.7982067896	 0.099507
H	 0.0677312401	 1.7277391719	 1.395339829	 0.06608
H	 0.9754476476	-0.0820609556	 0.29119147	 0.28329
H	-1.7383921033	 2.2714853867	-0.477916318	 0.084572
H	-3.0944604204	 2.5227252812	 2.0815425613	 0.084764
H	-3.0119292985	-0.327970541	-0.6268264876	 0.092689
111.6868	229.5779	250.9841	278.3857	299.5324	344.5432	394.9462	479.0544	526.2375	658.3721	685.5702	713.4653	762.5605	794.718	871.816	890.4056	899.6934	922.7365	938.3386	978.4506	1020.8415	1036.1437	1071.3593	1084.8124	1136.8543	1150.6035	1168.4791	1188.2199	1217.861	1231.2977	1238.4224	1247.4792	1272.4816	1316.4323	1351.6795	1363.9912	1405.9729	1430.7842	1484.3233	1493.4741	1500.7075	2991.5957	3029.4759	3037.9864	3082.3718	3087.6803	3098.7727	3119.0797	3120.1622	3149.68	3818.084
CC12CC(O)C3C1OC23	C[C@]12C[C@@H](O)[C@@H]3[C@H]1O[C@H]23	
InChI=1S/C7H10O2/c1-7-2-3(8)4-5(7)9-6(4)7/h3-6,8H,2H2,1H3	InChI=1S/C7H10O2/c1-7-2-3(8)4-5(7)9-6(4)7/h3-6,8H,2H2,1H3/t3-,4-,5-,6+,7+/m1/s1
