19
gdb 3268	2.5750324	1.9079025	1.4468909	2.1928	73.97	-0.23883	0.06944	0.30827	960.9859	0.157869	-422.526025	-422.518423	-422.517478	-422.557468	30.666	
C	 1.2031146478	-0.1343989733	-3.3373324172	-0.524003
C	 0.2367864885	-0.1384818428	-2.1852387604	 0.3363
C	-1.3237496987	-0.1893104383	-2.4503253303	 0.011578
C	-1.8778043261	 0.2617998532	-1.0832016076	-0.223211
C	-0.6692626213	-0.298446661	-0.3109121237	-0.146439
C	 0.4702401459	 0.6024397317	-0.8562323695	 0.069244
O	 1.7661963545	 0.2627034879	-0.3993452856	-0.450941
C	-0.2242693857	-1.3942649135	-1.3973139789	 0.070436
O	-1.3198474057	-1.6389727856	-2.2859917485	-0.297307
H	 0.949858404	-0.9216156137	-4.0547952231	 0.128293
H	 1.1858240611	 0.82464839	-3.8683889342	 0.113479
H	 2.2229112974	-0.3032430266	-2.9802376553	 0.137597
H	-1.7868438122	 0.1485149628	-3.3771830239	 0.076844
H	-1.9914859554	 1.3439744646	-0.9692990799	 0.095204
H	-2.8269549129	-0.2335998154	-0.8707395012	 0.109668
H	-0.7655133924	-0.515888178	 0.7521258931	 0.062437
H	 0.3036120537	 1.68910779	-0.8163964969	 0.056938
H	 1.8248344983	 0.4981671695	 0.5318144536	 0.284559
H	 0.3685863091	-2.2623971815	-1.1204583305	 0.089325
190.4088	221.3966	228.4404	267.49	296.4425	357.148	435.0559	509.5771	532.0529	637.7481	701.188	773.2201	821.5699	851.8972	865.7781	893.9995	919.7372	929.474	960.2715	980.4139	1010.9005	1025.3022	1071.1129	1086.2268	1124.8855	1143.3082	1162.9605	1198.0877	1208.5201	1224.3897	1235.4176	1238.7386	1292.8264	1297.1159	1329.4886	1357.0634	1407.8358	1429.283	1487.7595	1490.1654	1497.4084	2988.458	3029.627	3060.7535	3092.3755	3115.3684	3119.6887	3124.507	3125.85	3155.4269	3819.0716
CC12C3CC(C1O)C2O3	C[C@]12[C@@H]3C[C@H]([C@H]1O)[C@H]2O3	
InChI=1S/C7H10O2/c1-7-4-2-3(5(7)8)6(7)9-4/h3-6,8H,2H2,1H3	InChI=1S/C7H10O2/c1-7-4-2-3(5(7)8)6(7)9-4/h3-6,8H,2H2,1H3/t3-,4+,5-,6-,7+/m1/s1
