19
gdb 2603	1.9356104	1.7903406	1.1938982	2.7881	77.74	-0.23323	-0.00786	0.22537	1120.2628	0.154755	-422.555834	-422.546317	-422.545373	-422.589827	35.069	
C	-0.9405014186	-1.924993225	 1.3488275835	-0.421195
C	-0.9431008823	-1.0604998654	 0.0919449486	-0.150812
C	 0.0235722091	 0.1515379757	-0.0296503833	 0.308322
O	 1.1792443532	 0.2288509232	-0.3689670376	-0.351223
C	-1.050818353	 1.1676639059	-0.0844994188	 0.290581
O	-0.9579274335	 2.3595995032	-0.750209781	-0.448677
C	-2.1454934213	 0.9532215392	 0.9182261738	-0.382524
C	-2.0850351207	-0.0621415239	-0.1802347288	 0.237573
C	-3.1716525789	-0.2594309114	-1.193428224	-0.494736
H	-1.7181583655	-2.6942630936	 1.2991360158	 0.120113
H	 0.0245864035	-2.4300019937	 1.4547432734	 0.134999
H	-1.1077786634	-1.3383991356	 2.2567349892	 0.119679
H	-0.7686913378	-1.6925981759	-0.7881775346	 0.096164
H	-0.2317667739	 2.2744380147	-1.3822071623	 0.301623
H	-1.9274113477	 0.7056220055	 1.9535151121	 0.12038
H	-2.9352843484	 1.6919027556	 0.8051129673	 0.132378
H	-3.9579667372	-0.9225712156	-0.8127737813	 0.130127
H	-3.6401160292	 0.695439337	-1.452926769	 0.132576
H	-2.7791149545	-0.70703566	-2.1131269531	 0.124652
71.8318	153.665	187.9744	190.5349	198.1749	218.788	259.1168	366.9448	397.9578	424.9833	477.533	543.7742	597.5505	644.8588	672.8572	722.5475	775.6868	897.9365	928.7269	971.633	987.6117	1052.8672	1058.4794	1078.9127	1120.7578	1131.9763	1149.1986	1189.8378	1262.3068	1311.3177	1377.6655	1381.8406	1409.1576	1417.0192	1428.354	1483.1649	1495.1307	1495.8403	1498.587	1512.6197	1832.2561	3021.986	3032.2789	3037.9798	3080.4409	3101.2542	3103.5962	3109.2369	3113.5894	3190.1653	3767.6651
CC1C(=O)C2(O)CC12C	C[C@@H]1C(=O)[C@]2(O)C[C@]12C	
InChI=1S/C7H10O2/c1-4-5(8)7(9)3-6(4,7)2/h4,9H,3H2,1-2H3	InChI=1S/C7H10O2/c1-4-5(8)7(9)3-6(4,7)2/h4,9H,3H2,1-2H3/t4-,6-,7-/m1/s1
