19
gdb 2141	2.8170219	1.8360449	1.6624066	0.3264	73.11	-0.23661	0.06944	0.30605	919.2133	0.158452	-422.538262	-422.531139	-422.530195	-422.569207	29.281	
C	 0.1985406981	 0.5682132662	 0.1682803817	-0.479769
C	 1.62258298	 0.0765998906	 0.1031311658	 0.378994
C	 2.1960902706	-0.5271729526	 1.3876552442	-0.238558
C	 3.5540322784	-1.1846234279	 1.0287184481	-0.219172
C	 4.1265579362	-0.3943070049	-0.1434720896	 0.05553
O	 3.9596793214	 1.0346828449	 0.1435638054	-0.307894
C	 2.7233651698	 0.9981609151	-0.5710135031	 0.026785
C	 3.0526720609	-0.2972044237	-1.2965202613	 0.066271
O	 1.8150434204	-0.9240712399	-0.9666038173	-0.335107
H	 0.0959862768	 1.3322332637	 0.9462708476	 0.12299
H	-0.1083576768	 1.0012182266	-0.7882885038	 0.122747
H	-0.4828426613	-0.2557403375	 0.4040318346	 0.128796
H	 2.3383768861	 0.2666209937	 2.1271379952	 0.112849
H	 1.4983469342	-1.2577308796	 1.8081092587	 0.100641
H	 4.2417615144	-1.1689049419	 1.8787215178	 0.103814
H	 3.4122549174	-2.2269549844	 0.7274725741	 0.114079
H	 5.1595176655	-0.6325931566	-0.406236741	 0.078831
H	 2.4131248867	 1.9568738439	-0.9903459757	 0.082084
H	 3.3676935012	-0.4349976456	-2.3313625014	 0.086089
198.707	225.1529	275.0221	285.5185	376.7926	442.1418	478.8605	529.4172	646.0922	693.824	759.0542	792.1764	808.3961	826.1635	856.0319	889.1856	920.1554	948.2247	989.016	998.9715	1034.954	1038.6838	1068.9624	1113.9115	1140.1769	1185.3596	1186.2213	1207.1265	1249.2109	1255.0677	1272.265	1307.2664	1311.4443	1353.4403	1355.5712	1374.8775	1408.3492	1465.724	1479.626	1483.5804	1493.2244	3033.9	3050.4339	3058.8596	3087.0607	3092.0367	3095.911	3105.6972	3109.339	3111.5846	3114.0239
CC12CCC3OC1C3O2	C[C@]12CC[C@@H]3O[C@H]1[C@@H]3O2	
InChI=1S/C7H10O2/c1-7-3-2-4-5(9-7)6(7)8-4/h4-6H,2-3H2,1H3	InChI=1S/C7H10O2/c1-7-3-2-4-5(9-7)6(7)8-4/h4-6H,2-3H2,1H3/t4-,5+,6-,7-/m0/s1
