19
gdb 5049	2.3937222	1.5757538	1.170969	1.6022	75.43	-0.20485	0.07486	0.27971	1108.89	0.154852	-422.463372	-422.454553	-422.453609	-422.496613	33.69	
C	 1.5673391572	 0.0744332823	 0.0687280462	-0.255502
O	 0.2198340303	-0.3733786764	 0.0936011273	-0.277647
C	-0.3217591585	-0.409637166	 1.3556061178	 0.344465
C	-0.7936328525	 0.8359832715	 2.0871175366	-0.408304
C	-1.7648091047	-0.2757178837	 1.7993715601	 0.312168
O	-2.938866109	-0.0022162261	 1.1291647011	-0.447766
C	-1.593018079	-1.5167943157	 2.7322021422	-0.128785
C	-0.4748133244	-1.4080392777	 3.7378034355	-0.300219
C	-0.1475545031	-1.6528035948	 2.2879528564	-0.121256
H	 2.2226406123	-0.5824710805	 0.6574011302	 0.113569
H	 1.8896654242	 0.0571541007	-0.9747328607	 0.126673
H	 1.6537227767	 1.0971382441	 0.4601183637	 0.114367
H	-0.4809277087	 1.1397086042	 3.0812304803	 0.10675
H	-0.9410148107	 1.6606471072	 1.3946163907	 0.124143
H	-3.1334899612	-0.7452620106	 0.5463095419	 0.289183
H	-2.3453429882	-2.2948207343	 2.783536628	 0.087635
H	-0.2325437122	-0.4772479309	 4.2375929288	 0.115896
H	-0.3631946265	-2.278383926	 4.3795884145	 0.112331
H	 0.3489755381	-2.5492253474	 1.9381574792	 0.092299
85.7846	125.5478	177.142	211.1876	285.8964	331.2536	357.7468	360.4451	457.2619	480.1656	543.4237	594.3183	717.0506	767.3922	789.4537	823.8298	858.021	900.1269	929.2935	982.03	987.1093	1021.3215	1048.4645	1062.8522	1064.1175	1089.2199	1125.5785	1155.1043	1179.1726	1205.2793	1219.0808	1230.4366	1292.2975	1312.4171	1350.3986	1412.775	1472.1035	1486.308	1494.0257	1505.2252	1523.9091	2995.354	3051.1487	3111.834	3121.7706	3126.5323	3178.5356	3190.0521	3197.9706	3206.337	3785.2912	85.7821	125.547	177.1398	211.1876	285.8963	331.2536	357.7466	360.4449	457.2618	480.1656	543.4237	594.3182	717.0504	767.3922	789.4538	823.8295	858.0206	900.1268	929.2936	982.0298	987.1092	1021.3214	1048.4643	1062.8517	1064.1173	1089.2194	1125.5784	1155.1041	1179.1734	1205.2795	1219.0808	1230.4365	1292.2976	1312.4169	1350.3985	1412.7749	1472.104	1486.3089	1494.0252	1505.2261	1523.909	2995.3539	3051.1485	3111.8339	3121.7705	3126.5322	3178.5356	3190.0522	3197.9706	3206.3371	3785.2909
COC12CC1(O)C1CC21	CO[C@@]12C[C@]1(O)[C@@H]1C[C@H]21	
InChI=1S/C7H10O2/c1-9-7-3-6(7,8)4-2-5(4)7/h4-5,8H,2-3H2,1H3	InChI=1S/C7H10O2/c1-9-7-3-6(7,8)4-2-5(4)7/h4-5,8H,2-3H2,1H3/t4-,5+,6+,7-/m1/s1
