19
gdb 3325	2.2054014	1.7224926	1.4407186	2.8392	75.15	-0.22353	-0.01756	0.20597000000000001	1027.3509	0.156194	-422.55324	-422.544538	-422.543594	-422.586144	32.632	
C	-3.1972074455	 0.0616729992	-1.0616648169	-0.440953
C	-1.678471512	 0.0424026778	-0.9703231693	-0.028992
C	-0.9628527892	 1.0947267629	-0.0668207413	-0.043823
O	-1.5518816549	 0.880368732	 1.22565395	-0.277129
C	-1.5400693344	-0.5670163722	 1.3451859588	-0.11864
C	-0.9407598127	-0.9844813219	-0.0101079321	 0.12925
C	-0.7406527937	-2.4451004275	-0.316121321	-0.506542
C	 0.1921436132	 0.0708910659	-0.0741771493	 0.418533
O	 1.3737417914	 0.0540474025	-0.2427949405	-0.321564
H	-3.6531922148	 0.2991888417	-0.098323091	 0.142094
H	-3.5239870528	 0.8206646504	-1.7793412281	 0.125489
H	-3.5841906658	-0.9043390381	-1.4028628365	 0.121748
H	-1.2192519464	 0.0073382211	-1.9639430139	 0.093534
H	-0.8798448798	 2.1562223259	-0.2847004825	 0.09749
H	-0.9141713872	-0.8710171064	 2.1929540998	 0.114354
H	-2.5591252086	-0.9358689609	 1.5084999348	 0.10593
H	-0.1263530542	-2.9249302501	 0.4531613331	 0.133096
H	-1.6964659638	-2.9788605264	-0.3605404222	 0.123314
H	-0.2316739189	-2.5773604758	-1.2755447121	 0.132812
135.9711	154.9155	177.6937	188.0086	229.9422	277.1956	300.8243	331.3482	498.8968	538.0804	607.5041	681.5159	703.1722	748.3205	770.9979	835.0396	910.1542	927.2977	985.2914	999.4405	1032.906	1054.9333	1065.1506	1106.5811	1128.7742	1171.9152	1196.5241	1213.8325	1226.272	1261.067	1298.926	1371.5023	1399.9937	1404.4058	1416.6455	1489.6294	1490.0181	1492.0442	1501.941	1534.0915	1904.7004	3020.8323	3031.8068	3040.2813	3058.8811	3060.4827	3095.1249	3100.5336	3107.6245	3132.0729	3165.8984
CC1C2OCC1(C)C2=O	C[C@H]1[C@H]2OC[C@]1(C)C2=O	
InChI=1S/C7H10O2/c1-4-5-6(8)7(4,2)3-9-5/h4-5H,3H2,1-2H3	InChI=1S/C7H10O2/c1-4-5-6(8)7(4,2)3-9-5/h4-5H,3H2,1-2H3/t4-,5+,7-/m0/s1
