19
gdb 2180	2.3181325	1.8383508	1.596004	2.0035	74.57	-0.24034	0.06591	0.30625	961.2139	0.156557	-422.522003	-422.513985	-422.513041	-422.553881	31.732	
C	 2.0328811903	-1.7297740912	 0.2879764521	-0.539193
C	 1.5699794302	-0.340859562	-0.0303506816	 0.241143
C	 0.156438072	 0.1433974141	-0.476003491	 0.054228
C	 0.0855624269	 1.1065639467	 0.7351203977	-0.315087
C	 1.6118918577	 0.9399645744	 0.931688003	 0.359952
O	 2.1591946007	 0.998648841	 2.2108273623	-0.475468
C	 2.4408955193	 1.6826923255	-0.1339072835	-0.280774
C	 2.0472393749	 0.6075665037	-1.1725631928	 0.053685
O	 0.693983582	 0.794694908	-1.6454184023	-0.306342
H	 1.4671600609	-2.1568690846	 1.1246811709	 0.114566
H	 1.9120588241	-2.400691266	-0.5700040174	 0.127429
H	 3.0907356609	-1.7349243119	 0.5735899155	 0.129255
H	-0.7060698351	-0.4837260289	-0.7107960962	 0.077059
H	-0.3231595632	 2.1072742861	 0.5705084001	 0.106787
H	-0.454295698	 0.6213896529	 1.5595941826	 0.08619
H	 1.5396959825	 0.5984649586	 2.8302979695	 0.276928
H	 2.1951754915	 2.7232143885	-0.3615077724	 0.101955
H	 3.502609968	 1.595730578	 0.1194173172	 0.110072
H	 2.7364856544	 0.3615386071	-1.9826120738	 0.077616
168.422	178.1136	207.4442	259.6803	301.5854	344.9509	424.7369	424.9801	440.9478	605.3278	644.8433	653.7566	760.9012	844.7952	856.1235	872.6087	876.0471	940.1728	947.6882	961.3162	986.5662	1063.1951	1075.4341	1123.3725	1136.5097	1159.3248	1161.0755	1172.0906	1183.0175	1244.2478	1255.9914	1283.7445	1307.4692	1339.4253	1367.5395	1386.6229	1413.6722	1458.4956	1476.4786	1487.9709	1488.9393	3017.8088	3020.6445	3049.72	3081.552	3086.4581	3090.3783	3092.5253	3097.0383	3112.4138	3804.5875
CC12C3CC1(O)CC2O3	C[C@@]12[C@H]3C[C@]1(O)C[C@@H]2O3	
InChI=1S/C7H10O2/c1-6-4-2-7(6,8)3-5(6)9-4/h4-5,8H,2-3H2,1H3	InChI=1S/C7H10O2/c1-6-4-2-7(6,8)3-5(6)9-4/h4-5,8H,2-3H2,1H3/t4-,5+,6+,7+
