19
gdb 4113	3.2975551	1.1579521	0.9701939	2.9876	78.94	-0.23247	0.009	0.24147000000000002	1238.472	0.157247	-422.541353	-422.532917	-422.531973	-422.574339	32.549	
O	-0.257056273	 1.4256706866	 0.1335949139	-0.426326
C	-0.0157128429	 0.0501129304	 0.0065625041	 0.040927
C	 0.2349100058	-0.5872369707	-1.424495488	-0.290578
C	-0.7069819318	-1.7686211639	-1.007038713	-0.050553
C	-1.9861323322	-2.2180204157	-1.7414987927	-0.274151
C	-3.1411311693	-1.9269122515	-0.721857774	 0.130538
O	-4.3629085077	-1.5526154854	-1.3384254246	-0.431662
C	-2.550590856	-0.8356096273	 0.1734681818	-0.3038
C	-1.2287835868	-0.83422055	 0.0531934767	 0.29036
H	 0.5880644084	 1.8768313176	 0.2212446682	 0.286805
H	 0.7684821604	-0.289248946	 0.7002916553	 0.080043
H	-0.2227281642	 0.046727255	-2.1881556579	 0.111066
H	 1.268254468	-0.819923841	-1.6953766447	 0.094504
H	-0.1266116182	-2.6145642048	-0.6231296279	 0.077759
H	-2.1605574039	-1.5907641176	-2.6245928925	 0.093957
H	-1.9727978606	-3.2587432832	-2.0763738514	 0.099717
H	-3.3993371287	-2.8302404302	-0.15427497	 0.093808
H	-4.2090875839	-0.7167854354	-1.7940618813	 0.27253
H	-3.1768168537	-0.1441219566	 0.7238939678	 0.105056
83.97	121.3634	219.2327	246.1663	296.8692	345.4618	385.8877	405.9658	488.2521	527.071	581.4944	649.2671	664.5399	811.2626	833.4253	860.594	871.5962	919.4059	950.5005	995.9237	1016.205	1045.4126	1070.6981	1093.2182	1107.8258	1149.4707	1168.8316	1201.4875	1217.1435	1222.632	1242.0861	1259.5835	1281.871	1308.8822	1324.7103	1336.0863	1427.5475	1436.7903	1471.8928	1481.4581	1741.2188	2983.2782	3023.2811	3034.3374	3042.1602	3054.8935	3097.9774	3123.5803	3210.0856	3787.5855	3825.436
OC1CC2CC(O)C=C12	O[C@@H]1C[C@@H]2C[C@H](O)[CH][C]12	
InChI=1S/C7H10O2/c8-5-1-4-2-7(9)6(4)3-5/h3-5,7-9H,1-2H2	InChI=1S/C7H10O2/c8-5-1-4-2-7(9)6(4)3-5/h3-5,7-9H,1-2H2/t4-,5-,7+/m0/s1
