19
gdb 1016	2.9427668	0.9135969	0.8813909	3.1674	81.38	-0.2447	0.03081	0.27551	1463.7895	0.153349	-422.513654	-422.502963	-422.502019	-422.550977	36.562	
C	 1.5217904766	-0.014160178	-0.0857897272	-0.499734
C	 0.0664569854	-0.0243888993	-0.0670395211	 0.022111
C	-1.1385173984	-0.0240080188	-0.0431998828	 0.054279
C	-2.5921720369	-0.0473196804	-0.0439113666	 0.151688
O	-3.1152007201	-0.1081223793	-1.3607203836	-0.461283
C	-3.2759945596	-1.0263947135	 0.9558690432	-0.107175
O	-3.9717518303	 0.0460528054	 1.6101168267	-0.291643
C	-3.3178726865	 1.0521752626	 0.802503983	 0.123837
C	-4.2902037998	 1.9704273471	 0.0956057074	-0.398347
H	 1.9228530941	 0.4132687013	 0.839630419	 0.15592
H	 1.9272218475	-1.0268005074	-0.1866615489	 0.151823
H	 1.9038000015	 0.5836967724	-0.9203567289	 0.153363
H	-2.4986274282	-0.6176624399	-1.8959224096	 0.285679
H	-3.9575559748	-1.7337138758	 0.4693729432	 0.104971
H	-2.5950805014	-1.5584202182	 1.6306411956	 0.099736
H	-2.6089150955	 1.6287949054	 1.4103886142	 0.077006
H	-4.8853137414	 2.5080560195	 0.8404902088	 0.121618
H	-3.7497650927	 2.7042863098	-0.5105242059	 0.119857
H	-4.9599078196	 1.4060030071	-0.5551189065	 0.136292
30.9194	43.3555	89.6378	111.1133	173.2026	205.2502	256.4722	270.9202	311.1843	352.7017	388.0469	477.2681	514.4287	542.7466	603.7322	788.1546	876.289	885.4808	951.1497	1008.5249	1034.2502	1045.1806	1051.7963	1054.4857	1094.6173	1136.7035	1152.4293	1162.7886	1242.3412	1290.0842	1323.7542	1369.5225	1400.3908	1408.2993	1414.4266	1476.3877	1477.5848	1481.8531	1488.5552	1508.4446	2362.9596	3015.2236	3023.0738	3029.6182	3045.3054	3073.83	3091.5166	3092.82	3112.1133	3144.3043	3824.5957
CC#CC1(O)COC1C	CC#C[C@@]1(O)CO[C@@H]1C	
InChI=1S/C7H10O2/c1-3-4-7(8)5-9-6(7)2/h6,8H,5H2,1-2H3	InChI=1S/C7H10O2/c1-3-4-7(8)5-9-6(7)2/h6,8H,5H2,1-2H3/t6-,7-/m1/s1
