19
gdb 793	2.3915578	1.4039293	1.1274877	2.9216	75.11	-0.25429	-0.03608	0.21821000000000002	1154.7695	0.155675	-422.521608	-422.512595	-422.511651	-422.556741	32.062	
O	 1.2041796926	-0.0872967657	-0.2085317231	-0.251151
C	 0.0122409181	-0.0565780375	-0.0409984207	 0.086196
C	-0.745323169	 1.0921418455	 0.5933699853	 0.19066
C	-1.8427009774	 1.6448121523	-0.3616691254	-0.125291
O	-1.0814898016	 2.8371086497	-0.6099791063	-0.269707
C	-0.0826579066	 2.4718333251	 0.3676311031	-0.115075
C	-1.1776976635	 0.779944456	 2.0122078682	-0.065244
C	-1.4050936481	-0.6198774601	 2.5380474547	-0.28619
C	-0.2187558321	 0.1805582392	 3.012206782	-0.272293
H	-0.632379183	-0.9056820743	-0.3647050331	 0.08823
H	-2.0290224765	 1.0698972662	-1.2789036318	 0.104607
H	-2.8035109907	 1.8526823351	 0.1280303373	 0.101662
H	 0.9276691139	 2.446709069	-0.050931886	 0.127493
H	-0.1057894701	 3.1304767772	 1.2444956593	 0.098917
H	-1.851348894	 1.5366877886	 2.4070015049	 0.094215
H	-2.2340044869	-0.7682039602	 3.220884171	 0.11957
H	-1.2193866499	-1.4682455276	 1.8892059271	 0.1192
H	-0.226669367	 0.5709940406	 4.0233211507	 0.118807
H	 0.7623688218	-0.1137668491	 2.6549333929	 0.135396
42.3309	60.492	74.284	196.6457	244.2595	261.2403	349.1587	361.1408	444.783	536.7215	691.075	785.4145	831.7832	842.0418	863.9765	915.7289	928.0442	963.7383	991.7829	1006.5411	1038.7801	1062.3224	1076.291	1085.7155	1111.9562	1142.3621	1157.0935	1157.8834	1173.0429	1199.3812	1235.0208	1299.5902	1301.7802	1366.5862	1397.8982	1420.5419	1474.2936	1508.4347	1510.7882	1535.7779	1822.9216	2866.8741	2997.6567	3024.8871	3041.1046	3091.2342	3130.589	3137.7411	3141.6543	3215.4211	3229.0784
O=CC1(COC1)C1CC1	O=CC1(COC1)C1CC1	
InChI=1S/C7H10O2/c8-3-7(4-9-5-7)6-1-2-6/h3,6H,1-2,4-5H2	InChI=1S/C7H10O2/c8-3-7(4-9-5-7)6-1-2-6/h3,6H,1-2,4-5H2
