19
gdb 2372	2.8554338	1.4406887	1.1922828	2.2199	75.55	-0.23208	0.07142	0.3035	1097.8391	0.156203	-422.485193	-422.476775	-422.475831	-422.518227	31.301	
C	-2.5297392004	 1.6372316028	 1.2437616137	-0.496116
C	-1.4647815365	 2.1462218189	 0.3304458092	 0.389279
O	-1.1301865508	 3.5435272659	 0.4116500961	-0.320331
C	-0.9914549521	 3.6142626127	-1.0340636236	-0.094656
C	-1.223474077	 2.1166377719	-1.1745551311	-0.27383
C	-0.2976124493	 1.4006899792	-0.2228658583	 0.24181
C	 1.1923748111	 1.5600270105	 0.0559496244	-0.1422
O	 1.3433859932	 0.1216378434	 0.1354311601	-0.277231
C	-0.0485042495	-0.1044557042	-0.168003254	-0.155241
H	-2.213920027	 1.7329111426	 2.2889240534	 0.136852
H	-3.457777139	 2.2025570201	 1.1163646725	 0.131834
H	-2.735579657	 0.5809898323	 1.0484607898	 0.126969
H	-1.7903974688	 4.2274406131	-1.4654166507	 0.111136
H	-0.0161858029	 4.0114781217	-1.3402618494	 0.106666
H	-1.7539403434	 1.6144246789	-1.9741030764	 0.099559
H	 1.7924682357	 1.9880042104	-0.758012506	 0.099696
H	 1.4508814964	 2.0581799893	 0.9975977188	 0.113285
H	-0.1801134068	-0.6447363939	-1.1156024763	 0.100554
H	-0.5599760259	-0.6574755157	 0.6312137778	 0.101964
88.7155	161.8993	173.8061	191.9603	223.6036	271.2085	336.1874	449.4533	486.2604	572.4585	666.2408	761.9701	847.0211	878.7389	920.3507	929.8088	964.2823	977.7165	982.9373	994.0349	1029.3264	1061.5891	1113.3076	1124.3987	1136.8782	1148.8031	1151.7941	1160.7215	1199.7628	1215.4366	1282.5934	1306.404	1334.5423	1369.3226	1408.7403	1473.332	1481.5095	1507.6887	1510.5112	1521.2284	1534.4428	2994.0109	3009.4983	3023.4859	3033.3139	3035.6491	3058.229	3071.3446	3099.1532	3117.5637	3187.817
CC12OCC1C21COC1	C[C@]12OC[C@H]1C12COC1	
InChI=1S/C7H10O2/c1-6-5(2-9-6)7(6)3-8-4-7/h5H,2-4H2,1H3	InChI=1S/C7H10O2/c1-6-5(2-9-6)7(6)3-8-4-7/h5H,2-4H2,1H3/t5-,6+/m1/s1
