19
gdb 6018	3.257361	0.9403899	0.8299851	3.0899	76.16	-0.25816	-0.0118	0.24636	1445.8087	0.155224	-422.499863	-422.490913	-422.489969	-422.534338	32.53	
C	 1.5769791101	-0.938525956	 0.9424420463	-0.38219
C	 1.1397785684	-0.0247328102	-0.2048754553	-0.160763
C	 1.7641226802	 1.3757199803	-0.1250163447	-0.236818
C	 1.3461983248	 2.2754053822	-1.2770696718	 0.021997
C	 1.5759560643	 3.8118077071	-1.2466224314	-0.098921
O	 0.5013371134	 3.9515060012	-2.2647182385	-0.303119
C	-0.0623173286	 2.9362621975	-1.3366831023	-0.079945
C	 0.4046073865	 3.9230356941	-0.2278263264	 0.454694
O	 0.0350242129	 4.5152965425	 0.7297581747	-0.310658
H	 1.1181738522	-1.9283105263	 0.8589203811	 0.116354
H	 2.6641232519	-1.0741252437	 0.9481599666	 0.116836
H	 1.2910531618	-0.5191609636	 1.9132095	 0.120479
H	 1.4066144375	-0.4842509038	-1.1654280068	 0.100734
H	 0.0458523459	 0.0658127539	-0.2052521286	 0.102002
H	 1.4970286459	 1.8411159782	 0.8331670755	 0.113218
H	 2.8586423793	 1.2877474204	-0.1257782676	 0.106133
H	 1.6098913221	 1.8790934095	-2.2622593252	 0.095701
H	 2.4853403837	 4.3925788521	-1.3875979645	 0.111689
H	-1.0346865124	 2.5147213845	-1.5825342311	 0.112576
63.7871	83.9066	119.2055	159.1627	244.3422	295.8798	334.2767	371.8113	431.8929	585.7247	654.7993	734.7047	775.4536	801.1466	808.1832	871.241	886.6477	910.8187	924.9596	943.7293	1016.1806	1044.8947	1071.3084	1120.5726	1124.497	1138.5046	1169.4951	1212.9274	1217.3773	1249.0395	1263.6811	1306.8681	1330.7361	1375.6843	1404.2129	1416.3412	1483.6281	1493.8752	1499.799	1510.2789	1936.2362	3012.8047	3022.0843	3032.5817	3038.5058	3060.3685	3082.1965	3099.5907	3106.2265	3148.9687	3153.8019
CCCC1C2OC1C2=O	CCC[C@@H]1[C@H]2O[C@@H]1C2=O	
InChI=1S/C7H10O2/c1-2-3-4-6-5(8)7(4)9-6/h4,6-7H,2-3H2,1H3	InChI=1S/C7H10O2/c1-2-3-4-6-5(8)7(4)9-6/h4,6-7H,2-3H2,1H3/t4-,6-,7+
