19
gdb 5703	2.7183943	1.4956455	1.2007992	2.7232	75.33	-0.23576	0.06666	0.30242	1089.7622	0.15672	-422.489069	-422.480888	-422.479944	-422.521796	31.762	
O	 1.421654267	 0.327550054	-0.4324897774	-0.425542
C	 0.0671743881	 0.4815804165	-0.0395659412	-0.08311
C	-0.8702136529	 0.5537961113	-1.2355335965	-0.114706
C	-2.1069799169	-0.3446075604	-1.2899119847	-0.392075
C	-0.9121411135	-0.641064681	-2.1257374075	 0.477352
O	-0.0586783576	-1.7831436895	-1.8497984832	-0.331941
C	 0.073783311	-2.0056142476	-3.2644765818	 0.102271
C	 0.7204870786	-0.8373362642	-3.9397794161	-0.309418
C	-0.7635217931	-0.8012158501	-3.6169740137	-0.221723
H	 1.4605289891	-0.5391166635	-0.858104007	 0.289513
H	-0.2452546017	-0.3385036812	 0.6237771664	 0.091988
H	 0.0139696692	 1.407138948	 0.5421102183	 0.10923
H	-0.9339326528	 1.5214681088	-1.725582866	 0.095832
H	-2.2893263705	-0.9909476833	-0.4369128833	 0.126379
H	-3.0021978038	 0.0222514247	-1.7817641674	 0.117966
H	 0.0751407447	-3.0321473007	-3.6091483087	 0.112586
H	 1.4093492117	-0.2083166807	-3.3825841853	 0.130911
H	 0.9576310895	-0.9773416184	-4.9898594486	 0.117601
H	-1.544123746	-0.6727672729	-4.3539256864	 0.106884
95.8959	119.1934	183.8809	197.915	324.7085	393.4911	446.5374	502.0139	512.4511	565.3201	637.4942	759.2727	794.5986	808.6059	856.0438	903.3995	909.6503	937.8967	964.6373	977.5641	1006.4697	1040.0542	1048.7773	1053.6839	1063.4819	1073.3727	1090.8289	1094.4913	1136.4076	1168.4298	1189.3985	1240.9691	1273.5428	1314.3399	1344.8623	1392.1661	1426.2804	1446.2188	1468.3075	1493.3025	1506.8924	2993.5682	3077.1123	3117.6226	3123.8506	3147.0794	3191.5162	3207.1521	3212.3894	3216.4585	3761.8412
OCC1CC11OC2CC12	OC[C@@H]1C[C@@]21O[C@@H]1C[C@H]21	
InChI=1S/C7H10O2/c8-3-4-2-7(4)5-1-6(5)9-7/h4-6,8H,1-3H2	InChI=1S/C7H10O2/c8-3-4-2-7(4)5-1-6(5)9-7/h4-6,8H,1-3H2/t4-,5-,6+,7-/m0/s1
