19
gdb 5762	2.7452987	1.3138792	1.044906	4.1042	74.66	-0.26957	0.0081	0.27767	1200.189	0.157137	-422.571999	-422.563561	-422.562617	-422.605545	31.268	
C	 2.3631219524	 1.4697903636	-0.1821076418	-0.385851
C	 1.7860363767	 0.0514150648	-0.1334973363	-0.19652
C	 2.132020067	-0.7644166536	-1.3740549228	 0.025376
C	 1.4605236352	-0.3988034411	-2.7423463779	-0.265501
C	 0.9314722946	-1.8409473255	-2.8589494256	 0.111648
O	-0.4048884272	-1.9768847051	-2.2753715983	-0.257013
C	 0.1144305842	-2.3582380026	-1.05505085	 0.461465
O	-0.4904142295	-2.6541708281	-0.0754093607	-0.332768
C	 1.5668081408	-2.2243010036	-1.5008922465	-0.266582
H	 2.0967732226	 2.033973469	 0.7163516491	 0.120593
H	 3.4564556826	 1.4513185561	-0.253081695	 0.114849
H	 1.9845287453	 2.0256882329	-1.0467708423	 0.119833
H	 2.1634604251	-0.4721473755	 0.7538975238	 0.108215
H	 0.6966868023	 0.099085141	-0.0152639463	 0.117039
H	 3.2195402865	-0.8015694623	-1.4922188666	 0.085392
H	 0.6635172649	 0.3473145841	-2.7018833026	 0.121752
H	 2.1693595186	-0.1193155316	-3.5246767602	 0.11277
H	 1.015275833	-2.4048139154	-3.786053015	 0.100337
H	 2.2293303051	-3.0658346971	-1.309427435	 0.104967
86.9017	93.8289	114.0337	214.6432	254.8059	362.7582	385.1308	424.7477	482.9081	628.2239	725.6818	770.8609	779.1716	825.1378	869.4376	874.4427	918.1981	942.2052	970.1417	988.4428	1011.2458	1063.6671	1092.5396	1110.6703	1132.9616	1155.0671	1192.878	1213.2863	1235.0939	1272.0236	1289.7419	1304.415	1322.4775	1345.5821	1390.8013	1413.9023	1465.8907	1483.5334	1501.5881	1506.3731	1929.7976	3026.5447	3031.8853	3046.92	3064.5174	3070.5841	3098.2668	3108.5978	3125.0175	3134.5081	3144.8899
CCC1CC2OC(=O)C12	CC[C@@H]1C[C@@H]2OC(=O)[C@H]12	
InChI=1S/C7H10O2/c1-2-4-3-5-6(4)7(8)9-5/h4-6H,2-3H2,1H3	InChI=1S/C7H10O2/c1-2-4-3-5-6(4)7(8)9-5/h4-6H,2-3H2,1H3/t4-,5+,6-/m1/s1
