19
gdb 6027	3.0933986	1.0281911	0.829887	2.5236	77.53	-0.24118	-0.01006	0.23112	1409.2341	0.15582	-422.529541	-422.520488	-422.519544	-422.564098	32.395	
C	 1.415879005	-0.0266086488	-0.111527041	-0.228832
O	 0.0107470609	 0.0321526862	-0.0331149448	-0.24041
C	-0.4447391795	 0.6593383947	 1.1468791341	-0.071654
C	-1.9639192511	 0.661891206	 1.1304412587	-0.154911
C	-2.6443574228	-0.6992275079	 1.3591772691	-0.032615
C	-4.1104110193	-0.5084045346	 1.4619988721	-0.292773
C	-3.2683700854	-0.20907823	 2.6995274024	-0.169286
C	-2.5405146773	 1.0829633257	 2.5158370191	 0.407907
O	-2.283632351	 2.003412039	 3.2413670484	-0.328228
H	 1.8484349752	-0.5994384288	 0.7241566143	 0.10483
H	 1.6703206098	-0.524489024	-1.050253646	 0.128013
H	 1.8677863975	 0.9777216567	-0.1070728704	 0.107447
H	-0.0705109658	 0.1238358682	 2.0368634862	 0.088808
H	-0.0751240456	 1.6947943307	 1.2137120105	 0.107013
H	-2.3219506628	 1.213561588	 0.2549862092	 0.098514
H	-2.1738810218	-1.6558287914	 1.1784284346	 0.114222
H	-4.5987972484	 0.3014650838	 0.9266177269	 0.124217
H	-4.7153063592	-1.4040653357	 1.5593073456	 0.127806
H	-3.4423787883	-0.7253937878	 3.635287531	 0.109933
69.9442	97.7471	112.6659	136.9372	226.8991	258.0971	305.0472	336.9242	485.2499	532.6972	615.6314	696.0828	769.7681	826.2763	888.777	902.2631	932.9861	944.2404	992.8319	1004.6911	1044.6112	1081.3064	1101.6599	1117.0901	1131.6128	1158.0622	1184.0982	1189.6416	1201.6732	1231.2479	1251.1296	1283.882	1316.6801	1350.7109	1418.2459	1480.3379	1485.7504	1496.1131	1502.7101	1524.3015	1870.9436	2952.3533	2972.4579	2997.8823	3016.2251	3059.2776	3115.4085	3117.6601	3196.1851	3205.1073	3220.1384
COCC1C2CC2C1=O	COC[C@H]1[C@@H]2C[C@@H]2C1=O	
InChI=1S/C7H10O2/c1-9-3-6-4-2-5(4)7(6)8/h4-6H,2-3H2,1H3	InChI=1S/C7H10O2/c1-9-3-6-4-2-5(4)7(6)8/h4-6H,2-3H2,1H3/t4-,5+,6+/m1/s1
