19
gdb 4853	2.7973204	1.3694658	1.2012238	2.0927	76.57	-0.21291	0.02047	0.23337999999999998	1106.5783	0.157082	-422.553994	-422.545491	-422.544546	-422.586742	33.001	
O	 1.5862003162	 0.416246323	-0.864146907	-0.436772
C	 0.3066644451	 0.21783183	-0.2522500517	-0.16808
C	-0.5739211599	-0.3752660837	-1.3203045645	 0.437208
O	-0.589973399	 0.4143850183	-2.4775664805	-0.480384
C	-1.8842857561	-1.0522540296	-1.0702407964	-0.122576
C	-2.2443272967	-1.5660849785	 0.3264154317	-0.283655
C	-1.1977216288	-2.6291903466	 0.5971538991	-0.083164
C	-0.3782689754	-2.8048837144	-0.444400694	-0.079034
C	-0.6941271257	-1.8833506219	-1.5670138864	-0.149693
H	 2.084471223	 1.0403742962	-0.3297293665	 0.29207
H	 0.3831985941	-0.4437080424	 0.6172814111	 0.103006
H	-0.1206362688	 1.1789348676	 0.0693503178	 0.094067
H	 0.3363322437	 0.6370428844	-2.6406851715	 0.28672
H	-2.6773649861	-0.7724423939	-1.7535169358	 0.097351
H	-2.2338943881	-0.772575169	 1.0858201231	 0.106375
H	-3.2590901115	-1.9859909136	 0.3438499838	 0.109011
H	-1.1343050015	-3.1552566751	 1.5430645743	 0.09194
H	 0.4433731446	-3.5114503284	-0.4809433073	 0.094953
H	-0.6079129293	-2.2020242324	-2.5995187793	 0.090656
98.2025	151.0226	212.791	232.2984	296.5982	299.9501	380.4756	411.7223	480.4965	496.5652	546.4816	689.4612	731.8541	767.6562	793.0642	861.3956	882.8756	930.3609	949.1379	966.7642	990.1126	998.6975	1028.2164	1045.3343	1059.8537	1076.5951	1130.6853	1163.0355	1182.926	1219.6909	1269.7509	1279.8685	1281.4431	1315.5454	1338.5547	1379.0798	1434.0195	1475.6416	1488.1673	1505.8632	1661.6948	2996.3107	3011.2611	3033.5806	3065.377	3175.0463	3184.0517	3186.4809	3209.6362	3764.6301	3842.2289
OCC1(O)C2CC=CC12	OC[C@]1(O)[C@@H]2CC=C[C@H]12	
InChI=1S/C7H10O2/c8-4-7(9)5-2-1-3-6(5)7/h1-2,5-6,8-9H,3-4H2	InChI=1S/C7H10O2/c8-4-7(9)5-2-1-3-6(5)7/h1-2,5-6,8-9H,3-4H2/t5-,6+,7+/m0/s1
