19
gdb 2011	3.0129578	1.3877238	1.1518293	2.4866	74.99	-0.22837	-0.01601	0.21236	1113.8424	0.156554	-422.567332	-422.559013	-422.558068	-422.600098	32.137	
C	-3.8631225744	 0.7102988299	-1.1831282162	-0.460513
C	-2.5086338369	 0.1027343511	-1.4577087536	 0.431409
C	-2.3468002449	-1.074778502	-2.3709934114	-0.347991
C	-2.0789358168	-1.2292157891	-0.8852655465	-0.100637
C	-0.6481583495	-1.2798268598	-0.3575532343	-0.333275
C	-0.314843385	 0.0061998498	 0.3879094178	 0.363465
O	 0.3210116735	 0.0524221829	 1.4125966926	-0.304334
C	-0.8646761452	 1.2775202309	-0.2661419493	-0.192863
O	-1.4529469744	 1.0363106564	-1.5327873578	-0.284356
H	-3.8782215519	 1.2434295576	-0.225873519	 0.120458
H	-4.1276869576	 1.4227811098	-1.9710590285	 0.130515
H	-4.6353332497	-0.0634882992	-1.1456479659	 0.119408
H	-3.2416811159	-1.5309782431	-2.7799868199	 0.114339
H	-1.4900422184	-1.066999667	-3.0361772244	 0.121998
H	-2.8118559828	-1.780109005	-0.3043948569	 0.098189
H	-0.4769502757	-2.1250727326	 0.3118597234	 0.129377
H	 0.0658455759	-1.3714414382	-1.186034073	 0.1327
H	-1.5666845572	 1.7532730429	 0.4362343215	 0.12187
H	-0.0388749032	 1.9778412149	-0.4224150485	 0.140241
67.1724	183.0801	210.8229	225.0061	327.6836	368.7326	404.3887	449.962	467.233	473.3448	553.6112	637.9433	710.328	758.8745	820.2967	868.0984	890.8091	923.2823	954.0408	986.0263	1042.7858	1061.0486	1095.5904	1103.6096	1107.9348	1141.4197	1189.8664	1230.8826	1249.4631	1273.307	1284.4977	1307.1849	1358.9598	1399.0151	1418.4987	1451.0182	1459.0292	1481.2453	1484.7481	1500.9192	1827.5771	2990.5432	3032.2234	3033.3985	3093.3888	3095.6637	3114.0611	3115.0431	3132.5213	3157.6493	3223.4519
CC12CC1CC(=O)CO2	C[C@]12C[C@H]1CC(=O)CO2	
InChI=1S/C7H10O2/c1-7-3-5(7)2-6(8)4-9-7/h5H,2-4H2,1H3	InChI=1S/C7H10O2/c1-7-3-5(7)2-6(8)4-9-7/h5H,2-4H2,1H3/t5-,7+/m1/s1
