19
gdb 2708	2.520949	1.8111256	1.2638818	0.6749	74.27	-0.21489	0.07155	0.28644000000000003	1035.1247	0.154759	-422.501	-422.492327	-422.491383	-422.533439	33.794	
C	 1.3122112205	 1.149283999	-0.1267082911	-0.408228
C	 1.089937802	-0.3507762482	 0.0082014896	-0.106862
C	 1.8904899332	-1.1784525991	-1.0047988763	 0.344284
O	 1.9733635541	-1.0017427175	-2.3691294282	-0.461468
C	 2.1748241028	-2.5099317231	-0.2867390935	-0.002885
O	 1.5352997166	-2.4645904748	 0.9854894221	-0.331282
C	 1.989779247	-1.0692002026	 1.0658926456	 0.423652
C	 2.1945626226	-0.5763484993	 2.4634395843	-0.511019
C	 3.0700100006	-1.334838449	-0.0604191821	-0.254541
H	 0.8638243923	 1.6960060711	 0.7091683253	 0.112234
H	 2.3803857704	 1.3905510194	-0.161693805	 0.117626
H	 0.8630842944	 1.523072779	-1.0523146137	 0.12178
H	 0.0238193588	-0.5898058845	 0.1112532894	 0.064876
H	 1.233316455	-1.4617196914	-2.7814997294	 0.289475
H	 2.3340882216	-3.4596922565	-0.7813265092	 0.107338
H	 2.9277819287	-1.1954711417	 2.9876670158	 0.132485
H	 2.5464425603	 0.4594111236	 2.4625112076	 0.127337
H	 1.2502275805	-0.6194547688	 3.0170878935	 0.132663
H	 4.1343165987	-1.1706409058	-0.1533990648	 0.102535
171.7584	193.7794	206.7475	224.6279	238.7787	286.0534	312.7102	370.7332	427.4875	504.3444	559.4479	594.9037	667.364	762.4195	774.6809	818.9361	832.2254	851.2552	921.9378	955.7372	972.2377	1015.4338	1043.0256	1074.213	1084.775	1103.3917	1138.9501	1148.0375	1209.9693	1229.8705	1291.6021	1297.9948	1338.6503	1357.5211	1408.823	1413.3343	1445.2001	1476.8076	1488.0655	1495.2749	1500.8469	3026.8027	3030.4056	3038.4427	3099.0897	3100.647	3108.3374	3120.2056	3199.0318	3215.9431	3788.9272
CC1C2(O)C3OC1(C)C23	C[C@H]1[C@]2(O)[C@@H]3O[C@@]1(C)[C@H]23	
InChI=1S/C7H10O2/c1-3-6(2)4-5(9-6)7(3,4)8/h3-5,8H,1-2H3	InChI=1S/C7H10O2/c1-3-6(2)4-5(9-6)7(3,4)8/h3-5,8H,1-2H3/t3-,4-,5-,6-,7-/m1/s1
