19
gdb 574	3.6637671	1.4556173	1.2397067	1.2363	73.86	-0.21588	0.08539	0.30127	1046.0533	0.159605	-422.542291	-422.535073	-422.534129	-422.573681	28.692	
C	 0.2011274402	 1.2536599211	-0.3560287547	-0.084046
C	 1.4435519032	 1.9164680093	 0.2753862899	-0.343183
C	 2.0802347765	 0.7540689683	 0.9888971498	 0.440428
O	 3.0618522936	 1.0012770155	 1.9490478444	-0.303413
C	 3.5964120867	-0.2665699184	 2.3338775855	-0.102596
C	 3.4322241666	-1.2145522175	 1.1188540211	-0.25153
C	 2.2668496927	-0.6077067644	 0.3476328004	-0.180836
C	 1.0119661457	-0.294672224	 1.1506757443	 0.022593
O	-0.1297588956	 0.1055586435	 0.4394984615	-0.270283
H	-0.6743666289	 1.9078494242	-0.3793770532	 0.113632
H	 0.4160414485	 0.9384695635	-1.386161867	 0.102199
H	 2.0833433274	 2.3844203174	-0.4781510201	 0.110184
H	 1.1697118626	 2.6775505847	 1.0138767746	 0.119334
H	 4.6359836318	-0.1158441657	 2.635216191	 0.112421
H	 3.041924176	-0.6534080001	 3.2002555247	 0.102648
H	 4.326925281	-1.1988988467	 0.488290557	 0.112663
H	 3.2669501802	-2.2478858925	 1.4389604544	 0.107877
H	 2.1968918002	-0.7760604773	-0.7217625447	 0.091401
H	 0.7694416816	-0.8207488908	 2.0681550111	 0.100507
169.982	191.6569	213.2038	266.978	349.4791	405.4851	484.27	642.2391	684.702	690.9422	732.4949	859.9528	870.2411	887.4403	916.5502	924.4759	960.1426	982.825	994.1255	1015.5518	1033.475	1066.8406	1106.9782	1120.7527	1141.763	1206.1229	1210.0804	1217.9607	1229.8996	1249.6694	1269.9324	1284.3234	1315.2557	1334.9716	1392.6888	1396.4238	1426.293	1493.2453	1498.5505	1523.6782	1525.6398	3004.6076	3008.2965	3047.7362	3048.802	3085.5109	3086.2405	3099.2839	3099.4843	3163.8031	3165.6793
C1CC23OCCC2C3O1	C1C[C@]23OCC[C@H]2[C@@H]3O1	
InChI=1S/C7H10O2/c1-3-9-7-2-4-8-6(7)5(1)7/h5-6H,1-4H2	InChI=1S/C7H10O2/c1-3-9-7-2-4-8-6(7)5(1)7/h5-6H,1-4H2/t5-,6-,7-/m0/s1
