19
gdb 5229	2.5110587	1.643664	1.2609627	0.7545	74.61	-0.21462	0.05613	0.27075	1068.1881	0.155714	-422.495081	-422.486562	-422.485618	-422.528011	32.73	
C	 0.8855657786	-0.4428057951	 0.9611500896	-0.375034
C	 0.8568958029	 0.2617858493	-0.4030185694	-0.31824
C	 1.6031980335	-0.4976187291	-1.4483304493	 0.426008
O	 1.2125928744	-1.8392406132	-1.7745167104	-0.331707
C	 2.1041872434	-1.7280694802	-2.9220209916	 0.063748
C	 3.5252463547	-1.7534913532	-2.3007597492	-0.303663
C	 3.125034063	-0.3904998079	-1.729843091	 0.291815
O	 3.9276657243	 0.5838334136	-1.175909201	-0.456363
C	 2.0939371579	-0.1598852927	-2.824455549	-0.265886
H	 0.4800613548	-1.4549352834	 0.8803760212	 0.141314
H	 1.9083265653	-0.5253809672	 1.3449182857	 0.102921
H	 0.2935607524	 0.1073037471	 1.6980930707	 0.113311
H	-0.1815097076	 0.4000855204	-0.7271675929	 0.111521
H	 1.3033260802	 1.2601864427	-0.3294976526	 0.113992
H	 1.8151471563	-2.3490703708	-3.7663239901	 0.089473
H	 3.7464850505	-2.5843274922	-1.6227341921	 0.095087
H	 4.3037421146	-1.6482123781	-3.0608875018	 0.10807
H	 4.0757662519	 0.3679310679	-0.2481139574	 0.290023
H	 1.9121226288	 0.6498852819	-3.5173909594	 0.103608
79.6132	139.9565	179.9422	247.8508	284.3772	305.421	396.1071	424.3972	454.0299	517.2736	640.4922	663.8357	732.7918	794.2531	801.346	813.5163	898.9065	909.0035	925.083	966.071	982.2929	1012.8331	1034.3077	1066.3001	1099.0358	1122.7641	1128.0855	1158.8275	1224.9363	1235.0569	1272.114	1290.3877	1316.9076	1336.9186	1395.7414	1412.3172	1452.2349	1473.6888	1491.4856	1497.3475	1507.0977	3032.4125	3038.3887	3044.7416	3071.2519	3104.9939	3112.7793	3123.3972	3150.8581	3211.2093	3788.0743
CCC12OC3CC1(O)C23	CC[C@]12O[C@@H]3C[C@@]1(O)[C@H]23	
InChI=1S/C7H10O2/c1-2-7-5-4(9-7)3-6(5,7)8/h4-5,8H,2-3H2,1H3	InChI=1S/C7H10O2/c1-2-7-5-4(9-7)3-6(5,7)8/h4-5,8H,2-3H2,1H3/t4-,5-,6-,7-/m1/s1
