19
gdb 5851	3.1482297	1.2322868	0.9237031	2.0389	80.84	-0.22529	-0.03459	0.19069999999999998	1255.3163	0.157852	-422.553478	-422.54501	-422.544066	-422.586878	32.044	
O	 0.961023137	 1.0037235996	 0.4838901633	-0.427745
C	 0.0274382588	-0.0050768778	 0.1749680821	-0.066186
C	-1.1562424109	 0.548098248	-0.6206679956	 0.024266
O	-0.5755548208	 1.165651087	-1.7782991793	-0.265596
C	-1.3049049616	 2.2341766242	-2.3359582607	-0.139037
C	-2.6806971948	 1.9179866757	-2.8460244308	-0.077993
C	-3.4054813186	 0.799854705	-2.6939611885	-0.075523
C	-3.0999658506	-0.393628165	-1.9105680636	-0.081541
C	-2.1421084417	-0.5280273065	-0.9850033332	-0.072619
H	 1.1316542629	 1.4533839817	-0.3530535614	 0.285764
H	 0.4861265679	-0.8244131461	-0.4032946873	 0.095147
H	-0.331617951	-0.4229441996	 1.1212858345	 0.109194
H	-1.6468452987	 1.3286025044	-0.0166791031	 0.091202
H	-1.367638809	 3.0828825141	-1.6303117828	 0.105149
H	-0.6917391148	 2.5846510486	-3.1772341875	 0.123109
H	-3.1094935827	 2.7245802247	-3.4390556265	 0.096291
H	-4.3668817393	 0.7714339415	-3.2022580876	 0.090422
H	-3.758150451	-1.241218973	-2.0868239137	 0.093294
H	-2.0428498712	-1.4767118665	-0.4622461382	 0.092404
52.2765	131.6495	180.0812	269.6242	284.6042	342.9806	391.9863	446.7522	454.2102	488.5533	559.6266	671.9543	728.0455	776.1403	814.3315	871.9401	892.6114	960.7287	989.8151	1008.4524	1010.3824	1031.5473	1082.4535	1096.6723	1103.8129	1157.371	1226.9835	1245.3563	1259.882	1281.0125	1286.7149	1366.9879	1386.5799	1406.0177	1421.0046	1437.6707	1456.6548	1475.5472	1499.8211	1682.4068	1715.9185	2935.4964	2966.002	2979.7286	3033.0157	3077.6423	3131.0858	3141.7138	3154.2161	3167.8129	3781.7837
OCC1OCC=CC=C1	OC[C@H]1OCC=CC=C1	
InChI=1S/C7H10O2/c8-6-7-4-2-1-3-5-9-7/h1-4,7-8H,5-6H2	InChI=1S/C7H10O2/c8-6-7-4-2-1-3-5-9-7/h1-4,7-8H,5-6H2/t7-/m0/s1
