19
gdb 5105	3.6519011	1.2482204	1.1227422	0.7533	73.63	-0.25959	0.07216	0.33175	1147.7928	0.156899	-422.537295	-422.52921	-422.528266	-422.569974	31.023	
C	 1.0484966981	 0.9019301554	 0.4452916275	-0.383211
C	 0.820811309	-0.4823643397	-0.1762885489	-0.280778
C	 1.8156188551	-0.8045093887	-1.2627643267	 0.442859
C	 1.8481278993	 0.0078492177	-2.5623108622	-0.316692
C	 2.4123023881	-0.9652792807	-3.5881487706	 0.057995
O	 1.5768989635	-2.1086113732	-3.820937294	-0.259332
C	 2.7185773456	-2.2576515643	-2.9629169699	 0.007555
C	 2.3590654423	-2.1498520745	-1.5081855529	-0.075875
O	 3.1420367756	-1.1617888881	-0.8189182705	-0.304544
H	 0.3274538096	 1.0926801823	 1.2452326632	 0.115827
H	 2.0545846505	 0.9718594402	 0.8694248425	 0.134193
H	 0.9391818966	 1.6993121699	-0.2971771524	 0.118938
H	 0.8915599717	-1.2515201739	 0.6000928013	 0.107075
H	-0.190281725	-0.5443600788	-0.5978809353	 0.106572
H	 0.846874652	 0.3459590365	-2.8502667789	 0.114531
H	 2.4893863436	 0.8892827008	-2.4589290793	 0.116627
H	 2.9508515135	-0.602985815	-4.4593538454	 0.099916
H	 3.4979524456	-2.927570684	-3.3154623559	 0.101612
H	 2.0718178154	-3.021545312	-0.9251954515	 0.096729
76.7283	135.4446	207.5544	236.7042	310.526	358.3549	410.5122	462.9586	491.0486	628.5836	692.9694	768.2052	783.837	821.6234	857.5096	865.4475	931.3454	956.7798	964.661	981.4755	1023.0817	1032.9046	1060.4011	1085.8145	1108.9478	1139.7912	1200.375	1238.0272	1242.7699	1273.5783	1297.7428	1321.9049	1348.5826	1364.41	1408.9517	1432.3179	1452.6091	1470.846	1474.0805	1500.4676	1508.8783	3030.5563	3039.504	3046.2602	3073.5533	3090.6133	3109.0101	3117.2562	3142.2458	3150.833	3162.3682
CCC12CC3OC3C1O2	CC[C@]12C[C@@H]3O[C@@H]3[C@H]1O2	
InChI=1S/C7H10O2/c1-2-7-3-4-5(8-4)6(7)9-7/h4-6H,2-3H2,1H3	InChI=1S/C7H10O2/c1-2-7-3-4-5(8-4)6(7)9-7/h4-6H,2-3H2,1H3/t4-,5-,6+,7-/m0/s1
