19
gdb 2225	2.7193846	1.9579737	1.814451	0.2689	73.17	-0.23283	0.09351	0.32634	883.3316	0.159812	-422.563281	-422.556664	-422.555719	-422.593756	28.115	
C	 0.2096093903	-0.2363415306	-0.8565860742	-0.501775
C	 1.5271036828	 0.0197931653	-0.1757383587	 0.377161
C	 2.6792296248	-1.0066169097	-0.2422295284	-0.227767
C	 3.6323086291	-0.0106406133	 0.4342993379	 0.032951
O	 3.6850123239	 0.9771017462	-0.6099751512	-0.267624
C	 2.317411925	 1.4009687156	-0.4894101936	 0.007833
C	 2.4008937635	 2.0531781722	 0.9010299433	-0.203837
C	 2.667547716	 0.6748779866	 1.5310265812	 0.045364
O	 1.3955606084	 0.0674305415	 1.263429947	-0.298594
H	-0.2376010683	-1.1657096715	-0.491149515	 0.130799
H	-0.4954689265	 0.5779494802	-0.6630361246	 0.126026
H	 0.3496473973	-0.3234045919	-1.9380941781	 0.124012
H	 2.4149293622	-1.8995527102	 0.326151379	 0.102245
H	 3.0487950951	-1.2637528935	-1.235961437	 0.102496
H	 4.631077264	-0.3148875778	 0.7396372637	 0.081779
H	 2.005068078	 1.9797118287	-1.3564852688	 0.078479
H	 3.2168237627	 2.7765792849	 0.9293275019	 0.104491
H	 1.4802143555	 2.4768012619	 1.3040101115	 0.104437
H	 2.9358319662	 0.5871845152	 2.5816316043	 0.081525
204.476	251.0362	273.2828	422.559	494.2278	563.425	589.5116	593.5036	635.8757	679.2687	762.1682	825.0683	859.845	872.1807	899.1334	917.8518	931.9341	945.0366	968.5435	983.3556	1004.1765	1012.8603	1039.4399	1088.0596	1113.1679	1142.1885	1168.5024	1181.986	1220.6791	1245.8794	1259.6528	1270.8045	1278.1778	1304.7018	1324.1221	1349.8944	1417.5088	1473.0972	1475.6023	1482.2966	1495.6835	3040.2137	3081.3634	3084.0863	3110.2934	3115.9227	3143.9616	3144.2043	3145.2338	3148.4384	3154.1215
CC12CC3OC1CC3O2	C[C@@]12C[C@H]3O[C@@H]1C[C@H]3O2	
InChI=1S/C7H10O2/c1-7-3-5-4(9-7)2-6(7)8-5/h4-6H,2-3H2,1H3	InChI=1S/C7H10O2/c1-7-3-5-4(9-7)2-6(7)8-5/h4-6H,2-3H2,1H3/t4-,5-,6-,7-/m1/s1
