19
gdb 1395	2.6879695	0.8493271	0.741352	2.0946	77.85	-0.26615	0.00985	0.276	1575.6335	0.154231	-422.552869	-422.542527	-422.541583	-422.589519	35.929	
C	-2.4806745104	 4.5919339227	 2.6240019741	-0.390762
C	-2.1104068017	 3.9946913241	 1.2516087747	-0.15253
C	-1.6353090026	 2.5311276875	 1.3972267912	-0.194899
C	-1.3327957589	 1.8711562428	 0.0562220057	-0.083089
O	-1.0971531714	 0.4531112041	 0.2159937668	-0.20615
C	 0.1536068998	 0.0836170302	 0.5222899477	 0.182204
O	 1.0943547815	 0.8109995515	 0.6866101295	-0.304598
C	-1.1122581161	 4.8233397282	 0.5747209487	 0.344794
C	-0.2837063306	 5.5068694218	 0.0344448341	-0.486266
H	-3.2663157773	 3.995386125	 3.0979757621	 0.115696
H	-1.6095643722	 4.6046041897	 3.285517267	 0.131557
H	-2.840329784	 5.618239081	 2.5168660767	 0.128292
H	-3.0185075039	 3.9902492571	 0.6310048793	 0.106271
H	-0.738273085	 2.4981596408	 2.0233498116	 0.131311
H	-2.4200024163	 1.960596522	 1.906756386	 0.105834
H	-2.1914556981	 1.9317230015	-0.617620551	 0.11461
H	-0.463729704	 2.3302658668	-0.4179029402	 0.148264
H	 0.1838943204	-1.0147431248	 0.5977292342	 0.109388
H	 0.4467351608	 6.108068098	-0.4480559883	 0.200074
36.4414	55.5739	102.0564	144.9402	186.1673	214.3894	254.7202	274.9831	314.4971	374.8998	437.9155	539.3913	567.8541	632.2892	641.8022	747.8591	795.373	830.3181	935.0182	945.0318	987.6608	1039.6357	1046.7226	1103.2701	1128.2441	1159.097	1192.4614	1255.0033	1295.0803	1330.7509	1348.0419	1361.0371	1406.03	1409.2427	1422.4051	1483.3058	1491.7106	1496.5684	1501.3307	1821.2555	2233.4526	2997.7502	3026.5314	3040.6067	3045.0845	3070.9975	3095.8809	3115.4124	3124.8585	3137.9705	3503.6324
CC(CCOC=O)C#C	C[C@H](CCOC=O)C#C	
InChI=1S/C7H10O2/c1-3-7(2)4-5-9-6-8/h1,6-7H,4-5H2,2H3	InChI=1S/C7H10O2/c1-3-7(2)4-5-9-6-8/h1,6-7H,4-5H2,2H3/t7-/m0/s1
