19
gdb 3989	4.6935294	0.9433947	0.8681004	1.9317	76.51	-0.24912	-0.02172	0.22740000000000002	1331.6871	0.156128	-422.538308	-422.529672	-422.528728	-422.572571	31.837	
O	-0.6791547306	 1.391705912	-4.4584730758	-0.434429
C	-0.7428871731	 1.327022962	-3.049701947	 0.140749
C	 0.0960641807	 2.4739819602	-2.4289551325	-0.25322
C	 0.9935736528	 1.4413193967	-1.7059146676	-0.038516
C	 0.4643962072	 0.9592098469	-0.308520321	-0.085763
C	-0.2884189295	-0.2149659675	-0.9861171777	-0.264543
C	 0.1869197449	 0.2707275404	-2.3761630616	-0.054448
C	 1.5834211836	 0.5709306068	 0.6211057082	 0.136597
O	 1.8881228327	-0.5572100539	 0.9162417144	-0.241368
H	-1.1139417172	 0.6092369782	-4.8138267898	 0.281342
H	-1.7862982512	 1.2725680123	-2.7039622661	 0.060358
H	 0.623789665	 3.0121064776	-3.2196338136	 0.121253
H	-0.4332958369	 3.1945680328	-1.7998273594	 0.097296
H	 2.0739345664	 1.5652101104	-1.7971588681	 0.075943
H	-0.1480516643	 1.7151135278	 0.1978565872	 0.086394
H	 0.1353008299	-1.1745164077	-0.6828018859	 0.130428
H	-1.3717808283	-0.2427308656	-0.8372211865	 0.095403
H	 0.6362254459	-0.4561438281	-3.0542014365	 0.070942
H	 2.1640470318	 1.4383221188	 1.0136022293	 0.075583
32.6101	86.4033	158.0862	250.1842	278.6581	296.4979	319.2482	382.7845	471.1672	649.1588	660.8457	762.1918	803.0652	828.7225	859.0186	880.3083	910.3765	946.4617	986.8925	991.6388	1032.5006	1049.052	1060.9805	1121.3348	1129.07	1141.1717	1180.6853	1204.2767	1220.5559	1242.3675	1257.6741	1267.1376	1274.5714	1289.6124	1322.5993	1350.3028	1420.193	1423.7841	1469.6164	1480.8808	1822.3301	2859.8871	2978.4409	3036.0105	3057.8711	3060.8316	3088.198	3101.9938	3120.3924	3121.9559	3807.0826
OC1CC2C(CC12)C=O	O[C@@H]1C[C@H]2[C@@H](C[C@@H]12)C=O	
InChI=1S/C7H10O2/c8-3-4-1-6-5(4)2-7(6)9/h3-7,9H,1-2H2	InChI=1S/C7H10O2/c8-3-4-1-6-5(4)2-7(6)9/h3-7,9H,1-2H2/t4-,5-,6+,7+/m0/s1
