19
gdb 4679	4.2252539	0.9551901	0.8901717	2.3466	77.68	-0.25781	0.0165	0.27431	1374.5995	0.156854	-422.556967	-422.548086	-422.547142	-422.591141	31.899	
C	 1.5625790308	-0.0554127415	 0.2483735527	-0.237669
O	 0.2834015248	-0.3688246812	 0.8084663497	-0.237617
C	-0.500851488	 0.7005580787	 1.0866422523	 0.430406
O	-0.1598546691	 1.8401553024	 0.8828640393	-0.381938
C	-1.8097131794	 0.304199657	 1.6638966521	-0.135932
C	-1.8642817643	-0.9099044232	 2.5743399358	-0.04563
C	-3.2600577717	-1.0055007483	 3.2015511952	-0.24268
C	-3.8729713388	-1.0802222859	 1.7607095423	-0.242683
C	-2.4567008119	-0.9821687815	 1.1816748603	-0.045644
H	 2.1438691642	 0.5656956285	 0.9346784692	 0.139883
H	 2.0587679745	-1.0127003458	 0.0867071819	 0.129615
H	 1.4500538962	 0.4816326612	-0.6969323992	 0.139889
H	-2.4301929368	 1.1681734317	 1.8830323792	 0.101927
H	-0.9510276118	-1.3510162636	 2.9510259406	 0.100889
H	-3.4103324346	-1.9314897664	 3.7605099335	 0.109824
H	-3.5642033344	-0.1636023645	 3.8310890049	 0.103325
H	-4.344551218	-2.0453808114	 1.5643612118	 0.109821
H	-4.5679941071	-0.2859749096	 1.4713460414	 0.103325
H	-2.0769877745	-1.4883716065	 0.304133117	 0.10089
73.1426	108.2711	119.7087	138.8862	231.8021	281.4815	289.6432	334.6522	447.0645	708.884	709.8653	745.7015	779.9002	824.8077	866.8814	893.3386	941.6265	956.5552	966.0974	1020.197	1022.0255	1070.9946	1073.0016	1115.9827	1119.7697	1181.1084	1190.332	1209.9821	1221.5727	1233.3939	1250.4909	1282.3949	1289.2261	1306.0303	1396.691	1472.8592	1479.9169	1480.6966	1498.8832	1500.2413	1813.2118	3050.5136	3050.5889	3057.9253	3101.8022	3119.6668	3124.3323	3154.8162	3155.5053	3198.9581	3209.5016
COC(=O)C1C2CCC12	COC(=O)[C@@H]1[C@H]2CC[C@@H]12	
InChI=1S/C7H10O2/c1-9-7(8)6-4-2-3-5(4)6/h4-6H,2-3H2,1H3	InChI=1S/C7H10O2/c1-9-7(8)6-4-2-3-5(4)6/h4-6H,2-3H2,1H3/t4-,5+,6+
