19
gdb 3317	2.4984149	1.7795198	1.3672749	3.5012	74.23	-0.22692	-0.01981	0.20711000000000002	1005.9644	0.158708	-422.588969	-422.581252	-422.580308	-422.620974	30.062	
C	-0.634243256	 2.1627393579	-1.1471564232	-0.421117
C	-1.0220554836	 1.1957880228	-0.0227955857	-0.085649
C	-2.3727991886	 0.4554646666	-0.2056274311	-0.060118
C	-2.6883797023	-0.2489128922	 1.1202081034	-0.080262
O	-1.6705890585	-1.2677678125	 1.2174220941	-0.281898
C	-0.9357446648	-1.2445420266	-0.0229850608	-0.003816
C	-1.969952773	-0.7812524345	-1.0517595058	-0.258412
C	-0.038635213	 0.0022504095	 0.0726581142	 0.442957
O	 1.1561625582	 0.0599521412	 0.1850988115	-0.33579
H	-0.7044029088	 1.6914869887	-2.1328757127	 0.119834
H	-1.2867865307	 3.0410174065	-1.1468112868	 0.118109
H	 0.3978816356	 2.4961948292	-1.0102329985	 0.142951
H	-0.9965257827	 1.7399126632	 0.9289398324	 0.101645
H	-3.1851014926	 1.070312935	-0.5952183742	 0.07531
H	-2.6158645463	 0.4160202395	 1.9882891617	 0.106026
H	-3.6798404525	-0.7197936081	 1.122026024	 0.100208
H	-0.4190608416	-2.1929677517	-0.1552978886	 0.092412
H	-1.5346608281	-0.5299793447	-2.0223641349	 0.113578
H	-2.7803576306	-1.50077828	-1.1903767194	 0.114031
103.1601	209.593	217.666	241.7931	269.8461	405.307	422.2573	483.5863	565.203	691.7879	744.7735	775.5072	781.36	861.2428	891.4143	920.7991	928.8386	944.0246	975.0735	1013.955	1023.5366	1066.2501	1092.237	1114.6892	1124.7599	1165.0404	1177.0317	1220.1086	1245.742	1282.3689	1287.6171	1294.709	1315.5021	1346.5511	1377.2151	1406.9826	1486.0327	1497.8889	1501.3736	1530.6811	1860.5629	3015.8341	3036.887	3039.4336	3062.3545	3068.6916	3106.5539	3109.1156	3121.4027	3123.0051	3149.8066
CC1C2COC(C2)C1=O	C[C@H]1[C@@H]2CO[C@@H](C2)C1=O	
InChI=1S/C7H10O2/c1-4-5-2-6(7(4)8)9-3-5/h4-6H,2-3H2,1H3	InChI=1S/C7H10O2/c1-4-5-2-6(7(4)8)9-3-5/h4-6H,2-3H2,1H3/t4-,5-,6-/m0/s1
