19
gdb 4015	3.1555723	1.3506622	1.0753863	4.4367	74.75	-0.25925	0.01188	0.27113	1152.2274	0.158401	-422.596525	-422.588505	-422.587561	-422.629308	30.338	
C	-3.9557985578	-2.1902272881	-0.9330310111	-0.415667
C	-2.7328528619	-1.2872772706	-0.9067670419	 0.03591
C	-1.3365158086	-1.9383384424	-1.1449445313	-0.246275
C	-0.7897900395	-1.1436739122	 0.0716371722	-0.177175
C	-2.2336261035	-0.7769688853	 0.4848694599	-0.045782
C	-2.1984086977	 0.7334052676	 0.7100530303	-0.10531
O	-1.033919092	 1.2122198313	 0.0137605812	-0.224596
C	-0.1803577548	 0.1985262301	-0.3146424314	 0.435469
O	 0.872460547	 0.4038051109	-0.8455238622	-0.344585
H	-3.831724266	-3.0415958023	-0.2538265363	 0.114864
H	-4.8585510189	-1.6490156522	-0.6281152306	 0.117284
H	-4.1306146363	-2.5891744715	-1.9380457546	 0.122682
H	-2.8835489613	-0.439609094	-1.5852355603	 0.0851
H	-1.3485205602	-3.0135384258	-0.9460141393	 0.10618
H	-0.8453132625	-1.7630639271	-2.1044350079	 0.122291
H	-0.1254856047	-1.6670064488	 0.761228477	 0.104288
H	-2.65885272	-1.3239163701	 1.3280855748	 0.079185
H	-3.0690448727	 1.2551758059	 0.301446583	 0.120752
H	-2.0978472886	 0.9960335547	 1.7696638585	 0.115385
73.587	143.7364	197.1796	233.0389	284.6242	302.0416	420.7754	477.8551	593.0159	679.1476	731.6131	744.1011	791.7426	814.7437	875.8079	899.9678	936.2592	982.1728	993.6598	1000.8285	1064.114	1075.1852	1119.0549	1127.3183	1165.463	1188.7927	1200.6182	1221.5775	1254.2457	1260.9709	1273.12	1299.4435	1321.6483	1379.5854	1398.1977	1413.0972	1490.1569	1496.4003	1497.3178	1516.3189	1875.8223	3024.071	3033.4959	3036.6853	3061.4245	3085.5682	3090.6417	3094.2077	3096.7239	3103.774	3119.0739
CC1CC2C1COC2=O	C[C@@H]1C[C@@H]2[C@H]1COC2=O	
InChI=1S/C7H10O2/c1-4-2-5-6(4)3-9-7(5)8/h4-6H,2-3H2,1H3	InChI=1S/C7H10O2/c1-4-2-5-6(4)3-9-7(5)8/h4-6H,2-3H2,1H3/t4-,5-,6+/m1/s1
