19
gdb 4848	2.8725387	1.5276783	1.2869931	1.8504	75.28	-0.22383	0.00941	0.23324	1037.2608	0.157895	-422.529385	-422.52151	-422.520565	-422.56132	31.97	
O	 1.607084575	 0.2343398225	-0.8288524206	-0.424947
C	 0.3143581279	-0.2365684709	-0.4267112757	-0.169565
C	-0.7671005406	 0.4300823161	-1.2796946732	 0.45397
O	-0.3652106046	 0.3425197902	-2.6218573182	-0.494471
C	-1.3606844094	 1.8673948199	-0.8682338453	-0.152672
C	-2.5930610346	 1.4500718534	-1.7389867882	-0.218023
C	-2.2885006928	 0.0490630412	-1.1063210301	-0.124606
C	-2.4894626467	 0.3658323758	 0.3754376591	-0.094936
C	-1.8875884194	 1.5533107734	 0.52675521	-0.096697
H	 1.7095937541	 1.1308535714	-0.4917562278	 0.290652
H	 0.3209485815	-1.3112271858	-0.6368630815	 0.118675
H	 0.1513469124	-0.0913233445	 0.6430184604	 0.107378
H	 0.6024861488	 0.3774222825	-2.5989989232	 0.283268
H	-0.8112010736	 2.7934607319	-1.041295003	 0.053232
H	-3.5502933376	 1.9039331596	-1.4741770466	 0.088133
H	-2.4033957557	 1.495020801	-2.8112305511	 0.120437
H	-2.6820364591	-0.8810720579	-1.5156046628	 0.063745
H	-2.9759325484	-0.2639344204	 1.1068489263	 0.099712
H	-1.7471143273	 2.1467768807	 1.4197056413	 0.096715
101.6955	179.8843	262.8913	326.8982	356.2107	399.8284	425.5986	485.9183	533.5914	563.9568	594.9495	668.8887	723.6963	781.0021	826.6507	845.9093	907.3846	910.0926	926.064	948.2645	974.2504	1004.496	1013.559	1040.3913	1094.2827	1098.3244	1124.9839	1136.2075	1175.1888	1201.5609	1214.061	1243.9763	1249.5435	1269.0868	1331.6259	1357.8037	1398.8715	1426.865	1490.3716	1496.8611	1613.3739	3055.3483	3075.3797	3109.0847	3113.1378	3122.582	3152.9454	3213.381	3240.4699	3716.826	3810.6164
OCC1(O)C2CC1C=C2	OC[C@]1(O)[C@H]2C[C@@H]1C=C2	
InChI=1S/C7H10O2/c8-4-7(9)5-1-2-6(7)3-5/h1-2,5-6,8-9H,3-4H2	InChI=1S/C7H10O2/c8-4-7(9)5-1-2-6(7)3-5/h1-2,5-6,8-9H,3-4H2/t5-,6+,7+
