19
gdb 2000	2.9193732	1.7128312	1.3430633	1.5433	74.19	-0.25252	0.09338	0.34590000000000004	998.1802	0.158279	-422.534508	-422.52686	-422.525916	-422.566364	29.82	
C	 0.1081951844	-0.0105662372	 0.5128001146	-0.503289
C	 1.1087786632	 0.8645013086	-0.1831636201	 0.333654
C	 1.9346063693	 1.9177383599	 0.5003058729	-0.347192
C	 2.6469342714	 0.8152888839	-0.236766614	-0.143879
C	 2.638473132	 1.1576427947	-1.7289328601	 0.089694
O	 2.9262791729	 0.0921131334	-2.6117900702	-0.25613
C	 1.7728130826	-0.7151123058	-2.6590209998	 0.006082
O	 0.6621708663	 0.147016714	-2.526994622	-0.254941
C	 1.0657013201	 1.2085418189	-1.682314383	 0.018022
H	 0.4751399332	-0.3273302952	 1.4944115306	 0.117724
H	-0.8397086923	 0.5186522815	 0.6673503957	 0.122933
H	-0.1083129245	-0.9058588601	-0.0783860912	 0.128634
H	 1.9643892017	 2.9392280686	 0.1229733388	 0.105231
H	 1.9657362731	 1.8505022353	 1.5833653388	 0.116375
H	 3.3402834959	 0.1384952292	 0.2487227351	 0.092426
H	 3.2161026404	 2.0270519224	-2.0520658085	 0.08575
H	 1.7242587373	-1.2149553323	-3.6302243231	 0.120396
H	 1.7850386831	-1.461015672	-1.8465837522	 0.088571
H	 0.5192536299	 2.1058429223	-1.9849690622	 0.079939
129.8836	178.8117	194.0767	257.8451	322.6608	346.731	437.9738	509.6811	561.382	721.6846	746.2629	806.6987	837.501	847.8357	908.9771	929.651	967.4843	980.648	999.5207	1032.2717	1033.6491	1054.2913	1090.2309	1108.1213	1116.3311	1125.4103	1183.9196	1216.6272	1223.66	1237.4057	1264.4754	1288.9992	1341.7383	1354.0938	1382.1311	1420.796	1431.9762	1482.2162	1497.3629	1500.9119	1540.342	2958.7978	3026.9174	3071.9166	3083.6966	3087.0384	3092.5994	3094.0564	3105.5657	3180.3432	3192.7673
CC12CC1C1OCOC21	C[C@@]12C[C@@H]1[C@H]1OCO[C@@H]21	
InChI=1S/C7H10O2/c1-7-2-4(7)5-6(7)9-3-8-5/h4-6H,2-3H2,1H3	InChI=1S/C7H10O2/c1-7-2-4(7)5-6(7)9-3-8-5/h4-6H,2-3H2,1H3/t4-,5-,6-,7-/m1/s1
