19
gdb 2013	3.3749025	1.2930296	1.1118954	4.4569	75.47	-0.25541	0.01188	0.26729	1141.1485	0.157627	-422.589071	-422.580882	-422.579938	-422.621578	31.697	
C	-3.1661993181	-0.1357056629	-2.8896852176	-0.46408
C	-2.4568839806	-0.0372261562	-1.5550355182	 0.286349
C	-3.0115574915	-0.8348739115	-0.3817027862	-0.364129
C	-1.7198908363	-1.2385597659	-1.0407969625	 0.099256
O	-0.4752985585	-1.1237394121	-0.3781295552	-0.224974
C	-0.0060893761	 0.0600315134	 0.0964015171	 0.412465
O	 1.0857662089	 0.0938748313	 0.5938578657	-0.322782
C	-0.9247079761	 1.2660211468	-0.0065695061	-0.369571
C	-1.7853364801	 1.2957752064	-1.2760940277	-0.268714
H	-3.5732174801	-1.1381603825	-3.0535920109	 0.118211
H	-4.0008170616	 0.5731612396	-2.9414400388	 0.122339
H	-2.4840065884	 0.0895829173	-3.7174040433	 0.123043
H	-2.9626703412	-0.4133957988	 0.6156112312	 0.121511
H	-3.8808353453	-1.4605964356	-0.5542070477	 0.118736
H	-1.701972508	-2.1472880888	-1.6314682615	 0.112487
H	-1.5612377856	 1.2614351861	 0.886352548	 0.138276
H	-0.291852497	 2.1515791949	 0.0716956465	 0.138269
H	-2.5308406461	 2.0961820803	-1.2000052828	 0.109267
H	-1.1497587581	 1.5452096082	-2.1357509102	 0.114042
84.919	200.0521	208.0499	239.347	309.4283	351.7701	370.0274	460.2759	482.8577	522.1652	599.7425	672.7525	717.7414	741.4759	848.435	892.2169	912.2433	914.791	955.8487	1025.5564	1037.7171	1045.5844	1068.7916	1116.7741	1121.2619	1142.8971	1198.9484	1220.4824	1247.1769	1279.2187	1342.026	1355.3911	1386.9875	1417.8696	1423.2248	1469.6058	1488.0953	1490.9394	1495.2826	1510.8348	1847.2928	3019.4716	3025.4276	3044.0313	3060.6504	3086.7716	3101.7751	3121.2535	3138.5516	3176.7765	3224.4575
CC12CC1OC(=O)CC2	C[C@@]12C[C@@H]1OC(=O)CC2	
InChI=1S/C7H10O2/c1-7-3-2-6(8)9-5(7)4-7/h5H,2-4H2,1H3	InChI=1S/C7H10O2/c1-7-3-2-6(8)9-5(7)4-7/h5H,2-4H2,1H3/t5-,7+/m0/s1
