19
gdb 1609	2.6348184	1.3750406	1.1206321	4.1556	75.02	-0.27014	0.01305	0.28319	1153.8813	0.155986	-422.580543	-422.571842	-422.570898	-422.614014	32.817	
C	-2.8247376275	 0.028470397	-1.3299033096	-0.436803
C	-2.0069386187	-0.0641580577	-0.0530178068	 0.381675
C	-0.8917241797	-1.1396106519	-0.0404311672	-0.464323
C	 0.0515127738	 0.0580427114	-0.0488044879	 0.445285
O	 1.2226466863	 0.262562919	-0.0545263656	-0.319933
O	-0.9570007983	 0.9877022633	-0.0506429969	-0.275892
C	-2.856816248	 0.0245271463	 1.1922947654	-0.029104
C	-3.2540456059	 1.3626402643	 1.7596557556	-0.269266
C	-2.2916611622	 0.4767134081	 2.5134076247	-0.287148
H	-3.5368412625	-0.8015057219	-1.3831115277	 0.12457
H	-3.3890707713	 0.9647265589	-1.353882351	 0.137914
H	-2.1796651825	-0.0116180476	-2.2120678325	 0.126249
H	-0.8292468321	-1.7475694533	 0.863406919	 0.143217
H	-0.8194144056	-1.7759943239	-0.9242363631	 0.137839
H	-3.6087355798	-0.7596280374	 1.2338041408	 0.090402
H	-2.8364345549	 2.2446172819	 1.2873683396	 0.133553
H	-4.2625044262	 1.4824960194	 2.1386972123	 0.114413
H	-1.2556533166	 0.7933039967	 2.5449184233	 0.133382
H	-2.6390403583	-0.0228828227	 3.4106472776	 0.11397
78.2786	90.775	195.8846	229.923	233.1052	315.768	358.8691	419.2327	503.1073	528.5424	556.3655	599.6306	777.679	806.3123	827.4597	849.2199	859.9697	921.0492	946.9782	966.0425	988.3625	1040.5257	1065.5532	1088.0489	1093.0373	1102.239	1135.336	1190.5656	1199.5297	1220.8179	1228.6476	1251.068	1274.5428	1410.5047	1412.1505	1449.8602	1461.8109	1485.5311	1493.2572	1503.6917	1935.884	3041.0746	3087.1943	3113.377	3123.2085	3137.0399	3139.701	3144.3657	3146.1599	3221.9443	3235.2944
CC1(CC(=O)O1)C1CC1	C[C@]1(CC(=O)O1)C1CC1	
InChI=1S/C7H10O2/c1-7(5-2-3-5)4-6(8)9-7/h5H,2-4H2,1H3	InChI=1S/C7H10O2/c1-7(5-2-3-5)4-6(8)9-7/h5H,2-4H2,1H3/t7-/m0/s1
