19
gdb 5140	2.8221825	1.2308665	1.0074652	2.384	77.28	-0.23655	0.00555	0.2421	1245.7591	0.155794	-422.552939	-422.543973	-422.543029	-422.586604	33.437	
C	 1.3493574163	 0.8019675778	 0.0334496058	-0.485408
C	-0.042822037	 0.2740019921	 0.1658788129	 0.306041
C	-1.1886872177	 0.9356401698	-0.0350278016	-0.23347
C	-2.3704973952	 0.0838185539	 0.3001068615	 0.360166
C	-3.7261757009	 0.3102920391	-0.318524801	-0.165303
O	-3.6609840818	 0.4105258305	-1.73230726	-0.408271
O	-2.3884308056	-0.3419244858	 1.6873041771	-0.301544
C	-1.8250167258	-1.2260602256	 0.7152516149	-0.042757
C	-0.3077516105	-1.1584683401	 0.6119176325	-0.334106
H	 1.8707362998	 0.7866619631	 0.999088419	 0.131781
H	 1.9452513659	 0.1850440355	-0.6513170323	 0.12428
H	 1.355738658	 1.8301623005	-0.3376414327	 0.128264
H	-1.2762985295	 1.9634988233	-0.36575601	 0.098078
H	-4.4120265335	-0.4805492576	 0.0187062502	 0.098483
H	-4.1359114158	 1.2661054038	 0.0267039681	 0.118746
H	-3.2740732446	-0.4056264611	-2.0658372532	 0.283505
H	-2.3542497338	-2.1671599641	 0.5816986415	 0.090177
H	 0.1742042005	-1.3860889666	 1.5708662191	 0.12409
H	 0.0765290912	-1.8854902583	-0.1162900717	 0.107247
78.4842	115.4017	177.0148	196.6969	237.194	309.8026	330.7321	389.8619	425.8942	455.9373	537.964	586.6672	650.5333	775.6414	809.8477	865.9365	877.6563	921.1576	936.4156	975.1331	1003.3982	1021.0037	1042.918	1079.646	1095.6339	1154.6901	1186.1449	1193.9001	1244.8405	1296.9492	1329.6232	1330.9971	1366.2826	1412.0811	1417.5864	1441.7813	1459.2208	1478.181	1487.1449	1504.4484	1700.8659	3001.7666	3016.3504	3021.6587	3057.8622	3063.6702	3069.1298	3113.6228	3133.8639	3207.0972	3812.4827
CC1=CC2(CO)OC2C1	CC1=C[C@]2(CO)O[C@@H]2C1	
InChI=1S/C7H10O2/c1-5-2-6-7(3-5,4-8)9-6/h3,6,8H,2,4H2,1H3	InChI=1S/C7H10O2/c1-5-2-6-7(3-5,4-8)9-6/h3,6,8H,2,4H2,1H3/t6-,7-/m1/s1
