19
gdb 4120	2.6173537	1.6957389	1.2587282	2.7128	73.97	-0.22753	-0.01842	0.20911000000000002	1043.9736	0.158075	-422.570649	-422.56274	-422.561796	-422.603036	30.565	
C	-0.2466122649	-2.433088682	-0.8970699752	-0.405667
C	-0.851887301	-1.2611074974	-0.128198846	-0.068819
C	-2.3672760381	-1.0309705663	-0.4021320106	-0.246329
C	-2.729969851	 0.4361149582	-0.1486644804	 0.088317
C	-1.9767236378	 1.3872925253	-1.1019209437	-0.250089
C	-0.8941660286	 1.2764477539	-0.0025975836	-0.012296
O	-1.917882818	 0.9265291739	 0.9654956259	-0.294334
C	-0.0588269448	 0.0385358955	-0.3155532061	 0.387992
O	 1.0868013954	 0.0912459146	-0.6929976823	-0.324133
H	-0.7646551075	-3.3658037431	-0.6537758597	 0.111324
H	-0.3231912559	-2.2742855233	-1.9779552996	 0.118356
H	 0.8122891292	-2.546454881	-0.6553895322	 0.137542
H	-0.7608526118	-1.455320035	 0.9496771198	 0.122861
H	-2.6156709705	-1.2946562798	-1.4374810538	 0.10659
H	-2.9586574734	-1.6879090003	 0.2431801306	 0.111285
H	-3.7976756364	 0.598168169	 0.0177721873	 0.084903
H	-1.7387304282	 1.0413217906	-2.1105841911	 0.112948
H	-2.4160739242	 2.3853176317	-1.1335722082	 0.120216
H	-0.2904823326	 2.1406939155	 0.2786522388	 0.099334
75.8222	175.2103	200.056	271.5381	358.5731	364.1357	379.3958	462.2446	520.8517	606.8722	654.6463	736.1643	823.4413	861.5475	868.0088	905.8073	942.4916	945.6429	974.6998	998.5823	1037.9235	1074.5122	1101.0546	1121.9833	1147.1079	1166.1102	1202.5403	1224.1229	1251.9629	1290.1823	1297.5503	1310.6062	1332.7974	1344.8998	1371.1011	1411.8928	1484.2557	1490.44	1497.6268	1498.6657	1824.582	3014.8367	3034.2997	3041.218	3069.0968	3078.8208	3086.5614	3105.1332	3110.5316	3131.0168	3135.6132
CC1CC2CC(O2)C1=O	C[C@@H]1C[C@@H]2C[C@@H](O2)C1=O	
InChI=1S/C7H10O2/c1-4-2-5-3-6(9-5)7(4)8/h4-6H,2-3H2,1H3	InChI=1S/C7H10O2/c1-4-2-5-3-6(9-5)7(4)8/h4-6H,2-3H2,1H3/t4-,5-,6-/m1/s1
