19
gdb 1449	2.8039036	1.832444	1.4214233	1.9413	73.25	-0.24784	0.07518	0.32302	961.7091	0.158061	-422.50436	-422.496972	-422.496027	-422.535618	30.769	
C	-0.2372369952	-0.2572530019	 0.0629567524	-0.504933
C	 1.2684013356	 0.0061335008	 0.0366956345	 0.492747
O	 1.7584958069	-0.5205212748	 1.2541814864	-0.49309
C	 2.2430835923	-0.3541828015	-1.1389791208	-0.023591
O	 3.1929477746	 0.5907361291	-0.493357478	-0.333752
C	 1.9543182873	 1.3834057707	-0.271058284	-0.023596
C	 1.6211690122	 1.7990036679	-1.7079539491	-0.04059
C	 0.5102220717	 1.1411733976	-2.4878149236	-0.316651
C	 1.8456829737	 0.4478651588	-2.382839975	-0.0406
H	-0.4724775769	-0.7645124447	 0.9998003919	 0.137899
H	-0.8196174254	 0.6666697944	 0.0247770939	 0.130089
H	-0.5589398754	-0.9016474962	-0.7589400065	 0.130092
H	 2.7116105405	-0.3526214244	 1.2351826651	 0.281488
H	 2.649622546	-1.358595336	-1.2608840377	 0.08284
H	 2.0660199411	 2.1530756383	 0.493212987	 0.082841
H	 2.071303752	 2.7098300741	-2.0843323621	 0.100555
H	-0.3822029787	 0.7595269549	-2.0205859425	 0.122242
H	 0.3192238226	 1.593644889	-3.4572268255	 0.115455
H	 2.4644330151	 0.3438602442	-3.2661394866	 0.100556
125.4678	245.0957	299.9937	341.5339	369.4089	429.0493	449.129	597.0531	610.9526	627.0938	661.7186	669.0274	781.2672	804.2694	816.424	839.3464	883.577	885.0067	918.4729	964.3148	1010.4052	1024.6856	1034.1332	1058.8257	1090.5879	1103.302	1118.95	1152.3979	1177.239	1179.777	1206.1231	1244.9065	1278.5099	1298.4474	1321.1727	1363.2881	1406.0679	1430.2742	1489.8037	1504.3437	1518.1734	3053.5373	3120.2029	3122.0212	3123.5371	3137.6271	3142.2177	3178.0554	3187.2509	3275.7731	3738.7275
CC1(O)C2OC1C1CC21	C[C@@]1(O)[C@@H]2O[C@H]1[C@@H]1C[C@H]21	
InChI=1S/C7H10O2/c1-7(8)5-3-2-4(3)6(7)9-5/h3-6,8H,2H2,1H3	InChI=1S/C7H10O2/c1-7(8)5-3-2-4(3)6(7)9-5/h3-6,8H,2H2,1H3/t3-,4+,5+,6-,7+
