19
gdb 1247	3.0279147	0.7426123	0.6268777	3.5238	84.09	-0.26423	-0.0603	0.20393000000000003	1750.7368	0.153021	-422.539302	-422.528252	-422.527308	-422.578505	37.548	
C	-2.1591505367	 2.7594580324	-0.9875929937	-0.422181
C	-0.7376049825	 2.2077009956	-1.0393484318	 0.143883
O	 0.1979339403	 3.2159758313	-1.3975411078	-0.422384
C	-0.593063956	 0.9847041375	-1.994432031	-0.186113
C	 0.8625527767	 0.4736838385	-2.0382312151	-0.392011
C	-1.502443012	-0.0947319484	-1.6306806008	 0.125835
C	-2.2427627087	-0.9898868985	-1.2945356034	 0.002553
C	-3.1222580138	-2.0714206419	-0.936873621	 0.01925
O	-3.7622156172	-2.1267330806	 0.0888864567	-0.231146
H	-2.1987130886	 3.6226976678	-0.3182553068	 0.130175
H	-2.486080593	 3.0826499639	-1.9850044991	 0.106695
H	-2.8664478361	 2.0064243461	-0.6321485445	 0.146888
H	-0.4335007787	 1.8827125859	-0.0374012217	 0.104562
H	-0.1530847483	 3.6876928748	-2.1612812336	 0.280341
H	-0.8681074688	 1.3294399885	-3.0035213363	 0.102486
H	 1.1573164012	 0.0733552624	-1.0636592925	 0.130797
H	 0.9754208855	-0.3190156128	-2.7815492099	 0.123778
H	 1.52642711	 1.303066235	-2.2868194908	 0.139248
H	-3.1762379733	-2.8807738575	-1.693669367	 0.097341
4.7417	65.5843	71.2899	130.3259	200.5798	220.1991	239.3828	263.6208	284.688	299.0574	369.1579	387.218	450.6335	492.3632	566.0023	642.4709	794.7752	832.537	919.5787	979.9115	1007.8204	1022.5003	1072.6041	1082.9547	1120.0469	1147.0055	1187.806	1251.5909	1310.5783	1329.7907	1368.6572	1400.878	1405.3971	1420.9034	1422.9885	1491.1173	1492.8689	1495.7607	1501.1881	1765.2836	2319.8168	2914.8923	2986.3245	3022.8186	3049.3395	3052.3631	3103.2274	3123.2937	3134.4217	3147.2665	3798.0851
CC(O)C(C)C#CC=O	C[C@H](O)[C@@H](C)C#CC=O	
InChI=1S/C7H10O2/c1-6(7(2)9)4-3-5-8/h5-7,9H,1-2H3	InChI=1S/C7H10O2/c1-6(7(2)9)4-3-5-8/h5-7,9H,1-2H3/t6-,7-/m0/s1
