19
gdb 5125	3.3238177	1.2918087	1.141146	2.5614	74.51	-0.24319	0.06105	0.30424	1125.0275	0.157535	-422.492018	-422.484003	-422.483058	-422.524699	30.89	
O	 1.118020792	 0.8861012547	 0.2007590374	-0.412504
C	 0.1752594901	-0.1440382248	 0.4657775681	-0.181246
C	-1.2367688354	 0.2942049264	 0.2188644727	 0.33342
C	-2.0794292612	 0.998673474	 1.2478667707	-0.353704
C	-2.5778188974	-0.3059539606	 0.6871933064	-0.14258
C	-3.1686734824	-0.160885944	-0.7348477093	-0.066333
C	-3.8241315144	 1.1766301899	-1.1323132462	-0.109287
O	-2.5279443721	 1.7624298218	-1.4322841393	-0.29832
C	-1.8560710404	 0.502402174	-1.1861825935	 0.048439
H	 0.8279057359	 1.6698258174	 0.6797873112	 0.28399
H	 0.4512430012	-0.9658438852	-0.2054410824	 0.106959
H	 0.2658304504	-0.5246923888	 1.4971342264	 0.083008
H	-1.7063206816	 0.9310157008	 2.2658817869	 0.111251
H	-2.554594421	 1.9428126276	 1.0066387818	 0.133638
H	-2.7413121363	-1.163016573	 1.3298167263	 0.092341
H	-3.5448250301	-1.0788630184	-1.1826703305	 0.081646
H	-4.4470252014	 1.1206558358	-2.0335090566	 0.103712
H	-4.3636278447	 1.7297886246	-0.3547005013	 0.103509
H	-1.2475186413	 0.170338778	-2.0307231789	 0.082062
78.0435	115.7046	227.286	260.4358	327.8187	342.8365	385.767	449.655	527.7898	668.1405	721.5378	805.1214	831.6832	857.6134	898.0477	916.5038	920.2695	969.9861	973.883	988.4038	1003.8314	1022.9154	1052.6274	1067.6131	1083.1379	1114.9866	1157.9163	1179.1599	1195.2383	1212.8413	1243.8077	1274.3018	1297.9975	1308.1099	1353.5569	1362.0378	1397.4716	1429.54	1490.0186	1505.109	1519.8831	2962.4232	3017.1017	3053.7923	3063.1209	3083.0221	3127.427	3128.8683	3179.5647	3212.5481	3808.024
OCC12CC1C1COC21	OC[C@]12C[C@H]1[C@H]1CO[C@@H]21	
InChI=1S/C7H10O2/c8-3-7-1-5(7)4-2-9-6(4)7/h4-6,8H,1-3H2	InChI=1S/C7H10O2/c8-3-7-1-5(7)4-2-9-6(4)7/h4-6,8H,1-3H2/t4-,5+,6-,7-/m1/s1
