19
gdb 4014	4.3660389	1.1276921	1.0414252	0.3021	75.47	-0.22348	0.0666	0.29008	1191.218	0.156349	-422.502767	-422.494601	-422.493657	-422.535564	31.727	
O	 0.3195947867	-0.133541714	 0.3487263527	-0.430442
C	-0.9080013357	 0.3157376369	 0.8800968386	 0.114905
C	-2.0871792949	-0.4792072506	 0.2550196335	-0.253404
C	-2.6710983579	 0.8273785732	-0.3445311223	-0.180738
C	-1.47583498	 1.6235347714	 0.2538418322	 0.059624
O	-2.341951684	 2.3323904312	 1.164510582	-0.321366
C	-3.4936102991	 1.669344668	 0.6209926122	 0.472753
C	-4.6760716228	 1.3258925458	 1.4626190311	-0.335516
C	-4.7692518397	 2.4073940921	 0.3903469981	-0.343515
H	 1.0208301377	 0.4214211274	 0.7064558947	 0.283787
H	-0.8980906572	 0.3588001342	 1.9770835905	 0.075692
H	-1.7096644326	-1.1624558043	-0.5085543399	 0.118772
H	-2.7335511169	-1.0266055673	 0.9443933815	 0.103437
H	-2.9651131159	 0.8346723551	-1.3930739596	 0.080572
H	-0.7916301527	 2.2771372203	-0.2940586036	 0.076368
H	-5.1802281225	 0.3794614619	 1.2942511031	 0.115768
H	-4.6569861117	 1.6527781477	 2.4967287993	 0.124674
H	-5.335824398	 2.1972233115	-0.5113350763	 0.114183
H	-4.8091784128	 3.4384076395	 0.7252108224	 0.124446
57.7305	154.411	221.3244	269.9056	318.052	338.9998	376.9573	417.0769	517.7972	585.3738	707.9355	755.36	823.7996	836.2748	866.0627	884.5468	896.8488	940.9781	961.4265	987.4155	995.0036	1020.6705	1040.3734	1045.9022	1066.5669	1117.9866	1150.6967	1171.3461	1186.8432	1192.0063	1218.7865	1244.6805	1269.1867	1275.5871	1283.9498	1320.0919	1388.6272	1418.2279	1448.1752	1465.686	1499.7957	3017.5135	3069.8504	3074.3802	3118.5704	3125.939	3128.653	3131.4589	3209.4997	3223.5524	3808.0232
OC1CC2C1OC21CC1	O[C@@H]1C[C@@H]2[C@H]1OC12CC1	
InChI=1S/C7H10O2/c8-5-3-4-6(5)9-7(4)1-2-7/h4-6,8H,1-3H2	InChI=1S/C7H10O2/c8-5-3-4-6(5)9-7(4)1-2-7/h4-6,8H,1-3H2/t4-,5-,6-/m1/s1
