19
gdb 5947	4.0341825	1.0176793	0.9693206	2.1183	76.07	-0.22968	0.07796	0.30764	1297.7239	0.15644	-422.470466	-422.462122	-422.461177	-422.504125	30.731	
C	 1.6185347857	 0.5671230664	 0.8228768588	-0.218968
O	 0.2602008147	 0.7149215076	 1.1605236884	-0.234858
C	-0.6016624155	 0.034219413	 0.266968747	-0.250692
C	-2.0048281175	 0.2045994388	 0.7188757678	 0.327897
C	-2.951974775	 1.4059928568	 0.7637663321	-0.158534
C	-3.2661356482	 1.1599671927	 2.2393033291	-0.229538
C	-2.8619052503	-0.3060492847	 1.9453008854	 0.021926
O	-3.906603707	-0.7807177839	 1.0446552208	-0.296532
C	-3.3418438569	 0.0904026749	 0.0677609319	 0.019289
H	 1.8399379637	 0.97913252	-0.1749736477	 0.102932
H	 2.2022897738	 1.1141386959	 1.5670519754	 0.127987
H	 1.9312476231	-0.4894501755	 0.8317361826	 0.103885
H	-0.492524007	 0.4338968991	-0.7570318344	 0.089932
H	-0.333330746	-1.0357942931	 0.2229467878	 0.095263
H	-2.858607418	 2.3435277674	 0.2306316792	 0.091973
H	-2.5379793406	 1.6551776303	 2.8855162749	 0.114178
H	-4.2864039818	 1.3167472763	 2.6029192542	 0.098435
H	-2.591713952	-1.0250489431	 2.7155334168	 0.088481
H	-3.6438787452	-0.0063531289	-0.9670692503	 0.106947
72.4516	93.9601	100.5687	228.3245	282.2968	321.4785	356.3605	458.272	561.6387	681.3309	742.4518	786.0518	820.7498	881.3255	916.4063	922.6525	940.4835	967.5382	993.4705	1005.8135	1027.2166	1054.7185	1083.6161	1134.7065	1137.151	1154.0254	1164.7393	1186.4958	1220.2384	1223.9164	1236.1787	1259.1191	1289.4042	1315.41	1395.8877	1466.489	1482.4025	1485.4372	1488.9716	1499.3899	1518.6715	2940.9396	2966.698	2968.1233	3009.565	3051.8056	3114.9698	3121.3	3148.6328	3198.1006	3208.5001
COCC12C3CC1OC23	COC[C@]12[C@@H]3C[C@H]1O[C@H]23	
InChI=1S/C7H10O2/c1-8-3-7-4-2-5(7)9-6(4)7/h4-6H,2-3H2,1H3	InChI=1S/C7H10O2/c1-8-3-7-4-2-5(7)9-6(4)7/h4-6H,2-3H2,1H3/t4-,5-,6+,7+/m1/s1
