19
gdb 5705	3.1692582	1.1006222	0.9932533	1.5319	76.24	-0.24296	0.02479	0.26775	1260.9854	0.156381	-422.54712	-422.53831	-422.537366	-422.581507	32.475	
O	 1.4236907103	 0.6597635783	-0.1762758482	-0.413433
C	 0.0685884686	 0.3048868108	 0.0639409436	-0.104308
C	-0.7838994269	 0.4596959475	-1.1774000842	-0.047838
O	-1.9718515805	-0.3359359568	-1.2471025606	-0.289532
C	-0.910656417	-0.6000311134	-2.1822079136	 0.419333
C	-0.2091253029	-1.9620406153	-2.0873207625	-0.345708
C	-0.3158264552	-2.4966852924	-3.4934928443	-0.067328
C	-0.8563206642	-1.6176438801	-4.336137307	-0.064671
C	-1.2171709195	-0.3192483769	-3.6599409292	-0.340706
H	 1.4578378773	 1.6043135657	-0.3580463543	 0.286445
H	 0.0726842121	-0.7428433076	 0.3738951457	 0.122772
H	-0.363430775	 0.8902392275	 0.8899679189	 0.095644
H	-0.9192442462	 1.4931393632	-1.5126217084	 0.075424
H	 0.8357750955	-1.8562916769	-1.7670537319	 0.128906
H	-0.707863329	-2.5997437122	-1.3482587416	 0.122113
H	 0.0271583959	-3.4896193122	-3.7612562326	 0.094655
H	-1.0210814622	-1.7854715004	-5.3944026901	 0.094214
H	-0.625910695	 0.5209779199	-4.0487533165	 0.110085
H	-2.2721686559	-0.0458306587	-3.7802215931	 0.123933
39.3115	79.4293	139.2152	192.7098	279.0494	364.7154	392.3342	401.4694	430.9447	490.0484	562.435	692.0285	780.661	785.8163	789.051	930.7862	949.8752	962.7494	981.0687	981.7947	986.2562	1037.6707	1044.9181	1091.5325	1105.1965	1132.82	1158.7339	1199.3167	1213.6624	1215.8411	1279.248	1291.603	1352.2066	1370.7852	1386.7786	1404.7526	1471.4877	1474.2974	1501.0314	1507.1905	1689.9267	2991.2126	3014.3368	3022.4359	3053.8854	3056.5475	3060.5029	3106.5957	3185.8401	3210.4798	3817.8764
OCC1OC11CC=CC1	OC[C@@H]1O[C@@]21CC=CC2	
InChI=1S/C7H10O2/c8-5-6-7(9-6)3-1-2-4-7/h1-2,6,8H,3-5H2	InChI=1S/C7H10O2/c8-5-6-7(9-6)3-1-2-4-7/h1-2,6,8H,3-5H2/t6-/m0/s1
