19
gdb 4586	2.6123101	1.3593783	0.9488387	1.763	77.47	-0.25404	0.04182	0.29586	1222.5811	0.157106	-422.536143	-422.527388	-422.526443	-422.569236	33.578	
O	-1.3304810529	-1.7693332873	-0.1870717008	-0.440863
C	-2.1166127086	-0.622314709	 0.0526969613	 0.119817
C	-1.7973035236	 0.3884887788	-1.0502981175	-0.095249
O	-2.5315577748	 1.5858943475	-0.8842489933	-0.244626
C	-2.2310473794	 2.2364236579	 0.3386173045	-0.081624
C	-2.5651288409	 1.3602507669	 1.547548329	-0.218157
C	-1.8182091218	 0.0132197489	 1.4340424385	-0.191193
C	-2.1430702124	-0.9203911747	 2.5066668659	 0.267694
C	-2.427908338	-1.7274194092	 3.3525934977	-0.430978
H	-1.4801093725	-2.3795274917	 0.544817148	 0.288796
H	-3.1919291482	-0.8574747351	 0.01023338	 0.080196
H	-0.7115129888	 0.5834240225	-1.0510463904	 0.094179
H	-2.0700306309	-0.0221654279	-2.0254929018	 0.118485
H	-1.1636862125	 2.517814999	 0.3646378607	 0.087916
H	-2.8217607342	 3.1566108488	 0.3489819997	 0.110915
H	-2.2886340981	 1.8712938288	 2.4754866915	 0.109701
H	-3.6446604799	 1.1776584304	 1.581007057	 0.118288
H	-0.7362473293	 0.2089929211	 1.4600161266	 0.108673
H	-2.6730512132	-2.4211015155	 4.1186452935	 0.198031
104.3254	129.284	177.7734	257.8922	312.5967	355.7238	364.6059	390.4448	438.2539	458.3325	522.8958	539.7003	615.3808	627.4642	652.0293	804.8606	881.6473	897.7431	974.3215	1007.683	1020.2074	1072.9406	1087.9928	1126.6898	1132.7711	1160.5849	1195.1065	1250.009	1277.2427	1293.3088	1301.3322	1336.5299	1359.7043	1365.5045	1393.1982	1416.1718	1438.8597	1481.2787	1493.2423	1503.3908	2227.8409	2955.8986	2968.7204	2982.0354	3007.1256	3046.7786	3088.778	3094.5556	3101.9825	3502.0611	3788.3395
OC1COCCC1C#C	O[C@@H]1COCC[C@H]1C#C	
InChI=1S/C7H10O2/c1-2-6-3-4-9-5-7(6)8/h1,6-8H,3-5H2	InChI=1S/C7H10O2/c1-2-6-3-4-9-5-7(6)8/h1,6-8H,3-5H2/t6-,7-/m1/s1
