19
gdb 4948	1.9815135	1.7692999	1.0663774	3.611	76.95	-0.24562	-0.01613	0.22949	1159.6605	0.156078	-422.550031	-422.540962	-422.540017	-422.583856	33.539	
C	-3.203104906	-1.9200105948	-1.3453421774	-0.432033
C	-2.0623471345	-0.9503517418	-1.1224533607	-0.048355
C	-2.2053316441	 0.1266278357	-0.1017655652	-0.138846
C	-1.0092968504	 1.0901917582	-0.193357613	-0.363493
C	-0.1186841706	-0.1294129747	 0.1458671513	 0.367946
O	 1.0279835429	-0.2500604001	 0.4970194376	-0.342738
C	-1.2617208191	-1.0874149554	 0.1758655565	 0.213615
C	-1.2389881336	-2.2757726312	 1.1043437515	-0.187377
O	-0.1222675854	-3.0992707012	 0.8112239181	-0.419602
H	-3.7893395874	-2.0749708781	-0.4345353363	 0.122771
H	-3.8809536189	-1.5337943543	-2.1132563361	 0.126739
H	-2.8350869073	-2.8953142727	-1.6789474007	 0.139036
H	-1.5089389088	-0.710568467	-2.029590185	 0.093269
H	-3.1420678894	 0.3386282454	 0.3979548542	 0.107199
H	-0.8530397751	 1.5907524367	-1.1536555182	 0.123435
H	-0.9544770612	 1.8296629503	 0.6107863165	 0.134913
H	-1.2118804253	-1.9260857134	 2.1488993292	 0.094863
H	-2.1305934039	-2.8995360374	 0.9934611973	 0.110648
H	 0.6572641979	-2.5301346143	 0.8630085204	 0.298008
77.0157	103.9392	170.9052	206.3149	246.1543	264.5265	277.0567	381.3108	464.1029	500.6739	520.7372	556.3724	657.195	734.9623	783.3847	834.6463	926.5051	941.5453	980.676	984.5045	1014.9171	1046.9749	1052.7997	1069.8225	1094.3	1140.4686	1168.5621	1205.9561	1221.2654	1248.4467	1279.775	1358.0495	1378.2738	1416.6386	1421.0693	1446.8718	1458.9098	1491.9699	1500.9223	1509.8483	1845.9439	2973.3713	3037.2353	3054.7142	3082.9609	3098.8048	3105.2599	3110.3252	3116.3781	3200.6188	3761.5396
CC1C2CC(=O)C12CO	C[C@H]1[C@@H]2CC(=O)[C@]12CO	
InChI=1S/C7H10O2/c1-4-5-2-6(9)7(4,5)3-8/h4-5,8H,2-3H2,1H3	InChI=1S/C7H10O2/c1-4-5-2-6(9)7(4,5)3-8/h4-5,8H,2-3H2,1H3/t4-,5-,7+/m0/s1
