19
gdb 1632	3.5744903	1.2421189	1.1055374	1.8535	75.56	-0.2404	0.08143	0.32183	1148.3948	0.155908	-422.464388	-422.456288	-422.455344	-422.497366	31.188	
C	-0.5502063626	 2.7581394315	-0.1295164101	-0.456229
C	-0.6984205653	 1.4044157503	-0.7866692859	 0.372386
C	-1.605628816	 1.2709529957	-1.9415387886	-0.221236
O	-2.0159663513	 0.8269475438	-0.6500370579	-0.27622
C	 0.386842599	 0.3595433488	-0.6607401298	-0.004534
C	 1.8746969122	 0.6644120438	-0.9988721477	 0.027532
C	 2.2980298983	-0.5854205518	-0.1907128013	-0.22612
C	 1.2591517157	 0.223707883	 0.6213601151	 0.021136
O	 1.9884626832	 1.4617924454	 0.2461824273	-0.312733
H	-0.3996678809	 2.6555131308	 0.9482968887	 0.128269
H	 0.3095771871	 3.3016149555	-0.5258205319	 0.131824
H	-1.4593829134	 3.3421059818	-0.2970156727	 0.112316
H	-2.1189086836	 2.1542511387	-2.3202757145	 0.11121
H	-1.4415490975	 0.4841424011	-2.6780273427	 0.103921
H	 0.0100456048	-0.5881432461	-1.0560885804	 0.078402
H	 2.3087462202	 1.0859897032	-1.90618436	 0.096898
H	 2.0162056528	-1.5723113121	-0.5651664243	 0.099689
H	 3.3127835269	-0.5451350791	 0.2050387616	 0.112338
H	 0.9529792604	 0.1161092057	 1.6618818949	 0.101151
46.0076	173.2847	206.7288	225.4992	327.6266	348.0627	373.9718	489.6978	511.1377	621.7135	757.9875	778.0743	796.0675	834.3696	877.1761	882.9727	910.9209	918.8585	929.0705	1005.0149	1031.5845	1034.4231	1067.4864	1096.6083	1128.2267	1134.4153	1138.5614	1146.0187	1164.2771	1192.525	1209.9133	1249.8149	1282.7131	1312.6667	1337.0848	1413.1754	1435.2376	1476.1113	1486.8985	1496.2837	1529.1383	3051.0707	3064.1694	3073.3607	3075.5714	3113.3251	3120.4812	3123.3083	3136.6553	3155.9551	3158.4154
CC1(CO1)C1C2CC1O2	C[C@@]1(CO1)[C@H]1[C@@H]2C[C@H]1O2	
InChI=1S/C7H10O2/c1-7(3-8-7)6-4-2-5(6)9-4/h4-6H,2-3H2,1H3	InChI=1S/C7H10O2/c1-7(3-8-7)6-4-2-5(6)9-4/h4-6H,2-3H2,1H3/t4-,5+,6-,7-/m1/s1
