19
gdb 1486	2.3190554	1.6751012	1.3486034	1.9804	75.25	-0.24035	-0.02683	0.21352000000000002	1047.4345	0.155439	-422.544646	-422.535754	-422.53481	-422.578022	32.868	
C	-1.0743865941	 1.9761782897	-1.3088138286	-0.448571
C	-1.1006489179	 1.040078719	-0.1077153271	 0.155319
C	-1.1625025652	 1.7978356854	 1.2284688583	-0.436809
C	-2.1194244157	-0.1451874853	-0.1213866545	 0.07999
O	-2.3810565833	-0.6710618724	-1.4376250211	-0.286544
C	-1.4174552566	-1.7335982836	-1.2654112967	-0.090047
C	-0.9809282711	-1.1867870158	 0.1137043931	-0.22681
C	 0.0207752593	-0.028158506	-0.020958845	 0.380769
O	 1.2162212083	 0.0330798759	-0.0373676473	-0.311299
H	-1.1860448	 1.4156560481	-2.2394858434	 0.135548
H	-1.8884168396	 2.7071067928	-1.2520270208	 0.116161
H	-0.1271641606	 2.5236088716	-1.3394206165	 0.130787
H	-1.2093623823	 1.1169082474	 2.0858601934	 0.119302
H	-0.2754817751	 2.4260395787	 1.350314587	 0.138192
H	-2.0502417042	 2.4384443663	 1.2574177849	 0.123822
H	-3.0241056656	-0.0479087277	 0.4832443488	 0.079035
H	-1.910753966	-2.7111719828	-1.2107935206	 0.114798
H	-0.6591601446	-1.7537567371	-2.0558597996	 0.121784
H	-0.8842147457	-1.8805592343	 0.9469838455	 0.104574
77.0157	164.4419	183.8334	210.6674	233.6753	239.7476	277.0151	308.091	447.4371	491.1556	622.5162	669.0071	723.161	796.8556	835.8247	890.342	930.3366	954.0323	964.069	985.3452	1010.1322	1023.2955	1042.4015	1067.1546	1144.9172	1164.2537	1173.2367	1188.8997	1230.0769	1245.5001	1276.509	1309.0677	1352.6138	1392.9304	1414.1552	1481.8268	1484.6313	1500.2772	1507.8199	1523.2392	1884.4759	3023.5592	3027.7829	3036.6246	3073.0487	3085.5093	3094.0492	3102.1565	3114.2323	3129.5907	3132.4281
CC1(C)C2OCC2C1=O	CC1(C)[C@H]2OC[C@H]2C1=O	
InChI=1S/C7H10O2/c1-7(2)5(8)4-3-9-6(4)7/h4,6H,3H2,1-2H3	InChI=1S/C7H10O2/c1-7(2)5(8)4-3-9-6(4)7/h4,6H,3H2,1-2H3/t4-,6-/m0/s1
