19
gdb 3829	2.1519576	1.6117606	1.1508066	2.8715	77.79	-0.25345	-0.03768	0.21577000000000002	1140.6822	0.154082	-422.541129	-422.531825	-422.530881	-422.574935	34.177	
C	 0.803550613	 1.0512534891	 0.003539207	-0.404025
C	 0.8701271547	-0.4670271779	-0.1149041751	-0.061465
C	 1.6402053425	-1.1826387215	 1.053561366	-0.298803
C	 2.6712480242	-1.6991114823	 0.0358793543	 0.339317
C	 4.117145001	-2.0068407885	 0.2601449851	-0.49594
O	 1.9556512123	-2.4524851549	-0.9294409162	-0.308323
C	 1.9317526202	-1.0167841206	-1.0825951023	 0.254087
C	 2.4676246956	-0.4888490444	-2.3483183749	 0.060804
O	 2.160656369	 0.5759754406	-2.8308421507	-0.264475
H	 0.1531155423	 1.336094863	 0.8371613189	 0.113861
H	 1.794646678	 1.479429672	 0.1890531212	 0.114005
H	 0.4186171799	 1.5019357537	-0.9135127083	 0.143982
H	-0.1198285562	-0.8857470567	-0.3165270001	 0.088539
H	 2.061603838	-0.4661638602	 1.7636153849	 0.109518
H	 1.108753621	-1.9682103183	 1.5962176408	 0.112051
H	 4.2163643747	-2.8856941633	 0.9077644863	 0.138854
H	 4.6231459386	-2.2223202809	-0.6837193434	 0.139221
H	 4.6214689677	-1.1695424876	 0.7515213003	 0.13381
H	 3.2018933335	-1.1678267414	-2.8341705138	 0.084981
90.8413	129.53	166.1483	184.7754	221.9513	238.3346	328.7981	333.7809	369.9677	463.086	485.0286	533.6923	599.603	725.7981	752.6861	818.73	840.8397	910.1247	917.3386	1004.3797	1022.7166	1035.3025	1087.709	1104.204	1127.9815	1194.8562	1211.9766	1233.7021	1265.8527	1309.8634	1346.8521	1384.9511	1407.655	1415.073	1450.296	1475.6752	1480.181	1491.2984	1494.5886	1498.0443	1799.6982	2896.5085	3035.6684	3037.2824	3061.6402	3067.8143	3099.7424	3101.2347	3120.519	3130.4242	3131.5558
CC1CC2(C)OC12C=O	C[C@@H]1C[C@@]2(C)O[C@@]12C=O	
InChI=1S/C7H10O2/c1-5-3-6(2)7(5,4-8)9-6/h4-5H,3H2,1-2H3	InChI=1S/C7H10O2/c1-5-3-6(2)7(5,4-8)9-6/h4-5H,3H2,1-2H3/t5-,6-,7+/m1/s1
