19
gdb 5041	2.6641861	1.3050242	1.0497256	4.3891	76.39	-0.26417	0.00815	0.27232	1221.3887	0.155164	-422.568501	-422.559164	-422.55822	-422.602707	33.9	
C	 1.9663208731	 1.68166879	 0.0006771528	-0.377957
C	 1.3194923926	 0.2938766333	 0.112903217	-0.291243
C	 1.9011465727	-0.6897726259	-0.8489877921	 0.450984
C	 3.1328579205	-1.5172939119	-0.749482092	-0.372733
C	 1.7729069033	-2.1885756757	-1.0364332464	 0.012596
C	 1.1804628191	-3.3025290039	-0.2259597392	-0.493783
C	 1.4156244685	-1.8210895373	-2.4544233077	 0.43771
O	 1.012281813	-2.363308035	-3.4321058033	-0.331725
O	 1.6428092954	-0.4625767865	-2.2760830925	-0.307119
H	 1.5061431791	 2.3802320026	 0.705040679	 0.117794
H	 3.0380876363	 1.6353141353	 0.2172744741	 0.122002
H	 1.843277277	 2.0838298831	-1.0087228619	 0.14285
H	 1.4474636685	-0.1032702473	 1.1268172554	 0.109737
H	 0.2407114427	 0.3676989984	-0.0676351808	 0.118858
H	 3.8952512316	-1.4543455253	-1.5195568436	 0.132923
H	 3.5034598004	-1.7124564377	 0.2535980737	 0.124821
H	 1.4235928209	-3.1873472263	 0.8347700069	 0.124045
H	 0.0911051148	-3.3306595797	-0.325091955	 0.137358
H	 1.5709782506	-4.2716546803	-0.5532151645	 0.142883
78.1043	117.82	141.4665	158.5354	210.2836	241.8229	269.218	358.2541	407.7806	473.8862	530.0534	633.9942	689.4228	725.3321	771.2134	789.2791	841.3519	894.7639	950.9609	979.0553	997.9098	1001.5687	1054.2829	1082.7551	1104.1926	1108.5701	1175.547	1204.0731	1303.7157	1336.9463	1364.5568	1409.2452	1414.6048	1431.1498	1471.194	1483.7106	1496.6384	1497.805	1504.0742	1515.8156	1935.3035	3033.4976	3037.2578	3043.6754	3071.7888	3102.5321	3109.4397	3115.135	3116.9699	3123.2267	3208.3921
CCC12CC1(C)C(=O)O2	CC[C@@]12C[C@]1(C)C(=O)O2	
InChI=1S/C7H10O2/c1-3-7-4-6(7,2)5(8)9-7/h3-4H2,1-2H3	InChI=1S/C7H10O2/c1-3-7-4-6(7,2)5(8)9-7/h3-4H2,1-2H3/t6-,7-/m1/s1
