19
gdb 3834	2.4514728	1.5616968	1.3452982	2.1818	74.84	-0.23365	-0.00851	0.22514	1053.8858	0.156942	-422.574353	-422.565889	-422.564945	-422.606989	32.629	
C	-1.3073261084	 1.4974317287	 2.4854419462	-0.415798
C	-1.8605906145	 0.889269069	 1.1988654618	 0.029003
C	-2.074482685	-0.6683460374	 1.2591561445	-0.274785
C	-1.1824703917	-1.1108825324	 0.0874960571	 0.315193
O	-1.0890284887	-2.4685038891	-0.1347968459	-0.482258
C	-1.5545166781	-0.0299895974	-1.013912227	-0.313302
C	-0.8936979633	 0.9728796086	-0.0127956404	-0.154205
C	 0.0469472925	-0.2097518598	 0.2624825783	 0.366716
O	 1.226873249	-0.4161940748	 0.3028810309	-0.344151
H	-0.363676443	 1.0218635731	 2.7758276908	 0.129058
H	-1.1172338435	 2.5694677174	 2.3666951695	 0.117647
H	-2.0133390165	 1.3716916589	 3.3128208007	 0.119604
H	-2.8000003291	 1.3881331277	 0.9387228359	 0.079214
H	-1.7353756577	-1.1023093453	 2.2043070837	 0.112318
H	-3.1147906305	-0.9654673511	 1.1024203638	 0.110187
H	-0.2029898976	-2.6527981526	-0.4705890234	 0.294131
H	-0.9991217031	-0.1552819679	-1.9450379335	 0.114248
H	-2.6215913616	 0.1068175497	-1.2024345627	 0.110883
H	-0.5253799392	 1.9492019049	-0.3181907605	 0.086297
119.4948	145.2358	179.412	243.128	293.6141	312.5506	383.4356	408.4475	453.1417	508.035	567.2398	681.1233	715.1121	792.385	810.0796	815.1855	880.1723	927.543	936.8207	981.3119	1002.5325	1029.0604	1034.0036	1099.3939	1113.26	1140.6442	1166.751	1174.1272	1214.5448	1222.765	1261.1884	1318.8969	1355.8117	1368.3716	1396.756	1415.7338	1484.921	1495.2013	1498.7214	1509.1152	1884.9005	3028.2013	3042.2135	3057.3018	3068.0594	3096.6408	3100.9822	3104.6843	3139.2939	3153.5917	3778.914
CC1CC2(O)CC1C2=O	C[C@@H]1C[C@@]2(O)C[C@@H]1C2=O	
InChI=1S/C7H10O2/c1-4-2-7(9)3-5(4)6(7)8/h4-5,9H,2-3H2,1H3	InChI=1S/C7H10O2/c1-4-2-7(9)3-5(4)6(7)8/h4-5,9H,2-3H2,1H3/t4-,5+,7-/m1/s1
