19
gdb 6001	3.2719944	0.9647732	0.7956533	4.6067	79.48	-0.23889	-0.0425	0.19638999999999998	1445.7688	0.15683	-422.595478	-422.586197	-422.585253	-422.630506	33.08	
O	-2.061649417	-0.9316768967	 2.3290560661	-0.411786
C	-1.0744587425	-0.1493132386	 1.6822172206	-0.059844
C	-0.9993994	 1.2822181227	 2.2466175832	-0.331358
C	-0.0001782657	 2.1317295568	 1.5253295763	 0.215039
C	 1.1900121566	 2.586367214	 1.9437555834	-0.162821
C	 1.925643675	 3.4150656377	 0.9204519563	-0.264654
C	 0.9780755504	 3.4347385264	-0.2941604536	-0.325575
C	-0.2379980132	 2.6013668246	 0.1320213881	 0.335183
O	-1.2167653635	 2.3684726872	-0.5413971582	-0.334074
H	-1.7984942861	-1.0398908575	 3.2485711286	 0.279766
H	-0.0810382152	-0.6220791001	 1.7390350081	 0.082516
H	-1.3632448924	-0.105204441	 0.629149432	 0.141322
H	-1.9965116546	 1.7260874777	 2.1495314594	 0.130344
H	-0.7554492001	 1.2394347138	 3.3156834703	 0.087492
H	 1.6098560328	 2.3974757808	 2.927535697	 0.105626
H	 2.1355533275	 4.4196048067	 1.3075598506	 0.12126
H	 2.9022246211	 2.9736694336	 0.6866303648	 0.121087
H	 0.6494903828	 4.441900539	-0.5664654249	 0.135381
H	 1.4206278442	 2.995544423	-1.192923898	 0.135098
57.4521	89.1719	93.607	123.1754	250.8014	270.7018	307.6792	353.823	398.4471	500.6048	610.4503	659.2796	715.0989	761.7307	796.8239	808.3513	890.2832	928.4299	1001.9013	1023.4814	1026.1423	1047.979	1065.306	1087.1718	1151.5463	1162.3664	1213.7091	1231.5022	1271.175	1296.7203	1313.9412	1322.4781	1361.7602	1394.1884	1416.7579	1450.6663	1475.7575	1483.6258	1513.8799	1693.3343	1803.8194	2977.6659	3023.6165	3029.7911	3053.7615	3067.2424	3075.9185	3106.9863	3109.8631	3177.0092	3813.4738
OCCC1=CCCC1=O	OCCC1=CCCC1=O	
InChI=1S/C7H10O2/c8-5-4-6-2-1-3-7(6)9/h2,8H,1,3-5H2	InChI=1S/C7H10O2/c8-5-4-6-2-1-3-7(6)9/h2,8H,1,3-5H2
