19
gdb 4760	3.2588711	0.812318	0.6969733	4.5818	83.17	-0.25338	-0.0577	0.19568	1655.9769	0.153653	-422.548598	-422.537633	-422.536689	-422.587024	37.071	
C	 1.4835292719	 0.7710835295	-0.5545796252	-0.506566
C	 0.125698479	 0.3770905155	-0.2221085017	 0.181499
C	-1.0024959284	 0.0588232331	 0.0675061453	-0.014448
C	-2.3477598217	-0.3387353367	 0.4223769198	 0.210403
O	-2.8030784805	-0.0902371689	 1.5262577421	-0.329754
C	-3.1414330628	-1.0931819844	-0.6431162719	-0.107675
C	-3.1866692976	-0.3175095216	-1.9709343482	-0.411525
C	-4.5521140636	-1.4298381507	-0.1344746168	-0.066008
O	-4.5504206391	-2.2313404465	 1.0259550608	-0.430808
H	 2.125501588	 0.7616801798	 0.3322918013	 0.16582
H	 1.9206671063	 0.1019482375	-1.3028854704	 0.161099
H	 1.4970746444	 1.7866914948	-0.9655365999	 0.166014
H	-2.599361433	-2.0359970949	-0.8074513131	 0.111367
H	-3.7227306076	 0.6305261726	-1.854270763	 0.127197
H	-2.1824928182	-0.0952083172	-2.3387769185	 0.130561
H	-3.7070956987	-0.9063172311	-2.7320521377	 0.125568
H	-5.1079295925	-0.4912553573	 0.0200851586	 0.091469
H	-5.0797223936	-1.9967072311	-0.9092449427	 0.101424
H	-4.1634240725	-1.6775595024	 1.7160318311	 0.294364
14.7124	37.8259	82.4418	131.7552	162.429	196.3418	221.863	262.554	295.3544	341.7113	390.9346	414.909	498.2195	560.41	579.4827	667.6388	742.4822	885.3302	928.9091	961.83	1043.6912	1053.3404	1064.4646	1078.3407	1106.4665	1146.5433	1190.2166	1246.8925	1285.6838	1355.787	1394.1227	1406.135	1409.4561	1444.3806	1468.2681	1473.8121	1493.6173	1498.3833	1503.638	1729.9536	2336.1262	2979.0653	3012.4256	3033.252	3039.8585	3067.9572	3096.7443	3102.1592	3106.8617	3126.4787	3773.9168
CC#CC(=O)C(C)CO	CC#CC(=O)[C@H](C)CO	
InChI=1S/C7H10O2/c1-3-4-7(9)6(2)5-8/h6,8H,5H2,1-2H3	InChI=1S/C7H10O2/c1-3-4-7(9)6(2)5-8/h6,8H,5H2,1-2H3/t6-/m1/s1
