19
gdb 4836	3.207318	1.3097865	1.0872459	0.7884	74.41	-0.20919	0.06012	0.26931	1141.5682	0.156355	-422.467107	-422.458681	-422.457737	-422.499988	33.072	
O	 1.4856311134	-0.2059720147	-0.2617508627	-0.430099
C	 0.3204744409	 0.5219178793	 0.1042764366	-0.170707
C	-0.7218900163	 0.5200660354	-1.0393698828	 0.349442
O	-0.4375636526	-0.5093825348	-1.9653909073	-0.467693
C	-1.3509833104	 1.7089069405	-1.7313620981	-0.133587
C	-1.9447773127	 2.8231226789	-0.8283028609	-0.068157
C	-1.8419883105	 2.6088039162	 0.6636985332	-0.314202
C	-2.8271994994	 1.7989338715	-0.1275326098	-0.059928
C	-2.2200691378	 0.6758475512	-1.0027169555	-0.109667
H	 1.2181387336	-1.1267174981	-0.3559398822	 0.286318
H	-0.1198245152	 0.1166813994	 1.0266683817	 0.104881
H	 0.6698581344	 1.535281778	 0.3065468294	 0.129514
H	 0.4763291762	-0.3656520889	-2.2416941742	 0.285013
H	-1.2399084262	 1.8306355717	-2.8016607063	 0.090079
H	-2.2304088564	 3.7863891105	-1.2316704022	 0.092008
H	-0.9873987506	 2.1797264645	 1.1676472947	 0.116023
H	-2.3052982599	 3.4104283279	 1.2335710209	 0.112091
H	-3.8920199496	 1.8482193539	 0.0616392436	 0.09082
H	-2.8249998209	-0.1022984923	-1.4507488182	 0.097851
67.4729	168.6159	199.1644	217.1003	341.0957	351.0769	378.3197	438.0409	468.3033	606.9184	610.6873	690.6422	703.0633	737.6406	775.5988	839.3915	877.598	886.3249	920.6397	974.321	991.951	1006.0387	1026.3507	1037.5493	1057.9767	1072.8374	1082.5643	1094.2436	1115.7641	1189.5641	1218.6489	1235.9198	1258.8004	1277.3232	1318.3347	1347.6926	1371.277	1421.0423	1444.0741	1498.145	1515.2856	2996.3032	3113.54	3133.4464	3178.9139	3187.7767	3190.0383	3199.5512	3231.2601	3775.5687	3808.8986
OCC1(O)C2C3CC3C12	OC[C@]1(O)[C@@H]2[C@@H]3C[C@@H]3[C@H]12	
InChI=1S/C7H10O2/c8-2-7(9)5-3-1-4(3)6(5)7/h3-6,8-9H,1-2H2	InChI=1S/C7H10O2/c8-2-7(9)5-3-1-4(3)6(5)7/h3-6,8-9H,1-2H2/t3-,4+,5-,6+,7+
