19
gdb 1408	2.4081914	1.4751164	1.1750346	2.8011	77.48	-0.23493	-0.00712	0.22781	1124.0283	0.154218	-422.55574	-422.546447	-422.545503	-422.58904	35.371	
C	-1.4347296653	-0.4236012959	-2.5356212692	-0.467159
C	-1.8990139706	-0.8526463889	-1.1601117483	 0.362097
O	-2.9329732976	-1.801032191	-1.2117785234	-0.464019
C	-0.9338286254	-1.1166874773	 0.0196760479	-0.298342
C	 0.1196895007	-0.0670448342	 0.088118817	 0.419233
O	 1.3054364486	-0.0877109168	 0.2750544668	-0.328634
C	-0.9166568069	 1.0871656156	 0.046862182	-0.430479
C	-2.0273195647	 0.0201710752	 0.0357663016	 0.283588
C	-3.2689341462	 0.1141475677	 0.8750848264	-0.493448
H	-1.0654183285	-1.2925261603	-3.0938982279	 0.116603
H	-2.2698968676	 0.0080953446	-3.0964016753	 0.131439
H	-0.6224036115	 0.3041156137	-2.4990092011	 0.137318
H	-2.6159125021	-2.5577713842	-1.7169395436	 0.287365
H	-0.9275268558	-2.0994749839	 0.476192121	 0.104066
H	-0.8859736828	 1.6359778651	 0.9938244714	 0.131805
H	-0.8719934041	 1.8046607897	-0.7766787069	 0.116896
H	-3.0185571662	 0.3209825381	 1.9210186687	 0.12056
H	-3.9101586543	 0.9302104486	 0.520904104	 0.124838
H	-3.8445143396	-0.8112294057	 0.8269560288	 0.146274
102.3688	183.0712	192.1695	208.4352	244.4677	291.9371	313.0354	326.1514	388.6751	444.2722	478.1318	507.3806	554.094	616.8076	660.7395	669.3188	823.5386	870.2023	924.6258	954.3287	968.5146	988.139	1062.9281	1070.4567	1096.6965	1122.0988	1155.6486	1170.4545	1208.1786	1235.7974	1274.6358	1305.4471	1413.1379	1417.8021	1450.0816	1467.6327	1489.8403	1492.6812	1494.8092	1512.931	1870.3425	3030.5218	3031.481	3055.6624	3086.3039	3093.2143	3106.5738	3135.6684	3142.4989	3190.8154	3802.3062
CC1(O)C2C(=O)CC12C	C[C@@]1(O)[C@H]2C(=O)C[C@@]12C	
InChI=1S/C7H10O2/c1-6-3-4(8)5(6)7(6,2)9/h5,9H,3H2,1-2H3	InChI=1S/C7H10O2/c1-6-3-4(8)5(6)7(6,2)9/h5,9H,3H2,1-2H3/t5-,6+,7+/m0/s1
