19
gdb 5836	2.1597983	1.3748383	1.1312472	2.2756	78.1	-0.24679	0.02495	0.27174	1194.3075	0.153412	-422.491397	-422.481398	-422.480453	-422.526499	35.839	
C	 1.5162715505	-0.4066083915	 0.0079665583	-0.247358
O	 0.1587115015	-0.0219437669	-0.1069559558	-0.230008
C	-0.3567771761	 0.5861488844	 1.0356269064	 0.035916
C	-1.8682772622	 0.8236724321	 0.9789978278	-0.111323
O	-1.713759233	 2.2308534573	 1.2494138597	-0.311176
C	-0.2581306075	 2.1600249725	 1.1619165148	 0.185559
C	 0.2448113198	 2.8902990988	-0.0791381386	-0.432799
C	 0.3778348955	 2.6387144334	 2.381520164	 0.310293
C	 0.9217571166	 3.006336632	 3.389070241	-0.461869
H	 1.6623407003	-1.1069857096	 0.8434050533	 0.114796
H	 1.7885725202	-0.9027257663	-0.9260107723	 0.133332
H	 2.1786433388	 0.4566265381	 0.1587776442	 0.118968
H	-0.011132214	 0.0813153754	 1.9461160114	 0.085965
H	-2.2912106515	 0.6317121719	-0.0145211527	 0.111052
H	-2.4730688132	 0.3204543698	 1.7404511435	 0.110124
H	-0.1650732546	 2.4278074747	-0.9790893628	 0.131149
H	-0.0745011614	 3.9347338776	-0.0326124872	 0.135731
H	 1.3368911403	 2.8652948845	-0.1345225987	 0.123113
H	 1.3933896701	 3.3415946618	 4.2797257736	 0.198538
48.761	109.561	142.1205	161.8684	187.6639	231.1692	257.3518	275.0478	374.1303	426.801	460.7458	529.0665	559.9461	619.0629	643.2586	662.5317	779.9012	881.228	914.8432	943.6206	1018.0901	1045.0633	1077.8242	1116.6992	1156.1024	1168.4116	1174.951	1184.7931	1211.041	1249.6924	1279.9347	1335.3657	1395.5931	1410.3813	1476.9851	1482.4451	1487.1561	1492.5379	1507.8657	1517.9549	2229.3466	2990.5352	3025.7007	3027.9021	3045.7454	3051.0848	3079.4347	3123.9431	3125.0588	3141.1145	3500.5416
COC1COC1(C)C#C	CO[C@@H]1CO[C@@]1(C)C#C	
InChI=1S/C7H10O2/c1-4-7(2)6(8-3)5-9-7/h1,6H,5H2,2-3H3	InChI=1S/C7H10O2/c1-4-7(2)6(8-3)5-9-7/h1,6H,5H2,2-3H3/t6-,7+/m1/s1
