19
gdb 1984	3.180822	1.4177963	1.2879748	2.925	73.89	-0.24382	0.07596	0.31978	1048.0956	0.158237	-422.536706	-422.528994	-422.52805	-422.568992	30.321	
O	 0.4725385616	 0.2151507054	 0.7524570703	-0.471133
C	-0.7981740475	 0.6809807492	 0.4145524704	 0.417851
C	-2.011622279	-0.0895699526	 0.8734329193	-0.359262
C	-1.6783315407	 1.2580212983	 1.4890929328	-0.109613
C	-2.4411915706	 2.4255353775	 0.9193441311	 0.131818
O	-1.854197435	 3.7107441713	 1.224486792	-0.29606
C	-1.557654337	 3.9546636694	-0.1646846004	-0.0768
C	-2.0459400608	 2.5492223437	-0.583232234	-0.081446
C	-0.9469218667	 1.5010621612	-0.8700787526	-0.316605
H	 0.6545730503	-0.5688007693	 0.2230578903	 0.281918
H	-2.8731451437	-0.1756694545	 0.2160298285	 0.105604
H	-1.8264150416	-0.9574518501	 1.4966321298	 0.115106
H	-1.3510391111	 1.2934433524	 2.521613482	 0.105187
H	-3.5103361606	 2.4141409463	 1.1660429673	 0.073308
H	-2.1498057121	 4.7884536038	-0.5637521118	 0.097499
H	-0.4929243363	 4.161195211	-0.3313101399	 0.102566
H	-2.8550559491	 2.5402310075	-1.3134136419	 0.076569
H	-1.1954050227	 0.8732589404	-1.7336048386	 0.093417
H	 0.0132868627	 1.9818966989	-1.0845914247	 0.110076
66.5637	143.3492	284.4768	310.515	349.6646	395.1724	423.4406	433.595	573.6259	639.4826	736.6099	807.3288	816.3244	871.5708	875.8919	903.0505	928.6487	950.0599	995.8792	1018.3438	1021.2522	1044.9816	1063.5135	1074.0175	1098.467	1107.2348	1162.1912	1181.0014	1217.8348	1253.6951	1258.6432	1279.1595	1308.7828	1319.4972	1340.9007	1346.2683	1364.8959	1409.5703	1481.2389	1500.907	1525.1598	3004.7934	3024.0278	3032.0817	3048.4928	3075.4378	3108.6976	3114.6819	3187.2331	3211.2784	3797.5075
OC12CC1C1OCC1C2	O[C@@]12C[C@@H]1[C@H]1OC[C@H]1C2	
InChI=1S/C7H10O2/c8-7-1-4-3-9-6(4)5(7)2-7/h4-6,8H,1-3H2	InChI=1S/C7H10O2/c8-7-1-4-3-9-6(4)5(7)2-7/h4-6,8H,1-3H2/t4-,5-,6+,7+/m1/s1
