19
gdb 1627	3.1400238	1.3985482	1.2009025	1.4915	75.54	-0.23708	0.07268	0.30976000000000004	1094.0078	0.156137	-422.49752	-422.489217	-422.488273	-422.530271	32.448	
O	 5.5764480003	-1.7590877861	 0.5881842002	-0.46991
C	 4.4085900785	-0.9829120392	 0.5884969498	 0.305769
C	 4.0548969765	-0.3700148751	 1.9061040701	-0.319298
C	 4.5619606224	 0.513195704	 0.7868224499	-0.316343
C	 3.3805333097	-1.4917420644	-0.3441027713	 0.447117
C	 1.9006225626	-1.3006314238	-0.357400962	-0.351383
C	 2.4749994789	-2.7073045738	-0.3947922654	-0.190768
C	 3.086903363	-2.9571086562	-1.7635138868	-0.091079
O	 3.8584906259	-1.7235418646	-1.6898398312	-0.34297
H	 5.8179728953	-1.8632688096	-0.3410181838	 0.287254
H	 3.0132738923	-0.2990137723	 2.1971794431	 0.114008
H	 4.7397894522	-0.5915491847	 2.716386462	 0.129048
H	 3.8594000209	 1.1743582178	 0.2922531994	 0.117132
H	 5.577545454	 0.8830055739	 0.8642949229	 0.120238
H	 1.4416948921	-1.0331266133	 0.5889032066	 0.120865
H	 1.4284931235	-0.8707433308	-1.2372490275	 0.114757
H	 2.2609015106	-3.4511594172	 0.3598040985	 0.107905
H	 3.7534166246	-3.8256276778	-1.7979921692	 0.112374
H	 2.4156314167	-2.9690157566	-2.6302965252	 0.105284
69.3869	148.6487	190.6681	289.6305	311.2377	347.3621	420.3831	430.8175	484.1356	515.0599	582.688	750.6129	771.0887	816.8024	857.2132	887.4399	915.8789	933.4318	952.7328	971.494	984.0568	996.0419	1007.731	1023.6072	1048.9246	1077.9835	1081.8268	1127.4424	1139.0012	1168.1257	1190.0472	1211.2323	1262.4148	1297.4124	1341.4441	1381.563	1437.6837	1452.0465	1487.541	1509.5171	1521.5186	3026.339	3076.5004	3112.7823	3139.3171	3142.688	3205.4648	3214.2776	3225.0167	3239.1126	3776.1876
OC1(CC1)C12CC1CO2	OC1(CC1)[C@]12C[C@H]1CO2	
InChI=1S/C7H10O2/c8-6(1-2-6)7-3-5(7)4-9-7/h5,8H,1-4H2	InChI=1S/C7H10O2/c8-6(1-2-6)7-3-5(7)4-9-7/h5,8H,1-4H2/t5-,7-/m0/s1
