19
gdb 1812	3.1954391	1.1892166	1.0491264	2.1765	77.	-0.27732	0.0091	0.28642	1207.0486	0.156615	-422.543512	-422.535026	-422.534082	-422.577284	31.538	
C	-1.6719838591	 3.2019472844	 2.7761738952	-0.517596
C	-2.0557205978	 2.5901381161	 1.4562931869	 0.28074
C	-3.1583437121	 1.512053757	 1.175823843	-0.263841
C	-2.5192086458	 1.8065380511	-0.2136749666	-0.085472
C	-2.5704158328	 3.3129532659	 0.1689226522	-0.262125
C	-1.1419951169	 1.7988426632	 0.488974902	 0.165839
O	-0.6420908379	 0.5629516648	 1.0219430928	-0.236593
C	 0.0470693758	-0.2108917705	 0.1710034101	 0.169693
O	 0.2569926176	 0.0206530165	-0.9875398263	-0.3022
H	-1.3026698227	 2.4369821174	 3.4671875435	 0.129071
H	-0.8830218872	 3.9513501565	 2.6491621052	 0.1207
H	-2.5308041926	 3.6938285787	 3.2447118112	 0.122272
H	-2.9940632427	 0.5205496995	 1.5984757741	 0.105318
H	-4.1922081991	 1.8412651247	 1.3093837357	 0.090349
H	-2.7639355981	 1.3587986019	-1.1749980248	 0.088087
H	-1.870941735	 3.9834810176	-0.3394371688	 0.094688
H	-3.5677596042	 3.7520288068	 0.2396006104	 0.098944
H	-0.3264505607	 2.3321045542	-0.0033704303	 0.09463
H	 0.3982975914	-1.1037394559	 0.7121687944	 0.107496
36.6156	140.9972	194.6677	201.8838	234.1393	298.509	362.0968	431.003	517.1454	587.7318	635.6454	754.8941	775.675	832.6011	906.2371	911.908	922.8012	949.1941	1013.2371	1018.2667	1022.7566	1045.5744	1059.646	1093.6983	1104.7723	1145.2339	1184.6988	1199.6051	1201.0767	1226.1632	1234.6967	1254.1578	1337.8567	1403.2445	1409.7871	1413.9659	1488.7008	1491.9497	1496.4261	1539.2156	1821.3716	3023.9177	3030.1194	3051.385	3064.8608	3096.6953	3097.7292	3101.998	3121.8644	3136.4603	3139.8057
CC12CC(C1)C2OC=O	C[C@@]12C[C@@H](C1)[C@@H]2OC=O	
InChI=1S/C7H10O2/c1-7-2-5(3-7)6(7)9-4-8/h4-6H,2-3H2,1H3	InChI=1S/C7H10O2/c1-7-2-5(3-7)6(7)9-4-8/h4-6H,2-3H2,1H3/t5-,6-,7+/m0/s1
