19
gdb 1184	2.392481	1.2753765	1.0347799	1.9936	77.12	-0.25614	0.03369	0.28983	1237.2749	0.153611	-422.511706	-422.501606	-422.500662	-422.546382	37.507	
C	 2.8631380598	-3.724271525	-1.2170292035	-0.421186
C	 3.2129764466	-2.253246712	-1.2074885629	-0.055071
C	 4.4968343046	-1.7676165171	-0.5529640076	-0.34951
C	 3.1756523487	-1.459040184	 0.0751589659	 0.391611
O	 2.9209498151	-2.117223697	 1.2917968471	-0.47766
C	 2.6517479324	-0.0288882593	 0.0960795298	-0.109585
O	 3.2573565434	 0.7128234342	 1.1418711146	-0.413773
C	 1.1827455516	-0.0506964911	 0.2253640584	 0.299398
C	-0.0091911664	-0.1228375795	 0.3714362965	-0.456369
H	 3.1140898412	-4.18842747	-0.2597503804	 0.130034
H	 1.7924843787	-3.8754164396	-1.3945514311	 0.1174
H	 3.4084348124	-4.2523275732	-2.0061259778	 0.120522
H	 2.907030894	-1.7074124916	-2.0972974574	 0.087645
H	 5.1031747993	-2.5091968762	-0.0440547708	 0.123914
H	 5.054819779	-0.9584631599	-1.0111700618	 0.119555
H	 1.9624505048	-2.2230869891	 1.3620099849	 0.289264
H	 2.9260257348	 0.4754930324	-0.8370384102	 0.113018
H	 3.2342317168	 0.1357149299	 1.9167789815	 0.28919
H	-1.0651252465	-0.1512190119	 0.4848977351	 0.201605
66.3071	103.3418	172.3371	192.5741	199.0974	239.9529	274.6181	341.8671	362.0109	402.226	442.1495	478.2178	544.2756	565.2488	611.3302	652.0032	663.4009	792.3391	819.0006	889.2577	896.622	955.7598	978.3885	1012.704	1053.0438	1068.3981	1089.7656	1135.5267	1185.5651	1219.1719	1256.7234	1289.9193	1311.0949	1367.9973	1406.6042	1419.79	1438.1745	1489.4811	1498.2129	1507.3816	2223.8919	3033.4223	3054.1852	3091.8991	3115.117	3134.396	3135.2491	3224.1287	3499.965	3753.0473	3769.2574
CC1CC1(O)C(O)C#C	C[C@@H]1C[C@@]1(O)[C@H](O)C#C	
InChI=1S/C7H10O2/c1-3-6(8)7(9)4-5(7)2/h1,5-6,8-9H,4H2,2H3	InChI=1S/C7H10O2/c1-3-6(8)7(9)4-5(7)2/h1,5-6,8-9H,4H2,2H3/t5-,6-,7+/m1/s1
