19
gdb 1483	2.3280415	1.8603036	1.3559057	2.4885	74.37	-0.23156	-0.01302	0.21853999999999998	1005.5305	0.156759	-422.571871	-422.563453	-422.562509	-422.604216	32.814	
C	-0.9608918635	-0.053176269	-2.3710523098	-0.450449
C	-1.5447839087	-0.0393102633	-0.9671918387	 0.436226
O	-2.9368344849	-0.1478085081	-1.1199260019	-0.490342
C	-0.9741575096	 1.1006566873	-0.0305292081	-0.190391
C	-1.7205602182	 0.8305830197	 1.2954661654	-0.260161
C	-1.6052105729	-0.741759937	 1.3587363199	-0.260006
C	-0.819452177	-1.0052408271	 0.0543498575	-0.190309
C	 0.2100859578	 0.1344753678	 0.148204791	 0.433327
O	 1.3986963782	 0.2254144574	 0.2366315836	-0.330223
H	-1.2332892487	-0.9823886453	-2.8797905128	 0.128778
H	-1.364771304	 0.7811695264	-2.9517258225	 0.128774
H	 0.1288047874	 0.0285761184	-2.3572229417	 0.139197
H	-3.3639481376	-0.1420831856	-0.2583720135	 0.284748
H	-0.8542926637	 2.1298189211	-0.3634268331	 0.083364
H	-1.2406174613	 1.3190556726	 2.1463129531	 0.121746
H	-2.7561967883	 1.1835843692	 1.2620178956	 0.105297
H	-1.0644414294	-1.0854908068	 2.2432129767	 0.121711
H	-2.5781498124	-1.2433540631	 1.3592154576	 0.105355
H	-0.5488275631	-2.0292015947	-0.1958997684	 0.083358
150.7758	158.0066	224.8052	235.9067	259.5471	288.893	370.9263	389.6968	503.563	506.9196	620.2589	674.1294	677.6081	734.9539	774.6444	851.6894	886.4127	917.3402	959.2257	970.3944	978.3521	1014.1417	1055.6775	1060.461	1118.3893	1125.4896	1168.1929	1179.6808	1201.2927	1202.9705	1245.0811	1271.4573	1311.8447	1319.9375	1370.585	1424.0593	1480.3185	1501.5666	1503.1689	1518.8624	1903.378	3044.3808	3046.6114	3056.2319	3095.1944	3111.674	3116.2312	3128.5836	3141.3926	3144.5108	3833.418
CC1(O)C2CCC1C2=O	C[C@]1(O)[C@H]2CC[C@@H]1C2=O	
InChI=1S/C7H10O2/c1-7(9)4-2-3-5(7)6(4)8/h4-5,9H,2-3H2,1H3	InChI=1S/C7H10O2/c1-7(9)4-2-3-5(7)6(4)8/h4-5,9H,2-3H2,1H3/t4-,5+,7-
