19
gdb 4087	4.3956922	1.2199238	1.0708672	0.2665	74.85	-0.23933	0.06043	0.29975999999999997	1155.6648	0.157528	-422.502818	-422.495117	-422.494173	-422.535038	29.52	
C	 0.3458955419	-0.4815249962	 0.4309529808	-0.403091
C	 0.8387320381	 0.6713945372	-0.4211996557	 0.140046
O	 2.1520474233	 1.1336202951	 0.0039780217	-0.311454
C	 2.7419786756	 0.8072109908	-1.2640919499	 0.113678
C	 2.7383910999	 2.0089794024	-2.2310693647	-0.113954
C	 3.2632440274	 1.670888442	-3.6359617257	-0.092477
O	 1.9706865831	 1.181505572	-4.0638828682	-0.293562
C	 1.3663879626	 1.5172171888	-2.8013229222	 0.106038
C	 1.3664378169	 0.32372838	-1.8289311905	-0.124098
H	 0.2529620011	-0.1665522275	 1.4749450926	 0.127775
H	-0.6364672319	-0.8206381243	 0.0839421463	 0.11671
H	 1.0421684976	-1.3246462182	 0.3869465382	 0.12183
H	 0.1127482869	 1.4969153349	-0.3985995394	 0.076001
H	 3.6566536466	 0.2149828891	-1.1656103495	 0.0779
H	 2.9444924604	 2.9906976994	-1.8081415821	 0.08857
H	 3.5759635098	 2.5392248702	-4.2287371646	 0.106499
H	 4.0430153786	 0.9002782762	-3.6972724652	 0.101398
H	 0.4538482125	 2.1102517371	-2.9148685905	 0.077836
H	 1.1480119196	-0.6620461591	-2.2382167812	 0.084354
93.1355	175.3703	210.538	236.6702	275.9419	356.6538	409.3678	465.9014	688.0536	786.9308	806.09	838.9377	877.6625	885.8765	922.0452	941.1201	970.17	985.8713	1015.0154	1042.8793	1048.9016	1072.3775	1080.2843	1107.2476	1117.9031	1152.105	1166.0273	1198.8069	1214.9275	1230.1339	1239.8814	1268.4896	1295.5125	1311.2748	1341.0463	1363.2405	1389.6081	1405.3384	1482.9789	1492.5966	1521.8966	2997.2907	3008.1047	3033.057	3050.3939	3061.8182	3063.7219	3106.2759	3113.6557	3121.0861	3130.8696
CC1OC2C3COC3C12	C[C@H]1O[C@@H]2[C@H]3CO[C@H]3[C@H]12	
InChI=1S/C7H10O2/c1-3-5-6-4(2-8-6)7(5)9-3/h3-7H,2H2,1H3	InChI=1S/C7H10O2/c1-3-5-6-4(2-8-6)7(5)9-3/h3-7H,2H2,1H3/t3-,4+,5+,6-,7-/m1/s1
