19
gdb 4274	2.6279771	1.7144144	1.6946264	2.2694	73.85	-0.24301	0.00383	0.24684	930.0943	0.160346	-422.57409	-422.566974	-422.566029	-422.605203	29.384	
O	 0.3675542692	 0.3351196208	 0.457351909	-0.452606
C	-0.9371339823	 0.3438381565	 1.0077443271	 0.161472
C	-2.0248583756	-0.1365293365	-0.0022147704	-0.244876
C	-3.0302927269	 1.0158182313	-0.2580752415	-0.078266
C	-2.2147540142	 2.2297974959	-0.7578698039	-0.070353
O	-1.2065383433	 2.5675684858	 0.2009762998	-0.29533
C	-1.3166816719	 1.7851992051	 1.4215730314	 0.013335
C	-2.7213668207	 1.8289500357	 1.9546256917	-0.069299
C	-3.6302114689	 1.4215764454	 1.0671940142	-0.08423
H	 0.424805337	 1.1384546375	-0.0779658691	 0.283578
H	-0.9019073204	-0.3070744844	 1.8856768444	 0.084795
H	-1.5210079255	-0.4251753954	-0.9297341402	 0.104283
H	-2.5548177504	-1.0150297825	 0.3741223065	 0.101508
H	-3.7814105037	 0.7360605595	-1.000039109	 0.069673
H	-1.7173496194	 1.9922065144	-1.7077611045	 0.097706
H	-2.8655703128	 3.0991288601	-0.9164232254	 0.100169
H	-0.5704855579	 2.204600808	 2.0974919719	 0.081384
H	-2.9389671216	 2.1773407382	 2.9573553615	 0.100205
H	-4.6999289409	 1.4044331447	 1.2441905764	 0.096854
115.9974	274.1084	318.1864	367.2606	385.7669	443.1655	494.242	499.5476	628.6916	654.6328	686.4716	721.4607	798.2707	828.551	858.0475	922.2732	953.7581	968.2381	980.9531	1007.4491	1009.9495	1034.428	1060.8802	1083.7347	1110.4617	1140.1993	1182.6695	1209.8735	1238.0395	1266.2676	1296.546	1320.9239	1337.9981	1341.6885	1360.3164	1388.559	1400.0635	1438.4656	1485.1074	1522.8205	1680.9342	3004.8668	3042.9867	3052.6752	3070.4703	3086.552	3103.3119	3110.2498	3181.5552	3206.416	3750.715
OC1CC2COC1C=C2	O[C@@H]1C[C@@H]2CO[C@H]1C=C2	
InChI=1S/C7H10O2/c8-6-3-5-1-2-7(6)9-4-5/h1-2,5-8H,3-4H2	InChI=1S/C7H10O2/c8-6-3-5-1-2-7(6)9-4-5/h1-2,5-8H,3-4H2/t5-,6-,7+/m1/s1
