19
gdb 4475	3.5171002	1.292218	1.1200094	3.1516	74.89	-0.23809	-0.02415	0.21394	1127.8046	0.157113	-422.574591	-422.566388	-422.565444	-422.607807	31.049	
C	-4.1679043758	-0.5830435299	 1.2639889478	-0.410261
C	-2.7998454211	 0.093924002	 1.3601421736	 0.117047
O	-1.901337108	-0.6359527496	 2.2060156619	-0.263284
C	-1.2817285658	-1.6490478952	 1.4249549355	-0.106324
C	-1.0871891385	-1.0365219395	 0.0249993739	-0.172306
C	-2.0714365146	 0.1883679106	 0.0113962242	-0.033439
C	-0.8634506832	 1.175220664	-0.0336267439	-0.374449
C	 0.0776587813	-0.0367627301	-0.0770857147	 0.417215
O	 1.2623660715	-0.1689079924	-0.1786417246	-0.295836
H	-4.5774085699	-0.746033088	 2.2644993111	 0.128254
H	-4.8668110083	 0.0443026764	 0.7011038729	 0.116613
H	-4.1044648073	-1.5515023477	 0.756901202	 0.118062
H	-2.9133443463	 1.0777515226	 1.8286011792	 0.085814
H	-0.34091381	-1.9202689911	 1.9116853628	 0.128497
H	-1.9101109614	-2.5495206647	 1.3619355339	 0.098302
H	-1.1320886001	-1.7749414648	-0.7778746723	 0.099125
H	-2.7496181344	 0.2620660695	-0.8385191795	 0.080375
H	-0.7994598744	 1.8177923436	-0.9165348395	 0.130013
H	-0.7362033737	 1.7962139142	 0.8592577456	 0.136583
42.4095	139.0201	216.3239	241.6109	255.8853	329.0303	431.0191	464.4748	510.8315	619.9435	703.5963	724.9402	742.1162	836.6389	851.0109	885.0729	932.3882	963.2381	1000.9058	1005.6068	1012.0593	1067.5386	1085.5309	1110.5581	1138.1461	1155.7223	1170.0399	1222.3638	1228.0955	1241.4484	1267.1424	1299.9759	1329.3963	1372.9185	1392.891	1403.2934	1429.5186	1487.841	1496.2393	1518.4669	1891.4039	2991.9846	3037.3239	3048.4842	3052.7463	3091.7425	3097.8445	3104.9656	3106.0989	3117.0802	3121.3507
CC1OCC2C1CC2=O	C[C@H]1OC[C@H]2[C@@H]1CC2=O	
InChI=1S/C7H10O2/c1-4-5-2-7(8)6(5)3-9-4/h4-6H,2-3H2,1H3	InChI=1S/C7H10O2/c1-4-5-2-7(8)6(5)3-9-4/h4-6H,2-3H2,1H3/t4-,5-,6+/m1/s1
