19
gdb 3479	2.1295737	1.939391	1.4976542	2.746	75.34	-0.24574	0.00855	0.25428999999999996	987.7976	0.157657	-422.560027	-422.551982	-422.551038	-422.592181	31.574	
C	 1.0669314817	-2.7204602614	-0.3738056837	-0.468396
C	 0.7446950252	-1.4778387905	-1.1715752258	 0.395297
O	 1.9470489253	-0.9035773318	-1.7789973961	-0.33672
C	 1.4514287773	-1.1503885379	-3.1159289031	-0.084039
C	 0.0736198006	-1.5868626889	-2.5685258328	-0.16192
C	-0.9727191693	-0.5059834252	-2.5554090951	-0.091752
C	-1.0075748045	 0.1564746924	-1.3994831406	-0.105997
C	-0.0127479444	-0.3672015418	-0.3827077837	 0.051292
O	 0.8748035193	 0.6112220203	 0.120889918	-0.437313
H	 1.6822401287	-2.4549578972	 0.4923186496	 0.138425
H	 0.1475420498	-3.1908955996	-0.0087491093	 0.120508
H	 1.6161962679	-3.4495309673	-0.9766755334	 0.118012
H	 1.4674668416	-0.2471316005	-3.7350134079	 0.10632
H	 2.0265785673	-1.9434256898	-3.6092437597	 0.103331
H	-0.283754741	-2.5661672808	-2.8948022749	 0.081875
H	-1.5938412449	-0.2926394649	-3.4194491724	 0.099632
H	-1.6573757245	 0.9938525276	-1.1702953857	 0.103583
H	-0.5249212401	-0.7859781302	 0.4935471055	 0.080578
H	 1.5652133837	 0.6926771776	-0.5541899089	 0.287287
98.0244	200.4875	238.9457	276.658	282.1902	316.5009	378.0865	503.5812	522.6925	553.1596	603.9654	678.7349	759.5744	808.0783	857.1883	867.7692	897.9773	916.3054	979.9204	1000.7545	1017.6553	1040.6811	1068.7974	1079.636	1109.7494	1150.768	1169.4466	1172.2068	1216.1608	1235.2693	1283.0381	1301.6798	1340.5572	1357.2348	1372.0925	1406.6231	1446.8783	1482.498	1490.7848	1519.7886	1678.0959	3018.7591	3020.3018	3032.9178	3072.8254	3086.3465	3104.6308	3111.1506	3177.0609	3206.22	3718.4384
CC12OCC1C=CC2O	C[C@@]12OC[C@@H]1C=C[C@@H]2O	
InChI=1S/C7H10O2/c1-7-5(4-9-7)2-3-6(7)8/h2-3,5-6,8H,4H2,1H3	InChI=1S/C7H10O2/c1-7-5(4-9-7)2-3-6(7)8/h2-3,5-6,8H,4H2,1H3/t5-,6-,7+/m0/s1
