19
gdb 4389	2.7620763	1.2374207	0.9108226	3.872	82.4	-0.24279	-0.05926	0.18353	1290.1987	0.155044	-422.581309	-422.571756	-422.570812	-422.616005	33.777	
C	 0.6720682214	 2.0540903663	-0.5157083167	-0.397805
C	-0.3097007166	 1.1754242454	 0.2622016359	 0.07049
O	-1.6194667483	 1.3277151483	-0.2773301268	-0.282314
C	-2.206682298	 0.0548976223	-0.5366650806	-0.165146
C	-1.1129157899	-0.943199637	-0.2592541339	 0.101587
C	-1.3049233499	-2.374794732	-0.4671758376	 0.068601
O	-2.3408044424	-2.8558842704	-0.8782815138	-0.27125
C	-0.0223262286	-0.3089053705	 0.2040169788	 0.186209
C	 1.2912423228	-0.863757726	 0.646446444	-0.505647
H	 1.6673118083	 2.0325889371	-0.0604994292	 0.114153
H	 0.7474725498	 1.7202420516	-1.5548591311	 0.123405
H	 0.3162294789	 3.0875080554	-0.5103017856	 0.136172
H	-0.3061766917	 1.5024400945	 1.3189776548	 0.085481
H	-3.0800145721	-0.1102660011	 0.1117819176	 0.116368
H	-2.5624063311	 0.0132884343	-1.574313406	 0.122392
H	-0.4353129074	-3.0226473658	-0.2258898297	 0.067521
H	 1.5160266084	-0.5414701299	 1.6708282056	 0.142235
H	 1.320382188	-1.9540731909	 0.6186973984	 0.140497
H	 2.1046287786	-0.4854444717	 0.0159978057	 0.147053
58.0314	118.9835	151.5833	181.8893	188.1415	218.5067	251.0795	300.1474	358.7367	407.9314	501.8865	582.9824	614.1698	708.1441	787.2073	870.1037	899.2751	982.9958	1023.49	1035.0271	1057.9997	1074.475	1094.5791	1118.5216	1126.3097	1191.7788	1216.442	1284.0071	1356.8391	1360.8061	1387.0296	1401.9211	1412.3779	1429.5893	1475.5258	1480.5979	1489.0129	1495.7235	1523.0237	1707.8325	1770.3394	2896.9757	2923.4619	2995.3605	3028.3773	3033.3918	3040.5116	3075.7791	3115.3896	3125.6348	3134.7969
CC1OCC(C=O)=C1C	C[C@H]1OCC(=C1C)C=O	
InChI=1S/C7H10O2/c1-5-6(2)9-4-7(5)3-8/h3,6H,4H2,1-2H3	InChI=1S/C7H10O2/c1-5-6(2)9-4-7(5)3-8/h3,6H,4H2,1-2H3/t6-/m1/s1
