19
gdb 5857	2.200185	1.2578933	0.8859975	2.0525	77.26	-0.25521	0.04603	0.30124	1318.0015	0.156639	-422.525375	-422.516098	-422.515154	-422.560341	33.837	
O	 1.5962708079	 0.2747332241	 0.3601678046	-0.417747
C	 0.2536606262	-0.177405274	 0.3088558086	-0.082803
C	-0.6065233318	 0.3886470186	 1.4425003324	-0.031855
C	-0.7279399592	 1.9279309864	 1.3722981123	-0.097697
O	-1.977843257	 2.1900145333	 0.7484910353	-0.238554
C	-2.8781842983	 1.2531945994	 1.2997542623	-0.097902
C	-2.0933538867	-0.0890929443	 1.3211801891	-0.201023
C	-2.527981291	-1.0097372836	 2.357939229	 0.315066
C	-2.8942550705	-1.7564978282	 3.2263925575	-0.46771
H	 2.006329225	-0.1001661539	 1.1464595277	 0.28377
H	-0.1405385991	 0.1711984552	-0.652865876	 0.121451
H	 0.1971611886	-1.2770489981	 0.3090115756	 0.096236
H	-0.1846125451	 0.0735788839	 2.4019948602	 0.078421
H	-0.7056321344	 2.3672445377	 2.3818274656	 0.089189
H	 0.063138916	 2.3840015741	 0.7734567072	 0.126924
H	-3.1683781442	 1.5298709268	 2.3255500541	 0.099487
H	-3.773047334	 1.220052867	 0.6749033374	 0.118546
H	-2.2217814787	-0.5723760999	 0.3444930312	 0.108939
H	-3.2213880038	-2.4205120044	 3.987624006	 0.197261
28.8985	110.4602	157.4874	173.6298	216.4529	298.6524	319.362	356.9844	417.3008	507.0342	545.3973	592.9535	630.3862	633.9634	693.3259	857.981	905.1842	929.0173	963.2206	1016.4815	1041.2901	1049.9569	1073.8296	1082.9793	1118.5576	1134.4148	1188.4317	1236.1099	1250.4031	1272.4644	1305.4485	1326.3199	1357.3358	1367.6961	1394.737	1397.5642	1414.4979	1503.6412	1507.5215	1522.4008	2235.8694	2978.9697	2985.1044	2985.9197	3024.9622	3053.4156	3073.1048	3109.327	3112.6543	3503.7243	3812.2983
OCC1COCC1C#C	OC[C@H]1COC[C@@H]1C#C	
InChI=1S/C7H10O2/c1-2-6-4-9-5-7(6)3-8/h1,6-8H,3-5H2	InChI=1S/C7H10O2/c1-2-6-4-9-5-7(6)3-8/h1,6-8H,3-5H2/t6-,7-/m0/s1
