19
gdb 666	2.4883736	1.7596227	1.5216803	2.3804	73.34	-0.23345	-0.02034	0.21311	967.2261	0.159821	-422.603026	-422.595816	-422.594872	-422.634444	29.063	
O	 1.1805943981	-0.053464535	-0.2351281514	-0.320084
C	-0.0153097731	-0.0232460718	-0.1204388286	 0.406115
C	-0.9278022848	 1.210037459	-0.1151351831	-0.34586
C	-2.3286506478	 0.5717313933	-0.1464969258	 0.080855
C	-2.8274216279	 0.2204203236	-1.5559613446	-0.200876
C	-1.8214732507	-0.6911284874	-2.2890527228	-0.226491
C	-1.2890151178	-1.8066213055	-1.3655372726	-0.207957
C	-0.9614701469	-1.2269245843	 0.0229972391	-0.019661
O	-2.1392337922	-0.6544141423	 0.5879393922	-0.267707
H	-0.7723639431	 1.7611228807	 0.8182105506	 0.138577
H	-0.6902319519	 1.8778845306	-0.9466890613	 0.130235
H	-3.0732264066	 1.1560141705	 0.3980488859	 0.084978
H	-3.787575548	-0.29555772	-1.4433690397	 0.108348
H	-3.0147622383	 1.1326642586	-2.1339916742	 0.097557
H	-2.2829090838	-1.122960026	-3.1824159777	 0.103256
H	-0.9768358016	-0.0895755119	-2.6476687826	 0.114171
H	-2.0488009682	-2.5831205834	-1.2230213321	 0.109746
H	-0.4013090783	-2.2797294176	-1.7977388717	 0.114308
H	-0.5682747171	-1.9814006411	 0.7073127906	 0.100489
105.3525	223.515	259.7475	342.1243	422.9463	446.7819	469.7988	515.8023	607.6738	647.6801	737.869	794.0513	809.4591	837.944	876.2817	888.0171	939.0767	953.6413	966.5606	1011.5266	1048.3209	1068.7097	1091.9124	1143.9916	1165.1915	1178.308	1205.7561	1248.4103	1269.9076	1288.4924	1311.2524	1342.4982	1358.3971	1369.2198	1380.5747	1390.6974	1444.7143	1469.1597	1481.1955	1503.1375	1859.0005	3031.1821	3035.1788	3040.0024	3058.6682	3072.7141	3081.9334	3091.2319	3092.5266	3100.3732	3114.012
O=C1CC2CCCC1O2	O=C1C[C@H]2CCC[C@@H]1O2	
InChI=1S/C7H10O2/c8-6-4-5-2-1-3-7(6)9-5/h5,7H,1-4H2	InChI=1S/C7H10O2/c8-6-4-5-2-1-3-7(6)9-5/h5,7H,1-4H2/t5-,7+/m1/s1
