19
gdb 4050	3.5306143	1.491445	1.4295081	2.1136	75.63	-0.23688	0.07643	0.31331	998.7593	0.157276	-422.479913	-422.472484	-422.47154	-422.511472	29.968	
C	 0.5096137062	 0.6582491233	-0.2191774206	-0.389971
C	 0.7729821515	-0.7427013119	 0.3110098359	 0.148595
C	 1.0668332415	-1.8061054454	-0.8198593047	-0.40859
C	 2.5470006975	-1.9485133892	-0.6416200874	 0.402295
C	 3.8726746885	-2.737933109	-0.7673854021	-0.322978
C	 4.1336077454	-1.384143315	-0.0172899031	-0.00354
O	 3.3068105633	-0.7115671132	-1.0212152897	-0.338733
C	 2.8448855364	-1.6682250282	 0.8257266661	 0.119714
O	 1.9273636958	-0.6905726655	 1.2041321279	-0.290109
H	 0.3876153577	 1.3568081055	 0.6133925048	 0.122644
H	 1.3510466738	 0.9870679023	-0.8329602224	 0.146093
H	-0.4065949286	 0.6761108425	-0.8191080836	 0.105795
H	-0.0812051937	-1.0787399827	 0.9125230069	 0.078841
H	 0.5523181748	-2.7510001387	-0.6234599614	 0.11442
H	 0.7737714956	-1.4390672071	-1.8057301021	 0.124736
H	 3.9665085423	-3.6774600744	-0.2162141147	 0.102865
H	 4.3051208079	-2.7783583621	-1.7660591171	 0.119281
H	 5.0861036523	-0.9268899822	 0.2511038844	 0.099552
H	 2.8995810119	-2.5020482089	 1.536002813	 0.06909
94.0679	236.0732	253.2799	322.0709	359.0045	415.1681	433.8498	513.8468	608.6956	700.9172	747.4515	777.6939	787.8244	793.1415	864.4271	879.4178	903.4206	937.9399	975.5154	996.722	1026.5808	1044.5652	1082.4362	1107.8835	1128.2468	1140.0705	1154.9366	1190.0614	1198.3595	1210.6395	1246.8158	1269.3943	1309.1718	1360.0613	1368.8896	1390.1061	1403.5968	1475.0899	1485.3916	1487.2249	1502.9536	3016.5135	3031.1609	3041.0044	3066.4014	3068.3437	3110.4702	3118.5291	3122.3931	3139.1943	3162.1338
CC1CC23CC(O2)C3O1	C[C@H]1C[C@@]23C[C@@H](O2)[C@H]3O1	
InChI=1S/C7H10O2/c1-4-2-7-3-5(9-7)6(7)8-4/h4-6H,2-3H2,1H3	InChI=1S/C7H10O2/c1-4-2-7-3-5(9-7)6(7)8-4/h4-6H,2-3H2,1H3/t4-,5+,6+,7-/m0/s1
