19
gdb 2425	2.5292403	1.9974852	1.6238741	1.762	73.17	-0.23505	0.08431	0.31936	923.0489	0.158639	-422.554171	-422.546839	-422.545895	-422.585504	29.418	
C	-0.0567573606	-0.4297367667	 0.0275300112	-0.465201
C	 1.3898881537	 0.0305339487	 0.0369283295	 0.359624
C	 2.1137145414	-0.0883329516	-1.3195316936	-0.102834
O	 3.5115998102	-0.0543119522	-1.0141631785	-0.26548
C	 3.6741902335	-0.5707738764	 0.2857395851	 0.086556
C	 3.3080062367	 0.3342072822	 1.4432168949	-0.112872
C	 2.6875610045	 1.6761157118	 1.0835495502	-0.102163
O	 1.4277563766	 1.395252683	 0.4743050681	-0.299153
C	 2.3527476079	-0.736376069	 0.9669431688	-0.16654
H	-0.4907343108	-0.3275270462	 1.0253860827	 0.128517
H	-0.6470979779	 0.1814269726	-0.661506202	 0.12922
H	-0.1327757973	-1.4748145467	-0.2861139461	 0.117911
H	 1.8585785277	-1.0348095311	-1.8203988701	 0.086537
H	 1.882565907	 0.749069418	-1.9822963448	 0.115604
H	 4.4909723998	-1.2782419637	 0.3806655118	 0.097227
H	 3.8475461161	 0.230643969	 2.3778072549	 0.092634
H	 2.5087677355	 2.2876282569	 1.9748457022	 0.102226
H	 3.3265016914	 2.2418513176	 0.3926488042	 0.107758
H	 2.0371398447	-1.5966800862	 1.5426917816	 0.09043
151.201	200.9141	232.0926	273.1522	329.1606	413.9741	506.1332	596.8137	615.9027	721.6076	737.9622	786.173	806.0904	820.6509	865.7934	907.173	955.111	966.7087	992.4649	1013.587	1030.8284	1057.6053	1069.4026	1097.7709	1128.1924	1147.9157	1168.5738	1199.3029	1212.8849	1238.3494	1242.1198	1292.3471	1329.3745	1363.5859	1388.0269	1406.6787	1411.2467	1483.2982	1494.6219	1499.6147	1518.8717	2987.1425	3015.259	3045.3377	3061.2569	3103.6408	3116.8568	3124.7737	3165.8134	3177.8046	3195.0623
CC12COC3C(CO1)C23	C[C@@]12CO[C@H]3[C@@H](CO1)[C@@H]23	
InChI=1S/C7H10O2/c1-7-3-8-6-4(2-9-7)5(6)7/h4-6H,2-3H2,1H3	InChI=1S/C7H10O2/c1-7-3-8-6-4(2-9-7)5(6)7/h4-6H,2-3H2,1H3/t4-,5+,6-,7-/m0/s1
