19
gdb 1689	3.1549829	1.1309087	0.9930868	3.239	75.27	-0.24659	-0.02118	0.22541	1231.594	0.154291	-422.529553	-422.520506	-422.519562	-422.563893	33.083	
C	-2.1609382033	 1.6053209689	 0.1705271875	-0.459098
C	-0.9860065369	 1.9639283305	-0.7379982479	 0.274715
C	-0.1649050073	 0.7335619653	-1.1581024807	-0.328619
C	 0.4437962274	 0.0005745068	 0.0139515195	 0.156997
O	 0.3003224176	-1.1720636987	 0.2501024723	-0.245049
C	-1.4140454258	 2.912792596	-1.9290642107	-0.316416
C	-0.5807875511	 4.0265265191	-1.2881894187	 0.039494
O	 0.769597917	 3.551027526	-1.1968038229	-0.249231
C	-0.1581949261	 3.1538425604	-0.1837987755	-0.008248
H	-1.8246934484	 1.100556356	 1.0830718017	 0.128635
H	-2.715416906	 2.5012601402	 0.4692474129	 0.117836
H	-2.8564746138	 0.9324300443	-0.3417884106	 0.129146
H	-0.7755051453	 0.0301997563	-1.7327998668	 0.115356
H	 0.6592542929	 1.0835417437	-1.7932892133	 0.135495
H	 1.0707059431	 0.6405115503	 0.6793971632	 0.074289
H	-1.0973837751	 2.6174550148	-2.9325115563	 0.112127
H	-2.4882859958	 3.1128073257	-1.9277050364	 0.110215
H	-0.7216830378	 5.1003437346	-1.3254839255	 0.108791
H	 0.0977226045	 3.3808763198	 0.8457766682	 0.103566
55.7177	71.9117	173.3869	188.2616	232.2565	279.8925	316.7653	387.1683	427.7126	485.9683	536.3641	668.5359	785.9566	834.5984	839.4324	858.0204	868.5737	925.4382	950.3589	961.1686	992.7464	1010.5327	1045.8436	1066.886	1121.4589	1159.0715	1165.7234	1213.2999	1230.0547	1256.1508	1267.4578	1309.2559	1314.9081	1384.8835	1413.9844	1430.9729	1460.6122	1473.1791	1491.5255	1495.2196	1831.3076	2850.4409	3026.9503	3030.8026	3063.1924	3093.8178	3095.555	3101.4639	3121.1666	3171.1212	3192.1033
CC1(CC=O)CC2OC12	C[C@@]1(CC=O)C[C@@H]2O[C@H]12	
InChI=1S/C7H10O2/c1-7(2-3-8)4-5-6(7)9-5/h3,5-6H,2,4H2,1H3	InChI=1S/C7H10O2/c1-7(2-3-8)4-5-6(7)9-5/h3,5-6H,2,4H2,1H3/t5-,6-,7+/m0/s1
