19
gdb 5456	2.9233758	1.5295572	1.1908852	2.1146	75.23	-0.24446	0.0863	0.33076	1084.6729	0.156589	-422.4987	-422.490493	-422.489548	-422.53139	31.733	
C	 1.3834051926	-0.0073500163	-0.0653161869	-0.23823
O	-0.0011501818	-0.1100284674	 0.1831662498	-0.272847
C	-0.472011876	 0.7339530373	 1.2143496483	 0.071345
C	-0.2598644065	 0.1998382007	 2.6279068143	-0.103433
C	-1.5089549832	 0.5962207911	 3.4352414199	-0.071236
C	-2.4557121833	 1.3574566458	 2.5006003365	-0.28615
C	-1.9699343967	 0.38703226	 1.4109851713	 0.384686
O	-2.7441676094	 0.1444223072	 0.3042134487	-0.481694
C	-1.5152640845	-0.6351534442	 2.5709432328	-0.165937
H	 1.9805928925	-0.3315629659	 0.7987417999	 0.111816
H	 1.61110362	-0.6573166828	-0.9136305432	 0.128243
H	 1.6717408785	 1.024094075	-0.319243464	 0.108867
H	-0.2062625897	 1.7802240309	 0.9923428479	 0.056455
H	 0.673566852	-0.0330078729	 3.1233980622	 0.086744
H	-1.4689612096	 0.645408579	 4.5152275236	 0.089423
H	-3.500345524	 1.1674778604	 2.7611365688	 0.10849
H	-2.3024657668	 2.4290109807	 2.3258674806	 0.088727
H	-2.1553814208	-0.2531402503	-0.3527259029	 0.292084
H	-1.7100552031	-1.6755516783	 2.7830569623	 0.092647
76.793	164.191	167.2005	244.4531	304.7404	358.2349	433.5677	459.1508	503.0208	514.7929	678.4502	724.1483	780.2735	803.2352	816.9222	912.2029	923.4425	946.1992	961.9085	994.8461	1008.3078	1026.941	1053.1073	1060.9853	1097.3702	1142.1768	1143.8536	1168.4417	1183.0712	1220.8582	1241.322	1254.0672	1278.3102	1342.7122	1347.5755	1391.505	1418.0652	1480.9397	1488.4316	1505.2602	1509.4673	2970.7584	2984.6717	3032.0768	3035.5412	3102.2605	3115.2265	3195.9692	3203.9306	3233.6022	3748.5565
COC1C2C3CC1(O)C23	CO[C@@H]1[C@H]2[C@H]3C[C@]1(O)[C@@H]23	
InChI=1S/C7H10O2/c1-9-6-4-3-2-7(6,8)5(3)4/h3-6,8H,2H2,1H3	InChI=1S/C7H10O2/c1-9-6-4-3-2-7(6,8)5(3)4/h3-6,8H,2H2,1H3/t3-,4+,5-,6-,7+/m1/s1
