19
gdb 1701	2.9037313	1.1100383	1.093859	2.18	75.86	-0.24502	-0.02989	0.21513	1207.1163	0.155109	-422.606618	-422.597453	-422.596509	-422.641071	33.454	
C	-1.2218100503	-1.1138915985	 2.5157910612	-0.447689
C	-1.9218998796	-0.8931223282	 1.1634637626	 0.175766
C	-2.2432913694	 0.6000550596	 0.8968415889	-0.25199
C	-0.9553833146	 1.2024265952	 0.3182068486	-0.332301
C	-0.2197845277	 0.0318726603	-0.3402169846	 0.407262
O	 0.7782811265	 0.1021461072	-1.0062764802	-0.305182
C	-0.9714822245	-1.2663826496	-0.0073838333	-0.362909
C	-3.1589163476	-1.7732378849	 1.1001315548	 0.12406
O	-4.2414526842	-1.4259357656	 0.7032974312	-0.253875
H	-1.0030629181	-2.1750465691	 2.6778250747	 0.12552
H	-0.2708897909	-0.5736633024	 2.5606030286	 0.12978
H	-1.8450303692	-0.7648889859	 3.345412753	 0.129757
H	-3.0620808055	 0.6540404688	 0.1740732613	 0.129971
H	-2.5841796263	 1.1060587352	 1.8035232222	 0.108028
H	-1.114344959	 2.0081323966	-0.4030668991	 0.13608
H	-0.2987055786	 1.6079375479	 1.0977220476	 0.135406
H	-1.5401910594	-1.5432802824	-0.9053984209	 0.142894
H	-0.2773966707	-2.0827975565	 0.2045075526	 0.131861
H	-2.9876165909	-2.8211745277	 1.4416720309	 0.077561
54.0607	70.086	142.8895	222.501	237.3992	290.9072	331.2707	356.2643	448.4973	476.2923	507.3111	586.4438	684.52	718.9874	764.4887	809.2136	882.2588	930.0401	945.1203	969.9729	1003.8045	1016.7362	1046.6857	1126.0565	1156.2683	1189.0949	1226.5054	1240.1871	1264.4823	1274.5731	1308.3216	1341.7467	1408.7103	1428.859	1446.4111	1453.6833	1493.994	1497.0243	1506.5241	1826.4583	1850.0077	2857.3426	3029.6158	3031.6572	3044.1127	3066.649	3099.4057	3100.0866	3106.1185	3110.6794	3113.3859
CC1(CCC(=O)C1)C=O	C[C@]1(CCC(=O)C1)C=O	
InChI=1S/C7H10O2/c1-7(5-8)3-2-6(9)4-7/h5H,2-4H2,1H3	InChI=1S/C7H10O2/c1-7(5-8)3-2-6(9)4-7/h5H,2-4H2,1H3/t7-/m1/s1
