19
gdb 2732	2.7354021	1.420596	1.2004232	0.9113	75.62	-0.24724	0.0751	0.32233999999999996	1119.9611	0.154447	-422.501122	-422.492238	-422.491294	-422.534266	33.418	
C	 0.8674621209	-0.6651283097	-0.8554769845	-0.41674
C	 0.9832149553	 0.1989925513	 0.3910455448	-0.147632
C	 1.871770205	-0.320771359	 1.5549857007	 0.418008
C	 1.4973663314	-1.2506281869	 2.661771632	-0.505353
O	 3.2141904767	-0.3733710094	 1.0411357205	-0.286684
C	 2.7146668329	 0.8908866427	 1.5175788253	-0.174864
C	 1.8948421182	 1.4559908043	 0.3719471343	 0.451206
C	 2.2613161271	 2.3919905716	-0.686361072	-0.264637
O	 1.367130826	 2.768127933	 0.3790878055	-0.280279
H	 0.2639967149	-1.5588554561	-0.6630537409	 0.116011
H	 0.3882068285	-0.1153862001	-1.6722782822	 0.118645
H	 1.8585169801	-0.9838483613	-1.1890726309	 0.134011
H	-0.0012274933	 0.4999463413	 0.7675195943	 0.091946
H	 1.3194376525	-2.2615973663	 2.278142428	 0.132742
H	 2.3009255747	-1.3051507697	 3.4009203362	 0.136774
H	 0.5822620856	-0.9131676759	 3.1586662165	 0.128791
H	 3.275095381	 1.4063984549	 2.2895070997	 0.11014
H	 3.2363560621	 2.876588613	-0.6711948454	 0.119371
H	 1.7978865303	 2.3073558623	-1.668072542	 0.118546
98.038	186.7082	194.8733	214.471	220.4219	229.6946	313.6342	345.464	442.8099	485.7701	562.1873	588.239	684.8731	751.5502	817.7935	860.87	874.8749	895.0112	956.4872	995.1974	1007.5488	1050.1595	1088.0224	1101.1622	1118.3952	1136.1262	1150.928	1161.6278	1204.7945	1231.0463	1251.4693	1349.6143	1402.4217	1404.6527	1442.1606	1464.3439	1482.0357	1493.011	1496.2027	1502.9225	1540.2513	3033.7857	3035.1313	3052.3647	3085.3677	3094.9915	3097.8453	3121.1025	3122.3707	3172.806	3185.1447
CC1C2(C)OC2C11CO1	C[C@H]1[C@@]2(C)O[C@H]2[C@]21CO2	
InChI=1S/C7H10O2/c1-4-6(2)5(9-6)7(4)3-8-7/h4-5H,3H2,1-2H3	InChI=1S/C7H10O2/c1-4-6(2)5(9-6)7(4)3-8-7/h4-5H,3H2,1-2H3/t4-,5+,6+,7+/m0/s1
