19
gdb 1944	2.4526091	1.646606	1.2689219	3.4193	75.55	-0.23552	0.05766	0.29318	1085.3912	0.152824	-422.483313	-422.474013	-422.473068	-422.516578	34.936	
C	-0.3081768811	 2.9711770004	-0.809546385	-0.51145
C	 0.740403684	 2.2948602316	 0.0098650496	 0.384463
O	 2.0905262305	 2.7598696594	-0.0444482324	-0.26086
C	 1.4574263021	 2.6598883933	 1.2329924859	-0.171559
C	 1.47906516	 1.1430547482	 1.6917681708	 0.318305
C	 1.475795259	 0.6344572567	 3.0943839957	-0.512906
O	 2.1435251876	 0.4008630392	 0.6636702364	-0.301044
C	 0.7717763868	 0.7619521672	 0.4626504677	 0.275275
C	-0.225014477	-0.2972909798	 0.1251833647	-0.513777
H	-1.3109848853	 2.7214813597	-0.4472885951	 0.124387
H	-0.1822325592	 4.0562393813	-0.7652676012	 0.137962
H	-0.2443577698	 2.6622933528	-1.8590889309	 0.134519
H	 1.4106041523	 3.5445680743	 1.8582048521	 0.105293
H	 1.242422057	-0.4334376562	 3.1180635611	 0.134383
H	 2.4564636885	 0.7794765688	 3.5617971187	 0.136926
H	 0.7340979234	 1.1677864462	 3.6987692326	 0.124611
H	-1.2481792002	 0.0694084836	 0.2586375837	 0.124155
H	-0.1162094911	-0.6169287656	-0.9175104988	 0.13602
H	-0.0838515872	-1.1737283411	 0.7635561244	 0.135297
148.602	173.3024	183.6276	190.0149	192.4892	219.3597	287.3936	343.1876	371.8483	456.1504	532.1908	564.2309	591.6322	618.3556	750.9241	768.5438	792.4015	840.6399	871.7404	933.7374	979.3127	1014.0323	1072.7988	1096.0256	1099.3522	1107.9598	1159.0119	1179.0498	1238.0211	1269.4407	1401.4868	1409.4968	1411.2625	1459.7855	1471.4915	1476.1844	1483.82	1487.7145	1493.2144	1496.6237	1530.0929	3030.7329	3031.5576	3034.1882	3092.32	3092.6284	3095.4579	3115.7995	3117.5032	3119.417	3179.653
CC12OC1C1(C)OC21C	C[C@@]12O[C@@H]1[C@]1(C)O[C@]21C	
InChI=1S/C7H10O2/c1-5-4(8-5)6(2)7(5,3)9-6/h4H,1-3H3	InChI=1S/C7H10O2/c1-5-4(8-5)6(2)7(5,3)9-6/h4H,1-3H3/t4-,5+,6-,7+/m0/s1
