19
gdb 2421	3.2237987	1.5350483	1.3305327	0.5389	73.86	-0.2153	0.07018	0.28548	1020.5967	0.156642	-422.534537	-422.526538	-422.525594	-422.56626	32.117	
C	 0.0807093017	 0.454338744	-0.3148586924	-0.47758
C	 1.5420868816	 0.1151294039	-0.1776419363	 0.412303
C	 2.2052650776	-0.6800048728	-1.3081483105	-0.231644
C	 3.7026608461	-0.7186446865	-0.9003827422	-0.294758
C	 3.8224975902	 0.3691480926	 0.1699696779	 0.358486
O	 5.0291564549	 1.0391133323	 0.3587285679	-0.475134
C	 2.8784632596	 0.2653450492	 1.3583249299	 0.023077
O	 1.8102256603	-0.6326726622	 1.075942491	-0.34197
C	 2.5641095502	 1.2042012317	 0.2331552508	-0.242547
H	-0.2698234255	 1.0149577129	 0.5554856738	 0.128363
H	-0.0912126732	 1.0566117355	-1.2132412954	 0.118278
H	-0.5138709174	-0.4614803646	-0.3956635193	 0.127535
H	 1.7610594349	-1.6749243115	-1.4033045389	 0.104944
H	 2.0684002113	-0.1538777117	-2.2598440106	 0.099043
H	 3.9904356999	-1.7019074239	-0.51424922	 0.102147
H	 4.3663460682	-0.4798292739	-1.736065473	 0.10565
H	 5.6232671951	 0.4546098887	 0.8423908404	 0.285608
H	 3.169310823	 0.4335036063	 2.3897577976	 0.099485
H	 2.4909468712	 2.2808976899	 0.1672517791	 0.098712
185.7527	204.7341	233.7369	255.6741	309.755	367.2341	394.8006	395.6395	481.3547	552.6346	598.3549	681.8865	753.2554	800.888	827.461	851.3968	863.1128	910.9202	919.9929	989.093	993.1911	1020.9202	1036.8702	1049.5622	1102.0538	1126.2468	1175.8569	1193.3149	1212.2318	1244.4033	1275.7236	1278.4273	1306.9361	1321.36	1358.2161	1412.3981	1426.9566	1472.0578	1482.0421	1492.609	1500.146	3035.7519	3040.8587	3049.3326	3087.1653	3102.1379	3107.3603	3120.6837	3170.1214	3210.5542	3793.53
CC12CCC3(O)C(O1)C23	C[C@]12CC[C@]3(O)[C@H](O1)[C@H]23	
InChI=1S/C7H10O2/c1-6-2-3-7(8)4(6)5(7)9-6/h4-5,8H,2-3H2,1H3	InChI=1S/C7H10O2/c1-6-2-3-7(8)4(6)5(7)9-6/h4-5,8H,2-3H2,1H3/t4-,5-,6-,7-/m1/s1
