19
gdb 5919	2.1516946	0.8548321	0.6379749	1.965	84.11	-0.23931	-0.03519	0.20412	1745.2065	0.151913	-422.522528	-422.511089	-422.510145	-422.562506	37.121	
C	-4.9510381386	-1.1410508365	 2.655975964	-0.386883
C	-4.5641598188	-0.4745821659	 1.3481819887	-0.039873
O	-3.1650650491	-0.6612094405	 1.1566602214	-0.255224
C	-2.6745506041	-0.0624936877	-0.0311390098	-0.122268
C	-3.0878806177	-0.9163508664	-1.2472093074	 0.144727
O	-3.6114701804	-0.4852274325	-2.2376724318	-0.235564
C	-1.2191440017	-0.0144335867	 0.0066232706	-0.009525
C	-0.015605356	-0.0089683195	-0.0317845106	 0.156171
C	 1.4385412987	 0.0126245569	-0.0553301657	-0.501926
H	-4.7330482622	-2.212044223	 2.6211554951	 0.130011
H	-4.3924328651	-0.7039526522	 3.4881827867	 0.131466
H	-6.0204011433	-1.0096659157	 2.8456293207	 0.119474
H	-5.1334512967	-0.9060767799	 0.5101244237	 0.102147
H	-4.7940334668	 0.6025937247	 1.3735176642	 0.09793
H	-3.0949818198	 0.9452946661	-0.1731379817	 0.107815
H	-2.8577982951	-1.9953678229	-1.1049895962	 0.093726
H	 1.8519997848	-0.6004462805	 0.7526069593	 0.157217
H	 1.8240667261	-0.3802154302	-1.0023293754	 0.155662
H	 1.8230534959	 1.0308774522	 0.0662617141	 0.154918
12.43	52.9039	62.0003	74.979	84.0797	140.0098	225.3099	246.1034	278.429	333.2338	340.9321	373.9016	456.7939	494.4512	565.7202	797.7354	820.7221	914.9	1002.3357	1035.6956	1038.701	1052.1698	1055.6617	1114.6946	1142.634	1177.6012	1186.2422	1267.2059	1299.6243	1336.9155	1395.4291	1402.392	1413.1417	1435.4186	1474.7057	1476.2856	1482.8732	1499.0333	1528.0689	1837.7307	2369.0697	2895.6775	2972.0148	2988.8447	3002.6313	3030.8977	3046.5126	3093.7761	3095.3015	3121.4605	3124.5109	12.4143	52.9054	62.	74.9786	84.0795	140.0099	225.3098	246.1033	278.4293	333.2341	340.933	373.9017	456.7945	494.4515	565.7202	797.7354	820.722	914.8999	1002.3358	1035.6957	1038.7011	1052.1702	1055.6621	1114.6945	1142.6339	1177.6013	1186.2423	1267.2059	1299.6244	1336.9154	1395.429	1402.392	1413.142	1435.4187	1474.7062	1476.2861	1482.8732	1499.0334	1528.0689	1837.7314	2369.07	2895.6777	2972.0148	2988.8446	3002.6313	3030.8977	3046.5126	3093.7761	3095.3014	3121.4605	3124.5109
CCOC(C=O)C#CC	CCO[C@H](C=O)C#CC	
InChI=1S/C7H10O2/c1-3-5-7(6-8)9-4-2/h6-7H,4H2,1-2H3	InChI=1S/C7H10O2/c1-3-5-7(6-8)9-4-2/h6-7H,4H2,1-2H3/t7-/m0/s1
