19
gdb 5723	3.270843	0.9805741	0.897306	2.8943	77.83	-0.25813	-0.03794	0.22019000000000002	1374.586	0.154879	-422.531423	-422.522352	-422.521408	-422.565618	32.982	
C	 2.4667432742	 1.1921456478	 0.2328753223	-0.386564
C	 2.0043655503	-0.2498213522	-0.0020877348	-0.197031
C	 2.3444128304	-0.7744988023	-1.3946978242	 0.004128
C	 1.7796215975	-2.204847262	-1.7164377873	-0.340762
C	 0.9267120736	-1.5859379893	-2.8233320707	 0.323107
O	 1.7967432187	-0.8922783741	-3.7343707703	-0.273374
C	 1.4640028382	-0.2203185584	-2.5352353421	-0.039012
C	-0.4208595823	-1.9386967877	-3.300384626	 0.063162
O	-1.0960072791	-2.8150249965	-2.8168938058	-0.260091
H	 2.2064133534	 1.5296334275	 1.2403904902	 0.120178
H	 3.5525655555	 1.2812167999	 0.1205270336	 0.121304
H	 2.0043374022	 1.8865762918	-0.4769054654	 0.117672
H	 2.4668381895	-0.9111430709	 0.7408055052	 0.107605
H	 0.9204494584	-0.3245705951	 0.1584254493	 0.101857
H	 3.4120466707	-0.6518184368	-1.6037014022	 0.087896
H	 2.4916587416	-2.9616601423	-2.0505505204	 0.11636
H	 1.1684963809	-2.6036026291	-0.9041218509	 0.131435
H	 0.9782270359	 0.7463429169	-2.6228919587	 0.115594
H	-0.7722175695	-1.3069019772	-4.1450338118	 0.086537
68.2636	105.88	159.4726	187.4365	194.5584	243.7037	324.4015	395.3476	405.953	499.8198	511.441	687.8378	750.1077	785.019	816.16	866.1913	922.1664	933.163	962.1311	987.9899	999.6746	1035.2105	1074.1338	1102.5143	1122.1624	1182.5371	1214.5142	1225.765	1255.1229	1281.7982	1305.9129	1340.647	1368.1294	1388.2478	1415.1746	1432.7769	1475.1604	1485.9183	1500.4794	1505.1712	1807.3036	2901.5126	3018.8757	3034.6399	3049.8193	3064.0365	3077.9506	3100.7694	3108.3405	3137.5004	3172.4076
CCC1CC2(OC12)C=O	CC[C@H]1C[C@@]2(O[C@H]12)C=O	
InChI=1S/C7H10O2/c1-2-5-3-7(4-8)6(5)9-7/h4-6H,2-3H2,1H3	InChI=1S/C7H10O2/c1-2-5-3-7(4-8)6(5)9-7/h4-6H,2-3H2,1H3/t5-,6+,7+/m0/s1
