19
gdb 6013	5.3931218	0.7665261	0.7469617	1.5831	74.69	-0.23191	0.05866	0.29057	1532.3851	0.15591	-422.469637	-422.461101	-422.460157	-422.503328	32.126	
O	 1.3208668717	 0.236689378	 0.4895290715	-0.417962
C	 0.1189124689	 0.0594331831	-0.2423574716	-0.050379
C	-0.6296840199	 1.3748067378	-0.4824809976	-0.260281
C	-1.8918731277	 1.1829072747	-1.2987081121	-0.010732
C	-1.757392839	 1.2042041331	-2.8032969538	-0.102001
C	-3.1204342123	 0.9219497514	-3.5136893122	 0.008593
O	-4.1361789975	 0.680656249	-2.5279066587	-0.240426
C	-3.7512979298	 2.0340293463	-2.8126456896	 0.008087
C	-2.4158975136	 2.3672468647	-2.0706330668	-0.126395
H	 1.0869294164	 0.5695378036	 1.3618351234	 0.280317
H	 0.4154416922	-0.3797183857	-1.2004264896	 0.114277
H	-0.549209844	-0.6654263347	 0.2501674035	 0.088917
H	-0.8907724786	 1.8201873133	 0.488415732	 0.090033
H	 0.0503295428	 2.0788183064	-0.9769009318	 0.103142
H	-2.6204303882	 0.5017748638	-0.8719072663	 0.111152
H	-0.8021419054	 1.1899635439	-3.311860949	 0.093835
H	-3.2730559332	 0.5053806981	-4.5018681419	 0.10884
H	-4.5323552402	 2.7266788316	-3.1017110036	 0.109138
H	-2.0386993726	 3.3726862815	-1.9366325659	 0.091844
78.4578	96.5339	108.332	254.7657	289.4489	325.013	351.9836	406.1918	494.3797	625.5685	751.4302	764.811	775.9152	807.9121	834.0123	859.3623	873.7593	928.5178	948.8101	990.0338	1025.0187	1030.0457	1034.7262	1047.9651	1079.0456	1111.8372	1123.8803	1149.636	1195.4428	1219.546	1240.6352	1250.1277	1259.8232	1296.9341	1322.6589	1375.2684	1396.1403	1419.6898	1427.2513	1486.8348	1512.9503	2975.3157	3005.1512	3055.8647	3080.9448	3167.7153	3182.3094	3195.2702	3196.1665	3206.6148	3814.4574
OCCC1C2C3OC3C12	OCC[C@@H]1[C@H]2[C@H]3O[C@H]3[C@@H]12	
InChI=1S/C7H10O2/c8-2-1-3-4-5(3)7-6(4)9-7/h3-8H,1-2H2	InChI=1S/C7H10O2/c8-2-1-3-4-5(3)7-6(4)9-7/h3-8H,1-2H2/t3-,4-,5+,6-,7+
