19
gdb 5941	2.2064137	1.2633429	0.9405388	2.0799	78.04	-0.25326	0.02627	0.27953	1318.692	0.153837	-422.486161	-422.476268	-422.475324	-422.521724	35.012	
C	-0.1032058208	 0.1407770682	 0.0415827087	-0.384034
C	 1.4003407935	-0.0697863999	 0.005981896	-0.060842
O	 2.0192360961	 1.2127963914	-0.0072773316	-0.279565
C	 3.4268537335	 1.2067222325	-0.0065249361	 0.16801
C	 3.9637575284	 2.6390872792	 0.244824853	-0.109791
O	 4.5848586028	 2.2492852472	 1.4819288919	-0.268026
C	 4.097717017	 0.9015906609	 1.3718791337	-0.112324
C	 3.9993444562	 0.5056340331	-1.1520168336	 0.31742
C	 4.48067155	-0.0671921259	-2.0931775106	-0.49567
H	-0.3948949672	 0.698668654	 0.9358391679	 0.127444
H	-0.4312167056	 0.7040783388	-0.8364385049	 0.130404
H	-0.6198899661	-0.8235315809	 0.0490555275	 0.117589
H	 1.7322214102	-0.6406633904	 0.8874631649	 0.090686
H	 1.6970809807	-0.6386907123	-0.8855639292	 0.108013
H	 4.6870199458	 3.0137667959	-0.4859082745	 0.113872
H	 3.1516248816	 3.3606263109	 0.3865993742	 0.116328
H	 4.9086141073	 0.1659683255	 1.3617595715	 0.111337
H	 3.3722395063	 0.6542893479	 2.1565117226	 0.105853
H	 4.9063154502	-0.5699406159	-2.9266373212	 0.203298
55.104	72.3264	108.2059	145.6592	182.0575	208.0543	251.1948	349.6676	396.0865	416.2599	515.0857	553.467	632.5928	667.5961	681.0128	823.4125	837.8699	862.8167	944.5133	959.4097	995.5513	1048.1551	1054.2331	1086.1462	1140.2871	1155.3105	1162.9806	1186.5268	1190.2683	1251.3815	1298.3764	1305.8168	1371.9689	1400.7251	1427.3434	1484.027	1495.1616	1500.4263	1521.0584	1527.4327	2229.5383	2980.7596	3019.289	3031.9656	3036.4333	3046.0847	3080.3928	3093.8669	3120.6963	3124.0322	3498.5052
CCOC1(COC1)C#C	CCOC1(COC1)C#C	
InChI=1S/C7H10O2/c1-3-7(9-4-2)5-8-6-7/h1H,4-6H2,2H3	InChI=1S/C7H10O2/c1-3-7(9-4-2)5-8-6-7/h1H,4-6H2,2H3
