19
gdb 1106	3.0241328	1.1937803	1.0675765	1.5775	78.05	-0.2356	-0.01562	0.21998	1215.4368	0.154593	-422.539599	-422.530381	-422.529436	-422.573633	33.699	
C	-1.8991563434	-1.2945925577	-1.5798466087	-0.484903
C	-1.1364202629	-0.0930474817	-2.1064834302	 0.372024
O	-1.6045249217	 0.6407885309	-2.9573653606	-0.334749
C	 0.2078114225	 0.1363777969	-1.5137272681	-0.206937
C	 1.1916767072	 0.9375817316	-2.370782906	-0.175251
C	 2.5104986698	 1.019159982	-1.6217983809	-0.112815
O	 1.8356967611	 1.5460617865	-0.4430393613	-0.31807
C	 0.5978683532	 1.5815315464	-1.1590456529	 0.479733
C	-0.3319821164	 2.7164553198	-0.894302829	-0.502
H	-2.0083777657	-1.2302544988	-0.4912512361	 0.141115
H	-2.8819180674	-1.3442569151	-2.0497332378	 0.140736
H	-1.3437954154	-2.2163887806	-1.7883725867	 0.140733
H	 0.5935283325	-0.6399373546	-0.8579969801	 0.088833
H	 0.9947078049	 1.1055350916	-3.4202033114	 0.123961
H	 3.0467384364	 0.0859665689	-1.4153363097	 0.109091
H	 3.2016006891	 1.7652079883	-2.0287831808	 0.117948
H	-0.6569879921	 2.7058689966	 0.1519134361	 0.129078
H	 0.1714665582	 3.6694490115	-1.0830939691	 0.12991
H	-1.2075313598	 2.6440980478	-1.5410512167	 0.161563
65.5077	137.6796	162.2794	170.1524	211.4306	242.7113	324.9871	348.9403	368.6109	436.1959	577.6279	597.8898	675.4683	732.0289	838.3907	899.2075	913.2276	947.4333	967.3241	981.3932	1000.8233	1014.5928	1046.6333	1057.3212	1088.1067	1119.7902	1154.5618	1179.2859	1190.9319	1250.3308	1333.6526	1350.7603	1381.1758	1398.033	1445.985	1463.7114	1475.41	1484.5742	1497.4079	1515.1138	1771.6689	3029.7403	3034.2082	3040.6659	3080.7004	3094.3591	3101.8004	3141.0948	3150.1901	3153.2649	3219.626
CC(=O)C1C2COC12C	CC(=O)[C@H]1[C@@H]2CO[C@]12C	
InChI=1S/C7H10O2/c1-4(8)6-5-3-9-7(5,6)2/h5-6H,3H2,1-2H3	InChI=1S/C7H10O2/c1-4(8)6-5-3-9-7(5,6)2/h5-6H,3H2,1-2H3/t5-,6-,7-/m0/s1
