19
gdb 1973	2.9370547	1.5802858	1.3569028	2.3461	74.02	-0.23541	0.0832	0.31861	1021.7464	0.157424	-422.527784	-422.519926	-422.518982	-422.559673	30.98	
C	 0.0411797782	 0.2737378613	 0.1729416471	-0.468221
C	 1.5391317333	 0.0901844726	 0.0920569142	 0.36211
C	 2.1541594667	-0.6527315823	 1.2707673389	-0.147216
O	 3.5524814458	-0.8238826865	 1.2068383712	-0.251002
C	 4.3112778412	 0.2777688678	 0.8043728823	 0.144654
C	 4.0343390424	 1.6991741084	 1.2141674833	-0.347412
C	 3.8002369901	 1.2399132615	-0.2268350651	-0.106191
C	 2.3861395043	 1.0367966787	-0.6490530686	-0.010631
O	 2.0516768193	-0.2565893431	-1.1963955367	-0.295721
H	-0.2430516253	 0.8409125022	 1.0657028748	 0.121465
H	-0.3214941648	 0.8065108016	-0.7091833831	 0.132713
H	-0.4648237916	-0.697270248	 0.2153441767	 0.128325
H	 1.8618630727	-0.1286891264	 2.1962300964	 0.094988
H	 1.7381009521	-1.6647275592	 1.3249208563	 0.119034
H	 5.3500714805	-0.0264404808	 0.7444242897	 0.106807
H	 3.1531778559	 1.9193877247	 1.8063438312	 0.118976
H	 4.883177494	 2.3402240323	 1.4250553719	 0.117276
H	 4.483810934	 1.5871893059	-0.9955058041	 0.094186
H	 1.9035222212	 1.8678012094	-1.1650000163	 0.085861
143.9409	181.6695	189.7028	289.005	342.2588	360.9368	407.8455	409.6437	544.0515	580.7557	681.0618	732.9761	767.4361	817.3843	836.9362	880.0471	913.1876	966.1993	983.944	1008.4176	1037.7355	1045.0808	1051.7754	1095.8056	1125.3159	1138.6848	1164.3598	1179.1191	1230.7392	1256.6894	1293.6939	1337.7056	1375.6778	1388.236	1412.6889	1428.4512	1469.5107	1484.1092	1489.9794	1494.3325	1511.9151	2966.244	3034.3364	3065.9807	3096.7477	3098.3027	3125.5776	3136.8625	3150.8289	3178.023	3223.1075
CC12COC3CC3C1O2	C[C@]12CO[C@@H]3C[C@@H]3[C@H]1O2	
InChI=1S/C7H10O2/c1-7-3-8-5-2-4(5)6(7)9-7/h4-6H,2-3H2,1H3	InChI=1S/C7H10O2/c1-7-3-8-5-2-4(5)6(7)9-7/h4-6H,2-3H2,1H3/t4-,5+,6+,7-/m0/s1
