19
gdb 3331	2.5761114	1.9160065	1.5333838	1.6398	74.44	-0.2408	0.05928	0.30008	942.8155	0.158336	-422.473641	-422.466404	-422.465459	-422.504735	29.467	
C	 2.0895031603	 0.7199273486	 1.2285368789	-0.446635
C	 1.7451615874	-0.6044946502	 0.5615485336	 0.01457
C	 2.6242685948	-1.8344210382	 0.8190593628	 0.030555
O	 1.8961586873	-2.8735972417	 0.089955837	-0.296239
C	 1.4972574259	-2.2261432885	-1.1748823087	-0.173286
C	 2.2155129376	-0.919711396	-0.9320037647	 0.19054
C	 3.0588715429	 0.1693201226	-1.5870067246	-0.189288
O	 4.1313517918	-0.1097777446	-0.6317276028	-0.299833
C	 3.5579437514	-1.4170613986	-0.342751874	 0.111656
H	 1.7935512952	 0.6807527974	 2.282676957	 0.114955
H	 3.1519446825	 0.9564369706	 1.1760033969	 0.149219
H	 1.5296581473	 1.5426358847	 0.7693178652	 0.113677
H	 0.6835843357	-0.8229603593	 0.7139575732	 0.076599
H	 2.9037196383	-2.239411886	 1.7922271684	 0.075714
H	 1.8826651466	-2.8079888589	-2.0174424792	 0.110306
H	 0.4045958327	-2.178885178	-1.2274530057	 0.10513
H	 3.3826111499	-0.0469274946	-2.6133284705	 0.110367
H	 2.7083160037	 1.2031397083	-1.5147974567	 0.114042
H	 4.1463704889	-2.2208936275	-0.7943826962	 0.087952
192.0461	231.5283	271.3077	310.0604	354.1639	376.6643	433.7764	502.745	597.138	677.0171	730.6155	790.8358	845.8653	864.9028	887.1728	918.1933	939.7019	960.9428	995.8553	1021.3309	1046.8283	1063.2847	1097.5033	1115.2368	1133.8387	1153.9251	1176.246	1215.0737	1225.9268	1253.3215	1259.8196	1273.2187	1315.7214	1335.1567	1361.2516	1403.2026	1412.196	1492.8138	1509.1917	1515.4946	1528.4925	3017.898	3034.0244	3036.8005	3055.9049	3068.9768	3084.3043	3086.3374	3089.0612	3116.3515	3152.1238
CC1C2OCC11COC21	C[C@@H]1[C@H]2OC[C@]31CO[C@@H]23	
InChI=1S/C7H10O2/c1-4-5-6-7(4,2-8-5)3-9-6/h4-6H,2-3H2,1H3	InChI=1S/C7H10O2/c1-4-5-6-7(4,2-8-5)3-9-6/h4-6H,2-3H2,1H3/t4-,5-,6+,7-/m1/s1
