19
gdb 5124	3.1028981	1.4654984	1.1657806	2.5747	75.1	-0.24027	0.07276	0.31303000000000003	1093.9094	0.156885	-422.488828	-422.480688	-422.479744	-422.521661	30.687	
C	 1.5623786409	-0.2265398164	 0.1692898079	-0.259272
O	 0.1694667259	-0.0150724817	 0.0027091338	-0.288656
C	-0.3982515713	 0.7270569409	 1.0140354575	 0.462813
C	-0.7373580454	 0.1405003112	 2.3583779981	-0.358381
C	-1.8496014833	 0.6778826234	 1.4805022222	-0.173865
C	-1.8695316149	 2.1948902957	 1.5732254588	 0.131601
O	-2.3265443827	 2.8218694538	 0.3629233823	-0.293378
C	-0.979022805	 2.9356648212	-0.148731022	-0.085374
C	-0.3761613305	 2.252811003	 1.0927223636	-0.186024
H	 1.7768789947	-0.7591753151	 1.1059590747	 0.113286
H	 1.8957457128	-0.8332701562	-0.6752602282	 0.130059
H	 2.1205802433	 0.7202794217	 0.1692570744	 0.111835
H	-0.6875096932	-0.9430589783	 2.3923569797	 0.12107
H	-0.4669634305	 0.635568807	 3.288837579	 0.104997
H	-2.6643408785	 0.059095473	 1.1261778112	 0.105665
H	-2.2686224681	 2.6735621122	 2.4720859794	 0.077805
H	-0.8422191544	 2.4059391568	-1.0984002691	 0.114161
H	-0.6924946137	 3.9869389717	-0.272887015	 0.098577
H	 0.4393668837	 2.756107856	 1.6139569719	 0.073081
80.383	138.5129	169.4438	224.0006	248.2979	345.5398	411.729	454.2564	528.3038	620.7706	714.1286	817.2186	842.6715	865.8265	900.7487	939.6961	977.5616	1002.2292	1010.3389	1028.2131	1035.5679	1058.7098	1071.283	1084.2077	1107.9064	1159.3767	1180.3224	1181.2994	1186.8526	1219.0383	1247.1178	1269.1048	1306.7417	1318.7864	1358.7693	1368.54	1474.6721	1488.1894	1497.1347	1506.6845	1521.5252	2993.76	3019.2146	3048.0019	3066.8225	3067.5231	3097.6611	3103.6581	3124.5186	3196.8649	3205.108
COC12CC1C1OCC21	CO[C@]12C[C@H]1[C@@H]1OC[C@H]21	
InChI=1S/C7H10O2/c1-8-7-2-4(7)6-5(7)3-9-6/h4-6H,2-3H2,1H3	InChI=1S/C7H10O2/c1-8-7-2-4(7)6-5(7)3-9-6/h4-6H,2-3H2,1H3/t4-,5-,6-,7+/m0/s1
