19
gdb 1929	5.2061352	0.8190111	0.7732312	3.4763	76.99	-0.24609	-0.02003	0.22606	1488.1647	0.154422	-422.533497	-422.524285	-422.523341	-422.568298	33.101	
C	-4.2409500385	 3.6097124624	 0.5288062232	-0.500149
C	-3.0723241574	 2.6954561374	 0.6959721731	 0.425737
C	-1.8503378291	 2.8582040171	 1.6178983488	-0.321995
C	-1.0141760202	 2.0018367781	 0.5960592586	-0.022275
C	-0.3885801025	 0.7021929908	 1.1145651701	-0.290332
C	 0.275058931	-0.0915231065	 0.0142208507	 0.156309
O	 1.4288017949	-0.4378824565	 0.0098815019	-0.240402
C	-2.2943477299	 1.8817263799	-0.2560743649	-0.057442
O	-3.2945789205	 1.2785071967	 0.5765194789	-0.284842
H	-4.8642395468	 3.6107935159	 1.4302013663	 0.133959
H	-3.9078029053	 4.6370816572	 0.3501356006	 0.126417
H	-4.8601572355	 3.2884704537	-0.3127948126	 0.13658
H	-1.4906508668	 3.8871937846	 1.6919487761	 0.109661
H	-1.9709358106	 2.4394356484	 2.6204023312	 0.109853
H	-0.2639761005	 2.622559115	 0.0966212086	 0.089537
H	 0.3508992309	 0.9018785094	 1.8955026263	 0.118498
H	-1.1949202142	 0.0904488976	 1.5409639757	 0.135208
H	-0.3971482023	-0.3463308323	-0.8391721313	 0.073312
H	-2.3979634066	 1.7482159112	-1.3276384312	 0.102365
54.2443	65.8254	125.3693	181.2761	199.4974	276.3973	307.3668	390.1802	411.2741	493.3599	577.006	644.3993	719.7254	794.7694	834.9005	872.4041	902.8415	925.5787	946.9036	993.232	1015.1961	1039.6131	1060.9667	1089.4129	1133.8818	1167.485	1199.1334	1210.8938	1236.3636	1258.4029	1280.0058	1308.0616	1359.0979	1404.6373	1432.3841	1455.6625	1465.2061	1477.6512	1486.3429	1497.666	1833.2406	2851.8761	3028.7947	3034.9614	3061.2274	3065.8394	3097.3523	3100.33	3121.2618	3122.9454	3175.4971
CC12CC(CC=O)C1O2	C[C@]12C[C@@H](CC=O)[C@H]1O2	
InChI=1S/C7H10O2/c1-7-4-5(2-3-8)6(7)9-7/h3,5-6H,2,4H2,1H3	InChI=1S/C7H10O2/c1-7-4-5(2-3-8)6(7)9-7/h3,5-6H,2,4H2,1H3/t5-,6-,7+/m1/s1
