19
gdb 4518	2.8008885	1.6918825	1.290712	1.2332	73.25	-0.23002	0.08014	0.31016	1009.7261	0.159002	-422.530423	-422.523064	-422.52212	-422.561866	29.819	
O	 1.9353306273	-1.6345235638	 2.4346410077	-0.439563
C	 0.9923885991	-0.9166807175	 1.6433540828	 0.111372
C	 0.9353456678	-1.6231028931	 0.2862484798	-0.198104
C	 0.0224302791	-0.902340468	-0.7225492851	-0.230495
C	 0.0787848657	 0.6151683647	-0.564653833	 0.108875
O	-0.7450483709	 1.0661930326	 0.5644568366	-0.305257
C	 0.4083251294	 1.6271225623	 1.1945904909	 0.079209
C	 1.33573244	 1.2016664282	 0.0918289733	-0.169462
C	 1.414933	 0.5468182325	 1.4642928422	-0.105331
H	 1.8894437721	-1.2915482603	 3.3324928709	 0.279622
H	-0.0020673605	-0.950581429	 2.1121767641	 0.079194
H	 1.9623979838	-1.6498512298	-0.0967534584	 0.106616
H	 0.6199256931	-2.6606932106	 0.4270284882	 0.101719
H	 0.3057373987	-1.1806358319	-1.7437157888	 0.099834
H	-1.0239732149	-1.2021223069	-0.5926026763	 0.115131
H	-0.24096645	 1.1415568112	-1.4691095919	 0.083067
H	 0.287778554	 2.550061469	 1.7494707202	 0.10077
H	 2.15472742	 1.7075169614	-0.3997610077	 0.095128
H	 2.2791216862	 0.8503740489	 2.0490285445	 0.087674
138.4706	190.6047	286.9995	335.2236	356.3981	375.4955	443.6403	536.0177	590.423	666.4157	743.9939	789.375	797.8229	834.0601	898.3773	907.6044	947.549	980.7091	994.2612	1027.4304	1041.1368	1045.6675	1057.0633	1068.241	1092.135	1112.2997	1137.756	1174.0458	1234.018	1246.2769	1272.3766	1291.426	1302.0549	1339.578	1355.6699	1369.9082	1380.6509	1402.0668	1434.8675	1472.9838	1495.6592	2990.9989	3034.5056	3040.7309	3060.1171	3075.9983	3096.0383	3150.7972	3181.9614	3210.018	3820.0258
OC1CCC2OC3C2C13	O[C@@H]1CC[C@H]2O[C@@H]3[C@H]2[C@H]13	
InChI=1S/C7H10O2/c8-3-1-2-4-6-5(3)7(6)9-4/h3-8H,1-2H2	InChI=1S/C7H10O2/c8-3-1-2-4-6-5(3)7(6)9-4/h3-8H,1-2H2/t3-,4-,5+,6-,7+/m1/s1
