19
gdb 825	3.5528039	0.9951976	0.9358832	3.0801	76.84	-0.25479	-0.03759	0.2172	1317.5279	0.156564	-422.563252	-422.554739	-422.553795	-422.597098	31.502	
O	 1.0700310068	-0.7559105497	 0.5320374739	-0.251198
C	 0.2041884515	-0.0648688649	 0.0575204076	 0.147409
C	 0.3035981591	 1.4194332448	-0.0574532369	-0.144823
O	-0.9439294167	 2.1168424651	-0.1788827982	-0.279641
C	-0.0839855922	 2.1099648365	-1.3136841791	 0.433201
C	-0.561177249	 1.3957192393	-2.5816112977	-0.288068
C	-0.6559263519	 2.5233115621	-3.6253723064	-0.213191
C	 0.527854144	 3.440215614	-3.2654081672	-0.206543
C	 0.5317709221	 3.4559514588	-1.7234896466	-0.287694
H	-0.747025573	-0.4866129538	-0.3349982134	 0.08715
H	 1.0517899389	 1.8821764264	 0.5853860498	 0.110268
H	 0.1862938908	 0.6584961366	-2.8981600542	 0.115177
H	-1.5012506154	 0.8671240746	-2.4096604896	 0.117825
H	-0.6190327877	 2.1561886669	-4.6539704525	 0.102272
H	-1.6001978316	 3.0669968931	-3.5028362102	 0.109523
H	 1.4606709617	 3.0028833153	-3.6404331562	 0.105469
H	 0.4428392752	 4.4413237793	-3.6952457413	 0.104999
H	 1.5257562131	 3.6124785471	-1.2973160406	 0.112046
H	-0.1180874757	 4.2480718483	-1.3362381513	 0.125818
51.8523	98.1304	141.8457	223.6284	255.3636	376.4808	401.3248	425.7496	481.054	546.6965	566.9691	711.6252	815.3715	835.7235	864.3888	909.7581	927.7412	955.4742	963.9552	1000.5573	1032.9163	1043.4991	1085.8811	1120.4429	1168.5451	1182.9783	1197.0509	1241.932	1261.5992	1275.225	1309.437	1334.0906	1342.3575	1348.4099	1391.0207	1453.6433	1477.0367	1481.3459	1494.8608	1510.928	1822.167	2898.6715	3036.4373	3038.9235	3044.8553	3053.1552	3095.6796	3099.9947	3106.9252	3112.0227	3126.1481
O=CC1OC11CCCC1	O=C[C@@H]1OC21CCCC2	
InChI=1S/C7H10O2/c8-5-6-7(9-6)3-1-2-4-7/h5-6H,1-4H2	InChI=1S/C7H10O2/c8-5-6-7(9-6)3-1-2-4-7/h5-6H,1-4H2/t6-/m0/s1
