19
gdb 5871	7.0528112	0.4883212	0.4732416	1.3327	85.41	-0.23873	0.03384	0.27257	2309.5357	0.154034	-422.48693	-422.476443	-422.475499	-422.524363	35.915	
C	 4.682430626	 0.1838709194	 0.6389574475	-0.217609
O	 3.4711462593	 0.6051438023	 1.2197424923	-0.22742
C	 2.3504242791	 0.2287011385	 0.4395295988	-0.204442
C	 1.1178624075	 0.6806517088	 1.0667274496	 0.018777
C	 0.0821983188	 1.0432598274	 1.5646929724	 0.141538
C	-1.1440695544	 1.4778637906	 2.1619667177	-0.209447
C	-1.3836035685	 1.292738169	 3.6631967025	-0.313143
C	-2.1531021829	 0.4738361348	 2.6712730199	 0.110762
O	-3.4869680429	 0.7855683667	 2.4061340968	-0.42151
H	 4.8364401641	 0.6270854289	-0.3582461196	 0.103584
H	 5.4890003715	 0.5110558976	 1.2988928987	 0.129603
H	 4.7296071846	-0.9124531346	 0.5355311524	 0.102666
H	 2.4307732043	 0.6571652694	-0.5753688847	 0.1135
H	 2.3273038495	-0.8683637309	 0.3120510191	 0.111163
H	-1.5953275308	 2.3703778152	 1.7387272881	 0.122182
H	-0.6009456562	 0.8147321576	 4.2401869018	 0.128411
H	-1.9142839198	 2.0959224018	 4.1618800177	 0.120449
H	-1.8859601251	-0.5766624961	 2.5661472132	 0.101119
H	-4.0145016641	 0.4975650536	 3.1589631558	 0.289818
22.6514	63.4025	70.5791	122.4055	157.5543	227.3918	281.9425	292.957	316.4804	374.6041	403.1026	449.1168	508.3074	562.1694	762.2616	814.8178	894.7487	928.346	962.6874	982.1449	1026.2105	1054.3724	1088.5839	1105.7849	1141.8626	1167.4809	1182.5526	1208.0621	1219.8347	1222.5293	1256.3531	1293.2133	1352.6287	1410.2692	1427.9222	1476.571	1481.1841	1483.5196	1494.7271	1516.259	2365.9407	2940.3802	2956.9015	2965.8199	3007.0565	3115.7903	3118.8404	3141.5996	3155.885	3238.6527	3800.618
COCC#CC1CC1O	COCC#C[C@@H]1C[C@H]1O	
InChI=1S/C7H10O2/c1-9-4-2-3-6-5-7(6)8/h6-8H,4-5H2,1H3	InChI=1S/C7H10O2/c1-9-4-2-3-6-5-7(6)8/h6-8H,4-5H2,1H3/t6-,7-/m1/s1
