19
gdb 4732	2.0637236	1.4977357	1.1845071	0.8	77.25	-0.24612	0.03597	0.28209	1154.6365	0.15295	-422.480549	-422.470484	-422.46954	-422.515126	36.664	
C	 1.3852047503	-0.291878482	-0.0862184443	-0.251154
O	 0.0220690042	 0.0932871752	 0.0417723878	-0.287952
C	-0.3865640012	 0.7332561217	 1.2503282995	 0.114641
C	 0.2779237792	 0.1504327805	 2.5135488479	-0.444494
C	-1.843015711	 0.5452343246	 1.3354439209	 0.353561
C	-3.033924348	 0.4268200108	 1.4374157897	-0.464847
C	-0.1314377696	 2.2483296932	 1.1863406865	 0.08856
C	 0.0052030048	 2.9560969739	-0.0856635034	-0.181747
O	 1.1520363022	 2.6685072951	 0.733790071	-0.250403
H	 1.6502598516	-1.1040410253	 0.6028071533	 0.109735
H	 1.4854855113	-0.6648947201	-1.1085727017	 0.126517
H	 2.068048263	 0.5496632446	 0.0593404432	 0.138527
H	 0.1163649829	-0.9288272319	 2.5647330733	 0.135271
H	 1.3500485712	 0.3600390022	 2.5216185872	 0.136383
H	-0.1674233095	 0.6055385353	 3.4015057851	 0.130902
H	-4.0866497012	 0.3088032283	 1.5151006497	 0.198895
H	-0.5099739695	 2.7923373612	 2.0531099169	 0.097702
H	-0.0536519614	 2.3862362703	-1.0083764062	 0.13355
H	-0.2638937692	 4.0087283224	-0.1474585564	 0.116353
79.4208	121.2647	155.6504	169.0851	192.3306	244.8003	255.9142	288.3468	323.7623	422.678	439.6161	493.3389	530.9174	583.5129	630.0125	669.6971	701.7045	847.8461	881.8772	911.1086	952.4165	995.6995	1083.2975	1094.0986	1117.4376	1154.1497	1170.89	1176.0639	1188.8248	1206.534	1246.5755	1295.1765	1397.9044	1420.798	1470.7101	1485.1243	1490.1463	1501.2823	1517.0968	1521.9143	2239.4451	3015.7267	3053.9734	3091.3492	3097.7023	3105.802	3124.0975	3132.0081	3138.0258	3203.5406	3501.3549
COC(C)(C#C)C1CO1	CO[C@](C)(C#C)[C@@H]1CO1	
InChI=1S/C7H10O2/c1-4-7(2,8-3)6-5-9-6/h1,6H,5H2,2-3H3	InChI=1S/C7H10O2/c1-4-7(2,8-3)6-5-9-6/h1,6H,5H2,2-3H3/t6-,7+/m0/s1
