19
gdb 1264	3.6613757	1.0840658	0.9697565	3.3161	76.22	-0.24211	-0.02605	0.21606	1269.5278	0.154361	-422.54036	-422.531167	-422.530223	-422.574463	33.939	
C	-3.228878907	 0.1795679435	-2.3143231053	-0.396726
C	-2.6146009966	-0.9507695418	-1.4791622801	-0.100506
C	-3.6752327435	-1.6546913921	-0.6134969232	-0.392507
C	-1.488088577	-0.4613755672	-0.6100336376	 0.442614
C	-0.4584950263	-1.3021802485	 0.1754360796	-0.427105
C	 0.5358926738	-0.1252495679	-0.0613024901	 0.435674
O	 1.7132561177	 0.0045261733	 0.0903286764	-0.29944
C	-0.5432325252	 0.6845694332	-0.7688836041	-0.198011
O	-1.651278767	 0.7285626181	 0.1615946127	-0.277835
H	-3.6152892891	 0.9710780355	-1.6660999421	 0.137359
H	-2.4922542332	 0.6229582008	-2.9911015476	 0.115632
H	-4.0552192016	-0.2018269706	-2.920901054	 0.116
H	-2.1808659403	-1.6967557285	-2.1594764585	 0.086296
H	-4.125486749	-0.9499309136	 0.0930511454	 0.133409
H	-4.4726127641	-2.0628927564	-1.2414654767	 0.117796
H	-3.24275047	-2.4796795502	-0.0389223098	 0.120329
H	-0.7289272272	-1.5329769358	 1.2074001548	 0.134979
H	-0.1066422047	-2.2047642386	-0.334076377	 0.131425
H	-0.4750457197	 1.4789241269	-1.5025168029	 0.120618
60.0436	92.4607	173.9007	212.9075	225.6086	271.8317	316.4503	376.1651	442.2059	460.5428	497.9399	579.0432	642.7843	681.2545	772.3963	859.1556	875.6556	932.0299	952.1904	967.4311	983.4843	1000.3821	1043.1114	1084.7047	1107.7341	1133.5651	1168.8102	1195.1538	1212.8309	1217.1581	1337.4664	1358.5898	1398.7347	1409.0729	1426.0889	1452.4539	1488.1074	1492.2025	1502.5526	1517.2474	1899.5282	3013.3797	3036.6105	3043.461	3064.8847	3107.9098	3110.8724	3112.4451	3122.5874	3130.3264	3197.0593
CC(C)C12CC(=O)C1O2	CC(C)[C@@]12CC(=O)[C@@H]1O2	
InChI=1S/C7H10O2/c1-4(2)7-3-5(8)6(7)9-7/h4,6H,3H2,1-2H3	InChI=1S/C7H10O2/c1-4(2)7-3-5(8)6(7)9-7/h4,6H,3H2,1-2H3/t6-,7-/m0/s1
