19
gdb 5301	2.7472383	1.644669	1.2426875	0.996	74.29	-0.24023	0.05942	0.29964999999999997	1036.4811	0.158351	-422.513455	-422.505807	-422.504863	-422.54561	30.008	
O	 1.6873147167	 0.7259519636	 0.1406592361	-0.41499
C	 0.7149707649	-0.2123206922	 0.5899171307	-0.195373
C	-0.2507416447	 0.3777491079	 1.5927501118	 0.303194
C	 0.3062459776	 0.8220068697	 2.9482133306	-0.15497
O	-0.8726616705	 1.3083506424	 3.6002747382	-0.2803
C	-1.8621298619	 1.0935090881	 2.615632187	 0.144417
C	-1.652889044	-0.2754833947	 1.9034037618	-0.14007
C	-2.2301462907	 0.3493730705	 0.6128904076	-0.267493
C	-1.3289063693	 1.4586202148	 1.1998392108	-0.116875
H	 2.2767723395	 0.9226308019	 0.8747445086	 0.286185
H	 0.1869978407	-0.5373557134	-0.3108825456	 0.11542
H	 1.1945446625	-1.106907403	 1.0197886754	 0.089755
H	 0.7454200739	-0.0045910664	 3.5233444892	 0.098915
H	 1.0472776607	 1.628740516	 2.8690119156	 0.095485
H	-2.8419501923	 1.4156749458	 2.9658329339	 0.087844
H	-1.8313736271	-1.2691227179	 2.3178303164	 0.072012
H	-1.9206650292	-0.0916194904	-0.3358538124	 0.103081
H	-3.3058649143	 0.5470039011	 0.6079555241	 0.09483
H	-1.1300242227	 2.4540114262	 0.8024529401	 0.078933
77.44	166.7693	252.9913	283.1628	324.0957	386.839	426.9408	479.7006	648.4313	691.6512	726.9108	754.4379	830.165	886.7584	906.4712	918.9462	942.6299	975.0146	1002.5433	1027.2375	1047.741	1068.4274	1084.2328	1085.8215	1102.4862	1132.4254	1153.2521	1172.998	1202.9481	1211.7492	1236.6224	1252.8773	1263.767	1288.7309	1329.054	1382.3443	1387.3154	1421.5945	1492.6269	1520.1547	1527.9598	2972.4975	3001.763	3037.6689	3059.5782	3086.8428	3099.9637	3114.7398	3123.4211	3139.16	3828.0858
OCC12COC3C1CC23	OC[C@]12CO[C@@H]3[C@H]1C[C@H]23	
InChI=1S/C7H10O2/c8-2-7-3-9-6-4(7)1-5(6)7/h4-6,8H,1-3H2	InChI=1S/C7H10O2/c8-2-7-3-9-6-4(7)1-5(6)7/h4-6,8H,1-3H2/t4-,5+,6-,7+
