19
gdb 1281	3.6196032	0.9532161	0.8609833	4.6715	80.26	-0.23074	-0.03832	0.19242	1383.5841	0.155935	-422.599964	-422.590596	-422.589652	-422.634805	33.919	
C	-0.814443731	 0.8306147721	 2.7973669803	-0.407949
C	-1.2714597505	 1.7205386765	 1.6305297335	 0.025646
O	-0.3098914272	 2.7314997877	 1.3427732866	-0.435912
C	-1.4561997458	 0.9158577996	 0.3739377872	 0.363507
C	-2.6017316744	 0.3662050138	-0.0551753396	-0.325189
C	-2.3892387902	-0.3973554862	-1.3024796914	 0.400164
O	-3.2174231549	-1.0098415898	-1.9368228456	-0.339192
C	-0.8969031057	-0.2655617789	-1.6539467933	-0.344766
C	-0.2909028374	 0.6135707344	-0.5453521652	-0.306631
H	-1.5608215996	 0.0623983346	 3.0179120119	 0.13216
H	 0.1358611789	 0.342499651	 2.5627983701	 0.131563
H	-0.6760281768	 1.4364001206	 3.700509829	 0.112315
H	-2.2367756378	 2.1772518672	 1.8986262099	 0.081658
H	-0.1178103779	 3.1994631446	 2.1614314431	 0.286991
H	-3.5747974284	 0.4506545905	 0.413510498	 0.104259
H	-0.4501203553	-1.2630616787	-1.7015227006	 0.131267
H	-0.7975159774	 0.1711938316	-2.6517637269	 0.133299
H	 0.5178181647	 0.1136552282	 0.0007478951	 0.116925
H	 0.1376369966	 1.5479730013	-0.920212342	 0.139884
42.7499	96.0184	115.9562	192.6482	247.3957	260.2253	271.7626	338.6881	449.8607	515.9526	543.3492	566.2115	626.7444	643.2155	826.9478	835.3125	857.2586	899.5119	909.5393	991.5058	1009.4836	1019.5229	1079.7612	1118.7662	1136.9342	1157.0944	1185.227	1227.4444	1230.2545	1260.5651	1304.5408	1351.749	1358.5932	1397.3366	1416.7996	1450.3334	1477.4189	1489.6664	1498.216	1680.7047	1811.8258	2979.8985	3031.265	3042.4934	3066.1769	3081.0833	3102.2482	3107.2924	3125.5178	3209.5616	3823.2717
CC(O)C1=CC(=O)CC1	C[C@@H](O)C1=CC(=O)CC1	
InChI=1S/C7H10O2/c1-5(8)6-2-3-7(9)4-6/h4-5,8H,2-3H2,1H3	InChI=1S/C7H10O2/c1-5(8)6-2-3-7(9)4-6/h4-5,8H,2-3H2,1H3/t5-/m1/s1
