19
gdb 2391	2.494766	1.9021788	1.3937627	0.7937	73.6	-0.24738	0.07302	0.3204	980.6696	0.157764	-422.538488	-422.53079	-422.529846	-422.570461	29.995	
C	 0.0094798408	-0.3946804553	 0.1945007978	-0.484257
C	 1.4876031348	-0.0871878242	 0.0209551601	 0.245803
C	 1.9563917169	 1.3715557905	 0.2148685976	-0.121619
O	 2.9550012719	 0.9750333248	 1.1739596891	-0.295581
C	 2.4930104104	-0.3978106883	 1.1778461011	 0.097632
C	 3.5830244173	-1.3632816632	 0.687273536	-0.267256
C	 3.3319301673	-1.4851445703	-0.8063919609	 0.047754
O	 2.1076190073	-2.1792918025	-1.0988778623	-0.265133
C	 2.116599107	-0.7511949908	-1.190358231	-0.020259
H	-0.3696583041	 0.0055002302	 1.1400862235	 0.118128
H	-0.5817229473	 0.0473739895	-0.6159257044	 0.117004
H	-0.1580130675	-1.4753552439	 0.1815342673	 0.139392
H	 2.3959313551	 1.8716996677	-0.6579997803	 0.097928
H	 1.1997962241	 2.0320658489	 0.6592512501	 0.096452
H	 2.0630390063	-0.6675082745	 2.1490694519	 0.072628
H	 4.5670817185	-0.9368715832	 0.9044792415	 0.118076
H	 3.5195486174	-2.3457478463	 1.1661812957	 0.112185
H	 4.1454286283	-1.6772898404	-1.5015246287	 0.096847
H	 1.9565782958	-0.3426684885	-2.1872615241	 0.094278
98.679	192.7643	224.2895	250.383	323.9346	368.1975	406.8832	460.2004	592.3788	680.0193	731.47	826.1389	858.0715	858.9765	873.5331	913.344	935.1907	949.7482	988.9437	1020.8001	1028.7187	1037.1474	1072.1739	1115.6769	1154.596	1174.8504	1185.4732	1223.1714	1248.5881	1256.5433	1279.0829	1305.5753	1329.3703	1362.9592	1378.1145	1407.9779	1432.5519	1461.955	1494.6571	1499.6359	1523.6167	3000.5591	3030.5527	3038.4555	3043.7607	3054.9214	3094.8524	3100.66	3116.7472	3121.3158	3148.2729
CC12COC1CC1OC21	C[C@@]12CO[C@@H]1C[C@H]1O[C@@H]21	
InChI=1S/C7H10O2/c1-7-3-8-5(7)2-4-6(7)9-4/h4-6H,2-3H2,1H3	InChI=1S/C7H10O2/c1-7-3-8-5(7)2-4-6(7)9-4/h4-6H,2-3H2,1H3/t4-,5-,6-,7-/m1/s1
