19
gdb 4845	2.6813375	1.5875841	1.2859502	1.6355	74.23	-0.23839	-0.00898	0.22941	1039.6113	0.156329	-422.508868	-422.500484	-422.49954	-422.541536	32.688	
C	 2.7862694643	-2.8156978692	 0.1637502128	-0.456127
C	 2.0510638029	-1.9039025241	 1.1454854261	 0.309491
C	 1.1088323755	-0.9695947753	 0.3845343241	-0.147746
O	 0.093996543	-1.6872521377	-0.3127584962	-0.417105
C	 2.9672593851	-1.3405375685	 2.30707059	-0.03442
O	 2.9486627417	-2.683483452	 2.89043793	-0.2836
C	 1.5531009073	-2.6613808751	 2.4505876642	-0.031507
C	 0.9897792387	-1.5233863568	 3.314765617	-0.093953
C	 1.9617265503	-0.6125359606	 3.2145166622	-0.083324
H	 3.396194953	-3.5532667561	 0.6850933349	 0.133357
H	 2.0618635635	-3.3252329589	-0.4774359713	 0.130167
H	 3.4385159455	-2.2234435014	-0.4891000358	 0.110028
H	 0.6716742458	-0.214970617	 1.0465983643	 0.091837
H	 1.6779892533	-0.4412337049	-0.3890192556	 0.107296
H	-0.5215681959	-2.0306856606	 0.3425480391	 0.283292
H	 3.9628194296	-0.9294346145	 2.1408038466	 0.078738
H	 1.0690321758	-3.6379848597	 2.4327241988	 0.079448
H	 0.0449413048	-1.498045878	 3.8375572198	 0.110765
H	 2.0503701858	 0.3804196305	 3.629674959	 0.113364
76.8717	163.1772	224.0441	273.3162	282.0445	300.3603	378.7044	411.8287	504.6343	556.6591	623.6762	659.5327	730.108	788.4778	827.9203	855.5655	875.4843	907.7574	908.7222	934.0595	944.5657	959.8848	999.9083	1052.4803	1105.2456	1129.3259	1136.4488	1166.4248	1205.4842	1231.258	1252.9578	1294.5166	1300.8268	1305.545	1385.2507	1400.8411	1412.7895	1494.6446	1498.2609	1509.5324	1610.0131	3033.2519	3038.4843	3076.7823	3103.7424	3122.2873	3127.2142	3151.9597	3230.107	3257.3697	3816.9258
CC1(CO)C2OC1C=C2	C[C@]1(CO)[C@@H]2O[C@H]1C=C2	
InChI=1S/C7H10O2/c1-7(4-8)5-2-3-6(7)9-5/h2-3,5-6,8H,4H2,1H3	InChI=1S/C7H10O2/c1-7(4-8)5-2-3-6(7)9-5/h2-3,5-6,8H,4H2,1H3/t5-,6+,7+
