19
gdb 4157	2.2104491	1.9732573	1.4566668	2.214	74.16	-0.23905	-0.01681	0.22224000000000002	980.011	0.158349	-422.597291	-422.589655	-422.588711	-422.629175	30.219	
C	-0.56535188	-1.3705636781	-2.5561538469	-0.4092
C	-1.5292164986	-1.3180548325	-1.3812133605	 0.136471
O	-2.3362912426	-0.1189718353	-1.4385429025	-0.296771
C	-2.2584723054	 0.4987650114	-0.1446821132	 0.101402
C	-2.1242128322	-0.6977254872	 0.8138968444	-0.252529
C	-0.9110948681	-1.2696657095	 0.0439163561	-0.159081
C	 0.0369197792	-0.0652796964	 0.069381264	 0.430929
O	 1.2367326121	-0.0764512495	 0.1456563437	-0.334116
C	-0.8802515915	 1.1719208786	-0.0253244527	-0.333277
H	-0.0040003485	-2.310523251	-2.5454044653	 0.12072
H	-1.1236813429	-1.315114983	-3.494709582	 0.128899
H	 0.1501061424	-0.5441882789	-2.5328546435	 0.132556
H	-2.202008471	-2.1871039437	-1.4312047119	 0.080275
H	-3.121203563	 1.1526308038	-0.0190252125	 0.083655
H	-1.8994199446	-0.4123261931	 1.8448894674	 0.109132
H	-2.9958052123	-1.3560206762	 0.7960199046	 0.11379
H	-0.460572525	-2.2034054683	 0.3753353214	 0.086695
H	-0.7829462958	 1.7832514857	 0.8792654625	 0.125638
H	-0.6252927925	 1.7910337434	-0.8887246831	 0.134813
115.061	142.3807	223.1789	305.0131	396.4563	419.2521	448.0145	493.2922	536.6166	615.707	671.2268	775.2519	800.3581	819.1506	854.5227	914.9843	923.84	945.6495	953.0556	992.8889	1014.462	1042.9199	1095.5589	1112.8972	1139.5492	1144.4452	1177.9785	1192.915	1242.3237	1263.4545	1287.3432	1313.2451	1337.369	1358.9061	1388.3924	1417.8393	1435.7744	1484.6054	1497.0856	1499.0061	1856.9885	2985.4772	3043.3996	3051.0785	3067.0329	3114.5799	3115.4181	3121.4742	3122.9081	3124.653	3142.2413
CC1OC2CC1C(=O)C2	C[C@@H]1O[C@H]2C[C@@H]1C(=O)C2	
InChI=1S/C7H10O2/c1-4-6-2-5(9-4)3-7(6)8/h4-6H,2-3H2,1H3	InChI=1S/C7H10O2/c1-4-6-2-5(9-4)3-7(6)8/h4-6H,2-3H2,1H3/t4-,5-,6-/m0/s1
