19
gdb 2228	2.6460537	1.9239226	1.8002154	2.3839	72.69	-0.23936	0.07093	0.31029	882.0804	0.160676	-422.561727	-422.555201	-422.554257	-422.592067	28.195	
O	 1.2284191821	 0.84038899	 1.6245036856	-0.507829
C	 0.9005371925	 0.6499248649	 0.2793295322	 0.399809
C	 1.2936103091	-0.6686371065	-0.4402956528	-0.27758
C	 1.1297505986	-0.0483242847	-1.847949624	-0.070204
C	 2.2927099259	 0.9685825552	-1.7642360149	-0.20236
C	 1.5646457952	 1.7714800921	-0.6726616649	 0.039451
O	 0.4619096334	 2.235031126	-1.4703669423	-0.2628
C	-0.1399634349	 0.9406381324	-1.6457448144	 0.068881
C	-0.5767937863	 0.7136584157	-0.1892400821	-0.268925
H	 0.801484553	 0.1502509218	 2.142848664	 0.278143
H	 2.3159156489	-0.9999730803	-0.2459629816	 0.097607
H	 0.6088063877	-1.4883733111	-0.2061424673	 0.083844
H	 1.0831157626	-0.7178707095	-2.704866266	 0.068227
H	 3.2347071071	 0.4967497337	-1.476892956	 0.094981
H	 2.4445923903	 1.5909088214	-2.6469813794	 0.103597
H	 2.0593913366	 2.5937298303	-0.1599595396	 0.085147
H	-0.8871110699	 0.9637418457	-2.4368840829	 0.078574
H	-1.1397641779	 1.5739336531	 0.1743908965	 0.108244
H	-1.1199440139	-0.2116337002	 0.02127781	 0.083194
226.2278	282.753	313.6103	426.0682	505.9312	552.6319	566.4963	586.8241	640.0633	673.0597	766.3333	804.3185	823.1525	894.6724	912.643	921.5002	927.7549	948.5405	955.2066	965.6553	1008.9034	1030.5859	1060.6731	1078.4379	1112.3098	1128.1978	1151.1337	1174.3878	1198.9708	1230.6919	1248.8008	1257.9161	1266.2607	1278.4209	1294.9222	1327.9178	1338.8705	1372.5504	1483.1406	1498.5195	1533.1287	3054.4109	3067.4687	3076.3197	3110.5801	3129.153	3133.3223	3134.0705	3140.6808	3149.8589	3809.5186
OC12CC3CC1OC3C2	O[C@]12C[C@@H]3C[C@H]1O[C@@H]3C2	
InChI=1S/C7H10O2/c8-7-2-4-1-6(7)9-5(4)3-7/h4-6,8H,1-3H2	InChI=1S/C7H10O2/c8-7-2-4-1-6(7)9-5(4)3-7/h4-6,8H,1-3H2/t4-,5+,6+,7-/m0/s1
