19
gdb 2609	2.2319762	1.6474757	1.3277907	2.3456	75.41	-0.24056	-0.02553	0.21503	1067.5043	0.155055	-422.549594	-422.540613	-422.539668	-422.583126	33.143	
C	-0.9919345923	-2.0721992207	-1.1773799086	-0.415826
C	-0.8490921281	-0.9827182412	-0.1250249674	-0.150945
C	 0.1117633951	 0.1966464699	-0.3806453692	 0.402192
O	 1.2570829308	 0.2684474469	-0.7225752772	-0.306085
C	-0.9599697148	 1.2451937055	-0.0475005015	-0.274247
C	-1.7855369877	 1.6102682608	-1.2997428764	-0.09205
O	-2.6118262538	 0.4346612845	-1.1651091915	-0.3217
C	-1.9867737685	 0.065909626	 0.0932054823	 0.426446
C	-2.9861269398	-0.1289612035	 1.2018843175	-0.478406
H	-1.6472074975	-2.8778153953	-0.8321122469	 0.119304
H	-1.417375386	-1.6566801528	-2.0940452786	 0.138169
H	-0.0138924646	-2.5039972233	-1.4087411105	 0.134242
H	-0.5725949735	-1.4113179341	 0.8498001246	 0.102239
H	-0.7438363456	 2.0171393515	 0.6898484148	 0.101017
H	-2.3754973061	 2.5274322537	-1.1830313111	 0.112333
H	-1.2487828768	 1.6466385308	-2.2540848579	 0.120381
H	-3.6376957557	-0.98044796	 0.9765175879	 0.134891
H	-2.4823444671	-0.3277725808	 2.153108263	 0.120592
H	-3.6177351281	 0.7564658019	 1.3177089567	 0.127452
71.6742	176.1514	187.9771	198.3451	208.5819	223.2578	271.4891	335.3428	474.5487	500.3077	594.0591	631.0155	649.8423	748.852	839.6477	857.2978	898.4552	947.4221	968.9282	997.5072	1033.2691	1045.8725	1094.1983	1099.5412	1118.3016	1161.1845	1170.7586	1184.0799	1207.724	1240.2124	1301.4795	1338.9902	1344.7276	1399.054	1410.9931	1480.0225	1489.1508	1490.6898	1503.4451	1526.0708	1886.7226	3008.2538	3020.1779	3034.7814	3043.8587	3070.1215	3103.0446	3110.7674	3114.5646	3127.3623	3129.459
CC1C(=O)C2COC12C	C[C@H]1C(=O)[C@H]2CO[C@@]12C	
InChI=1S/C7H10O2/c1-4-6(8)5-3-9-7(4,5)2/h4-5H,3H2,1-2H3	InChI=1S/C7H10O2/c1-4-6(8)5-3-9-7(4,5)2/h4-5H,3H2,1-2H3/t4-,5+,7-/m0/s1
