19
gdb 3564	2.4647403	1.5372307	1.1609558	4.2335	75.42	-0.26067	0.01514	0.27581	1117.7268	0.156875	-422.594664	-422.58629	-422.585346	-422.627553	32.072	
C	-3.240451646	-0.650602038	-0.6498439523	-0.395643
C	-2.2216290447	-0.7272248199	 0.4942029893	-0.089452
C	-0.8568972244	-1.2537680524	 0.0181360901	-0.368968
C	-0.0847253987	 0.0101626502	-0.3472812127	 0.416838
O	 0.9004840637	 0.1224528312	-1.0151082327	-0.33522
O	-0.7020389408	 1.0822739536	 0.2289313872	-0.254859
C	-1.8145343738	 0.6510618154	 1.0108066854	 0.458815
C	-2.7376480171	 1.7222616841	 1.479728707	-0.33545
C	-1.7935449975	 1.0422900275	 2.4595419166	-0.335125
H	-4.1834059532	-0.2108336086	-0.3125994687	 0.120564
H	-2.8620138728	-0.0368913533	-1.4742819077	 0.133672
H	-3.4545508678	-1.6491263568	-1.0434697221	 0.119287
H	-2.6283961935	-1.3326191852	 1.3086266297	 0.085194
H	-0.3081625343	-1.7580069697	 0.821477159	 0.138703
H	-0.8997420237	-1.9340640402	-0.8339141268	 0.134773
H	-2.5038265988	 2.7386532241	 1.1847716612	 0.136028
H	-3.7972657209	 1.4979373486	 1.5394166175	 0.120861
H	-0.9390209619	 1.614047519	 2.8028484755	 0.132123
H	-2.2098054839	 0.3537350103	 3.1874330043	 0.117859
95.1363	113.1557	210.0058	242.7481	269.8015	323.8252	364.1167	499.5037	516.1958	539.0758	565.3209	670.7694	756.5356	768.1397	846.0653	876.9112	903.9084	935.8185	953.8603	976.8723	992.3537	1036.2847	1055.0255	1081.5763	1094.4981	1107.7672	1170.9362	1187.758	1200.721	1236.4405	1301.3359	1308.2251	1345.4928	1388.5759	1413.3933	1452.7125	1459.4747	1494.5975	1498.3104	1504.7578	1887.4999	3036.9942	3054.8817	3071.1657	3108.1305	3112.3979	3125.4231	3134.0253	3138.0513	3220.1922	3233.5089
CC1CC(=O)OC11CC1	C[C@H]1CC(=O)OC21CC2	
InChI=1S/C7H10O2/c1-5-4-6(8)9-7(5)2-3-7/h5H,2-4H2,1H3	InChI=1S/C7H10O2/c1-5-4-6(8)9-7(5)2-3-7/h5H,2-4H2,1H3/t5-/m0/s1
