19
gdb 3005	2.4900235	1.7016508	1.3081073	2.5771	75.44	-0.24478	-0.01492	0.22986	1035.21	0.157296	-422.58017	-422.571995	-422.571051	-422.612366	32.169	
C	-2.906736559	-1.4770356154	 1.5778737123	-0.434771
C	-1.7644560295	-0.5573580104	 1.169945828	-0.025357
C	-1.975792027	 0.4156675553	-0.0349694514	-0.044945
C	-1.6531097328	-0.7751700036	-0.983950143	-0.309002
C	-0.6884772513	-1.1745479529	 0.186136314	 0.343238
O	-0.1229840284	-2.4174177521	 0.3411099124	-0.493169
C	 0.2811923978	-0.014427341	 0.12921193	 0.376402
O	 1.4801264635	-0.1055546241	 0.2192737726	-0.361539
C	-0.6416517069	 1.1986437216	-0.0438471309	-0.343626
H	-2.5351827651	-2.2635937768	 2.2417594911	 0.134562
H	-3.6727824366	-0.912987137	 2.1207124831	 0.117428
H	-3.3925530368	-1.9661064473	 0.7299106775	 0.123353
H	-1.3446999283	-0.0872348387	 2.0678159697	 0.072387
H	-2.8949544251	 0.9885559158	-0.1411794567	 0.076478
H	-2.4729009638	-1.4823249451	-1.0999452606	 0.118881
H	-1.2119092949	-0.5530284707	-1.9598625629	 0.102428
H	 0.8344711629	-2.2699613093	 0.404090507	 0.290614
H	-0.5313430734	 1.9084089127	 0.782091941	 0.128278
H	-0.4397531051	 1.726783699	-0.9811261732	 0.128362
126.2431	175.4462	202.2413	269.1319	291.7607	372.9447	409.7603	449.2074	469.5628	544.9484	599.1259	622.0496	672.0044	774.3379	806.8609	855.8596	892.7839	914.1495	958.9526	981.319	1006.4801	1052.3024	1065.0437	1085.3499	1094.4926	1138.5412	1163.718	1181.2174	1223.9973	1248.2482	1256.6921	1294.6054	1360.6406	1376.8465	1412.0795	1419.7517	1457.9336	1493.546	1496.7786	1518.5996	1853.4879	3024.4733	3040.0939	3054.2466	3066.5051	3101.	3102.5315	3118.5715	3133.945	3149.205	3688.5605
CC1C2CC1(O)C(=O)C2	C[C@@H]1[C@@H]2C[C@@]1(O)C(=O)C2	
InChI=1S/C7H10O2/c1-4-5-2-6(8)7(4,9)3-5/h4-5,9H,2-3H2,1H3	InChI=1S/C7H10O2/c1-4-5-2-6(8)7(4,9)3-5/h4-5,9H,2-3H2,1H3/t4-,5+,7+/m1/s1
