19
gdb 4537	2.796694	1.0350792	0.833248	3.1647	79.09	-0.23721	-0.02154	0.21567	1392.2677	0.156001	-422.581502	-422.572186	-422.571242	-422.617098	33.126	
O	-0.1142110936	 3.9005249419	-1.1547084806	-0.428293
C	-1.1692048353	 2.9682653494	-0.9497323211	 0.053632
C	-2.5502880751	 3.6112645472	-0.6664721614	-0.240727
C	-3.22573406	 2.7106742182	 0.3961615336	-0.255071
C	-2.0689071888	 1.9294507701	 0.9690051831	-0.162872
C	-0.9532520366	 2.0530653301	 0.2467611969	 0.248271
C	 0.3736591532	 1.3831577596	 0.4814821807	-0.384553
C	 0.4890640387	 0.0826415252	-0.2981309524	 0.167161
O	 0.8158835594	-0.9714028129	 0.1807570714	-0.237276
H	-0.0670963227	 4.4603580247	-0.370900238	 0.275746
H	-1.1843666	 2.3886428204	-1.8824776928	 0.095445
H	-2.3764588075	 4.611455382	-0.2526111948	 0.099414
H	-3.1486327396	 3.7400985748	-1.5709026906	 0.10837
H	-3.7715608603	 3.2818159518	 1.1555852679	 0.108002
H	-3.9600633257	 2.0324127342	-0.0593111581	 0.11586
H	-2.1655211602	 1.3114925998	 1.8562171672	 0.101044
H	 1.1704861816	 2.050866278	 0.1244334916	 0.133541
H	 0.5466347616	 1.1597410112	 1.5370049316	 0.123932
H	 0.2389095608	 0.1681611443	-1.3801544043	 0.078373
39.2096	59.9627	81.5662	154.8531	231.9715	276.2219	347.7407	394.551	419.8368	459.6289	574.3437	650.1759	681.368	801.3573	810.569	840.1068	881.6334	931.578	958.0552	1005.497	1041.341	1045.482	1058.6003	1093.0959	1143.6723	1186.9821	1196.0419	1236.3266	1258.1993	1282.9822	1290.726	1318.4876	1329.0267	1357.3579	1424.8642	1429.4832	1456.6181	1482.0519	1499.7514	1714.1013	1833.1372	2871.7234	3016.479	3017.2822	3020.0966	3039.9235	3058.2688	3108.112	3108.8939	3183.08	3788.5236
OC1CCC=C1CC=O	O[C@@H]1CCC=C1CC=O	
InChI=1S/C7H10O2/c8-5-4-6-2-1-3-7(6)9/h2,5,7,9H,1,3-4H2	InChI=1S/C7H10O2/c8-5-4-6-2-1-3-7(6)9/h2,5,7,9H,1,3-4H2/t7-/m1/s1
