19
gdb 2277	2.358602	2.1365929	1.5093341	2.397	72.93	-0.23971	0.07144	0.31115000000000004	929.6412	0.159556	-422.554677	-422.547654	-422.54671	-422.585437	29.667	
O	 0.2259166475	 0.6143372845	 0.0678214498	-0.498162
C	-0.299477841	 1.2761220423	 1.1866377368	 0.373716
C	-1.8440313187	 1.1987804572	 1.192453566	-0.084925
O	-2.2470002873	 2.2477219	 2.0893614772	-0.280584
C	-1.0230446173	 2.8639851427	 2.5556646721	 0.087785
C	-0.1483291426	 2.8143823215	 1.2988380957	-0.317488
C	-0.3748483048	 1.8611637583	 3.5126659829	-0.022548
C	 1.0995896919	 1.5629497469	 3.4130662649	-0.342936
C	 0.1267741954	 0.7733095418	 2.5724834073	-0.09444
H	 1.1834488172	 0.5831034433	 0.1637385372	 0.279546
H	-2.2470146804	 1.3831540212	 0.1888419113	 0.102946
H	-2.2116290577	 0.2300407945	 1.550225038	 0.097025
H	-1.2802291052	 3.8394455924	 2.9686072216	 0.075834
H	-0.6127921394	 3.3344011252	 0.4592368725	 0.110909
H	 0.8760011365	 3.1675416965	 1.4193653887	 0.097164
H	-0.9090799291	 1.6213569118	 4.4243077051	 0.096108
H	 1.7891847883	 2.2742993379	 2.9731509047	 0.112046
H	 1.5205360033	 1.0248426714	 4.2560428592	 0.116158
H	-0.0289672866	-0.2790698393	 2.7846846089	 0.091845
223.5621	285.4013	301.0573	336.0977	392.5583	404.3746	503.0176	534.4165	568.2671	618.3616	735.998	763.2165	820.6061	852.4341	894.818	922.4823	926.2827	936.771	983.9316	990.503	1021.0301	1023.4027	1060.9714	1078.6718	1090.8901	1115.1298	1128.7774	1164.1042	1186.1465	1203.8267	1233.0016	1251.3019	1292.0161	1303.9691	1340.5779	1351.9549	1380.6865	1393.3017	1480.803	1515.7157	1528.6887	3019.2403	3062.5417	3087.3898	3117.3478	3131.9177	3141.1516	3166.5206	3183.6339	3211.6457	3814.2713
OC12COC(C1)C1CC21	O[C@]12CO[C@H](C1)[C@@H]1C[C@H]21	
InChI=1S/C7H10O2/c8-7-2-6(9-3-7)4-1-5(4)7/h4-6,8H,1-3H2	InChI=1S/C7H10O2/c8-7-2-6(9-3-7)4-1-5(4)7/h4-6,8H,1-3H2/t4-,5+,6-,7+/m1/s1
