19
gdb 2369	2.7211112	1.5428564	1.2206448	3.0539	75.89	-0.21479	0.05852	0.27331	1086.7036	0.156173	-422.48372	-422.475264	-422.474319	-422.516836	31.397	
C	 2.3636477775	-2.0597931811	-0.1431212931	-0.502424
C	 2.4564250631	-0.6194746969	-0.5542289649	 0.13129
C	 3.74295404	 0.2121122594	-0.5628446893	-0.11983
O	 3.357847102	 0.9146779479	-1.7732977004	-0.287269
C	 2.1586046408	 0.1525858853	-1.8592538687	-0.03911
C	 1.3112879573	 0.3450423208	-0.6489923458	 0.43142
C	-0.1739381554	 0.020701706	-0.5233687431	-0.378238
C	-0.2352831925	 1.3855623752	 0.1984229092	-0.070446
O	 1.1956686406	 1.5651158195	 0.0831028881	-0.308196
H	 2.4783430888	-2.1693796776	 0.9423657507	 0.125975
H	 1.3964100306	-2.4931425865	-0.4159457269	 0.12295
H	 3.1435701174	-2.6617358086	-0.6227021736	 0.124002
H	 3.9004392029	 0.8921757543	 0.2812259633	 0.118915
H	 4.6438401269	-0.3872088226	-0.7391763861	 0.103313
H	 1.8101116011	-0.1411955222	-2.8458863035	 0.097319
H	-0.7280325529	-0.0501446684	-1.4614034229	 0.116824
H	-0.4125748236	-0.8410078884	 0.1035850301	 0.115625
H	-0.7853457389	 2.1710607977	-0.3318803499	 0.109758
H	-0.5579989257	 1.3610406661	 1.2447953668	 0.108123
83.2043	156.9009	171.0297	181.1072	232.9068	261.2332	333.2694	443.8784	521.5013	603.4792	644.6703	772.61	797.9883	847.8776	901.0177	929.0067	969.4325	974.0093	987.8086	999.7771	1014.0401	1044.2415	1095.2174	1115.293	1144.0885	1158.0953	1163.1277	1190.1502	1218.4195	1228.7287	1257.8198	1293.7538	1334.2104	1354.0624	1416.3036	1457.9258	1487.0323	1491.8635	1498.0168	1510.6673	1532.422	3020.6563	3026.2362	3029.3002	3070.6091	3073.303	3079.4344	3081.1233	3099.3487	3123.7263	3145.7942
CC12COC1C21CCO1	C[C@@]12CO[C@@H]1[C@]12CCO1	
InChI=1S/C7H10O2/c1-6-4-8-5(6)7(6)2-3-9-7/h5H,2-4H2,1H3	InChI=1S/C7H10O2/c1-6-4-8-5(6)7(6)2-3-9-7/h5H,2-4H2,1H3/t5-,6+,7-/m0/s1
