19
gdb 4397	3.0596356	1.0761234	0.8818704	1.1518	77.54	-0.25166	0.05293	0.30458999999999997	1306.6417	0.155241	-422.530984	-422.521617	-422.520673	-422.566051	33.867	
C	 3.4816685406	-2.4463661429	 3.7579198995	-0.40275
C	 3.6449999532	-2.633466932	 2.2673194331	 0.230009
O	 4.7846388721	-1.9477759078	 1.7993249202	-0.246592
C	 4.5402531475	-1.7534263488	 0.4172079097	-0.137395
C	 3.0175519854	-1.4973432214	 0.3577659785	 0.113947
C	 2.664753457	 0.0009726662	 0.3232863124	-0.368712
C	 1.232200694	 0.2588140014	 0.3699528567	 0.307472
C	 0.0485969304	 0.4644250861	 0.3890993521	-0.437808
O	 2.5388138313	-2.0804670242	 1.5663509599	-0.273857
H	 4.335644237	-2.8792970028	 4.2852592223	 0.127176
H	 3.4141967221	-1.381131909	 3.9908940201	 0.13074
H	 2.5695323684	-2.944726584	 4.0947814231	 0.132412
H	 3.7295003088	-3.7062460341	 2.0079042328	 0.061183
H	 5.1437398455	-0.9107710567	 0.0717397876	 0.1173
H	 4.8107802642	-2.6489839641	-0.1619468827	 0.097305
H	 2.5549188723	-2.0007320079	-0.4994975497	 0.090791
H	 3.166482405	 0.4882246758	 1.1684277626	 0.138328
H	 3.085598195	 0.4357958551	-0.5932698225	 0.126009
H	-0.9969158699	 0.646287651	 0.4174147845	 0.194443
35.7186	83.0535	120.7833	183.5766	212.3024	301.2859	343.1099	348.3983	380.2336	502.7627	516.5628	617.88	637.26	699.237	756.6277	823.7945	860.697	891.5365	934.5795	960.4525	1024.3605	1054.1927	1068.9232	1114.0672	1129.202	1139.8781	1170.696	1232.1512	1257.069	1288.8784	1339.8265	1351.7029	1385.4604	1397.8552	1400.3864	1439.1297	1461.1636	1484.6773	1485.5825	1514.0241	2242.2488	2917.4028	2991.4181	3016.9894	3033.5371	3054.5645	3062.6322	3102.1566	3134.5057	3140.097	3508.117	35.7179	83.0533	120.7831	183.5765	212.302	301.286	343.1106	348.3983	380.2337	502.7627	516.563	617.8805	637.2605	699.237	756.6277	823.7945	860.6969	891.5364	934.5794	960.4525	1024.3605	1054.1926	1068.9229	1114.0672	1129.2019	1139.878	1170.6959	1232.1512	1257.0689	1288.8784	1339.8265	1351.7028	1385.4603	1397.8553	1400.3863	1439.1297	1461.1637	1484.6775	1485.5827	1514.0239	2242.249	2917.4027	2991.4181	3016.9894	3033.5371	3054.5645	3062.6322	3102.1566	3134.5057	3140.097	3508.117
CC1OCC(CC#C)O1	C[C@@H]1OC[C@H](CC#C)O1	
InChI=1S/C7H10O2/c1-3-4-7-5-8-6(2)9-7/h1,6-7H,4-5H2,2H3	InChI=1S/C7H10O2/c1-3-4-7-5-8-6(2)9-7/h1,6-7H,4-5H2,2H3/t6-,7+/m1/s1
