19
gdb 2958	3.0868007	1.2756174	1.0821326	4.3823	75.87	-0.26177	0.01425	0.27602	1180.7311	0.156237	-422.598584	-422.589858	-422.588913	-422.631669	32.834	
C	-3.9151029753	 0.0139897932	-2.0049449275	-0.424453
C	-2.5091340859	 0.011460885	-1.4470077879	-0.072185
C	-2.1935288758	 0.7799260533	-0.1694770553	-0.129594
C	-0.7719121721	 1.2453993544	 0.0344615276	-0.382806
C	 0.0593874978	-0.0419742164	-0.0188237994	 0.405688
O	 1.2486749248	-0.1548862686	 0.0151401762	-0.329721
O	-0.7723267148	-1.1203272584	-0.1271628337	-0.248657
C	-2.1435420713	-0.7293830748	-0.1863956722	 0.409564
C	-3.0278452473	-1.6766161515	 0.570838845	-0.471466
H	-4.6684829634	 0.060950571	-1.2129881788	 0.119169
H	-4.0699167847	 0.8830910052	-2.6531104928	 0.126712
H	-4.109983767	-0.8854429329	-2.5983744033	 0.127871
H	-1.7253231098	 0.0141513084	-2.2024165906	 0.097128
H	-3.0063511597	 1.2954033996	 0.3294888823	 0.096495
H	-0.3996725274	 1.9416842147	-0.7227533267	 0.141457
H	-0.6182425315	 1.7170689843	 1.0106393953	 0.14081
H	-2.7254863832	-1.727529768	 1.6214702212	 0.131645
H	-4.0706591607	-1.3544325591	 0.5292249151	 0.125284
H	-2.9647089927	-2.6853266496	 0.1503548554	 0.137057
99.8356	175.1889	177.9116	206.6447	240.0557	266.3661	308.5368	420.1014	441.6438	504.2453	563.2127	624.7149	691.88	736.5812	815.6987	833.1663	890.7685	919.8678	985.9355	999.5472	1027.5254	1064.9242	1098.3398	1112.8103	1130.7933	1135.7664	1170.7996	1199.3349	1227.6873	1294.2219	1298.3389	1344.2753	1414.3225	1423.6423	1454.181	1465.7979	1477.2887	1493.0913	1496.3418	1512.1164	1884.3155	3034.1142	3042.8375	3057.7852	3096.5563	3097.1384	3103.0285	3105.9941	3126.0837	3130.8902	3174.1615
CC1C2CC(=O)OC12C	C[C@H]1[C@@H]2CC(=O)O[C@]12C	
InChI=1S/C7H10O2/c1-4-5-3-6(8)9-7(4,5)2/h4-5H,3H2,1-2H3	InChI=1S/C7H10O2/c1-4-5-3-6(8)9-7(4,5)2/h4-5H,3H2,1-2H3/t4-,5-,7+/m0/s1
