19
gdb 3434	2.576704	1.5548856	1.1191838	2.6499	76.5	-0.24029	-0.00088	0.23941	1132.2982	0.155564	-422.558773	-422.549797	-422.548853	-422.591909	33.981	
C	 1.2972532979	 0.6836332632	 0.2393636958	-0.503868
C	-0.0429849155	 0.0195883062	 0.2293648888	 0.28309
C	-0.317657034	-1.2815982634	 0.360167331	-0.233653
C	-1.8091619635	-1.5794591101	 0.3686053154	 0.084763
O	-2.2404370475	-2.2087573702	 1.5656141194	-0.436274
C	-2.420282626	-0.1864396342	 0.1864501071	-0.068881
O	-2.1501312135	 0.6589647476	 1.3168536909	-0.311234
C	-1.3370483368	 0.7971321259	 0.1101938992	 0.32663
C	-1.4135765875	 2.1282655845	-0.5814192233	-0.50087
H	 1.3784313451	 1.3994495245	 1.0670223147	 0.136055
H	 2.1011146013	-0.0493476178	 0.3437654208	 0.130031
H	 1.4732478763	 1.2506228748	-0.6830467472	 0.128938
H	 0.4118348293	-2.0640535251	 0.5401256424	 0.100096
H	-2.1043756574	-2.2529446729	-0.4441132082	 0.089098
H	-2.1284046424	-1.5420260538	 2.2564258014	 0.287195
H	-3.3950908319	-0.0543931725	-0.2753870723	 0.095032
H	-1.0714632456	 2.0466084066	-1.6186764347	 0.12756
H	-2.44104951	 2.4989531894	-0.5792227782	 0.135537
H	-0.7833535283	 2.8690317873	-0.0779128228	 0.130754
129.1547	144.9238	180.6313	196.9306	238.5601	257.5234	300.7548	414.5178	450.7436	477.6494	548.4974	560.4547	599.8428	664.4867	753.4038	797.0737	874.1218	878.8945	908.3726	993.9883	1011.9499	1039.5678	1060.6326	1065.0798	1077.1468	1108.1607	1141.4261	1231.6603	1271.4476	1286.3483	1309.1926	1345.3465	1405.9041	1414.6573	1432.7118	1446.6601	1477.5031	1481.7973	1488.031	1497.6331	1708.2646	3021.0938	3037.4249	3048.5366	3068.3787	3098.6936	3116.567	3128.1818	3149.7336	3191.5123	3764.5247
CC1=CC(O)C2OC12C	CC1=C[C@@H](O)[C@H]2O[C@@]12C	
InChI=1S/C7H10O2/c1-4-3-5(8)6-7(4,2)9-6/h3,5-6,8H,1-2H3	InChI=1S/C7H10O2/c1-4-3-5(8)6-7(4,2)9-6/h3,5-6,8H,1-2H3/t5-,6-,7+/m1/s1
