19
gdb 4160	2.8454268	1.5671002	1.2995229	2.0459	75.54	-0.23446	0.00842	0.24288	1059.2645	0.157363	-422.563046	-422.555027	-422.554082	-422.595236	31.12	
C	-3.2774560631	 1.8155506839	 1.2236497737	-0.410171
C	-2.0174365489	 0.9648580453	 1.2723011065	 0.15092
O	-2.3634227704	-0.4218714758	 1.4468839935	-0.296759
C	-1.8281687004	-1.0664120471	 0.2667875743	 0.14235
O	-2.0244543711	-0.1026587376	-0.7476917151	-0.234364
C	-1.2394492062	 0.907127121	-0.0896799169	-0.096286
C	 0.0701948394	 0.1730179499	 0.2026842353	 0.338908
C	 1.3979420471	 0.8357765451	 0.3401324107	-0.509457
C	-0.3108302376	-1.0902885597	 0.413888732	-0.209955
H	-3.8752185856	 1.6589639631	 2.1258684221	 0.125722
H	-3.0237058507	 2.8795680287	 1.1602384151	 0.106106
H	-3.8810552996	 1.5392411376	 0.3554690572	 0.134368
H	-1.362021686	 1.2797809754	 2.0933495108	 0.077011
H	-2.3754928817	-1.9872485307	 0.0770576323	 0.092485
H	-1.2062018458	 1.8297846563	-0.6675350205	 0.085445
H	 1.3778539665	 1.6145764072	 1.1133228161	 0.131937
H	 2.177053424	 0.1176113274	 0.6084884343	 0.132502
H	 1.6942816902	 1.3308284442	-0.5932294556	 0.132217
H	 0.2781883299	-1.9300587041	 0.755975764	 0.107019
146.1615	162.4657	185.4488	238.1357	251.9814	333.8705	419.0002	483.7793	568.5018	589.0812	671.9425	746.7314	802.0387	838.4181	854.6976	863.9536	880.9784	897.1318	931.4107	999.2677	1036.2613	1047.2847	1057.2111	1071.4545	1084.9651	1130.1217	1198.4808	1237.0573	1252.4433	1276.8404	1310.2568	1325.1542	1344.4717	1380.2995	1402.2324	1414.2703	1478.6327	1484.0233	1486.6332	1498.9696	1695.0995	3017.6213	3030.1037	3038.2434	3063.3299	3108.76	3113.6742	3130.3439	3135.3347	3154.5303	3228.7599
CC1OC2OC1C(C)=C2	C[C@H]1O[C@H]2O[C@@H]1C(=C2)C	
InChI=1S/C7H10O2/c1-4-3-6-8-5(2)7(4)9-6/h3,5-7H,1-2H3	InChI=1S/C7H10O2/c1-4-3-6-8-5(2)7(4)9-6/h3,5-7H,1-2H3/t5-,6+,7-/m1/s1
