19
gdb 459	4.6768206	1.0734919	0.9693769	0.5228	75.29	-0.2275	0.09181	0.31931	1256.6602	0.157193	-422.514735	-422.506795	-422.505851	-422.547703	30.435	
C	-2.0121082371	-2.9194946752	 1.6285242025	-0.267396
C	-3.0624443458	-1.905831381	 1.264053076	-0.267406
C	-1.6499361235	-1.45850147	 1.5428562581	 0.005427
C	-0.7967850672	-0.9826818122	 0.4077866357	 0.200009
O	-1.0132220565	 0.4040766305	 0.1554942723	-0.272918
C	 0.2256141113	 0.9707158583	-0.180931349	 0.070722
C	 1.0408026624	 0.3140109214	-1.2805887792	-0.359062
C	 1.2660528218	-0.0337259136	 0.1800227014	 0.070723
O	 0.5876213198	-1.1413829774	 0.7108709821	-0.272922
H	-2.0444209481	-3.3734436002	 2.6120136257	 0.117026
H	-1.6459466271	-3.5778717711	 0.8477511727	 0.117726
H	-3.4084647169	-1.8769015889	 0.2361545017	 0.117722
H	-3.8229541197	-1.657010405	 1.9948600719	 0.117026
H	-1.4615202195	-0.9294789544	 2.4711648783	 0.093483
H	-1.0305537293	-1.5540216672	-0.5082586386	 0.065871
H	 0.2686828065	 2.0335707161	 0.0194792487	 0.110422
H	 0.5713582143	-0.408720743	-1.9385848774	 0.126483
H	 1.7993917295	 0.9302665896	-1.7523609739	 0.116642
H	 2.1993020349	 0.1697470132	 0.6892623212	 0.110423
73.1019	86.2249	159.0987	294.9155	320.4991	371.7642	437.2613	493.8019	724.9729	738.1125	769.6442	771.5266	790.3247	830.1612	884.6552	918.8823	924.2509	956.468	960.5906	992.433	1007.6091	1058.1921	1068.5242	1076.7881	1078.5653	1091.5897	1125.7282	1137.1836	1168.7369	1192.6366	1195.9315	1216.6914	1223.4545	1310.8317	1342.8761	1372.6598	1380.1472	1455.8015	1469.581	1470.8984	1507.8143	2934.353	3133.4507	3135.5292	3139.2788	3168.405	3192.023	3200.0246	3214.4209	3224.5839	3228.9013
C1CC1C1OC2CC2O1	C1CC1[C@H]1O[C@@H]2C[C@@H]2O1	
InChI=1S/C7H10O2/c1-2-4(1)7-8-5-3-6(5)9-7/h4-7H,1-3H2	InChI=1S/C7H10O2/c1-2-4(1)7-8-5-3-6(5)9-7/h4-7H,1-3H2/t5-,6+,7+
