19
gdb 2641	1.9673459	1.3170016	0.9271749	1.9979	78.63	-0.24576	0.04363	0.28939000000000004	1311.3578	0.153821	-422.522287	-422.512182	-422.511237	-422.557008	37.22	
C	 1.0384666535	-0.539962578	-0.9787583669	-0.417444
C	 1.2924541787	 0.2379510222	 0.2999912698	-0.024692
C	 2.260675715	 1.453775736	 0.2829526836	 0.11691
O	 1.7821461196	 2.7433981768	 0.015678472	-0.431703
C	 2.7380643201	 1.063607701	 1.6942055345	 0.075566
O	 4.1012575492	 1.2559880693	 1.9403005261	-0.427004
C	 2.2015736217	-0.3859597307	 1.4129156737	-0.227277
C	 1.5973486445	-1.131233584	 2.4927795883	 0.289761
C	 1.0821259002	-1.7190150546	 3.4080646432	-0.439667
H	 0.4286079027	-1.4296621184	-0.7902780514	 0.125059
H	 0.5116002978	 0.081000789	-1.7111114688	 0.12637
H	 1.9800243818	-0.8672068896	-1.43327018	 0.116758
H	 0.3436924749	 0.5438828434	 0.7577205423	 0.074908
H	 3.0776128035	 1.2790149629	-0.4256297894	 0.103669
H	 1.0717392752	 2.9352487593	 0.6370373462	 0.278371
H	 2.1050682234	 1.5423021303	 2.4571835328	 0.069681
H	 4.2877460915	 1.0114024325	 2.8527163927	 0.29024
H	 3.0099789011	-0.9594022538	 0.9450415174	 0.107159
H	 0.6299918955	-2.2498945638	 4.208653714	 0.193334
69.8537	115.5779	165.9598	195.1821	227.6476	239.9044	284.1297	306.3555	325.3686	398.3969	425.4087	490.263	510.0897	550.4041	562.0602	616.5028	621.1328	842.455	885.2759	924.1786	986.8589	1037.0613	1066.6498	1091.7355	1103.4631	1147.3553	1160.9566	1172.5601	1182.8111	1212.8545	1252.9148	1290.1241	1322.3776	1348.6949	1385.6258	1406.5283	1423.2589	1464.5187	1494.6034	1495.3181	2229.024	2985.7883	3028.7439	3032.0102	3047.9904	3069.6892	3098.7932	3100.412	3504.4392	3807.8772	3812.76
CC1C(O)C(O)C1C#C	C[C@@H]1[C@@H](O)[C@H](O)[C@H]1C#C	
InChI=1S/C7H10O2/c1-3-5-4(2)6(8)7(5)9/h1,4-9H,2H3	InChI=1S/C7H10O2/c1-3-5-4(2)6(8)7(5)9/h1,4-9H,2H3/t4-,5-,6+,7+/m0/s1
