19
gdb 2514	2.8043331	1.1259475	0.8819294	1.117	79.98	-0.22915	-0.02804	0.20110999999999998	1324.8601	0.15486	-422.570675	-422.560967	-422.560023	-422.606785	33.194	
C	-2.1975041217	 1.1246216244	 2.0812130089	-0.506877
C	-2.044629142	 1.9566891583	 0.849365787	 0.205771
C	-0.9566348301	 2.177636356	 0.1058552894	 0.15824
C	 0.4317209936	 1.6237341665	 0.3036726477	-0.39131
C	 0.469578443	 0.1670692716	-0.1295284841	 0.16836
O	 0.6710034915	-0.7576799658	 0.6141564966	-0.240007
C	-1.3075078641	 3.0886835946	-1.0414104624	-0.155003
O	-2.6910247516	 3.3746845936	-0.8990814551	-0.262335
C	-3.2006715464	 2.7217971192	 0.2584911871	-0.140377
H	-2.9837079618	 0.3713337398	 1.9474798187	 0.135723
H	-1.2755090606	 0.5994278518	 2.3394060108	 0.147214
H	-2.4985085056	 1.7408069264	 2.9380917716	 0.131483
H	 1.1489616732	 2.1886731653	-0.3056061823	 0.122706
H	 0.7519052267	 1.6766066318	 1.3476061237	 0.132263
H	 0.2573864875	 0.0018852823	-1.2100671833	 0.082703
H	-0.7204996443	 4.0229282189	-1.0168712466	 0.102169
H	-1.1197414546	 2.6227585752	-2.0236845508	 0.101851
H	-3.6072167271	 3.4649633507	 0.9647269843	 0.102874
H	-4.0357784158	 2.0593099496	-0.0225834611	 0.104551
32.3782	63.122	110.8287	142.0753	154.7665	214.3171	243.1276	325.7926	358.6379	468.2674	545.9639	614.5846	649.3683	812.6336	849.2979	926.402	951.3287	962.5421	1003.4297	1034.6333	1065.9838	1093.8928	1095.8177	1126.6199	1171.2341	1183.8596	1223.5628	1230.0632	1271.3571	1299.6917	1375.6542	1395.2342	1420.5326	1423.599	1464.3233	1482.7717	1492.8412	1516.0956	1529.2017	1743.8699	1827.3166	2877.4299	2951.2727	2963.6859	2965.2172	2977.9774	3022.1862	3030.7923	3067.9622	3101.4403	3127.7275
CC1=C(CC=O)COC1	CC1=C(CC=O)COC1	
InChI=1S/C7H10O2/c1-6-4-9-5-7(6)2-3-8/h3H,2,4-5H2,1H3	InChI=1S/C7H10O2/c1-6-4-9-5-7(6)2-3-8/h3H,2,4-5H2,1H3
