19
gdb 3380	2.0527159	1.6748108	1.0615608	2.695	75.8	-0.24146	-0.02209	0.21937	1151.4338	0.156309	-422.535516	-422.526905	-422.525961	-422.569129	31.993	
O	 0.219631682	-0.6753650319	-3.1502403675	-0.427944
C	-0.0578412656	-0.3561569503	-1.814119309	 0.123428
C	-1.3806109109	-0.878341278	-1.1677942484	-0.066206
C	-2.1220430127	 0.1523650365	-0.2880506062	-0.229697
C	-1.1582655301	-0.1830543087	 0.8918412319	-0.231306
C	-0.5587084202	-1.3711506107	 0.0759280822	-0.045209
C	 0.7553698321	-1.105627095	-0.6890776632	-0.121584
C	 1.9175645339	-0.3831976728	-0.0746398424	 0.133033
O	 2.0129419912	-0.0677415646	 1.0862389235	-0.250321
H	 0.080243333	-1.6209023772	-3.2718813984	 0.280287
H	 0.0358410617	 0.7328045276	-1.7512332852	 0.098821
H	-1.9575516867	-1.5419035408	-1.8164547869	 0.061664
H	-2.1290979818	 1.1838657784	-0.6537828761	 0.09917
H	-3.1537186257	-0.142991893	-0.0798338866	 0.10349
H	-0.436094628	 0.5934809773	 1.1443253471	 0.124872
H	-1.6583121265	-0.4866969502	 1.8134740904	 0.106308
H	-0.6791965128	-2.3603420344	 0.5169087974	 0.071651
H	 1.1416202293	-2.0331260922	-1.1350495173	 0.088339
H	 2.7197440378	-0.1215186797	-0.8048443652	 0.081203
79.6861	85.681	160.4635	234.1436	257.3308	295.2367	349.1801	384.6001	432.6664	593.6522	712.0374	732.1441	791.4171	819.5936	848.1656	871.9818	902.7406	949.5171	975.2065	1000.8434	1016.0458	1059.6093	1081.6031	1127.3578	1134.0612	1136.988	1182.8155	1202.4606	1219.4565	1240.0466	1252.6513	1274.9932	1287.6677	1311.3066	1327.1722	1353.9805	1421.8664	1435.9462	1480.7755	1500.7978	1815.824	2852.8444	3015.9682	3048.4494	3060.6015	3077.8971	3082.6783	3098.9252	3107.809	3142.3041	3801.212
OC1C2CCC2C1C=O	O[C@H]1[C@@H]2CC[C@@H]2[C@@H]1C=O	
InChI=1S/C7H10O2/c8-3-6-4-1-2-5(4)7(6)9/h3-7,9H,1-2H2	InChI=1S/C7H10O2/c8-3-6-4-1-2-5(4)7(6)9/h3-7,9H,1-2H2/t4-,5+,6-,7-/m0/s1
