19
gdb 1995	2.8175696	1.8343601	1.5388852	2.9469	72.76	-0.24648	0.08237	0.32885	942.3524	0.158795	-422.555184	-422.547922	-422.546978	-422.586468	29.306	
C	 0.391306636	 0.1329723952	-2.0833877767	-0.497028
C	 1.1571087264	-0.046849455	-0.8053895677	 0.431924
O	 2.2210434578	 0.8804228846	-0.5450998439	-0.28724
C	 2.5432031257	-0.5064197319	-0.6484505107	-0.041563
C	 2.5314079558	-1.2384752488	 0.7018906008	 0.02374
C	 1.8046986701	-2.5869789918	 0.4577298051	-0.224032
C	 0.3249671613	-2.1027214463	 0.3221011354	-0.222859
C	 0.4982986809	-0.5676367291	 0.4907357383	-0.02207
O	 1.561145979	-0.4936413496	 1.4420082398	-0.240827
H	-0.1791602709	-0.764788634	-2.3411897132	 0.125119
H	-0.3187911654	 0.9624523211	-1.990597711	 0.131797
H	 1.0707495926	 0.3622475913	-2.9078440189	 0.13435
H	 3.1890664937	-0.8120560998	-1.4665387895	 0.097245
H	 3.4689201421	-1.2794763443	 1.2554541725	 0.086352
H	 2.1674492118	-3.1026962502	-0.4362139045	 0.100314
H	 1.9341896978	-3.2564573832	 1.3103487478	 0.110466
H	-0.1302319152	-2.3840415444	-0.6305324183	 0.102076
H	-0.3004348193	-2.5009230445	 1.1236106031	 0.110108
H	-0.36853404	-0.0181672491	 0.8585337618	 0.082127
152.0102	181.8428	254.6493	292.4118	359.2136	447.7818	489.5334	562.4466	624.1464	665.9599	801.3932	826.0163	835.6124	864.0946	879.0355	902.8337	922.7754	936.4022	969.5382	981.9616	1018.7537	1031.603	1056.3294	1065.7967	1115.6398	1153.7331	1215.3773	1222.4224	1233.4035	1248.7507	1269.8185	1298.0288	1316.2664	1332.3242	1342.1768	1409.3423	1454.1311	1481.8474	1487.874	1496.7217	1504.7754	3036.6979	3061.3823	3073.8668	3097.4929	3105.2339	3119.3822	3123.088	3124.7924	3129.6869	3159.0845
CC12OC1C1CCC2O1	C[C@]12O[C@H]1[C@@H]1CC[C@H]2O1	
InChI=1S/C7H10O2/c1-7-5-3-2-4(8-5)6(7)9-7/h4-6H,2-3H2,1H3	InChI=1S/C7H10O2/c1-7-5-3-2-4(8-5)6(7)9-7/h4-6H,2-3H2,1H3/t4-,5+,6-,7+/m0/s1
