19
gdb 4036	3.1786286	1.6137421	1.3607666	2.3316	74.42	-0.23059	0.05899	0.28958	988.8157	0.158003	-422.489314	-422.481745	-422.480801	-422.521466	30.142	
O	 0.8112728599	 0.0523374806	 1.1242373735	-0.432283
C	-0.5629935884	 0.3276085158	 0.9848872605	 0.033535
C	-1.3982687046	 0.1385283075	 2.3251941491	-0.313464
C	-1.2622723513	 1.6830109291	 2.6152482584	-0.049367
C	-2.2070570587	 2.8639348464	 2.2599631982	-0.115744
C	-2.4691267112	 2.1672622139	 0.9014110774	-0.28578
C	-0.9608667042	 1.800438638	 1.1085661923	 0.428937
O	-0.2847892314	 3.0249502967	 0.8819716245	-0.350196
C	-1.1001947601	 3.8625470944	 1.7744967874	-0.086127
H	 1.2264570913	 0.7978879657	 1.5711757617	 0.29265
H	-0.9095210246	-0.2171028603	 0.101794415	 0.085792
H	-2.4045201325	-0.2599878991	 2.1883055145	 0.11024
H	-0.8664823987	-0.4756846355	 3.0532058599	 0.114239
H	-0.4669421862	 1.8949497044	 3.3341774819	 0.070783
H	-2.9862301271	 3.2899245753	 2.8952437485	 0.070664
H	-3.1636577363	 1.3315706441	 0.9516759099	 0.108721
H	-2.6818796524	 2.7951198641	 0.0335839629	 0.101067
H	-0.4699358693	 4.2471976085	 2.5836961601	 0.105201
H	-1.5152356942	 4.6988057205	 1.2040520343	 0.111131
54.5409	179.5983	241.4031	327.0293	406.0521	427.7086	442.1153	507.1724	583.4985	663.9176	741.1705	785.2894	811.6303	839.5967	861.3216	907.1173	915.5276	936.0261	978.7078	1008.1203	1011.785	1037.2352	1071.5405	1084.3686	1106.9522	1134.5879	1150.9758	1171.6698	1198.1063	1216.8183	1232.9985	1241.4616	1258.4396	1296.6841	1314.4969	1331.8717	1356.8561	1428.5509	1461.6561	1501.1263	1517.643	3038.4384	3066.7343	3070.8591	3079.4631	3082.6822	3092.061	3096.1864	3140.8123	3161.7671	3810.4108
OC1CC2C3CC12OC3	O[C@H]1C[C@@H]2[C@@H]3C[C@]12OC3	
InChI=1S/C7H10O2/c8-6-1-5-4-2-7(5,6)9-3-4/h4-6,8H,1-3H2	InChI=1S/C7H10O2/c8-6-1-5-4-2-7(5,6)9-3-4/h4-6,8H,1-3H2/t4-,5-,6+,7-/m1/s1
