19
gdb 1781	4.4818689	1.0096536	1.0032409	2.2756	76.09	-0.25837	0.07801	0.33638	1239.3741	0.156566	-422.492203	-422.483969	-422.483025	-422.525195	31.721	
O	-3.641528668	-1.1351219478	 1.8638920781	-0.467307
C	-2.4103139665	-0.6096201134	 1.5287151227	 0.392724
C	-1.8075648862	-0.7313510704	 0.111809716	-0.298956
C	-0.7654960646	 0.0624012148	 0.9590975929	 0.370066
C	-1.958026641	 0.8864761106	 1.536717369	-0.335263
C	-1.0068362187	-0.9750793755	 2.10211209	-0.330535
C	 0.5493626493	 0.5923712962	 0.5142828281	-0.081734
C	 0.8391345113	 0.906795861	-0.8914465644	-0.180383
O	 1.3542183053	-0.2802601779	-0.2873628459	-0.234632
H	-3.8017188202	-0.9682774582	 2.798976355	 0.282704
H	-1.5092498738	-1.7308121852	-0.2112651707	 0.106034
H	-2.3188554092	-0.1781939303	-0.6806342854	 0.092123
H	-1.8008135223	 1.3526125839	 2.5142712441	 0.085472
H	-2.4695708819	 1.5581850567	 0.8421803616	 0.095236
H	-0.6478635045	-1.9904859548	 1.9186694459	 0.104407
H	-0.7835710227	-0.6382861349	 3.1192254274	 0.083671
H	 1.1124841177	 1.1312248508	 1.2790561489	 0.088148
H	 0.0693155649	 0.7499340386	-1.6450353626	 0.114042
H	 1.5782296708	 1.6701541961	-1.1313746307	 0.114182
63.6269	138.7593	159.5187	252.7535	328.5326	361.0328	418.9394	472.92	545.4611	562.0959	622.3238	654.557	779.0506	795.2039	853.3856	898.9395	938.7985	957.946	980.4907	985.978	1044.0934	1050.	1094.0648	1108.4981	1113.3568	1123.7832	1136.8642	1148.6857	1157.2527	1168.7757	1175.4776	1176.7945	1279.0917	1298.396	1320.7296	1383.0394	1448.0418	1491.3724	1495.8901	1526.5263	1565.2362	3041.7942	3047.7268	3059.0002	3083.2393	3089.4226	3113.4279	3120.8161	3128.9822	3172.514	3809.5425
OC12CC(C1)(C2)C1CO1	O[C@@]12C[C@@](C1)(C2)[C@@H]1CO1	
InChI=1S/C7H10O2/c8-7-2-6(3-7,4-7)5-1-9-5/h5,8H,1-4H2	InChI=1S/C7H10O2/c8-7-2-6(3-7,4-7)5-1-9-5/h5,8H,1-4H2/t5-,6-,7+/m0/s1
