19
gdb 629	3.2516863	1.4901768	1.1129363	2.1372	77.94	-0.22352	0.01545	0.23897	1094.5817	0.159801	-422.565465	-422.55808	-422.557135	-422.597264	28.887	
C	 0.6103006766	 1.0003366895	 1.1273048144	-0.111061
O	 0.95234613	 1.8683994112	 0.0430935303	-0.282205
C	 0.368355654	 1.3858143495	-1.1591346929	 0.045474
C	-0.4876161409	 2.453061175	-1.8640514706	-0.103493
O	-1.2101757161	 1.8531616833	-2.9288981209	-0.244818
C	-2.1374960775	 0.8782101401	-2.4846615938	-0.066966
C	-1.4348542047	-0.3124454905	-1.7933770637	-0.32529
C	-0.5201553489	 0.2404692272	-0.7509273432	 0.325442
C	-0.3898542032	 0.0309501737	 0.5551118007	-0.258858
H	 1.5138828271	 0.4990580284	 1.5122244904	 0.102845
H	 0.197893429	 1.5990467555	 1.9527926545	 0.10785
H	 1.1543220621	 1.058483812	-1.8605350966	 0.081919
H	-1.1682305855	 2.9057151178	-1.1251937966	 0.091697
H	 0.1268511498	 3.2421558657	-2.3049471039	 0.112017
H	-2.8582729091	 1.3314869107	-1.7845986625	 0.093138
H	-2.6817387424	 0.5464537199	-3.373137485	 0.109556
H	-2.1742420226	-1.0009317056	-1.371722875	 0.105523
H	-0.8605110184	-0.8591473046	-2.552787094	 0.117281
H	-0.9132590795	-0.7047928389	 1.1532242282	 0.099949
108.0798	166.4125	257.7093	324.7851	351.0868	374.7559	444.771	497.9128	606.9513	679.4049	771.9705	809.7179	822.789	865.4818	915.1722	940.5066	968.4692	1006.5155	1034.5994	1047.3133	1075.1437	1111.2183	1116.6098	1126.5985	1194.6561	1199.3676	1203.0216	1237.1045	1290.2869	1305.5627	1327.3982	1345.0086	1365.4578	1375.7465	1387.1042	1411.2357	1471.6668	1492.0293	1503.2186	1523.894	1738.0144	2956.4603	2965.7577	2974.1799	2984.755	3002.0127	3022.7048	3083.0052	3091.0322	3098.5159	3210.5594
C1OC2COCCC2=C1	C1O[C@@H]2COCCC2=C1	
InChI=1S/C7H10O2/c1-3-8-5-7-6(1)2-4-9-7/h2,7H,1,3-5H2	InChI=1S/C7H10O2/c1-3-8-5-7-6(1)2-4-9-7/h2,7H,1,3-5H2/t7-/m1/s1
