19
gdb 1547	2.7706978	1.4811961	1.2259447	4.1888	74.67	-0.26894	0.00828	0.27722	1083.6159	0.15626	-422.577915	-422.569431	-422.568487	-422.61077	32.336	
C	-2.0359006438	-3.0655311318	-1.1530871509	-0.441641
C	-1.528655926	-1.6280953396	-1.2794935047	 0.318794
C	-0.6846613139	-1.4538794624	-2.5389421829	-0.446959
C	-2.6766427651	-0.5761609136	-1.0628650614	-0.297781
C	-2.0304374988	-0.1412729916	 0.2634399138	 0.118024
O	-1.0906008859	 0.9676985447	 0.077527739	-0.26016
C	-0.0216311766	 0.1036693152	-0.0439514137	 0.460333
O	 1.1220643278	 0.3895688385	-0.197666199	-0.334228
C	-0.8750729498	-1.1520900031	 0.0793387274	-0.279083
H	-2.6225842894	-3.2085145053	-0.2391493375	 0.114172
H	-2.675258462	-3.3234195642	-2.0047255389	 0.120221
H	-1.2010283265	-3.7746148868	-1.1307282154	 0.121725
H	 0.185456444	-2.1190284409	-2.5257439639	 0.12499
H	-1.2779399371	-1.6949309083	-3.4282051567	 0.115857
H	-0.3183043185	-0.4294065392	-2.6489290545	 0.135927
H	-2.7393620568	 0.2271945599	-1.7999054501	 0.119849
H	-3.6637333637	-1.0303882288	-0.9459949543	 0.10939
H	-2.6223633618	-0.0049748738	 1.1664795823	 0.100165
H	-0.5581286261	-1.9112747089	 0.7920586415	 0.100402
84.8935	140.4589	221.0689	241.5955	277.809	314.0908	358.3056	393.1597	427.4392	493.386	610.5337	674.5103	764.9755	825.857	850.3093	860.6291	891.6823	929.9539	962.0456	968.408	991.097	1008.3662	1041.8628	1090.3753	1116.103	1159.8058	1179.2884	1195.9646	1247.8204	1262.9931	1280.1482	1297.7006	1326.6282	1405.8791	1425.5325	1466.4614	1482.1675	1486.494	1502.0866	1505.861	1929.5375	3022.9453	3031.2991	3066.8174	3092.8909	3093.9935	3098.3355	3111.676	3123.4098	3131.1948	3140.6348
CC1(C)CC2OC(=O)C12	CC1(C)C[C@@H]2OC(=O)[C@H]12	
InChI=1S/C7H10O2/c1-7(2)3-4-5(7)6(8)9-4/h4-5H,3H2,1-2H3	InChI=1S/C7H10O2/c1-7(2)3-4-5(7)6(8)9-4/h4-5H,3H2,1-2H3/t4-,5+/m0/s1
