19
gdb 1287	2.5725013	1.3043133	0.964457	3.092	78.82	-0.23813	-0.04251	0.19562000000000002	1255.9275	0.156237	-422.601277	-422.592011	-422.591067	-422.635669	33.759	
C	-3.3707362554	-1.7474374814	-2.8151315192	-0.386743
C	-2.0908623465	-0.9114385557	-2.8255443688	 0.024757
O	-2.3200026633	 0.1983498681	-3.6881787266	-0.427048
C	-1.6988356047	-0.4773970597	-1.4390743842	 0.173672
C	-1.772954493	 0.7475066722	-0.9003338466	-0.164625
C	-1.2810838289	 0.8143807397	 0.5241437357	-0.267886
C	-0.8466746765	-0.6301766323	 0.8392828498	-0.32633
C	-1.1339423316	-1.4247779128	-0.4425367939	 0.33208
O	-0.9356602055	-2.6078787504	-0.6110840463	-0.339515
H	-3.2326444759	-2.6305517814	-2.1872982782	 0.142744
H	-4.2045545046	-1.1554790063	-2.4263262005	 0.119598
H	-3.6122652443	-2.0656449761	-3.8324970248	 0.123309
H	-1.2799000976	-1.545376225	-3.2181419392	 0.08648
H	-1.4858298052	 0.6682123009	-3.7902651215	 0.280477
H	-2.1521219547	 1.6189101965	-1.423305029	 0.116183
H	-0.4579944797	 1.532705854	 0.6224040252	 0.119825
H	-2.0722402732	 1.1725460079	 1.1941038028	 0.12283
H	 0.2152694729	-0.7155257485	 1.0878856522	 0.134452
H	-1.4000774224	-1.0743466498	 1.671771063	 0.135742
61.9026	86.5099	151.4738	176.9745	249.1458	276.7098	312.1897	323.5808	400.6222	467.4952	557.6672	593.2154	649.3749	715.253	793.9135	810.79	898.9051	906.9802	930.3695	987.0204	1017.255	1028.172	1049.1139	1078.9828	1147.726	1151.7332	1206.3167	1231.0668	1262.6313	1288.7803	1307.8321	1324.9345	1382.6713	1390.5033	1413.5055	1449.1886	1482.6762	1491.7526	1496.6831	1690.401	1799.4362	2976.7749	3030.2254	3047.9036	3054.0541	3066.1699	3106.0209	3123.9014	3139.5248	3196.8194	3813.4726
CC(O)C1=CCCC1=O	C[C@@H](O)C1=CCCC1=O	
InChI=1S/C7H10O2/c1-5(8)6-3-2-4-7(6)9/h3,5,8H,2,4H2,1H3	InChI=1S/C7H10O2/c1-5(8)6-3-2-4-7(6)9/h3,5,8H,2,4H2,1H3/t5-/m1/s1
