19
gdb 3472	2.8492038	1.3065521	1.1763227	2.6372	76.97	-0.22864	0.00484	0.23348000000000002	1128.1685	0.156186	-422.558873	-422.550173	-422.549229	-422.591485	34.075	
C	-3.8392052705	 1.0026193802	 0.4595474468	-0.462528
C	-2.7446508378	 2.0242791472	 0.2627776338	 0.398932
O	-3.0443858372	 2.9786334574	-0.7256071123	-0.462937
C	-1.866897259	 2.5644376689	 1.4032058472	-0.167535
C	-1.714223088	 1.7303774501	 2.6221567037	-0.08028
C	-1.1532604697	 0.5436058846	 2.3585995416	-0.153335
C	-0.7603307718	 0.4139745411	 0.9009697587	 0.095098
O	 0.641662826	 0.23676694	 0.7182565441	-0.431458
C	-1.2800157494	 1.7139786513	 0.2737267178	-0.143602
H	-3.605027546	 0.2937093216	 1.2546951141	 0.131843
H	-4.7799938672	 1.50164569	 0.7250513568	 0.104092
H	-4.0054706191	 0.4485497086	-0.4698133216	 0.128629
H	-3.8572259604	 3.4261063089	-0.4639012887	 0.279556
H	-1.7425735468	 3.6411296591	 1.441477419	 0.088682
H	-2.0617800935	 2.0521481385	 3.5981891839	 0.100102
H	-0.9784256465	-0.2541463802	 3.0711163692	 0.099787
H	-1.2072173341	-0.4704603412	 0.4314727111	 0.095662
H	 1.0790291698	 0.9291020958	 1.226801617	 0.275367
H	-0.6868692086	 2.157673298	-0.5172150223	 0.103924
128.0509	192.6477	215.1972	237.4644	300.3743	305.422	338.087	382.5799	418.7797	425.7807	505.5051	580.7338	669.183	754.6663	784.6931	793.0095	876.2611	893.6321	922.1772	957.1433	980.6013	1006.6844	1007.939	1044.8623	1065.0828	1077.3161	1100.5745	1128.5838	1169.6531	1252.9842	1264.0707	1273.2788	1294.1119	1305.2865	1373.0363	1411.9337	1425.6606	1432.6724	1493.64	1499.9957	1647.7094	3024.7056	3042.2082	3088.4433	3139.6516	3169.1594	3183.7642	3190.0019	3211.2707	3790.377	3796.9428
CC1(O)C2C=CC(O)C12	C[C@@]1(O)[C@H]2C=C[C@H](O)[C@@H]12	
InChI=1S/C7H10O2/c1-7(9)4-2-3-5(8)6(4)7/h2-6,8-9H,1H3	InChI=1S/C7H10O2/c1-7(9)4-2-3-5(8)6(4)7/h2-6,8-9H,1H3/t4-,5-,6-,7+/m0/s1
