19
gdb 4801	1.9384468	1.2903021	0.8809853	2.9714	79.85	-0.24982	-0.06118	0.18863999999999997	1372.6037	0.152642	-422.521036	-422.510262	-422.509318	-422.557444	37.151	
C	 1.4838020781	 2.8953144001	 1.5351366748	-0.385987
C	 0.0560553167	 2.4084322361	 1.2786340212	-0.194674
C	-0.0076231305	 0.8972879383	 1.0019190839	 0.014352
O	 0.7181522679	 0.6410078914	-0.1667397938	-0.226421
C	 1.0145760209	-0.7233503347	-0.4005965117	-0.246988
C	-1.4728088355	 0.4412913307	 0.8835723593	 0.211144
O	-1.9681294135	 0.0665844596	-0.1545405101	-0.284327
C	-2.2340414234	 0.4861267076	 2.1243316307	 0.278501
C	-2.8487771328	 0.5154477586	 3.1592844857	-0.424331
H	 1.9066746288	 2.4250144203	 2.4299565475	 0.11219
H	 2.1294980557	 2.6534864095	 0.6879836308	 0.138789
H	 1.5026889199	 3.9786835003	 1.6859612218	 0.114848
H	-0.5860178932	 2.6354820037	 2.1357420714	 0.112923
H	-0.3695862397	 2.9226932599	 0.4092040949	 0.120238
H	 0.4277619114	 0.3569994389	 1.8637826528	 0.078256
H	 1.5612509643	-1.1631008353	 0.4479351532	 0.101936
H	 0.1098191055	-1.3116103952	-0.589702726	 0.132363
H	 1.6530352487	-0.7585816635	-1.286068943	 0.130223
H	-3.4051543591	 0.5374964236	 4.0650545067	 0.216964
48.2023	88.6108	116.1225	137.0807	161.9033	190.7358	216.9233	261.1574	269.9632	313.8103	347.1298	482.9413	505.5752	605.5142	654.214	698.7377	712.5625	767.4627	866.0802	925.3675	964.3287	1047.6628	1072.4058	1106.7233	1143.0809	1174.9409	1182.791	1238.1093	1274.9024	1313.649	1371.7101	1377.1096	1406.4846	1476.4502	1480.9247	1485.9017	1495.0519	1509.5018	1512.074	1774.1352	2206.7715	2930.0868	2987.0197	3038.0041	3043.9196	3070.3319	3086.2758	3105.173	3124.1991	3131.9991	3492.9612
CCC(OC)C(=O)C#C	CC[C@H](OC)C(=O)C#C	
InChI=1S/C7H10O2/c1-4-6(8)7(5-2)9-3/h1,7H,5H2,2-3H3	InChI=1S/C7H10O2/c1-4-6(8)7(5-2)9-3/h1,7H,5H2,2-3H3/t7-/m0/s1
