19
gdb 3984	2.93359	1.2224772	1.1230664	3.357	77.62	-0.24614	-0.02227	0.22386999999999999	1167.046	0.155252	-422.544593	-422.535415	-422.534471	-422.578169	33.855	
C	-1.1751236984	-0.7808985446	 0.0297760024	-0.520435
C	-0.4027289818	-1.0359099307	-1.2317610089	 0.349854
C	 0.7314205489	-1.9835553113	-1.5604262498	-0.08918
C	 0.1363319196	-2.3177009273	-2.9271592307	-0.295636
C	-1.0439544916	-1.3366204592	-2.5905515775	 0.051064
O	-1.2356739059	-0.1963534575	-3.3969780354	-0.432033
C	 1.0045783559	-0.4857240041	-1.5077194498	-0.16107
C	 1.801876091	 0.001375855	-0.360665745	 0.117408
O	 1.8686594043	-0.5325483497	 0.7248896964	-0.274829
H	-1.9190151119	-1.5701860129	 0.1867604911	 0.114585
H	-0.5160743752	-0.7568532512	 0.8992042469	 0.157934
H	-1.7103051426	 0.173695018	-0.0289002938	 0.126053
H	 1.2657875586	-2.6425666279	-0.8876589409	 0.109818
H	 0.7452696368	-2.0487402361	-3.7959424224	 0.100504
H	-0.1945701818	-3.3544859197	-3.0249181498	 0.106597
H	-1.9851761567	-1.886914735	-2.4534120722	 0.075139
H	-1.6309619973	-0.4756443187	-4.2289825722	 0.286466
H	 1.1603989497	 0.057365076	-2.4353322544	 0.098977
H	 2.3761044683	 0.9318983668	-0.566255784	 0.078784
116.9062	124.6676	194.8743	199.1255	206.6819	246.234	274.3794	317.6876	356.1618	426.6203	544.2263	648.9932	671.5728	706.6593	813.3227	853.1059	920.4424	940.4092	959.969	992.9685	1036.6663	1044.7165	1077.4407	1085.602	1098.0801	1121.1074	1165.0117	1195.3862	1230.3781	1238.0302	1253.7488	1309.9406	1352.9889	1400.6184	1416.8751	1428.8006	1442.9086	1486.4558	1495.4114	1500.1245	1794.7759	2883.4657	3001.9516	3031.0562	3049.1522	3085.6186	3108.0807	3138.8855	3153.0249	3199.3493	3816.9568
CC12C(CC1O)C2C=O	C[C@@]12[C@@H](C[C@@H]1O)[C@@H]2C=O	
InChI=1S/C7H10O2/c1-7-4(2-6(7)9)5(7)3-8/h3-6,9H,2H2,1H3	InChI=1S/C7H10O2/c1-7-4(2-6(7)9)5(7)3-8/h3-6,9H,2H2,1H3/t4-,5-,6-,7-/m0/s1
