19
gdb 4758	3.8075993	0.5604149	0.5052827	1.6143	82.67	-0.25369	-0.03295	0.22074000000000002	2139.6169	0.152844	-422.536187	-422.525078	-422.524134	-422.575406	37.224	
C	 3.1182525102	-4.4474739554	-2.4449569749	-0.3868
C	 2.7711694296	-3.0777520787	-1.86017115	-0.173028
C	 1.4102308806	-3.0759206362	-1.1349322276	-0.052944
O	 1.3622963438	-4.0428970127	-0.0866349075	-0.413647
C	 1.0663900894	-1.7348264531	-0.6509804654	 0.057086
C	 0.805992201	-0.6381813565	-0.2247522713	 0.069507
C	 0.5230976638	 0.7069252664	 0.2529610574	-0.417753
C	 1.6358580973	 1.6988106711	-0.096678426	 0.173473
O	 1.4351511751	 2.8403519575	-0.4078772354	-0.228286
H	 3.1114759885	-5.2123237292	-1.6645353479	 0.132313
H	 2.3918096985	-4.7445213101	-3.2095553247	 0.116499
H	 4.1077272569	-4.4350498231	-2.9108850931	 0.112239
H	 3.5410300218	-2.7579290601	-1.1458279707	 0.094769
H	 2.7434790957	-2.3151938055	-2.6470288657	 0.108798
H	 0.6397046126	-3.4059770856	-1.8436616792	 0.117474
H	 1.9069389521	-3.7103153996	 0.6356937228	 0.282292
H	-0.4214860082	 1.0995420219	-0.1374818393	 0.158122
H	 0.436431767	 0.7060714499	 1.3506881627	 0.157806
H	 2.6620882245	 1.277031209	-0.025030054	 0.09208
11.4368	44.5251	75.3036	92.5344	144.8405	180.7495	221.6902	274.7397	283.5009	341.5738	369.1218	444.4427	486.2283	552.8968	564.7919	723.9479	772.8707	824.0068	902.125	978.0202	1032.3446	1041.57	1060.0748	1093.5726	1113.8084	1163.937	1210.8697	1251.6578	1289.4975	1292.1341	1326.5193	1373.6049	1406.8041	1413.6474	1420.0704	1438.2972	1480.5725	1495.241	1508.7684	1842.7225	2359.6126	2898.5333	3001.623	3021.6132	3034.1095	3039.4129	3069.1878	3080.1617	3105.1042	3127.3134	3802.9134
CCC(O)C#CCC=O	CC[C@@H](O)C#CCC=O	
InChI=1S/C7H10O2/c1-2-7(9)5-3-4-6-8/h6-7,9H,2,4H2,1H3	InChI=1S/C7H10O2/c1-2-7(9)5-3-4-6-8/h6-7,9H,2,4H2,1H3/t7-/m1/s1
