19
gdb 4708	2.137688	1.1635474	0.8008996	2.9912	78.62	-0.25519	-0.03062	0.22456999999999996	1410.0284	0.152821	-422.535131	-422.52441	-422.523465	-422.57153	37.514	
C	 2.7290963252	-2.3144480344	-1.0301568778	-0.420235
C	 3.2636837174	-1.444961438	 0.1229231762	-0.070205
C	 4.7785412342	-1.4134260799	 0.0206862202	 0.157567
O	 5.5370522363	-1.9633637724	 0.7745704898	-0.24761
C	 2.7045828886	 0.0027405713	 0.0759224333	-0.194716
C	 3.2269093628	 0.8576242418	 1.2589413134	-0.06865
O	 2.7782045433	 2.190857629	 1.199070625	-0.418952
C	 1.2440758635	 0.0290780331	 0.0780906745	 0.291904
C	 0.0436362429	 0.0851814691	 0.1419082283	-0.445634
H	 3.1004650893	-3.339361971	-0.9453161519	 0.134369
H	 1.6370346607	-2.335830653	-1.0120627752	 0.144276
H	 3.0430252314	-1.9172914559	-2.0022831179	 0.123505
H	 3.0067925376	-1.9045729055	 1.0826873471	 0.106025
H	 5.1568015153	-0.8454628274	-0.8645828512	 0.074886
H	 3.0556809728	 0.4815026367	-0.8497552254	 0.116371
H	 2.943366968	 0.3672155672	 2.2031584994	 0.103326
H	 4.3202573012	 0.8991737899	 1.2230050469	 0.121957
H	 1.813660562	 2.1684853617	 1.203717425	 0.287439
H	-1.0176867324	 0.1224209679	 0.1713435903	 0.204376
53.8932	61.3009	111.8637	141.7711	174.487	212.2685	221.7335	296.3089	335.4644	355.3283	395.3615	421.8207	461.2111	548.11	624.1666	633.2493	662.0907	823.56	896.3866	932.2985	959.7741	1013.5042	1051.8533	1088.8893	1112.3661	1137.1598	1155.0188	1209.5607	1243.4138	1297.6757	1331.222	1366.9882	1387.9903	1402.2361	1425.9889	1430.9617	1496.5736	1498.6918	1501.6933	1837.2991	2225.2195	2833.8377	2985.6041	3009.9021	3037.0923	3068.3959	3079.9178	3108.716	3129.5916	3499.9709	3784.6531
CC(C=O)C(CO)C#C	C[C@@H](C=O)[C@H](CO)C#C	
InChI=1S/C7H10O2/c1-3-7(5-9)6(2)4-8/h1,4,6-7,9H,5H2,2H3	InChI=1S/C7H10O2/c1-3-7(5-9)6(2)4-8/h1,4,6-7,9H,5H2,2H3/t6-,7-/m0/s1
