19
gdb 4965	2.4151636	1.6271838	1.3606991	2.2063	75.52	-0.23913	0.06	0.29913	1035.6288	0.156733	-422.513103	-422.504576	-422.503632	-422.54654	32.575	
O	 1.6805719433	 0.3802667297	-0.0279499548	-0.428895
C	 0.267594742	 0.5446968603	 0.1313522095	-0.257771
C	-0.2698691933	 0.9848370297	-1.1772968862	 0.321064
C	-1.583388903	 1.5213468768	-1.6872234735	-0.148485
C	-1.685317189	 0.4400699214	-2.7666572128	-0.267482
C	-0.1522572066	 0.3134482693	-2.6214004679	 0.356039
O	 0.4259085655	-0.9068761907	-2.9137084167	-0.477653
C	 0.4024322833	 1.6643172415	-3.1570582889	-0.293226
C	-0.2694936693	 2.2888405602	-1.9341355991	-0.113279
H	 2.0273162276	-0.0126305307	 0.779167919	 0.28767
H	-0.1960503119	-0.4075643253	 0.4350245397	 0.095328
H	 0.0357892882	 1.2868768852	 0.9122259481	 0.092845
H	-2.3865406621	 1.9627069804	-1.1106286297	 0.084843
H	-2.1863593092	-0.4551435807	-2.3889008545	 0.102747
H	-2.0813719557	 0.7049424375	-3.7533894295	 0.089295
H	 1.3308405141	-0.882593735	-2.5808794306	 0.286857
H	 1.4921325919	 1.7075306827	-3.0656011256	 0.098546
H	 0.095748819	 1.9771467297	-4.1619723138	 0.087024
H	-0.1200856749	 3.2801262179	-1.5258600327	 0.084534
41.217	116.7343	192.7703	277.2269	305.0706	334.3433	379.916	419.1098	465.6935	495.4933	611.9359	676.2191	715.4857	773.6861	843.4975	905.4182	908.3711	923.9019	968.6684	988.0833	1009.6413	1013.8259	1036.3037	1075.039	1092.9197	1112.4965	1136.3197	1140.8546	1206.8713	1233.4019	1240.2437	1256.5892	1264.925	1279.582	1337.5698	1393.8955	1420.1855	1486.4946	1493.6001	1510.0584	1511.1966	2963.4046	2990.4574	3028.5172	3038.6919	3092.4963	3104.3198	3189.8715	3200.0518	3794.0384	3820.4656
OCC12C3CC1(O)CC23	OC[C@]12[C@@H]3C[C@@]1(O)C[C@H]23	
InChI=1S/C7H10O2/c8-3-7-4-1-6(7,9)2-5(4)7/h4-5,8-9H,1-3H2	InChI=1S/C7H10O2/c8-3-7-4-1-6(7,9)2-5(4)7/h4-5,8-9H,1-3H2/t4-,5+,6-,7-
