19
gdb 6024	4.7093533	0.8706005	0.8496796	2.6921	75.41	-0.23572	0.00053	0.23625000000000002	1400.1168	0.15693	-422.506709	-422.498346	-422.497401	-422.54021	31.522	
O	 1.5146293121	 0.9362308557	-0.0202230901	-0.418536
C	 0.1957634842	 0.4772618156	 0.2326636829	-0.073318
C	-0.7491175013	 1.2534804883	-0.6788399634	-0.209653
C	-2.1961007784	 0.8009722736	-0.5527846735	 0.015393
C	-3.2768442364	 1.7355203253	-1.2027903035	-0.000806
O	-3.1370446792	 2.6165579259	-0.0392245857	-0.284814
C	-3.0166837029	 1.3440179314	 0.6765285541	 0.007533
C	-4.39520324	 0.7103523028	 0.4247843261	-0.082071
C	-4.5750606422	 0.9811123355	-0.8701429754	-0.08316
H	 2.1142645455	 0.4701615097	 0.5694806814	 0.285135
H	 0.1051428597	-0.603629917	 0.0319963173	 0.081666
H	-0.0848928975	 0.6351500796	 1.286880931	 0.08484
H	-0.6722568918	 2.3211495878	-0.4561773825	 0.125187
H	-0.4116649186	 1.1113566864	-1.7133984157	 0.103707
H	-2.3103179671	-0.2674627388	-0.7600860783	 0.0697
H	-3.1505254982	 2.2295830075	-2.1657322072	 0.079518
H	-2.6236540896	 1.4282351521	 1.6892620637	 0.078838
H	-5.0136214775	 0.1817196549	 1.1347808151	 0.109913
H	-5.3849244509	 0.7414966838	-1.5429115861	 0.110929
81.5049	86.1479	124.0388	261.9979	278.63	330.3042	346.6632	527.9513	553.017	640.6211	703.781	746.4987	782.584	853.9539	858.8545	871.7223	893.2827	908.616	917.5872	953.4962	1003.5289	1021.4656	1075.9528	1081.0241	1107.8778	1154.8663	1157.9362	1184.1487	1218.3736	1234.0853	1246.0611	1252.8141	1299.3047	1299.5503	1311.4819	1326.7723	1392.7105	1461.1418	1493.2494	1528.0184	1613.606	2955.308	2981.1616	3034.5408	3061.3247	3104.6087	3127.9403	3131.4202	3232.7625	3259.999	3830.5967
OCCC1C2OC1C=C2	OCC[C@@H]1[C@@H]2O[C@H]1C=C2	
InChI=1S/C7H10O2/c8-4-3-5-6-1-2-7(5)9-6/h1-2,5-8H,3-4H2	InChI=1S/C7H10O2/c8-4-3-5-6-1-2-7(5)9-6/h1-2,5-8H,3-4H2/t5-,6-,7+
