19
gdb 1459	2.3257024	1.4419254	1.1494415	2.6402	75.65	-0.25026	-0.0316	0.21865999999999997	1138.2532	0.154049	-422.528803	-422.519669	-422.518725	-422.56266	33.846	
C	-0.0104062983	 0.1905892128	 0.1417569802	-0.456
C	 1.4784994289	-0.1259561915	-0.0097408832	 0.263234
C	 1.9402124483	-1.1771966276	 0.9930276277	-0.444811
C	 1.8570845698	-0.3999998054	-1.4850978801	-0.002023
O	 3.2795151436	-0.5017058179	-1.5729619166	-0.244655
C	 2.6942939543	 0.803073434	-1.5595950424	 0.007444
C	 2.4323196467	 1.1685636632	-0.0842432025	-0.165081
C	 1.750574436	 2.4863083062	 0.1523186422	 0.147757
O	 1.9447187321	 3.1856993504	 1.1154601983	-0.256654
H	-0.2226256987	 0.6445541173	 1.1149145875	 0.136507
H	-0.3753252117	 0.8696238736	-0.6355248847	 0.117872
H	-0.594187855	-0.7335693484	 0.0703520645	 0.121049
H	 1.8457549151	-0.8045287948	 2.0185210175	 0.124118
H	 1.3311024584	-2.0848554642	 0.9097944277	 0.11467
H	 2.9843081012	-1.4455195241	 0.8162591996	 0.138027
H	 1.2729601615	-0.9132954225	-2.2418376708	 0.104451
H	 2.9289771163	 1.4609477027	-2.3886277311	 0.115309
H	 3.3129657959	 1.105149498	 0.5584632791	 0.104019
H	 1.0299426056	 2.800827628	-0.6369220628	 0.074768
62.5061	104.1543	226.0911	241.4306	247.001	266.2571	300.6435	321.7969	379.9078	438.3659	497.1384	548.6751	632.6272	786.629	837.6358	855.1188	868.5183	950.8284	953.2404	990.8415	995.2536	1030.1044	1031.6217	1073.8523	1104.0482	1170.7081	1182.4506	1197.6524	1223.7063	1263.0479	1292.9128	1302.3171	1380.3817	1399.0732	1420.0777	1438.5145	1483.6174	1489.7282	1501.7458	1512.2935	1818.3908	2862.2113	3029.1092	3032.7857	3092.6043	3096.8843	3097.6004	3105.9098	3125.7624	3170.0849	3187.6598
CC1(C)C2OC2C1C=O	CC1(C)[C@@H]2O[C@@H]2[C@H]1C=O	
InChI=1S/C7H10O2/c1-7(2)4(3-8)5-6(7)9-5/h3-6H,1-2H3	InChI=1S/C7H10O2/c1-7(2)4(3-8)5-6(7)9-5/h3-6H,1-2H3/t4-,5-,6-/m1/s1
