19
gdb 2496	2.7282005	1.9286179	1.3358283	2.0948	74.17	-0.23612	0.07107	0.30718999999999996	979.3829	0.158007	-422.500538	-422.493215	-422.492271	-422.531761	29.743	
C	 0.3264418651	 0.9944874862	 0.9984770556	-0.486822
C	 1.6840114771	 0.5184471804	 0.5111353678	 0.339233
C	 2.1097624824	-0.8395907671	 1.085049099	-0.308483
C	 3.624282898	-1.0115771044	 0.9758236637	-0.075593
O	 4.1151003871	-0.5522108386	-0.2791908165	-0.265583
C	 3.5231358222	 0.6453617466	-0.6747582198	 0.123936
C	 2.8171702862	 1.5958331763	 0.3465165196	-0.056491
O	 2.0937075775	 2.175648487	-0.7972358659	-0.310417
C	 2.003457032	 0.7171594957	-1.0033340221	-0.023065
H	 0.3322119294	 1.1398021355	 2.084745805	 0.112304
H	 0.0541401319	 1.9370056791	 0.5206229131	 0.140398
H	-0.4472140866	 0.2513870706	 0.7732274636	 0.114284
H	 1.8132452957	-0.9207693049	 2.1373131031	 0.103667
H	 1.5842678052	-1.6377781882	 0.5455847641	 0.108674
H	 4.1139994387	-0.4429432161	 1.7821922711	 0.096469
H	 3.9316008769	-2.0562801472	 1.0689269511	 0.111579
H	 4.1633238183	 1.1465777036	-1.4008297167	 0.100487
H	 3.2334841646	 2.2940249765	 1.0747254284	 0.08871
H	 1.4550523584	 0.3597163289	-1.8766176341	 0.086713
188.9043	217.0532	235.8314	316.8246	357.493	414.1656	428.5708	509.0898	581.8132	658.1554	699.9879	763.385	810.2329	866.9823	876.2314	892.5632	916.4534	924.1701	982.3357	1026.6828	1040.2639	1078.5469	1108.0435	1136.6098	1144.4043	1164.1835	1197.3267	1208.2241	1239.4044	1245.2479	1263.4802	1274.3857	1318.0854	1362.2899	1376.5919	1401.6382	1419.6706	1480.6356	1492.4664	1504.0062	1509.6621	2978.5959	3024.1545	3031.2485	3066.208	3085.6308	3094.4297	3100.8296	3105.8347	3127.8041	3137.871
CC12CCOC3C1OC23	C[C@]12CCO[C@@H]3[C@H]1O[C@H]23	
InChI=1S/C7H10O2/c1-7-2-3-8-4-5(7)9-6(4)7/h4-6H,2-3H2,1H3	InChI=1S/C7H10O2/c1-7-2-3-8-4-5(7)9-6(4)7/h4-6H,2-3H2,1H3/t4-,5-,6+,7+
