19
gdb 3900	3.8378221	0.9452956	0.8583852	3.3384	76.79	-0.23692	-0.02227	0.21464999999999998	1384.6373	0.154297	-422.528703	-422.519489	-422.518544	-422.563714	33.215	
C	-3.9867908716	 2.7319671441	-1.6587641149	-0.39978
C	-2.8032653301	 3.0947078688	-0.7865722119	 0.140973
O	-2.2811416299	 1.9190920782	-0.0856457904	-0.341821
C	-1.0466813951	 2.0192139371	-0.8082903793	 0.465478
C	-0.3988608642	 0.7380938812	-1.2469287939	-0.385731
C	 0.1481922414	-0.0508115516	-0.067974418	 0.160312
O	 1.2406896514	-0.5551839222	-0.0397505167	-0.239393
C	-0.3544054171	 3.3080142209	-0.4774184422	-0.342433
C	-1.4694207753	 3.2914005401	-1.5064023348	-0.20656
H	-4.8067937629	 2.3500281184	-1.0435745528	 0.130373
H	-4.3446948961	 3.614998509	-2.199888658	 0.11819
H	-3.7133094095	 1.9635913963	-2.3880418193	 0.121027
H	-3.0723964361	 3.8801159543	-0.0684425328	 0.082214
H	-1.1512691859	 0.1114316971	-1.7464581249	 0.130287
H	 0.4169724116	 0.9272051354	-1.9496033804	 0.127303
H	-0.5528655124	-0.1392089232	 0.7905153661	 0.099069
H	-0.5097842752	 3.7692932932	 0.4942547292	 0.117378
H	 0.6428640373	 3.4262447256	-0.8902649926	 0.121257
H	-1.3445096104	 3.6145183074	-2.5317502123	 0.101856
46.2639	57.6186	115.8225	181.3695	236.3334	286.9328	347.5209	366.4318	427.4389	469.6677	494.3977	686.3103	759.0318	798.59	846.8513	877.1213	880.6769	932.3145	973.4281	985.8471	1000.3642	1043.0252	1057.4608	1073.399	1083.4818	1100.8018	1150.758	1173.7914	1240.1471	1250.9815	1300.117	1308.774	1385.319	1398.0262	1405.5158	1426.0578	1444.1123	1482.2081	1489.7866	1490.6359	1833.9657	2899.1567	3017.2797	3021.7645	3035.1516	3106.7942	3107.7541	3113.6436	3118.613	3195.4236	3207.916
CC1OC2(CC=O)CC12	C[C@H]1O[C@]2(CC=O)C[C@H]12	
InChI=1S/C7H10O2/c1-5-6-4-7(6,9-5)2-3-8/h3,5-6H,2,4H2,1H3	InChI=1S/C7H10O2/c1-5-6-4-7(6,9-5)2-3-8/h3,5-6H,2,4H2,1H3/t5-,6-,7-/m1/s1
