19
gdb 4030	2.3826424	2.105017	1.4921607	2.0709	73.58	-0.21448	0.07415	0.28863	954.7593	0.1564	-422.522126	-422.514267	-422.513323	-422.553862	31.255	
C	 0.3198914529	-0.3242450596	-0.7563865887	-0.410531
C	 0.769578105	 0.1338052629	 0.6199851923	 0.127264
O	 1.1659030031	 1.5183557412	 0.5512522557	-0.283665
C	 2.2997376613	 1.6763515704	 1.3646964958	 0.074097
C	 3.5105224012	 0.8161441788	 1.0461670537	 0.054397
O	 3.1083066918	-0.2767560874	 0.2248693364	-0.330446
C	 2.0182509308	-0.5678603117	 1.1754031334	 0.384307
C	 1.9288719909	-2.030049028	 1.5193178231	-0.495122
C	 2.5918011813	 0.457981952	 2.1887274342	-0.262412
H	-0.0846793587	-1.3406320039	-0.7132011244	 0.110256
H	-0.4647263146	 0.3371603867	-1.1326686013	 0.125897
H	 1.1648524191	-0.3011870516	-1.4477988007	 0.14218
H	-0.0543029493	 0.0336243049	 1.3471664953	 0.064983
H	 2.431601402	 2.6789587616	 1.7538467976	 0.106468
H	 4.5438698892	 1.1413330002	 1.0013823759	 0.103455
H	 1.14067191	-2.2042391057	 2.259398577	 0.122974
H	 1.7006636809	-2.6200645653	 0.6263862495	 0.135334
H	 2.8780507125	-2.384164132	 1.9288241163	 0.133411
H	 2.7116982307	 0.3579401465	 3.2591394588	 0.097152
149.3767	205.8199	228.6318	241.6739	296.7176	323.3364	406.3185	521.6939	544.9111	615.2353	667.4766	742.3653	782.5808	800.2501	842.1327	845.2757	863.3447	910.2686	955.1414	1013.2075	1032.4212	1038.2371	1061.0648	1080.9177	1091.4709	1121.3063	1132.6607	1153.3413	1191.1317	1218.4928	1285.5373	1304.5597	1355.3814	1376.4287	1394.8109	1403.3206	1412.9118	1480.2527	1484.8476	1494.3801	1499.8382	2956.2418	3040.5438	3046.5662	3110.25	3115.8007	3124.2623	3140.6746	3175.1704	3188.6948	3201.407
CC1OC2C3OC1(C)C23	C[C@@H]1O[C@@H]2[C@@H]3O[C@@]1(C)[C@H]23	
InChI=1S/C7H10O2/c1-3-7(2)4-5(8-3)6(4)9-7/h3-6H,1-2H3	InChI=1S/C7H10O2/c1-3-7(2)4-5(8-3)6(4)9-7/h3-6H,1-2H3/t3-,4+,5-,6+,7+/m0/s1
