19
gdb 4961	2.6262488	1.5808677	1.262894	2.0948	74.23	-0.2537	0.06392	0.31762	1051.2723	0.157522	-422.512524	-422.504289	-422.503345	-422.545224	31.9	
O	 1.4581939761	 0.6511286474	-0.5458577719	-0.423143
C	 0.1496684158	 0.3831720981	-0.0525220524	-0.19758
C	-0.8456112074	 0.3399670279	-1.1709669923	 0.296726
C	-1.559986563	 1.5807642063	-1.7316272441	-0.111021
C	-1.978829658	 1.2855499691	-3.1709822703	-0.254132
C	-2.2529849586	-0.1613301058	-2.6824256138	-0.109977
C	-2.3583638113	 0.4092147992	-1.206871268	-0.157659
C	-0.8557243876	-0.708715132	-2.2730272559	 0.097206
O	 0.2197329857	-0.7769425031	-3.1884278165	-0.448354
H	 1.6183486207	 0.0233181373	-1.2606771753	 0.286495
H	 0.1276027532	-0.5682071112	 0.5044696825	 0.087503
H	-0.0836194032	 1.1813855441	 0.6607756318	 0.106196
H	-1.4136489609	 2.5440916894	-1.2597029512	 0.092858
H	-2.9085100529	 1.8003502335	-3.4270630519	 0.108071
H	-1.260523139	 1.430065039	-3.9898710516	 0.078206
H	-2.9755423498	-0.7985215015	-3.1872840939	 0.074494
H	-3.0986245134	 0.3157803605	-0.4266041701	 0.098014
H	-0.9468145516	-1.7136442321	-1.8494583717	 0.08952
H	 0.3382238151	 0.098391754	-3.5732632235	 0.286575
84.5808	127.5158	209.756	249.078	275.1041	352.4658	399.1871	473.4	488.8275	594.6581	665.0241	713.0731	786.0978	825.7299	838.9525	859.7663	912.8776	954.8037	959.3579	990.4004	991.8142	1025.3516	1036.3426	1058.7679	1086.8889	1113.7094	1130.207	1147.3048	1180.2062	1201.9166	1248.3203	1254.6407	1271.6752	1284.9365	1333.2533	1372.6143	1404.1642	1436.2149	1451.934	1506.6408	1507.5766	2965.8404	3004.7446	3062.445	3072.3984	3092.9499	3142.2339	3196.3764	3232.1408	3785.9136	3808.4617
OCC12C3CC(C13)C2O	OC[C@]12[C@H]3C[C@H]([C@@H]13)[C@H]2O	
InChI=1S/C7H10O2/c8-2-7-4-1-3(5(4)7)6(7)9/h3-6,8-9H,1-2H2	InChI=1S/C7H10O2/c8-2-7-4-1-3(5(4)7)6(7)9/h3-6,8-9H,1-2H2/t3-,4+,5-,6-,7+/m1/s1
