19
gdb 3499	2.7621512	1.2187763	0.9406326	1.9885	77.41	-0.24758	0.00864	0.25622	1269.0933	0.156705	-422.600161	-422.591263	-422.590319	-422.634641	32.183	
C	-0.8618448073	 3.819387037	-2.1333819654	-0.410115
C	-1.7692233739	 2.6811224929	-1.6569318063	-0.03939
C	-3.1065556242	 3.1111927035	-1.0929114847	-0.070951
C	-3.4322916291	 2.4420205151	 0.0118875256	-0.080968
C	-2.3749783033	 1.4347011606	 0.395959299	-0.287285
C	-1.1815662906	 1.8649578553	-0.4848040622	 0.135746
O	-0.4209267013	 0.7564421884	-1.0171215275	-0.218934
C	 0.4402210917	 0.1677497346	-0.1785531311	 0.178179
O	 0.6239375841	 0.4570157085	 0.9726470906	-0.307291
H	-0.6749300535	 4.5364450801	-1.3266560684	 0.119257
H	 0.1030824501	 3.4297110081	-2.4736610047	 0.122126
H	-1.3156037042	 4.3633357091	-2.9679568262	 0.115614
H	-1.9331033975	 1.9945764721	-2.5010180538	 0.093156
H	-3.7195332197	 3.8633081336	-1.5778407085	 0.095181
H	-4.3542359321	 2.5609181115	 0.5699458853	 0.097975
H	-2.1214482882	 1.4342703136	 1.4596009895	 0.126419
H	-2.6869034889	 0.4118361275	 0.1424009761	 0.114079
H	-0.4983464941	 2.483065037	 0.1041274125	 0.108125
H	 0.9649023118	-0.6359826887	-0.7187540099	 0.109078
51.1587	62.2527	166.7202	218.6607	234.5598	250.7042	330.8987	387.1551	452.9506	528.556	560.1428	733.0092	757.0684	777.7631	865.4491	897.0273	959.1807	974.2485	982.9254	1004.0529	1039.0293	1047.875	1094.5918	1099.3631	1131.5793	1148.5574	1197.178	1213.0597	1277.5824	1291.1251	1322.0139	1339.4285	1386.3847	1391.4027	1408.3382	1411.5928	1488.0474	1498.5919	1498.8738	1685.0289	1816.4584	2994.1139	3015.8425	3025.8068	3030.8084	3072.5519	3090.1299	3101.9186	3104.1345	3181.9007	3207.1181
CC1C=CCC1OC=O	C[C@@H]1C=CC[C@H]1OC=O	
InChI=1S/C7H10O2/c1-6-3-2-4-7(6)9-5-8/h2-3,5-7H,4H2,1H3	InChI=1S/C7H10O2/c1-6-3-2-4-7(6)9-5-8/h2-3,5-7H,4H2,1H3/t6-,7-/m1/s1
