19
gdb 1337	2.6581766	1.1836927	0.9199244	3.0208	79.08	-0.236	-0.0308	0.2052	1299.0784	0.155966	-422.579494	-422.570244	-422.5693	-422.614093	33.195	
O	-1.1875539673	 3.2022318884	-0.7123521088	-0.4311
C	-0.2115220506	 2.2107316484	-0.4622552741	-0.049514
C	 0.9798239349	 2.5443501276	-1.3634112327	 0.155056
O	 2.1044726019	 2.1707208674	-1.1632243052	-0.244466
C	-0.6551017317	 0.8158302061	-0.8126483128	 0.279525
C	-1.7061925319	 0.4853315643	-1.5685520979	-0.180063
C	-1.8729401674	-1.0106046323	-1.685451274	-0.247139
C	-0.5263276	-1.5587640335	-1.141879326	-0.208862
C	 0.0846606029	-0.4040271255	-0.3074682373	-0.309627
H	-2.0202131417	 2.8890443147	-0.3437421419	 0.287486
H	 0.1470254956	 2.2348807169	 0.5794580977	 0.092811
H	 0.688257884	 3.1419876855	-2.2546390897	 0.097335
H	-2.3863219392	 1.1944702504	-2.026821611	 0.096277
H	-2.7295754837	-1.3531303716	-1.087223491	 0.106791
H	-2.0727418432	-1.3342854161	-2.7130461489	 0.107761
H	-0.6451192127	-2.4790793859	-0.5652244118	 0.100603
H	 0.1361609622	-1.7875061684	-1.9820753246	 0.112135
H	-0.0914898269	-0.5325390101	 0.7703702271	 0.104339
H	 1.1685621846	-0.3115680462	-0.4314954772	 0.13065
70.2729	86.7803	116.3386	168.4012	212.4778	245.8726	304.3375	352.192	410.9602	505.6786	537.0846	638.0516	700.3645	810.3387	853.4073	882.3847	906.0422	920.4034	961.3397	981.1416	1023.6824	1042.5232	1072.0064	1084.9143	1154.0273	1161.9484	1218.058	1228.8833	1238.582	1272.5978	1315.1132	1328.8976	1331.0372	1354.7991	1365.769	1406.3198	1482.7141	1488.8177	1506.0552	1702.0514	1834.2981	2903.7461	2976.1752	3004.8866	3005.9255	3050.3652	3062.3333	3074.7214	3106.7284	3197.7128	3816.008
OC(C=O)C1=CCCC1	O[C@H](C=O)C1=CCCC1	
InChI=1S/C7H10O2/c8-5-7(9)6-3-1-2-4-6/h3,5,7,9H,1-2,4H2	InChI=1S/C7H10O2/c8-5-7(9)6-3-1-2-4-6/h3,5,7,9H,1-2,4H2/t7-/m1/s1
