19
gdb 3292	3.0169725	1.6578959	1.3104113	2.603	73.25	-0.2364	0.05819	0.29459	1001.7709	0.159037	-422.539032	-422.531624	-422.53068	-422.571	29.22	
O	 0.4840387372	-0.1142779466	 0.6365950939	-0.431816
C	-0.7426599508	 0.5552538619	 0.8354176547	 0.12028
C	-1.4398741511	 0.2528078064	 2.2079327753	-0.063845
C	-2.9838875413	 0.1574119467	 2.1904912739	-0.233345
C	-3.5270585758	 1.5965575116	 2.4230018848	-0.223849
C	-2.3134862656	 2.5197003289	 2.3782541828	 0.134243
O	-1.8417346086	 2.7603310555	 1.0205150787	-0.314863
C	-0.6136406738	 2.040225592	 1.252071225	 0.067371
C	-1.056692676	 1.6895085321	 2.6983698191	-0.13908
H	 1.0279492763	 0.0038701336	 1.4233015971	 0.280098
H	-1.3397447048	 0.3805995346	-0.0638359461	 0.093073
H	-0.9674050636	-0.5882038157	 2.7208202813	 0.068621
H	-3.3319886416	-0.261341143	 1.2415918193	 0.109362
H	-3.3382250941	-0.5160301657	 2.9762132865	 0.100633
H	-4.2671908877	 1.9011916108	 1.6775090702	 0.115088
H	-4.005129118	 1.6774665821	 3.4059581547	 0.098947
H	-2.456263854	 3.4686603237	 2.9060328907	 0.072678
H	 0.2779953827	 2.5942931583	 0.9447459822	 0.074609
H	-0.4879995194	 1.847950423	 3.612002166	 0.071796
66.5976	199.7741	264.1525	302.4501	332.7404	350.0978	455.1867	648.7641	682.96	734.0473	770.3587	820.2425	847.7066	869.9595	892.4494	919.7726	938.6883	974.9207	998.8412	1006.1808	1033.6763	1063.457	1064.6024	1102.4683	1139.2332	1168.0682	1197.8665	1210.5067	1223.4967	1237.1844	1261.112	1263.4676	1271.3463	1287.812	1318.446	1340.2099	1344.0917	1360.9324	1415.2924	1472.4594	1500.624	3036.5568	3049.8842	3056.5304	3069.0978	3077.2624	3080.437	3086.5897	3102.0261	3135.0819	3797.7702
OC1C2CCC3OC1C23	O[C@H]1[C@@H]2CC[C@@H]3O[C@H]1[C@H]23	
InChI=1S/C7H10O2/c8-6-3-1-2-4-5(3)7(6)9-4/h3-8H,1-2H2	InChI=1S/C7H10O2/c8-6-3-1-2-4-5(3)7(6)9-4/h3-8H,1-2H2/t3-,4+,5-,6+,7+/m1/s1
