19
gdb 1216	2.5897411	1.1461778	0.9683182	3.4484	78.7	-0.25898	-0.05952	0.19945999999999997	1295.2557	0.152063	-422.54502	-422.534356	-422.533412	-422.580789	38.522	
C	 0.7660295092	 2.6798921473	-1.2209717693	-0.419959
C	 1.8352834371	 2.28576366	-2.2480596645	 0.349007
C	 2.4521785873	 3.5262498984	-2.8964082625	-0.390351
O	 1.238726611	 1.5560066901	-3.3235031627	-0.455175
C	 2.922696849	 1.411442214	-1.5544709375	-0.346416
C	 3.869910098	 0.7791295909	-2.5606392166	 0.274831
O	 4.8732966125	 1.3319256428	-2.9572459195	-0.291058
C	 3.5001939214	-0.54528964	-3.0367479144	 0.283837
C	 3.2072483021	-1.655920324	-3.3983485528	-0.460521
H	 1.1967279578	 3.2541642322	-0.394561782	 0.118657
H	-0.0047732056	 3.2880899283	-1.702540963	 0.126693
H	 0.2857964037	 1.79039387	-0.7964788652	 0.104165
H	 2.8797500835	 4.1874687978	-2.1376351017	 0.11349
H	 3.2428734297	 3.2505359801	-3.5966084105	 0.145782
H	 1.6776631981	 4.0725729264	-3.4414694958	 0.122069
H	 0.8421532024	 0.7535984484	-2.966479607	 0.278037
H	 3.5153705416	 2.031845082	-0.875982222	 0.127717
H	 2.4320126622	 0.6248754779	-0.9697988843	 0.102824
H	 2.9642115092	-2.6330207026	-3.7395008987	 0.216371
44.2575	69.8648	152.0229	174.9859	216.2669	248.6437	261.1163	299.6088	314.7117	331.5314	398.997	436.4285	457.2417	484.5267	612.377	645.9249	672.3863	707.4375	773.3856	834.5019	903.541	923.9506	942.6584	973.7017	1024.7152	1087.2576	1138.1825	1197.8161	1231.7981	1243.3816	1314.2954	1380.4645	1404.3926	1425.3557	1467.6177	1480.0375	1487.277	1498.1397	1505.7852	1765.5895	2208.1633	3027.6102	3040.0564	3052.0642	3095.0099	3104.0349	3115.8854	3125.3205	3141.0874	3493.2744	3802.3648
CC(C)(O)CC(=O)C#C	CC(C)(O)CC(=O)C#C	
InChI=1S/C7H10O2/c1-4-6(8)5-7(2,3)9/h1,9H,5H2,2-3H3	InChI=1S/C7H10O2/c1-4-6(8)5-7(2,3)9/h1,9H,5H2,2-3H3
