19
gdb 5326	2.9637661	1.1196542	0.8813891	3.9396	81.08	-0.23052	-0.05095	0.17957	1344.8027	0.156801	-422.58149	-422.572553	-422.571609	-422.615672	32.467	
C	 2.4395248521	-0.6965523401	 1.7447027049	-0.375594
C	 1.622151619	-0.1128578728	 0.5754675752	-0.279418
C	 1.9489047492	 1.329690238	 0.2950033638	 0.290725
C	 1.1735508486	 2.3533046479	 0.6887600761	-0.264084
C	 1.4804283572	 3.7389727198	 0.3076170406	 0.356847
O	 0.7639477473	 4.6823649958	 0.5770543561	-0.326866
C	 2.7419356026	 3.9165389137	-0.5374617474	-0.193314
O	 3.7124729885	 2.915472653	-0.299409107	-0.238063
C	 3.2160802029	 1.6098216428	-0.4770035726	-0.163604
H	 2.1801210994	-1.7474141385	 1.9019521505	 0.124486
H	 3.5157302089	-0.643615321	 1.5548923919	 0.12626
H	 2.2353066562	-0.1508375771	 2.6702003983	 0.133372
H	 1.8135485652	-0.708482713	-0.3273389732	 0.111771
H	 0.5541969601	-0.2061134488	 0.7959592416	 0.117122
H	 0.2572083532	 2.1977928183	 1.2517808161	 0.101032
H	 2.4401111879	 3.9360242038	-1.6009798698	 0.109385
H	 3.2004610785	 4.8787559196	-0.3011234961	 0.138544
H	 3.0299146721	 1.3965524149	-1.5484181691	 0.106299
H	 4.016051431	 0.9333438736	-0.1582350799	 0.1251
58.9753	102.7578	135.4753	193.7053	247.4123	284.2632	309.9933	438.2328	469.3959	481.6695	556.096	564.9098	647.0781	786.3348	854.8394	894.2473	903.6216	944.5566	983.8039	997.9669	1041.5315	1079.5419	1091.0481	1152.7752	1173.5501	1232.374	1267.4975	1277.7331	1302.5339	1343.8602	1344.2989	1366.9735	1409.5477	1412.4336	1465.2886	1479.0285	1485.0962	1498.4136	1506.8529	1688.7069	1781.8786	2914.5707	2944.2662	3020.6482	3043.1925	3069.6347	3076.5389	3115.246	3116.5009	3120.7299	3169.8862
CCC1=CC(=O)COC1	CCC1=CC(=O)COC1	
InChI=1S/C7H10O2/c1-2-6-3-7(8)5-9-4-6/h3H,2,4-5H2,1H3	InChI=1S/C7H10O2/c1-2-6-3-7(8)5-9-4-6/h3H,2,4-5H2,1H3
