19
gdb 4472	3.5562022	0.9964274	0.8977613	2.5132	77.54	-0.24759	-0.01723	0.23036	1320.3607	0.157352	-422.574949	-422.566478	-422.565534	-422.608145	31.859	
O	-1.3572648652	 3.8997260754	-0.5174789677	-0.435914
C	-1.1904957103	 2.4850398836	-0.4743498626	 0.124315
C	-1.2322364917	 1.9782253979	-1.9285346865	-0.24168
C	 0.2287942569	 2.0425694361	-2.4334809409	-0.224528
C	 1.0743492365	 1.869670021	-1.1793618988	-0.043739
C	 0.6946609922	 0.7069818075	-0.2620455186	-0.128944
C	 1.7488765992	 0.1734446938	 0.6256020402	 0.1587
O	 1.8553450395	-0.9810464076	 0.9587453033	-0.273557
C	 0.2110900748	 2.1293536989	 0.0113189515	-0.085748
H	-1.2846272713	 4.2393924366	 0.3803414361	 0.282282
H	-1.9782877478	 2.0265873116	 0.1405097318	 0.071086
H	-1.6106922994	 0.9528598826	-1.9552893677	 0.11075
H	-1.9139230996	 2.5933865284	-2.5185961834	 0.118186
H	 0.4392888503	 1.2922114247	-3.2015635095	 0.106083
H	 0.4405866096	 3.0260858677	-2.8656351293	 0.119359
H	 2.1169940031	 2.1684399643	-1.1967935811	 0.094357
H	-0.0119134413	-0.0383524313	-0.6113598302	 0.102809
H	 2.4740187983	 0.9446614214	 0.9833829311	 0.060809
H	 0.5879270862	 2.6245777277	 0.9016850423	 0.085374
89.4503	145.1646	153.5648	249.0542	273.5597	293.9091	351.8666	385.5375	436.1012	526.2417	656.8873	761.3299	800.9583	827.2218	878.9912	886.4218	944.1686	957.6551	991.2912	1006.2319	1031.1907	1051.0829	1076.1062	1082.2211	1110.079	1153.7276	1184.6194	1204.7604	1205.8575	1245.8674	1252.837	1308.4354	1330.2591	1338.7213	1354.0616	1394.7999	1428.994	1449.1322	1483.5467	1497.8231	1820.4244	2833.8021	2996.6253	3049.2001	3070.8368	3090.5732	3123.8831	3148.5491	3169.2989	3174.565	3815.4661
OC1CCC2C(C=O)C12	O[C@H]1CC[C@@H]2[C@@H](C=O)[C@H]12	
InChI=1S/C7H10O2/c8-3-5-4-1-2-6(9)7(4)5/h3-7,9H,1-2H2	InChI=1S/C7H10O2/c8-3-5-4-1-2-6(9)7(4)5/h3-7,9H,1-2H2/t4-,5-,6+,7-/m1/s1
