19
gdb 548	3.497066	1.6803792	1.4942479	1.7761	72.75	-0.24717	0.08067	0.32784	938.165	0.160605	-422.55919	-422.552553	-422.551608	-422.590071	27.13	
C	 1.4402703791	 0.3513558117	-1.2116993351	-0.236796
C	-0.1105433095	 0.2286909023	-1.1284242814	-0.234807
C	-0.0648092637	 0.5890200401	 0.380206491	-0.042568
C	 1.5020883372	 0.7301704092	 0.2934205258	-0.013627
C	 1.9385804969	-0.3889858176	 1.2486108108	 0.021509
C	 1.5622049356	 0.025405116	 2.6856009352	-0.087092
O	 0.129248012	-0.1063937474	 2.6659374346	-0.276878
C	-0.1651761162	-0.5896322471	 1.3556503856	 0.182044
O	 0.9430397938	-1.407336892	 1.0176995903	-0.258719
H	 1.9602777684	-0.5759244606	-1.4636755596	 0.106223
H	 1.792749885	 1.1398734195	-1.8804935225	 0.098736
H	-0.6498670549	 0.9568665389	-1.7385194743	 0.099586
H	-0.5065205951	-0.7664600459	-1.3463928255	 0.104624
H	-0.6530703123	 1.444535556	 0.7109202815	 0.079575
H	 1.9484616303	 1.6960755418	 0.5345006033	 0.071697
H	 2.9371037099	-0.8030142504	 1.1105754749	 0.087422
H	 1.9831153332	-0.6513129461	 3.4380001293	 0.105817
H	 1.8461674667	 1.055992598	 2.9250342774	 0.101873
H	-1.0872292863	-1.1714336264	 1.3715997187	 0.09138
123.5887	241.7218	251.4435	350.44	435.0751	594.4236	633.0498	732.0591	756.0779	795.7264	812.116	845.4998	868.9206	903.86	937.7743	943.7851	959.782	975.2123	987.4445	1023.0516	1028.202	1042.2892	1073.0017	1093.1078	1145.1072	1174.9589	1191.2243	1221.7017	1247.6856	1261.8802	1265.4194	1271.2589	1286.4024	1288.4687	1326.0791	1332.3908	1345.2767	1378.8876	1467.6788	1488.1405	1518.5753	3028.4314	3059.6169	3065.5371	3072.8437	3094.7438	3104.9186	3115.3022	3124.2475	3126.2659	3131.3417
C1CC2C1C1COC2O1	C1C[C@@H]2[C@H]1[C@H]1CO[C@@H]2O1	
InChI=1S/C7H10O2/c1-2-5-4(1)6-3-8-7(5)9-6/h4-7H,1-3H2	InChI=1S/C7H10O2/c1-2-5-4(1)6-3-8-7(5)9-6/h4-7H,1-3H2/t4-,5+,6+,7+/m0/s1
