19
gdb 2349	2.7459943	1.6862368	1.4010776	0.7071	73.54	-0.2465	0.07872	0.32522	993.4686	0.157644	-422.5419	-422.534214	-422.53327	-422.573948	30.071	
C	-0.0676796104	 0.0491699766	 0.0355783292	-0.457077
C	 1.4337707839	 0.2024892219	-0.0958879167	 0.44794
C	 1.978101477	 0.0944022483	-1.5396993592	-0.298399
C	 3.0120082548	 1.1983106456	-1.6568665847	 0.048489
O	 2.4307474831	 2.5081688595	-1.5543136392	-0.264676
C	 3.096092929	 1.9707024903	-0.4070164675	 0.029512
C	 2.1317753354	 1.4111733418	 0.6090477953	-0.15671
C	 2.7158521669	 0.3476824324	 1.5546495522	-0.097235
O	 2.1414510158	-0.7242392993	 0.7841027127	-0.324808
H	-0.3810026087	 0.1453107159	 1.0792089807	 0.118047
H	-0.5830666914	 0.8120344155	-0.5570467972	 0.125386
H	-0.3817121797	-0.9365126865	-0.324171241	 0.125946
H	 2.424569958	-0.895031094	-1.6775321767	 0.117676
H	 1.1935812437	 0.2253106542	-2.292107939	 0.109059
H	 3.8433495747	 1.117173222	-2.3527955393	 0.095594
H	 3.9960181057	 2.4966239868	-0.0937284134	 0.096849
H	 1.493110271	 2.174226802	 1.0579533745	 0.086279
H	 3.8108452876	 0.2859244717	 1.5973967696	 0.097828
H	 2.3234125439	 0.3736241754	 2.5790793997	 0.1003
79.9711	202.8265	229.6965	273.4166	335.62	377.5052	405.9224	451.8286	605.6246	652.8996	728.839	816.7486	835.6592	857.4648	879.8392	895.0424	939.8692	945.6873	982.6932	1023.0888	1026.1827	1053.4793	1072.7639	1134.4544	1144.605	1159.1786	1171.6319	1214.1899	1215.1738	1253.0025	1260.3014	1306.0632	1336.5699	1356.1434	1362.4109	1405.8209	1434.0124	1465.0579	1484.7831	1491.4519	1525.3878	3008.2862	3033.3359	3047.4366	3050.311	3095.7026	3098.4761	3105.3367	3113.1384	3129.5141	3148.5882
CC12CC3OC3C1CO2	C[C@@]12C[C@H]3O[C@H]3[C@@H]1CO2	
InChI=1S/C7H10O2/c1-7-2-5-6(9-5)4(7)3-8-7/h4-6H,2-3H2,1H3	InChI=1S/C7H10O2/c1-7-2-5-6(9-5)4(7)3-8-7/h4-6H,2-3H2,1H3/t4-,5+,6-,7+/m0/s1
