19
gdb 2695	2.8473229	1.1123636	0.90301	3.5222	77.59	-0.24369	-0.0241	0.21958999999999998	1324.4661	0.153714	-422.588906	-422.579	-422.578056	-422.624939	34.775	
C	-1.6094959785	 1.8137088627	 1.2452215804	-0.414857
C	-1.0812975609	 0.892853483	 0.1578526055	-0.09112
C	-1.8217512194	-0.4625045874	-0.1927115859	-0.120816
C	-0.4459100801	-1.1900737211	-0.2386205478	-0.356458
C	 0.1538071939	 0.0279169024	 0.4642161038	 0.38566
O	 1.1270648015	 0.2143832279	 1.1351282333	-0.297711
C	-2.6061912594	-0.4277179111	-1.4913969796	 0.378469
C	-4.112874088	-0.3149638259	-1.3776065257	-0.484167
O	-2.0401762977	-0.4582827388	-2.5617938458	-0.307773
H	-1.812698092	 1.2601963262	 2.167524518	 0.124305
H	-0.8677480286	 2.5836526565	 1.4775360596	 0.14356
H	-2.5320101522	 2.315152962	 0.9359420627	 0.120541
H	-0.8981893691	 1.4412800367	-0.775319262	 0.121078
H	-2.4432863614	-0.784009031	 0.6467586211	 0.081963
H	-0.3440426196	-2.1570330029	 0.2575929783	 0.128589
H	-0.1013618835	-1.2656590167	-1.2758539106	 0.156833
H	-4.3870452813	 0.5293282511	-0.7346040963	 0.141353
H	-4.5586160575	-0.1933549378	-2.3652991194	 0.145471
H	-4.5159717462	-1.2160738359	-0.9001674094	 0.14508
25.9679	70.8059	141.559	153.3775	182.5069	216.3479	231.4914	315.1421	337.8736	452.9396	533.749	593.0511	612.7055	655.1778	746.1328	756.8255	860.3663	912.7221	941.6261	978.9168	1008.0042	1045.8377	1061.6197	1100.0828	1132.9904	1161.8115	1187.9812	1213.5414	1229.0377	1241.7691	1329.2769	1361.064	1384.6465	1407.3181	1435.4293	1461.5352	1474.6883	1492.4924	1492.9643	1802.8185	1891.2026	3032.7694	3034.4151	3036.9225	3057.6234	3080.9606	3091.9596	3105.9122	3113.4023	3128.7569	3154.1984
CC1C(CC1=O)C(C)=O	C[C@@H]1[C@H](CC1=O)C(=O)C	
InChI=1S/C7H10O2/c1-4-6(5(2)8)3-7(4)9/h4,6H,3H2,1-2H3	InChI=1S/C7H10O2/c1-4-6(5(2)8)3-7(4)9/h4,6H,3H2,1-2H3/t4-,6+/m1/s1
