19
gdb 1646	2.6851991	1.4190744	1.1010475	3.9235	74.47	-0.27314	0.00812	0.28126	1145.6692	0.156671	-422.572055	-422.563353	-422.562408	-422.60562	32.302	
C	-2.20855724	-2.9371082657	 1.2887455907	-0.46143
C	-1.0226538607	-1.9938207393	 1.2085979129	 0.340077
C	-0.4606560203	-1.4447034301	 2.501043756	-0.312935
C	 0.3127545633	-2.4805507377	 1.7186556494	-0.303561
C	-1.0373679393	-1.1077044697	-0.0204503239	-0.268626
C	-2.0036244259	 0.097244204	-0.0685865565	-0.096282
O	-0.8684670868	 1.0115742506	-0.2250864566	-0.241109
C	 0.0335433799	-0.0164516591	-0.1510237385	 0.456586
O	 1.2211065715	 0.0551708532	-0.180182558	-0.330837
H	-2.1554390052	-3.5565544575	 2.1889551705	 0.120979
H	-3.1583016973	-2.3893691725	 1.3202932275	 0.115934
H	-2.2402958659	-3.6087214957	 0.4225329239	 0.118762
H	-0.068891277	-0.4331848927	 2.5178794887	 0.129541
H	-0.941419082	-1.7476165305	 3.4249143061	 0.110833
H	 1.2060737265	-2.1471664859	 1.2033105752	 0.146219
H	 0.3610568028	-3.4908148562	 2.1108831685	 0.109838
H	-1.0799752845	-1.7191967848	-0.9286631102	 0.112778
H	-2.6732242907	 0.1650989361	-0.9276958025	 0.125152
H	-2.5373023383	 0.3083625234	 0.8603655465	 0.128082
66.2187	123.43	149.722	220.8322	250.5982	297.5798	328.8881	371.869	469.4751	524.3889	631.2819	738.702	771.6796	796.4998	870.6039	877.7082	926.739	935.7327	956.1766	964.3745	1047.2396	1060.8367	1069.7638	1078.6276	1095.2532	1123.6206	1135.7138	1164.0645	1192.5672	1213.8074	1267.932	1339.4069	1349.7908	1368.4402	1419.7132	1469.7332	1491.331	1497.3674	1510.0064	1516.1653	1924.3234	3020.0816	3053.8189	3074.3908	3078.1797	3103.2005	3132.8011	3137.0848	3137.5007	3213.6433	3230.4441
CC1(CC1)C1COC1=O	CC1(CC1)[C@H]1COC1=O	
InChI=1S/C7H10O2/c1-7(2-3-7)5-4-9-6(5)8/h5H,2-4H2,1H3	InChI=1S/C7H10O2/c1-7(2-3-7)5-4-9-6(5)8/h5H,2-4H2,1H3/t5-/m0/s1
