19
gdb 6085	8.1486139	0.5151668	0.5080462	2.6145	80.58	-0.25836	0.01961	0.27797	2111.8701	0.153884	-422.495902	-422.485627	-422.484682	-422.532223	35.943	
O	 2.5722952489	 2.0183961117	-2.7850692054	-0.41674
C	 2.6684062941	 1.238717016	-1.6053632634	-0.057602
C	 1.3360368514	 1.1058030355	-0.8666910275	-0.195355
C	 1.4617856337	 0.3203313663	 0.4461899387	-0.236044
C	 0.1385951461	 0.1857408027	 1.1579030743	 0.076109
O	-0.355626468	 1.3448715132	 1.8270003218	-0.241807
C	 0.0272144383	 0.2147835475	 2.6319281473	-0.165786
C	-1.0153960925	-0.4854767821	 3.3322422784	 0.319355
C	-1.8705164332	-1.0783758254	 3.9338851354	-0.411817
H	 1.9624026841	 1.5745762642	-3.3829805263	 0.280602
H	 3.0807805047	 0.2379466831	-1.8177789614	 0.083873
H	 3.3972076813	 1.7550028547	-0.9703031545	 0.113793
H	 0.9404511273	 2.1063447429	-0.6611132796	 0.127887
H	 0.6089835885	 0.6065373857	-1.5238773179	 0.08737
H	 1.8577655777	-0.6849722199	 0.24838928	 0.106097
H	 2.1749814562	 0.8212991427	 1.1114542447	 0.108894
H	-0.6333185101	-0.3699114182	 0.6222635277	 0.101732
H	 0.9435086321	 0.3719301384	 3.2006738869	 0.116428
H	-2.6301043206	-1.5996780491	 4.4624498608	 0.203012
45.2243	71.7763	85.6843	131.667	164.5772	196.2295	287.4966	293.5144	317.3119	413.0727	478.9968	539.2078	579.0641	620.8525	671.0619	751.0661	788.8355	866.8746	913.5885	969.737	1007.4425	1051.1612	1051.5628	1080.2263	1083.282	1121.0793	1146.383	1191.7952	1258.4332	1275.7354	1295.7276	1323.2666	1349.9887	1380.1855	1401.9422	1423.9321	1466.6708	1475.1587	1492.6882	1515.5436	2241.4413	2963.6451	3005.4859	3020.2005	3060.7047	3062.6941	3085.8637	3100.0116	3112.2214	3502.8904	3815.0843
OCCCC1OC1C#C	OCCC[C@@H]1O[C@H]1C#C	
InChI=1S/C7H10O2/c1-2-6-7(9-6)4-3-5-8/h1,6-8H,3-5H2	InChI=1S/C7H10O2/c1-2-6-7(9-6)4-3-5-8/h1,6-8H,3-5H2/t6-,7-/m0/s1
