19
gdb 4787	2.4422819	1.1042493	0.8458902	2.6027	77.89	-0.25341	-0.02563	0.22778000000000004	1379.0782	0.153266	-422.54456	-422.533977	-422.533033	-422.581246	37.249	
C	-0.923373813	-0.232598959	-2.1586315344	-0.484351
C	-1.0791896251	 0.4859106635	-0.8383249319	 0.393198
O	-0.6635024683	 0.007005195	 0.1985650075	-0.325426
C	-1.8050564899	 1.8367666369	-0.8333077755	-0.118479
C	-2.2527733792	 2.2018527314	 0.5937789198	-0.067873
O	-3.0226532118	 1.1929141616	 1.2061662296	-0.431267
C	-0.8907488257	 2.973339468	-1.3820977924	-0.384187
C	-0.7336417595	 3.0147032601	-2.8295308265	 0.301943
C	-0.6167102245	 3.0635518408	-4.0252526843	-0.430024
H	-1.9153949612	-0.5095330241	-2.5356033918	 0.146527
H	-0.4769260315	 0.4223146743	-2.9125526736	 0.16059
H	-0.3220141553	-1.1320853402	-2.0215764185	 0.139395
H	-2.6850470547	 1.7578711411	-1.4819269319	 0.105112
H	-1.3656043214	 2.4536097793	 1.1945488414	 0.097682
H	-2.8835999361	 3.0964335147	 0.5467464617	 0.108399
H	-2.4087087185	 0.4684357004	 1.378618253	 0.295812
H	-1.3219436314	 3.9279819471	-1.0528205984	 0.144393
H	 0.0933826654	 2.9088974394	-0.9005334988	 0.146026
H	-0.5096997084	 3.1146087999	-5.080651415	 0.202529
24.5925	74.4889	116.9682	144.0084	169.2011	206.6809	248.9269	272.8879	340.7397	395.2437	424.9405	493.4439	538.9935	602.1608	621.9344	629.5042	646.9571	725.8307	886.1656	940.5113	949.788	995.6623	1023.4798	1075.2221	1088.9947	1101.6326	1189.679	1204.8077	1229.1019	1274.7679	1339.0844	1378.5986	1393.3084	1405.3136	1434.0605	1461.8127	1469.3579	1472.7637	1494.7558	1782.5407	2235.8729	2990.8647	3017.8512	3037.8376	3045.4633	3055.4392	3070.8717	3105.0957	3155.2844	3503.7352	3785.4246
CC(=O)C(CO)CC#C	CC(=O)[C@@H](CO)CC#C	
InChI=1S/C7H10O2/c1-3-4-7(5-8)6(2)9/h1,7-8H,4-5H2,2H3	InChI=1S/C7H10O2/c1-3-4-7(5-8)6(2)9/h1,7-8H,4-5H2,2H3/t7-/m1/s1
