19
gdb 4037	3.2995163	1.549273	1.3213119	2.4736	74.4	-0.24673	0.05854	0.30527	1009.4266	0.158337	-422.506272	-422.498902	-422.497957	-422.537669	30.017	
O	 0.6660542425	-0.093199573	 0.8302896484	-0.427797
C	-0.6597433766	 0.3796491003	 0.8895692538	 0.025044
C	-1.3713836299	 0.212670927	 2.2866929496	-0.294136
C	-1.1304263192	 1.7301453555	 2.606499723	-0.0681
C	-2.1356901364	 2.8156695238	 2.2130400634	 0.05574
C	-1.2044851924	 4.0164726382	 1.8415925489	-0.212298
C	-0.2085396196	 3.2648353745	 0.8702163344	-0.32013
C	-0.8360884121	 1.8948702445	 1.088335294	 0.402958
O	-2.2740798155	 2.1875425338	 0.9076278931	-0.334158
H	 1.1341542724	 0.2028893119	 1.6187361036	 0.281703
H	-1.1746580484	-0.0319830038	 0.0191473197	 0.103864
H	-2.4151921158	-0.0937323277	 2.2269479175	 0.122106
H	-0.8330933842	-0.466292265	 2.9532800609	 0.099003
H	-0.3880163842	 1.949321968	 3.3772162147	 0.06724
H	-3.0787758789	 3.036957762	 2.7175951664	 0.075534
H	-1.7726568046	 4.7942007071	 1.3280355511	 0.111618
H	-0.7042319565	 4.460826822	 2.7067829555	 0.098477
H	-0.2798577356	 3.6184603872	-0.1602391524	 0.113512
H	 0.8334728049	 3.3187558036	 1.1944607444	 0.099817
129.3252	217.4994	283.6194	296.2329	348.9972	427.3401	447.9053	504.6379	620.8955	708.8115	739.7511	797.8841	820.0372	832.2036	858.6056	869.2123	904.3101	928.5223	956.7419	983.0584	1002.188	1045.4732	1060.5769	1104.5921	1120.5513	1152.4331	1165.1345	1198.117	1209.2561	1235.3749	1237.9798	1264.782	1280.0392	1289.341	1300.7154	1317.9371	1345.9469	1420.6205	1457.4264	1478.8405	1499.8917	3062.4227	3069.497	3072.3582	3082.0842	3095.2923	3098.867	3113.7286	3129.6621	3144.7325	3800.0472
OC1CC2C3CCC12O3	O[C@H]1C[C@@H]2[C@H]3CC[C@@]12O3	
InChI=1S/C7H10O2/c8-6-3-4-5-1-2-7(4,6)9-5/h4-6,8H,1-3H2	InChI=1S/C7H10O2/c8-6-3-4-5-1-2-7(4,6)9-5/h4-6,8H,1-3H2/t4-,5-,6+,7+/m1/s1
