19
gdb 3749	2.3935067	1.5861057	1.1278411	2.7926	78.99	-0.21279	0.01582	0.22861	1130.3828	0.155635	-422.543386	-422.534518	-422.533574	-422.576711	33.451	
C	 1.5507848698	 0.4133068736	 0.4009971951	-0.508779
C	 0.1171446245	 0.0223108192	 0.2479224777	 0.259986
C	-0.4303558285	-1.1902320495	 0.3405306164	-0.22338
C	-1.9131040377	-1.1145809904	 0.117273552	-0.135536
O	-2.1726755044	 0.2699742907	-0.1529934156	-0.328956
C	-0.9615630182	 1.0002580606	-0.0369304826	 0.328246
C	-0.8585893947	 2.2542196054	-0.8775931296	-0.385167
C	-1.1395612585	 2.3568220309	 0.6097744822	 0.073426
O	-2.4140775965	 2.6813960158	 1.060949663	-0.434042
H	 1.6811118546	 1.1413645041	 1.2107761951	 0.135911
H	 2.1752236763	-0.4550582051	 0.6230730673	 0.13153
H	 1.9337389005	 0.8833796557	-0.5127191724	 0.135977
H	 0.0893947395	-2.1153447186	 0.5554233947	 0.101841
H	-2.2538594568	-1.7157045927	-0.7388207933	 0.112698
H	-2.4943471847	-1.4370324859	 0.9949270694	 0.109932
H	 0.1148821068	 2.5563953076	-1.251073418	 0.110709
H	-1.6938591634	 2.4447548607	-1.5431408907	 0.126924
H	-0.3553384812	 2.7456741109	 1.2543864288	 0.09546
H	-2.9558576372	 1.8927433569	 0.9119645707	 0.29322
85.7902	152.4719	165.3846	202.2923	243.8169	262.6821	340.7199	423.1076	446.1561	502.2717	538.6342	606.3359	671.5138	778.1131	784.6889	824.4732	867.2664	903.4752	947.2926	991.2358	1016.2977	1036.1348	1043.5789	1067.3146	1070.0832	1098.998	1135.5967	1163.0167	1195.8869	1233.4293	1282.0338	1333.8536	1378.3076	1391.942	1416.2974	1420.1084	1470.9072	1480.1518	1490.4521	1522.9624	1718.3104	2980.6429	3001.7452	3025.9225	3074.5045	3121.4644	3124.3938	3135.6933	3214.4392	3222.1606	3723.6765
CC1=CCOC11CC1O	CC1=CCO[C@@]21C[C@H]2O	
InChI=1S/C7H10O2/c1-5-2-3-9-7(5)4-6(7)8/h2,6,8H,3-4H2,1H3	InChI=1S/C7H10O2/c1-5-2-3-9-7(5)4-6(7)8/h2,6,8H,3-4H2,1H3/t6-,7-/m1/s1
