19
gdb 1670	3.1370688	1.4000207	1.2534921	3.2406	74.68	-0.24114	-0.02035	0.22079	1061.0789	0.156808	-422.553094	-422.544923	-422.543979	-422.585721	31.282	
C	-0.0712165863	 0.0131232772	-0.2168839725	-0.465986
C	 1.3943048649	-0.0217389777	 0.2098216689	 0.217984
C	 2.4015548	-0.5699993024	-0.8743184815	-0.284958
C	 2.9767909376	-1.7469237863	-0.060088306	 0.083147
C	 1.7363669884	-2.4356658432	 0.543200983	-0.235832
C	 1.7457177199	-1.0912865906	 1.3002408053	 0.029412
O	 3.2047482998	-1.1211813308	 1.2450830617	-0.296228
C	 1.846093823	 1.3453424565	 0.6919626665	 0.11583
O	 1.1715613483	 2.3440913338	 0.6473608802	-0.262907
H	-0.7203231857	 0.2426552618	 0.6338001425	 0.126604
H	-0.2313963407	 0.7991005103	-0.9591540996	 0.138123
H	-0.3911247193	-0.9390733224	-0.6472683338	 0.10953
H	 1.890493093	-0.8760903543	-1.7908304569	 0.110775
H	 3.1828370067	 0.1480660891	-1.1367236488	 0.117128
H	 3.836923309	-2.2882587569	-0.4526571813	 0.086792
H	 0.8952772729	-2.6990721945	-0.1003556229	 0.103247
H	 2.0126104795	-3.2598656997	 1.2010220213	 0.118981
H	 1.3358247083	-0.9573284156	 2.3016706371	 0.090208
H	 2.8781905809	 1.3616561158	 1.0999900568	 0.098151
86.9667	149.5012	182.0411	235.1488	291.5739	357.5245	408.3559	430.5572	482.0366	569.0288	703.2018	769.8472	804.6044	838.0312	869.3744	878.9965	921.79	933.1165	946.8058	972.233	1021.2264	1048.134	1057.7256	1078.1832	1116.4849	1163.4239	1169.5611	1210.7093	1230.199	1258.492	1266.3761	1282.4635	1322.3811	1330.148	1405.0961	1422.3872	1477.3382	1487.2369	1488.1105	1498.3654	1818.5883	2921.3473	3047.2298	3062.2794	3080.2998	3110.531	3115.2585	3121.4536	3125.8847	3130.7712	3152.2659
CC1(CC2CC1O2)C=O	C[C@@]1(C[C@@H]2C[C@H]1O2)C=O	
InChI=1S/C7H10O2/c1-7(4-8)3-5-2-6(7)9-5/h4-6H,2-3H2,1H3	InChI=1S/C7H10O2/c1-7(4-8)3-5-2-6(7)9-5/h4-6H,2-3H2,1H3/t5-,6+,7+/m0/s1
