19
gdb 1249	2.7280815	1.0494674	0.8884754	1.5499	78.92	-0.25885	-0.05888	0.19997000000000004	1362.0862	0.152638	-422.542036	-422.531264	-422.53032	-422.578059	38.215	
C	-1.5446369114	-1.4015429232	-0.2987377453	-0.423227
C	-2.4718927528	-0.1886801984	-0.2181222512	 0.135638
O	-3.5365602781	-0.3017385966	-1.1626129248	-0.448363
C	-1.7627700254	 1.1341302742	-0.5480351561	-0.08598
C	-2.7450837185	 2.3254050458	-0.5997376058	-0.409932
C	-0.6683048069	 1.4589632417	 0.4603239786	 0.221325
O	-0.6017437864	 0.9698562562	 1.5688983095	-0.304159
C	 0.3065814724	 2.4486636022	 0.0216749826	 0.269801
C	 1.117782593	 3.2543398329	-0.3555413414	-0.398027
H	-0.7435125507	-1.3360166239	 0.4404369266	 0.142326
H	-2.106295621	-2.3212615144	-0.0979194087	 0.103616
H	-1.1086778228	-1.4843448968	-1.2998591824	 0.11861
H	-2.8746612854	-0.1116467302	 0.8026407859	 0.083706
H	-3.9910985431	-1.1322973687	-0.9922273477	 0.28181
H	-1.2920040856	 1.0431015383	-1.5358416839	 0.098654
H	-3.2345313869	 2.4622495686	 0.3702023482	 0.125981
H	-2.2228043352	 3.2514188733	-0.8545324226	 0.124141
H	-3.512560068	 2.1308633389	-1.3489534298	 0.149517
H	 1.8418871729	 3.9651459102	-0.6727264916	 0.214562
43.7483	77.5292	132.6133	184.8253	208.072	234.9168	244.1677	264.4297	289.5265	297.9527	376.57	404.7278	477.7066	498.8397	616.3117	645.3286	704.4176	743.6727	808.4282	834.263	924.7204	989.0351	1031.1576	1055.975	1073.6835	1108.4942	1144.1869	1177.2666	1263.4863	1305.7706	1344.1256	1369.5385	1396.5478	1405.0868	1428.7524	1493.9697	1495.405	1501.5525	1506.2982	1758.7061	2209.1747	2995.5018	3028.5306	3032.6523	3046.5021	3095.6789	3115.4644	3136.2629	3152.799	3493.952	3824.8659
CC(O)C(C)C(=O)C#C	C[C@H](O)[C@@H](C)C(=O)C#C	
InChI=1S/C7H10O2/c1-4-7(9)5(2)6(3)8/h1,5-6,8H,2-3H3	InChI=1S/C7H10O2/c1-4-7(9)5(2)6(3)8/h1,5-6,8H,2-3H3/t5-,6+/m1/s1
