19
gdb 3142	2.7795357	1.4523574	1.2376626	2.2086	74.17	-0.246	0.0724	0.3184	1078.7327	0.156206	-422.491777	-422.483488	-422.482544	-422.524907	30.984	
C	-0.2191796249	-0.1935212682	-0.0251295373	-0.413231
C	 1.2940087487	-0.0655418567	 0.0623922742	-0.104243
C	 1.9726421433	-0.5337308996	 1.3630505006	 0.024649
O	 1.5141226617	 0.3260812945	 2.4148585295	-0.249734
C	 2.5847252456	 0.7850252634	 1.5765039849	-0.060518
C	 1.9360223543	 1.3519487805	 0.3127639494	 0.280715
C	 2.7945810836	 2.045904409	-0.7612096351	-0.144185
O	 2.0918485924	 3.2898092086	-0.5823962692	-0.275581
C	 1.1708136029	 2.6852211545	 0.3535836105	-0.130319
H	-0.6893263045	 0.2186594334	 0.8720297949	 0.135311
H	-0.6149906939	 0.3378963234	-0.8969164506	 0.119762
H	-0.5170966236	-1.2438258847	-0.1142268501	 0.117061
H	 1.7794009898	-0.5258826024	-0.806270981	 0.078007
H	 2.307103548	-1.5250943018	 1.6468129355	 0.104638
H	 3.5097545016	 1.0778063643	 2.0614804954	 0.107476
H	 3.8667733841	 2.1393935229	-0.5428176913	 0.101431
H	 2.6740993704	 1.6451665498	-1.7774732932	 0.0972
H	 1.1591137482	 3.2002955002	 1.3212642497	 0.110022
H	 0.1485307221	 2.6517611991	-0.0448228469	 0.101538
69.9488	114.3137	199.0333	235.3068	238.5451	269.3686	382.5712	457.9226	547.9711	597.3117	730.3171	837.0762	848.0321	857.2667	860.6104	874.7422	954.2399	978.1044	985.8475	1015.3129	1036.1152	1047.541	1067.4681	1104.4964	1145.7571	1155.2301	1161.1055	1186.9642	1203.7703	1236.3475	1253.6117	1301.5372	1306.2735	1360.4742	1378.7594	1384.794	1408.5639	1491.3999	1502.1855	1508.2087	1532.7753	2992.8052	3014.1456	3033.6746	3035.8223	3042.4153	3059.635	3096.7527	3117.7625	3172.7953	3189.4491
CC1C2OC2C11COC1	C[C@@H]1[C@@H]2O[C@@H]2C21COC2	
InChI=1S/C7H10O2/c1-4-5-6(9-5)7(4)2-8-3-7/h4-6H,2-3H2,1H3	InChI=1S/C7H10O2/c1-4-5-6(9-5)7(4)2-8-3-7/h4-6H,2-3H2,1H3/t4-,5+,6+/m1/s1
