19
gdb 3785	5.3321611	0.7538876	0.6957158	2.8336	77.45	-0.24506	-0.02208	0.22298	1606.2626	0.154497	-422.544994	-422.535819	-422.534875	-422.5799	33.224	
C	-4.7979765191	-1.174847012	-2.6816353787	-0.418608
C	-4.2111861616	-0.6472150359	-1.3984603702	 0.069992
O	-4.0442663632	 0.773728369	-1.3023271987	-0.264397
C	-2.8713834917	-0.0473747832	-1.3214781297	 0.053699
C	-2.0357850143	-0.0609762352	-0.0740927864	-0.0087
C	-0.8632023504	-1.0948205889	-0.0293735645	-0.368746
C	 0.0639148225	 0.0546792346	 0.4032427826	 0.40242
O	 1.166646078	 0.0990385207	 0.8626542157	-0.284855
C	-1.0130138016	 1.109658748	 0.1052961928	-0.358251
H	-4.643022829	-2.2563126661	-2.760478161	 0.123134
H	-5.8759305921	-0.9862559925	-2.7176302335	 0.132389
H	-4.3378186702	-0.6904618037	-3.5470856107	 0.127873
H	-4.6031834307	-1.0999183563	-0.4851081426	 0.08817
H	-2.300915267	 0.0228824757	-2.2525085268	 0.0841
H	-2.6863575945	-0.1513241145	 0.7988861991	 0.088288
H	-0.9459181876	-1.9397661113	 0.6582116015	 0.132586
H	-0.5886691657	-1.4794884298	-1.0190190689	 0.130564
H	-1.2049852639	 1.8447916017	 0.8900876494	 0.136235
H	-0.8058499979	 1.6464863196	-0.8277954994	 0.134108
46.8218	61.0626	127.7817	197.7419	212.7806	310.6395	333.074	407.6074	418.6712	457.5655	518.633	659.0834	684.858	766.2705	802.0522	880.226	922.6986	928.1878	975.4019	994.2035	1021.2238	1045.9489	1083.2425	1111.7769	1144.9408	1164.9836	1172.7891	1193.2598	1214.3293	1234.2637	1253.6419	1284.266	1314.8594	1387.7332	1413.8689	1425.4084	1445.9138	1476.9157	1492.2589	1514.6495	1897.8323	3036.7069	3044.5245	3050.7196	3062.6506	3081.3764	3087.7046	3102.0851	3114.6568	3117.8438	3123.3743
CC1OC1C1CC(=O)C1	C[C@@H]1O[C@H]1C1CC(=O)C1	
InChI=1S/C7H10O2/c1-4-7(9-4)5-2-6(8)3-5/h4-5,7H,2-3H2,1H3	InChI=1S/C7H10O2/c1-4-7(9-4)5-2-6(8)3-5/h4-5,7H,2-3H2,1H3/t4-,7+/m0/s1
