19
gdb 3666	2.498166	1.6077511	1.1744836	2.3729	75.79	-0.23917	0.05667	0.29584	1093.9727	0.155456	-422.466728	-422.458237	-422.457293	-422.499474	32.813	
C	 2.3098856975	-1.0938356412	 1.3556508623	-0.410691
C	 1.3963304448	 0.0855749637	 1.0880783404	-0.123721
C	 0.9951283364	 0.4300436771	-0.3428413216	-0.400031
C	 1.9006652029	 1.3301529377	 0.4159302453	 0.436163
C	 3.2868914737	 1.9141075472	 0.0925323417	-0.105607
O	 2.6088558852	 3.0676454659	-0.5399636306	-0.297325
C	 1.8509322145	 2.8382998554	 0.7101323544	-0.113275
C	 3.2328090574	 2.7214765543	 1.4320896128	 0.158351
O	 3.3836872635	 2.1287849189	 2.6801291976	-0.430332
H	 2.8442767298	-0.9942978652	 2.3082478457	 0.118159
H	 1.7420470589	-2.0294488724	 1.3928534917	 0.126282
H	 3.0636261224	-1.1920667985	 0.5679117326	 0.122738
H	 0.6129758194	 0.2292847101	 1.8304871172	 0.093071
H	 1.4233907421	-0.1720980438	-1.1386887789	 0.118931
H	-0.0241741547	 0.7523759979	-0.5287116957	 0.119434
H	 4.1306322818	 1.4698533154	-0.436260981	 0.094275
H	 0.9947617837	 3.4831546911	 0.9117816733	 0.094163
H	 3.8171572393	 3.6414400572	 1.4076356618	 0.104903
H	 2.832294911	 1.3390030092	 2.7067938207	 0.294511
119.9943	131.8151	185.503	219.6071	302.476	328.9304	375.9482	392.7593	434.947	525.3457	618.8775	673.1892	746.2799	814.9312	842.1786	854.5296	882.7408	893.8095	900.9692	971.8319	990.0965	1052.7057	1073.6271	1086.8508	1117.5591	1131.5782	1134.0332	1140.8467	1168.8737	1182.3086	1219.4351	1239.4794	1254.516	1283.5761	1345.4412	1416.9066	1419.6416	1441.9465	1489.7512	1495.6322	1511.5803	3024.7027	3083.7651	3099.272	3114.2363	3117.3844	3122.6152	3123.5092	3132.1623	3207.4139	3810.1059
CC1CC11C2OC1C2O	C[C@@H]1C[C@@]21[C@H]1O[C@@H]2[C@H]1O	
InChI=1S/C7H10O2/c1-3-2-7(3)5-4(8)6(7)9-5/h3-6,8H,2H2,1H3	InChI=1S/C7H10O2/c1-3-2-7(3)5-4(8)6(7)9-5/h3-6,8H,2H2,1H3/t3-,4-,5-,6+,7+/m1/s1
