19
gdb 3030	2.5645937	1.7997132	1.3568349	2.2768	75.17	-0.2367	0.01457	0.25127	990.3132	0.158309	-422.566422	-422.558713	-422.557768	-422.597771	31.79	
O	-0.6011010515	 0.2241963338	 0.0580441641	-0.465501
C	-1.973891878	 0.1723246955	 0.3568982523	 0.124612
C	-2.8898640171	 0.3473605653	-0.8973020779	-0.100474
C	-2.683028804	 1.8867860531	-0.7275509747	-0.262565
C	-2.5105980388	 1.5790027056	 0.7785445576	 0.367145
O	-1.5950428369	 2.4140311144	 1.4542650263	-0.497431
C	-3.8718994027	 1.4472014757	 1.4700621438	-0.333686
C	-4.7619555822	 0.5269569285	 0.6620602084	-0.066331
C	-4.2991878794	 0.0035048618	-0.4748832386	-0.064964
H	-0.2447766039	 0.9678699871	 0.5644611516	 0.284126
H	-2.2054409773	-0.6824470548	 1.0064922939	 0.057199
H	-2.5649725197	-0.1232872979	-1.8240810378	 0.074515
H	-1.7367125768	 2.2131277312	-1.1596840318	 0.113948
H	-3.4965841942	 2.5503097196	-1.0275053247	 0.094871
H	-1.678483345	 2.2569912442	 2.4022735663	 0.280388
H	-3.7341580151	 1.0478885681	 2.4878038085	 0.096235
H	-4.3288927937	 2.4398506449	 1.5882638813	 0.113959
H	-5.7628708088	 0.32302432	 1.0295391364	 0.092255
H	-4.900705845	-0.6631383659	-1.084481035	 0.091701
211.2283	243.8974	256.9446	312.6315	360.1992	382.0367	412.515	470.4033	490.0071	501.7504	550.6086	647.1041	721.1588	749.061	855.3909	878.7492	917.3009	940.0877	951.3388	970.7042	984.0831	1008.0818	1053.8759	1072.6267	1114.0374	1140.2795	1150.0178	1171.7082	1207.2795	1223.6533	1246.4492	1257.3375	1304.1071	1339.2424	1361.1954	1369.851	1397.9188	1401.0155	1473.9076	1490.6291	1695.5606	2979.9699	3009.7233	3022.1588	3076.4579	3122.9368	3145.0968	3166.7985	3189.9772	3731.2097	3788.7107
OC1C2CC1(O)CC=C2	O[C@@H]1[C@@H]2C[C@@]1(O)CC=C2	
InChI=1S/C7H10O2/c8-6-5-2-1-3-7(6,9)4-5/h1-2,5-6,8-9H,3-4H2	InChI=1S/C7H10O2/c8-6-5-2-1-3-7(6,9)4-5/h1-2,5-6,8-9H,3-4H2/t5-,6+,7-/m0/s1
