19
gdb 1481	2.2354933	1.5594029	1.1573374	3.1791	78.08	-0.23633	-0.01818	0.21815	1125.7457	0.155282	-422.54293	-422.533943	-422.532999	-422.576072	34.112	
C	-0.1274667493	-0.4135890023	-0.0202746346	-0.468646
C	 1.3699571161	-0.2134113124	-0.0885122624	 0.34675
O	 2.0817541181	-1.0612215856	 0.7778897324	-0.460518
C	 2.1499135986	 0.0098138269	-1.3285522419	-0.133226
C	 1.4268453687	 0.8798360058	-2.3588914887	-0.244529
C	 1.2698165261	 2.021076714	-1.302857842	-0.311837
C	 2.0113577567	 1.1715754859	-0.2685149697	 0.192429
C	 3.0533376865	 1.6850862919	 0.6224305207	 0.045717
O	 3.3300382953	 2.8617618127	 0.7249043722	-0.282592
H	-0.5012441808	-0.1630076885	 0.9798595969	 0.11672
H	-0.6683241032	 0.2054438902	-0.7374860987	 0.132941
H	-0.3652174235	-1.4630951997	-0.2198984669	 0.134576
H	 1.7692714394	-0.9028795971	 1.6758537371	 0.287892
H	 3.0364409438	-0.5875377474	-1.5060769171	 0.110846
H	 2.0804963591	 1.1689874833	-3.1834202065	 0.117888
H	 0.5093968777	 0.4573403788	-2.7797027482	 0.10502
H	 1.8410510471	 2.9159694977	-1.5535250257	 0.133385
H	 0.250910952	 2.3227730328	-1.0444967152	 0.101832
H	 3.5953620316	 0.9115019329	 1.2047006682	 0.07535
100.1194	186.4368	197.3984	221.3711	251.4514	270.9321	324.5251	359.1131	385.9153	416.7768	502.9595	568.9466	632.6233	683.8124	762.8335	790.7956	876.4268	940.7557	952.15	965.2895	1001.912	1015.8515	1050.4136	1087.689	1100.8401	1134.16	1179.9986	1220.9472	1222.3894	1243.5308	1274.9288	1310.0609	1348.5236	1415.3854	1417.439	1454.1882	1476.2871	1495.6364	1504.675	1507.6294	1779.5416	2917.3956	3033.4007	3056.2655	3064.1644	3097.04	3112.0933	3130.3449	3141.3388	3189.2965	3796.8386
CC1(O)C2CCC12C=O	C[C@@]1(O)[C@H]2CC[C@@]12C=O	
InChI=1S/C7H10O2/c1-6(9)5-2-3-7(5,6)4-8/h4-5,9H,2-3H2,1H3	InChI=1S/C7H10O2/c1-6(9)5-2-3-7(5,6)4-8/h4-5,9H,2-3H2,1H3/t5-,6-,7+/m1/s1
