19
gdb 5586	3.2576215	1.2262735	1.0611729	3.1324	76.66	-0.23187	0.00889	0.24076	1180.2022	0.157297	-422.554774	-422.546273	-422.545329	-422.587551	32.968	
O	 1.5030141935	 0.7025548422	 0.2511399927	-0.42832
C	 0.3516467871	-0.1171613259	 0.3609962988	-0.087395
C	-0.8710883739	 0.6659979942	 0.7993012209	-0.072309
C	-1.8307855388	 0.0087785858	 1.7784157682	-0.154912
C	-3.2635460823	 0.5257977266	 1.8674084544	-0.289489
C	-3.0998500814	 1.9672873643	 2.311186552	-0.070774
C	-1.8215159637	 2.2891413508	 2.5214669291	-0.167062
C	-0.911146502	 1.1436189406	 2.2260847294	 0.379683
O	 0.2651654727	 0.9790955911	 2.9661167035	-0.481077
H	 1.6716078002	 1.0380618646	 1.1396069043	 0.293491
H	 0.1842304463	-0.5468981781	-0.632519397	 0.105053
H	 0.5260522192	-0.9522501171	 1.0549539564	 0.08514
H	-1.2803621324	 1.3417179784	 0.0522196948	 0.090124
H	-1.6119768117	-1.0155447072	 2.0583658586	 0.088694
H	-3.7864464941	 0.4603624836	 0.9040782459	 0.116346
H	-3.8662260272	-0.0502410804	 2.5823749096	 0.108265
H	-3.9403928011	 2.6467658207	 2.3953116816	 0.098819
H	-1.4433702938	 3.2568275089	 2.8308736918	 0.099607
H	 0.0311009635	 0.8196394567	 3.8870126753	 0.286117
97.9582	147.3486	208.7925	249.518	296.9413	322.1097	373.3642	402.0674	470.8882	492.2217	538.9606	665.9474	732.0245	745.0359	766.9245	858.0766	901.6775	914.4591	956.4112	962.6284	1000.0126	1027.0532	1043.9971	1072.0986	1089.5794	1105.4564	1125.1405	1172.0551	1210.1664	1222.7087	1267.6509	1276.5757	1316.1412	1319.6477	1372.0084	1406.8576	1431.2683	1442.447	1475.6364	1497.2569	1665.6588	2995.5099	3015.0008	3042.1598	3068.3996	3138.1997	3174.5353	3188.1429	3212.4645	3795.0453	3796.1048
OCC1C2CC=CC12O	OC[C@H]1[C@@H]2CC=C[C@]12O	
InChI=1S/C7H10O2/c8-4-6-5-2-1-3-7(5,6)9/h1,3,5-6,8-9H,2,4H2	InChI=1S/C7H10O2/c8-4-6-5-2-1-3-7(5,6)9/h1,3,5-6,8-9H,2,4H2/t5-,6-,7+/m0/s1
