19
gdb 5740	6.5453593	0.7442079	0.7180961	3.5081	79.34	-0.24403	-0.02355	0.22048	1592.2533	0.155093	-422.524669	-422.515649	-422.514705	-422.558749	32.645	
C	 1.6366910101	-0.4973731127	 1.1630046478	-0.386363
C	 0.9953074879	 0.0795374441	-0.1020357508	-0.192521
C	 1.7367949729	-0.328379263	-1.3619448861	 0.127448
O	 1.6661083902	-1.7803865681	-1.57603239	-0.297363
C	 0.9094768146	-1.5706592195	-2.7561605183	 0.099848
C	 1.7365502787	-0.8216159829	-3.79672821	-0.157737
C	 1.1402084429	-0.7174847723	-5.1439896053	 0.155932
O	 1.7657502832	-0.7227549691	-6.1761742615	-0.269391
C	 0.9958423056	-0.0836090581	-2.6777575799	-0.164688
H	 1.6708086521	-1.5888854186	 1.1095153252	 0.140529
H	 2.6618220856	-0.1330433641	 1.2903940739	 0.117503
H	 1.0683957762	-0.2154317359	 2.053738852	 0.117045
H	-0.0468008075	-0.2512071917	-0.1844344451	 0.105681
H	 0.9801362816	 1.1768273387	-0.0588035241	 0.101475
H	 2.7823181631	 0.003622029	-1.3294415034	 0.090581
H	 0.1160049243	-2.2677015746	-2.9988138694	 0.120893
H	 2.8183190855	-0.9135230933	-3.7646489854	 0.114079
H	 0.0262978328	-0.6364684768	-5.1488152819	 0.064141
H	 0.2658206401	 0.6919467688	-2.8686349878	 0.112909
78.941	99.2642	128.1982	199.5832	230.9509	259.2557	276.2572	338.6451	439.807	498.4444	531.7188	757.3699	815.1169	835.3782	862.7787	897.9742	916.5091	970.7811	991.0941	1028.8152	1038.9609	1044.8334	1068.1943	1084.2967	1103.2257	1125.8358	1158.4551	1202.0875	1224.5654	1246.876	1281.2938	1299.9346	1330.3153	1379.7062	1404.6429	1410.8118	1448.7672	1476.8682	1498.1018	1509.387	1817.2726	2837.6959	3022.6992	3028.5437	3040.2303	3066.5005	3108.2546	3123.3706	3162.1614	3183.227	3202.5745
CCC1OC2C(C=O)C12	CC[C@H]1O[C@@H]2[C@@H](C=O)[C@H]12	
InChI=1S/C7H10O2/c1-2-5-6-4(3-8)7(6)9-5/h3-7H,2H2,1H3	InChI=1S/C7H10O2/c1-2-5-6-4(3-8)7(6)9-5/h3-7H,2H2,1H3/t4-,5+,6+,7+/m0/s1
