19
gdb 807	2.6640956	1.5314274	1.2776564	3.1516	75.	-0.24651	-0.02759	0.21892	1057.4764	0.157409	-422.565507	-422.557395	-422.556451	-422.598456	30.547	
O	 0.0761110651	 0.0246967388	 0.9986585291	-0.262001
C	 0.3420213002	-0.0122433134	-0.1761386171	 0.101546
C	-0.2885663852	 0.876829654	-1.2171297199	 0.325301
C	-0.9047237792	 2.2147302824	-0.7218896724	-0.278488
C	-2.287097312	 1.8143964788	-1.3062713406	-0.230559
C	-1.7154888891	 0.4376591083	-1.7497808686	-0.074163
C	-1.4768724683	 0.2243286535	-3.2473502487	-0.235849
C	-0.2137940284	 1.0567692956	-3.5160186838	-0.095871
O	 0.5750336653	 0.9385215401	-2.3333227006	-0.30564
H	 1.0686342331	-0.7413316696	-0.5980276555	 0.085258
H	-0.8830401098	 2.2861264373	 0.3669818207	 0.129833
H	-0.431044049	 3.0978941902	-1.1553819375	 0.10926
H	-3.0923472297	 1.7509411775	-0.5721143519	 0.111469
H	-2.631252914	 2.4367616086	-2.1372571485	 0.099476
H	-2.1660117092	-0.4253207939	-1.2582535543	 0.086683
H	-1.2799386675	-0.8324624709	-3.4527184284	 0.111455
H	-2.3251856881	 0.5398446594	-3.861626012	 0.10827
H	 0.3872878139	 0.696402605	-4.35443369	 0.115277
H	-0.468301158	 2.1106270183	-3.7051171098	 0.098742
80.2888	95.2	206.4055	223.407	247.3391	374.8618	400.1505	484.3902	595.4094	646.6076	693.3858	747.7668	805.0856	827.0877	888.7354	906.9239	927.7393	960.9194	963.6568	1005.896	1035.7785	1070.1218	1096.8771	1143.7745	1159.5605	1166.7796	1223.3671	1231.6724	1240.8709	1254.0108	1272.9535	1295.9633	1311.7219	1336.4888	1382.5616	1402.1966	1464.2876	1484.5621	1490.0841	1520.2913	1825.139	2894.1617	2991.9613	3052.3354	3059.3363	3075.2891	3095.7743	3098.875	3105.5633	3115.7457	3139.0308
O=CC12CCC1CCO2	O=C[C@]12CC[C@H]1CCO2	
InChI=1S/C7H10O2/c8-5-7-3-1-6(7)2-4-9-7/h5-6H,1-4H2	InChI=1S/C7H10O2/c8-5-7-3-1-6(7)2-4-9-7/h5-6H,1-4H2/t6-,7+/m0/s1
