19
gdb 2213	2.7733188	1.7242323	1.5715508	1.2298	73.26	-0.21467	0.07968	0.29435	942.6293	0.159724	-422.562314	-422.555101	-422.554156	-422.593509	29.445	
O	-0.7508340366	 0.3390236535	-0.0691404636	-0.4737
C	-2.065237081	-0.0810308762	 0.1278167135	 0.34717
C	-2.3527171731	-1.3398382978	 0.9320579853	-0.286071
C	-3.8392778812	-1.5895147966	 0.5940460989	-0.079384
C	-3.9110354426	-1.3030116984	-0.9250817254	-0.22178
C	-3.042767945	-0.0600054117	-1.0410122634	-0.135504
C	-3.2099245271	 0.8968961693	 0.1210710726	 0.045504
O	-4.2883735371	 0.7886653404	 1.0135970076	-0.275021
C	-4.6900463436	-0.5472615937	 1.3265455952	-0.053618
H	-0.4464560416	 0.7588224312	 0.7432093039	 0.281424
H	-1.7116718078	-2.1563433913	 0.580922979	 0.103752
H	-2.1864997729	-1.2138793932	 2.0087638761	 0.090512
H	-4.1816621553	-2.591905704	 0.863123558	 0.073506
H	-3.4861380885	-2.1288706503	-1.5066535449	 0.100406
H	-4.9407347044	-1.146965262	-1.2653251094	 0.10017
H	-2.7426961484	 0.3299303572	-2.0068664162	 0.090247
H	-2.9723313969	 1.9407517346	-0.0518826945	 0.102486
H	-4.6099224424	-0.683497281	 2.4144595936	 0.093716
H	-5.7483869945	-0.6593038298	 1.0528378937	 0.096185
127.309	248.2078	309.3571	337.0543	355.9867	398.7503	497.5846	509.9422	593.2641	613.2836	714.8858	780.397	831.1707	861.4474	902.773	910.3873	946.6695	949.862	982.3363	1008.2783	1036.5861	1055.5856	1089.3942	1104.077	1130.8899	1159.3966	1181.5802	1215.3421	1239.0643	1257.2212	1293.4497	1297.8717	1322.1139	1336.4171	1349.3925	1352.8125	1412.2669	1454.7845	1491.1694	1509.9834	1526.1998	2992.6933	3023.6129	3028.7372	3034.0353	3072.0503	3073.8233	3081.6207	3173.5042	3182.5475	3792.3051
OC12CC3CC1C2OC3	O[C@]12C[C@@H]3C[C@H]1[C@H]2OC3	
InChI=1S/C7H10O2/c8-7-2-4-1-5(7)6(7)9-3-4/h4-6,8H,1-3H2	InChI=1S/C7H10O2/c8-7-2-4-1-5(7)6(7)9-3-4/h4-6,8H,1-3H2/t4-,5-,6+,7+/m0/s1
