19
gdb 4654	2.1811497	1.2849039	0.9862363	2.703	77.64	-0.25961	-0.0308	0.22881	1271.982	0.152296	-422.547198	-422.536534	-422.53559	-422.583641	38.38	
C	-2.358119516	 0.9453429708	-2.7507306927	-0.402242
C	-0.9452889506	 0.3476141341	-2.5233304582	-0.063263
C	 0.0112937418	 0.8147134956	-3.6510907002	-0.402242
C	-1.0192706231	-1.1145171592	-2.5058853865	 0.332401
C	-1.0948914639	-2.3142022504	-2.5308370054	-0.472981
C	-0.408136749	 0.9208815721	-1.192925908	 0.366881
O	-0.2873840492	 2.1189344597	-1.0489641293	-0.341677
C	-0.0258987788	-0.0041797144	-0.0528376269	-0.14896
O	 0.433374262	 0.7139239444	 1.0516266772	-0.422393
H	-3.0558472388	 0.612764487	-1.9775290133	 0.129587
H	-2.298636341	 2.0355432297	-2.7270089484	 0.142316
H	-2.7441106628	 0.6232902565	-3.7209485601	 0.129179
H	 1.0098791464	 0.3886145067	-3.5224796779	 0.129586
H	-0.3754643481	 0.4927067068	-4.6210183751	 0.129179
H	 0.0875739636	 1.90398775	-3.6337495093	 0.142316
H	-1.157158491	-3.3746517964	-2.5408625888	 0.203192
H	-0.9045797384	-0.6210187471	 0.1967757808	 0.127607
H	 0.7330418641	-0.7112847684	-0.4255196629	 0.127606
H	 0.3845701931	 1.6466019325	 0.7878467649	 0.293909
14.2246	128.3765	135.9502	181.6645	222.6249	235.8999	253.392	277.577	299.3373	355.615	399.5788	413.0714	501.9773	526.4266	575.3986	597.796	637.8659	656.9199	778.0004	848.8832	944.3332	947.9423	979.4871	1045.0827	1069.9427	1138.2215	1148.4496	1220.2205	1239.1344	1247.299	1310.9121	1387.5839	1410.7025	1448.1574	1475.7469	1481.4683	1484.9302	1497.8683	1507.6647	1784.7317	2231.5285	2982.912	2997.1293	3048.3645	3050.7287	3124.737	3126.7942	3138.4897	3142.473	3498.949	3688.0753
CC(C)(C#C)C(=O)CO	CC(C)(C#C)C(=O)CO	
InChI=1S/C7H10O2/c1-4-7(2,3)6(9)5-8/h1,8H,5H2,2-3H3	InChI=1S/C7H10O2/c1-4-7(2,3)6(9)5-8/h1,8H,5H2,2-3H3
