19
gdb 5055	2.2470005	1.5205885	1.0948318	4.3316	75.99	-0.26413	0.00777	0.2719	1182.121	0.155209	-422.568542	-422.559255	-422.558311	-422.602756	33.839	
C	 0.8310217152	-0.4693237203	 1.1184186806	-0.377022
C	 0.6966709419	 0.1791881009	-0.2668124238	-0.299106
C	 1.5714477815	-0.4841439381	-1.2934237065	 0.064497
C	 3.0635740533	-0.1602002209	-1.5256893706	-0.37143
C	 2.1047013459	-0.1004640363	-2.6596203261	 0.399628
C	 1.8072761284	 1.0066055163	-3.6116212643	-0.488273
O	 1.9153825846	-1.4711306501	-3.1480932496	-0.303585
C	 1.330352016	-1.8241470761	-1.9395346232	 0.440771
O	 0.796772634	-2.8516336118	-1.6672461763	-0.336936
H	 0.5718731498	-1.5307999136	 1.070753898	 0.147225
H	 1.8568550194	-0.3891811759	 1.4921019601	 0.118674
H	 0.1669895954	 0.01373145	 1.8411045306	 0.114434
H	-0.3483154456	 0.1278098252	-0.5954606579	 0.115304
H	 0.9530060057	 1.2443164265	-0.2109281535	 0.10114
H	 3.3663193105	 0.7928691988	-1.0992383516	 0.125158
H	 3.8164675146	-0.9414262641	-1.492379627	 0.132799
H	 1.8695796015	 1.9712763017	-3.1000828435	 0.132142
H	 2.5294480963	 1.0124554531	-4.4348190739	 0.143624
H	 0.8047674815	 0.8969914748	-4.0351711416	 0.140957
61.5298	119.1877	145.8838	195.3725	206.1353	247.4827	282.2727	349.8257	410.6679	481.9439	523.0411	624.8067	689.0223	720.972	781.845	804.9047	831.8961	902.7474	945.5244	981.2603	987.9346	1005.6929	1029.1741	1085.6474	1104.5532	1127.5237	1177.5503	1214.1196	1301.1838	1335.3896	1366.6568	1403.0207	1411.5369	1433.9946	1473.8982	1481.9928	1492.7161	1497.5511	1507.6481	1514.4299	1930.2582	3025.4006	3039.8297	3040.24	3060.2088	3106.7911	3110.5866	3115.9246	3121.1274	3121.7315	3207.7306
CCC12CC1(C)OC2=O	CC[C@]12C[C@@]1(C)OC2=O	
InChI=1S/C7H10O2/c1-3-7-4-6(7,2)9-5(7)8/h3-4H2,1-2H3	InChI=1S/C7H10O2/c1-3-7-4-6(7,2)9-5(7)8/h3-4H2,1-2H3/t6-,7-/m1/s1
