19
gdb 5549	2.5307814	1.6141225	1.13242	2.7462	75.06	-0.25289	0.07479	0.32767999999999997	1100.3395	0.15719	-422.501901	-422.493787	-422.492843	-422.534362	31.558	
O	 1.6375609134	 0.5425916546	-0.0393828028	-0.432431
C	 0.252484647	 0.395878717	-0.2849693289	-0.073166
C	-0.0608264048	 0.3961010534	-1.7824587773	-0.124824
C	-1.4676439066	-0.1248668549	-2.1429365731	-0.054795
C	-1.5957483759	-0.3187127287	-3.6237603538	-0.299199
C	-0.8646688372	-1.3655273873	-2.8177013709	-0.135209
C	 0.5171924562	-0.8491239289	-2.4944266062	 0.445269
C	 1.8075449441	-1.084374299	-3.1412709733	-0.26879
O	 1.5025162692	-1.6608218375	-1.8515042784	-0.293735
H	 2.0411797885	-0.2668334973	-0.3798769618	 0.291881
H	-0.1439220951	-0.5247962074	 0.1718475192	 0.09006
H	-0.2498756321	 1.2415519549	 0.1976600418	 0.105028
H	 0.2154887769	 1.3634840032	-2.2162726008	 0.078587
H	-2.3299062735	-0.0685902511	-1.4897722478	 0.093719
H	-2.5771212684	-0.618346614	-3.977508258	 0.118652
H	-1.0516690178	 0.3229175488	-4.3130598187	 0.111739
H	-1.1733631732	-2.4025730943	-2.779722459	 0.100689
H	 1.8858970413	-1.805164226	-3.9532196002	 0.121642
H	 2.570643778	-0.3082374754	-3.12688993	 0.124881
108.8554	154.9498	203.7535	232.8859	294.7237	352.9861	371.1842	468.3015	571.9896	579.8101	587.8052	760.4816	787.1494	830.4212	859.0995	903.4278	933.5803	943.2639	963.4531	1006.214	1021.8512	1050.042	1063.1464	1080.0223	1091.621	1121.1421	1124.9366	1154.6914	1172.9776	1202.5879	1215.1063	1241.7879	1283.032	1312.4683	1350.4147	1399.3812	1440.229	1447.1393	1490.7907	1505.1529	1528.8429	2980.3399	3044.422	3067.2885	3089.3997	3109.2209	3179.8906	3184.2817	3193.1047	3204.6083	3756.6841
OCC1C2CC2C11CO1	OC[C@@H]1[C@H]2C[C@H]2[C@]21CO2	
InChI=1S/C7H10O2/c8-2-6-4-1-5(4)7(6)3-9-7/h4-6,8H,1-3H2	InChI=1S/C7H10O2/c8-2-6-4-1-5(4)7(6)3-9-7/h4-6,8H,1-3H2/t4-,5+,6+,7-/m0/s1
