19
gdb 4044	2.9257668	1.7934645	1.6285311	1.2299	73.09	-0.21772	0.07818	0.2959	925.9326	0.159343	-422.550606	-422.543519	-422.542575	-422.581818	28.791	
C	-0.2819851574	 2.3862968953	-2.1044071622	-0.402538
C	 0.5372433522	 1.1084982548	-1.9686414391	 0.156789
O	 0.4334190694	 0.6153384195	-0.6194199854	-0.293717
C	-0.1681191564	-0.6423464587	-0.481422624	 0.086773
C	 0.1961795292	-1.7779298237	-1.4204870858	-0.157477
C	 0.9031093156	-1.281843855	-2.6719003167	-0.235955
C	 0.1042738507	 0.0087248235	-2.9479441046	 0.020941
O	-1.2571554073	-0.3363428121	-2.6573902764	-0.259347
C	-1.1759868215	-1.1212279981	-1.4881890852	 0.048716
H	-0.0079649906	 3.0910229754	-1.3151563947	 0.121852
H	-0.0938231144	 2.8618708192	-3.073451924	 0.106196
H	-1.3483584652	 2.162353254	-2.0257822162	 0.135542
H	 1.5999163762	 1.3343002309	-2.1427842491	 0.074401
H	-0.3251900509	-0.8673839553	 0.5677287164	 0.103875
H	 0.3547997816	-2.7850520534	-1.0542143486	 0.088567
H	 1.9664152088	-1.0735432538	-2.5223647211	 0.110375
H	 0.7964697005	-1.9985037726	-3.4918143051	 0.107183
H	 0.1499958669	 0.3624436201	-3.979890651	 0.085724
H	-2.1162299175	-1.5920075399	-1.2286470372	 0.1021
107.7551	230.5661	261.8058	328.9544	402.0062	447.2643	528.8909	612.1678	671.2228	711.8196	750.3153	775.2517	785.9978	842.8839	887.017	935.0301	946.4008	975.3151	1003.4516	1022.7419	1042.6891	1058.2199	1078.7907	1108.553	1119.5167	1129.9824	1138.0365	1179.1353	1220.0282	1249.7131	1295.4173	1311.4042	1329.9864	1344.4358	1378.5478	1390.9842	1403.175	1429.3534	1485.2081	1489.6821	1498.4881	2989.2212	3040.0537	3052.4698	3097.5422	3101.0443	3112.2945	3135.7545	3170.8624	3179.9504	3192.5605
CC1OC2C3CC1OC23	C[C@H]1O[C@@H]2[C@@H]3C[C@H]1O[C@H]23	
InChI=1S/C7H10O2/c1-3-5-2-4-6(8-3)7(4)9-5/h3-7H,2H2,1H3	InChI=1S/C7H10O2/c1-3-5-2-4-6(8-3)7(4)9-5/h3-7H,2H2,1H3/t3-,4+,5-,6-,7+/m1/s1
