19
gdb 3938	3.113416	1.521275	1.4096793	0.732	73.98	-0.2255	0.05605	0.28155	1017.6412	0.156939	-422.499931	-422.492054	-422.49111	-422.531943	30.871	
C	 0.1208916568	-0.2622684902	 0.29389396	-0.404903
C	 1.4428375556	 0.3266884609	-0.1450944148	 0.077472
O	 1.644792858	 1.7109117112	 0.307156326	-0.342698
C	 2.9492975548	 1.3606214876	 0.7981098455	 0.337875
C	 2.8989854347	 0.389712984	 1.942157387	-0.378375
C	 2.7668212785	-0.0984799269	 0.5154262258	 0.244224
O	 3.8746276353	-0.6128086044	-0.1441239194	-0.297155
C	 4.5605740812	 0.5046788448	-0.7570744997	-0.087314
C	 4.2353045311	 1.7666861181	 0.1089518486	-0.325511
H	 0.0315249775	-0.2718390587	 1.3833742845	 0.122823
H	-0.7105140809	 0.3218471723	-0.1133246018	 0.127272
H	 0.0312667162	-1.2901291827	-0.0730632849	 0.125163
H	 1.5430195274	 0.2854922555	-1.2376634815	 0.087536
H	 3.8497376442	 0.1484378534	 2.4038678941	 0.128015
H	 2.0421079738	 0.3965881448	 2.6083566663	 0.121421
H	 5.6249653699	 0.2571054669	-0.7975168676	 0.113028
H	 4.1991363337	 0.6415169702	-1.7854880937	 0.106604
H	 5.0350636823	 1.9764908332	 0.8242894574	 0.117168
H	 4.0901715398	 2.65492598	-0.5093945919	 0.127355
130.7468	151.2667	213.6608	238.9176	309.5889	370.5383	439.1395	481.2356	566.1326	613.9391	662.1236	749.0347	806.9037	837.2725	848.6628	883.1865	889.461	915.9451	942.6152	984.9155	1000.4352	1047.3161	1060.4962	1082.3826	1130.7836	1160.4676	1185.1346	1208.0155	1225.7612	1269.8974	1288.3551	1309.365	1351.4668	1375.37	1393.3942	1412.2259	1464.6589	1475.6529	1480.9535	1492.3825	1517.0358	3010.7319	3020.695	3038.7687	3066.0644	3092.6093	3109.1765	3120.103	3124.302	3130.146	3229.6037
CC1OC23CC12OCC3	C[C@H]1O[C@@]23C[C@@]12OCC3	
InChI=1S/C7H10O2/c1-5-7-4-6(7,9-5)2-3-8-7/h5H,2-4H2,1H3	InChI=1S/C7H10O2/c1-5-7-4-6(7,9-5)2-3-8-7/h5H,2-4H2,1H3/t5-,6+,7-/m1/s1
