19
gdb 478	3.4057769	1.4966018	1.3423792	3.1838	73.9	-0.23856	0.08153	0.32009	1017.4929	0.158504	-422.517143	-422.509791	-422.508847	-422.549041	28.886	
C	-0.1008747399	 1.2616069375	-0.7714552767	-0.082544
C	-0.0878520329	-0.1644240167	-0.1888888122	-0.387438
C	 1.2691079443	 0.2518049672	 0.3986689127	 0.526551
O	 1.1815840373	 1.5605562235	-0.1778808287	-0.328743
C	 1.7333888821	 0.1897526375	 1.8717026368	-0.001457
C	 1.667198697	-1.3138326492	 2.2027608529	-0.228538
C	 2.3862746497	-1.8347886979	 0.9110434171	-0.228539
C	 2.6327850399	-0.4618437411	 0.2560582938	-0.001455
O	 3.1028853131	 0.341893768	 1.3831594051	-0.305026
H	-0.0688425233	 1.3314419228	-1.8648628166	 0.106599
H	-0.8878366509	 1.9247960087	-0.3942168821	 0.106602
H	-0.8659363206	-0.382648345	 0.5454476665	 0.115549
H	-0.0498336686	-0.9741199591	-0.9204836547	 0.115547
H	 1.435711166	 0.9287578677	 2.6152042458	 0.083739
H	 2.2199023193	-1.542858184	 3.1156945114	 0.113301
H	 0.6448387868	-1.6868088981	 2.3121067883	 0.099406
H	 3.3267681092	-2.3447417294	 1.1273843278	 0.113301
H	 1.7631717929	-2.4970241545	 0.3032012712	 0.099406
H	 3.2478920284	-0.3841312979	-0.6401223284	 0.08374
80.3249	178.6482	199.3618	286.9869	387.3691	406.7053	524.8962	577.9498	692.5325	787.8136	829.4939	839.8108	863.1579	869.6671	898.3189	910.8572	942.7718	943.7712	980.4447	1005.6335	1019.6028	1032.4638	1052.5077	1151.3398	1153.5563	1175.7856	1189.0482	1199.6659	1219.5834	1225.6479	1228.348	1250.9534	1260.9912	1301.5145	1319.1111	1353.0162	1362.4558	1479.0513	1482.3208	1498.5442	1531.0855	3023.9329	3061.2083	3064.5617	3069.3012	3072.6876	3109.6601	3125.3539	3125.6741	3128.2341	3132.3803
C1CC2(O1)C1CCC2O1	C1C[C@@]2(O1)[C@H]1CC[C@@H]2O1	
InChI=1S/C7H10O2/c1-2-6-7(3-4-8-7)5(1)9-6/h5-6H,1-4H2	InChI=1S/C7H10O2/c1-2-6-7(3-4-8-7)5(1)9-6/h5-6H,1-4H2/t5-,6+,7-
