19
gdb 4510	2.3466935	1.7665434	1.1877904	3.033	74.74	-0.24395	-0.03242	0.21153	1072.9194	0.157766	-422.573797	-422.56558	-422.564636	-422.606952	31.238	
C	-1.3011551197	-1.8084578374	-1.4102826239	-0.39127
C	-0.8933806282	-1.2271697798	-0.0403961749	-0.090065
C	-2.0699365702	-1.1680983128	 0.9547258835	-0.232708
C	-2.9974649825	 0.0346602555	 0.7278937988	-0.251909
C	-2.2146908908	 1.3278316652	 0.7888531387	 0.060585
O	-1.1259416568	 1.3478768465	 1.7055418402	-0.242168
C	-0.8191831667	 1.3648645319	 0.3001486308	-0.070087
C	-0.2044498399	 0.1219750891	-0.283490274	 0.400583
O	 0.7744478646	 0.214816018	-0.9906100715	-0.325857
H	-1.6683526992	-2.8321324602	-1.2910710893	 0.11637
H	-2.0966856115	-1.2189737223	-1.8790643296	 0.117137
H	-0.4439756991	-1.8166077989	-2.0863885474	 0.143554
H	-0.1169920138	-1.8833077122	 0.3713041987	 0.108951
H	-2.6459774123	-2.0967549033	 0.8855346705	 0.096866
H	-1.6801387842	-1.1080478738	 1.97401404	 0.122765
H	-3.5057244203	-0.0236952525	-0.2430159504	 0.112142
H	-3.7850937107	 0.0481556443	 1.4900344296	 0.113615
H	-2.7816490984	 2.2579008115	 0.7441634112	 0.101421
H	-0.3775922301	 2.2906872812	-0.0628375911	 0.110076
38.6053	178.6039	222.6949	248.3846	284.0291	346.2354	370.9485	453.1404	498.5393	537.6227	635.7152	711.063	756.7853	795.3729	844.2427	872.7319	909.2199	956.6966	983.7925	1007.7035	1024.2558	1069.0824	1097.0568	1119.7249	1155.691	1205.2437	1225.3881	1261.8904	1267.7752	1314.4769	1336.4541	1354.7999	1374.236	1383.7734	1402.9584	1442.5207	1481.7078	1490.7699	1496.5159	1506.2604	1794.0576	3030.3293	3034.5941	3039.5339	3052.8096	3066.9278	3101.0664	3104.2359	3112.2616	3135.1265	3143.6626
CC1CCC2OC2C1=O	C[C@@H]1CC[C@H]2O[C@H]2C1=O	
InChI=1S/C7H10O2/c1-4-2-3-5-7(9-5)6(4)8/h4-5,7H,2-3H2,1H3	InChI=1S/C7H10O2/c1-4-2-3-5-7(9-5)6(4)8/h4-5,7H,2-3H2,1H3/t4-,5-,7-/m1/s1
