19
gdb 5141	3.055701	1.4458809	1.154751	0.3071	73.95	-0.25836	0.07491	0.33326999999999996	1113.6536	0.156895	-422.537717	-422.529586	-422.528641	-422.570443	31.061	
C	 1.1258081524	-0.2293090069	 1.0431590109	-0.385319
C	 0.8770594477	 0.2171495191	-0.4036446423	-0.29075
C	 1.8109171166	-0.4381853164	-1.3867963369	 0.416577
O	 1.5856164159	-1.8337292656	-1.6736465887	-0.307122
C	 1.451768108	-0.882814967	-2.7426996321	-0.020882
C	 2.6513454358	-0.8429776555	-3.6807809661	-0.280323
C	 3.7765240345	-0.341515873	-2.7840832838	 0.059093
O	 3.5748805914	 0.9932713741	-2.2948677226	-0.260281
C	 3.2855301527	-0.1095980061	-1.4214250676	-0.053073
H	 1.019866507	-1.3143676572	 1.1349022322	 0.134664
H	 2.1311251177	 0.0419787574	 1.3821045064	 0.118393
H	 0.4104324036	 0.2417362715	 1.7232168398	 0.11663
H	-0.1527562254	-0.0207475501	-0.6907381759	 0.106593
H	 0.9933003702	 1.3044499266	-0.4916258098	 0.115615
H	 0.443079714	-0.7666590503	-3.1309794603	 0.096499
H	 2.8729896128	-1.8378942309	-4.0809826315	 0.117478
H	 2.4817419818	-0.1643305052	-4.5232104288	 0.117155
H	 4.8101133219	-0.6055645713	-2.9894901817	 0.099691
H	 3.9114708712	-0.1925032131	-0.5368623911	 0.099361
76.1987	154.4346	182.4847	240.7811	267.0495	361.3369	407.9853	457.9215	503.0872	616.5012	721.816	758.8206	791.1537	824.7143	862.5107	876.4069	932.3417	937.187	960.9148	972.1327	1015.4726	1049.5016	1074.4132	1082.0433	1105.6331	1123.307	1215.9908	1232.1147	1257.9787	1274.4988	1291.909	1314.2378	1359.5672	1367.5557	1409.6285	1431.7248	1459.815	1466.9409	1475.5434	1499.9278	1507.9709	3034.0229	3039.4051	3048.3683	3074.5462	3092.9085	3107.9712	3117.3379	3146.2334	3147.1084	3159.9001
CCC12OC1CC1OC21	CC[C@@]12O[C@@H]1C[C@H]1O[C@@H]21	
InChI=1S/C7H10O2/c1-2-7-5(9-7)3-4-6(7)8-4/h4-6H,2-3H2,1H3	InChI=1S/C7H10O2/c1-2-7-5(9-7)3-4-6(7)8-4/h4-6H,2-3H2,1H3/t4-,5-,6-,7-/m1/s1
