19
gdb 4976	2.3024989	1.6651314	1.3183826	2.6088	75.22	-0.22725	0.07086	0.29811	1066.4706	0.155391	-422.473247	-422.464555	-422.46361	-422.506516	32.362	
C	 1.4730760462	-0.1300765144	-0.1158075975	-0.258666
O	 0.0566310263	-0.1919806327	 0.0040813809	-0.273675
C	-0.4367422336	 0.48697378	 1.0744929347	 0.333289
C	-1.7926600495	 1.0091311315	 1.3559521364	-0.04594
O	-1.953572865	 0.3624250347	 2.6147798295	-0.28861
C	-0.5046902505	 0.2461270314	 2.6565738993	-0.013722
C	-0.0293267369	 1.7063985232	 2.8578909189	-0.275681
C	-0.5575549823	 1.9699914507	 1.4469815518	 0.201896
C	-0.4301343343	 3.1984358883	 0.5975928347	-0.512907
H	 1.9671432476	-0.5985432125	 0.7461240856	 0.116916
H	 1.7377761633	-0.680417818	-1.0206274077	 0.133561
H	 1.8210525864	 0.9069751473	-0.2042387572	 0.11916
H	-2.6556715994	 1.1896807151	 0.7287068645	 0.110945
H	-0.1497984103	-0.5914463156	 3.2531626166	 0.088286
H	-0.4871183964	 2.2360403297	 3.6996732444	 0.10006
H	 1.0610335597	 1.7856385591	 2.9015369113	 0.095223
H	-0.9868280406	 4.0391949233	 1.0276958663	 0.126144
H	 0.6149193155	 3.5122552103	 0.4932334605	 0.118641
H	-0.8222560461	 3.0220032484	-0.4100828329	 0.125081
83.6675	147.4574	160.6337	195.1342	216.5318	269.6508	365.9951	401.2686	457.1998	557.194	611.2986	637.9122	725.8824	815.3146	852.3364	916.2995	922.3014	928.6494	961.4553	1000.5201	1036.5368	1053.1243	1077.7535	1111.2172	1142.7317	1153.1396	1176.0281	1196.6245	1211.3874	1233.8471	1246.2238	1291.1212	1348.15	1417.0531	1439.9639	1481.7198	1485.9136	1488.2401	1496.1375	1503.1578	1516.3446	3002.1305	3020.316	3043.1218	3061.52	3078.9949	3089.8637	3102.3342	3130.7727	3146.6539	3210.4999
COC12C3OC1CC23C	CO[C@@]12[C@H]3O[C@@H]1C[C@@]23C	
InChI=1S/C7H10O2/c1-6-3-4-7(6,8-2)5(6)9-4/h4-5H,3H2,1-2H3	InChI=1S/C7H10O2/c1-6-3-4-7(6,8-2)5(6)9-4/h4-5H,3H2,1-2H3/t4-,5+,6-,7-/m1/s1
