19
gdb 5770	3.7852187	1.0586835	1.0484568	2.683	75.25	-0.24863	-0.0135	0.23512999999999998	1238.9792	0.1571	-422.550815	-422.542521	-422.541577	-422.583856	31.229	
C	 3.3555323155	 1.2526802136	-0.5932300833	-0.386741
C	 2.4306061585	 0.0401277876	-0.450684619	-0.19734
C	 2.6507798395	-1.0241424062	-1.5296232839	 0.027011
C	 2.2379947413	-0.5807507332	-2.9830855271	-0.252428
C	 1.1649329097	-1.6494587299	-3.258394297	-0.045795
O	 0.4430561824	-1.7121084228	-1.9832207012	-0.291601
C	 1.6890281814	-2.2275539762	-1.4032163049	-0.076734
C	 1.8471680177	-2.9461702707	-2.7621078733	 0.453334
O	 2.146421535	-4.0189648267	-3.1800294849	-0.313938
H	 3.1677093015	 1.9837198358	 0.1988378331	 0.118238
H	 4.40871768	 0.9567383417	-0.5311880626	 0.115918
H	 3.2119224095	 1.761769431	-1.552140939	 0.119246
H	 2.5860552852	-0.4185371252	 0.5344619676	 0.096462
H	 1.3822241286	 0.3583426432	-0.4832350371	 0.113727
H	 3.692090466	-1.3660726153	-1.5011015135	 0.083964
H	 1.8005882252	 0.4208643999	-2.9984976073	 0.117564
H	 3.0610455394	-0.6126983082	-3.7016822611	 0.115477
H	 0.5266071532	-1.5814575129	-4.1369317039	 0.103273
H	 1.5680896403	-2.7322039453	-0.4462837415	 0.100364
91.9092	130.1633	160.1075	196.8971	243.6296	324.1132	432.7271	457.8457	506.4613	639.4477	712.0671	751.8201	780.5078	832.1263	845.7147	878.2949	924.3928	947.4016	949.9147	963.0431	1031.5544	1059.7807	1065.0724	1072.6666	1104.1742	1183.683	1192.8212	1214.0155	1226.1854	1262.223	1282.4216	1300.551	1310.5	1355.0151	1389.591	1412.7256	1480.7786	1493.2918	1499.0768	1507.1228	1925.7078	3023.1963	3032.1948	3037.7172	3063.3717	3067.1208	3099.3152	3106.1509	3113.1937	3147.4348	3153.2925
CCC1CC2OC1C2=O	CC[C@@H]1C[C@@H]2O[C@H]1C2=O	
InChI=1S/C7H10O2/c1-2-4-3-5-6(8)7(4)9-5/h4-5,7H,2-3H2,1H3	InChI=1S/C7H10O2/c1-2-4-3-5-6(8)7(4)9-5/h4-5,7H,2-3H2,1H3/t4-,5+,7-/m1/s1
