19
gdb 4596	2.4229971	0.7099917	0.5761117	2.7988	81.85	-0.24601	-0.02352	0.22249000000000002	1892.3698	0.153331	-422.53351	-422.522423	-422.521479	-422.572777	36.948	
C	 4.2812626417	-0.1963944899	 1.5553357286	-0.386288
C	 3.8911089021	 0.0744533767	 0.088106547	-0.156552
C	 4.5957465675	 1.3536786307	-0.4356308292	-0.269111
C	 4.3512351187	 1.6137375556	-1.906333759	 0.15351
O	 5.2230427418	 1.8179099015	-2.7122803379	-0.241886
C	 2.4369654715	 0.1589979329	-0.0551677319	 0.083254
C	 1.2388866909	 0.2480460648	-0.1568643024	 0.023447
C	-0.2210474239	 0.3208723681	-0.2341061371	-0.192322
O	-0.8415437908	 0.6034428105	 1.0122526454	-0.39982
H	 3.8080200486	-1.1125296214	 1.9176521003	 0.126871
H	 5.3660286471	-0.3060467177	 1.6457807111	 0.122115
H	 3.9619758892	 0.6298146525	 2.1974909185	 0.130275
H	 4.2471566992	-0.772715615	-0.5145813788	 0.117833
H	 4.2118519403	 2.2155164239	 0.1275833716	 0.12918
H	 5.6750524714	 1.2879786634	-0.272591158	 0.120932
H	 3.2803306408	 1.6057321097	-2.2063670614	 0.089406
H	-0.5223574828	 1.1325763324	-0.9055143944	 0.142058
H	-0.6084957862	-0.6122847893	-0.6734539264	 0.119701
H	-0.521863747	-0.0460512594	 1.647154494	 0.287398
11.3146	55.6181	61.9429	102.6219	117.1103	192.973	228.286	257.0168	291.9451	335.6576	361.0551	433.459	503.1288	550.7742	589.189	715.9271	795.3591	915.2071	961.5067	980.9008	996.2317	1042.4307	1078.3254	1096.3325	1124.4659	1179.3824	1212.8863	1220.4749	1289.6103	1334.5616	1354.0307	1361.7607	1407.7187	1417.8026	1427.2516	1456.7076	1491.6074	1492.2124	1498.9983	1831.7856	2354.5396	2896.5531	2977.1923	3006.885	3025.7726	3042.0421	3063.1352	3102.5352	3117.6012	3123.4621	3816.6464
CC(CC=O)C#CCO	C[C@H](CC=O)C#CCO	
InChI=1S/C7H10O2/c1-7(4-6-9)3-2-5-8/h6-8H,4-5H2,1H3	InChI=1S/C7H10O2/c1-7(4-6-9)3-2-5-8/h6-8H,4-5H2,1H3/t7-/m0/s1
