19
gdb 1945	3.0434945	1.5420361	1.411776	1.3598	74.02	-0.23821	0.08528	0.32349	1005.8965	0.156926	-422.518092	-422.510309	-422.509364	-422.549609	31.901	
C	-0.0005780256	-0.1593521212	-0.2228910633	-0.501273
C	 1.5004916737	-0.1781133013	-0.156915996	 0.422759
C	 2.4281498667	 0.426593673	-1.2405715061	-0.286658
C	 3.3143281445	 0.547187957	 0.0118768336	-0.02801
O	 2.0889410487	 0.8234023792	 0.7809191321	-0.347504
C	 3.6186327071	-0.8955777228	 0.4706886318	 0.453456
O	 4.4281799774	-1.0780566314	 1.5822464606	-0.468964
C	 3.3973129265	-2.0357410046	-0.4664951717	-0.358947
C	 2.218499918	-1.463782161	 0.310793547	-0.175087
H	-0.4305426517	-0.4490805752	 0.741668393	 0.128851
H	-0.3669349772	 0.838387732	-0.4784514929	 0.127285
H	-0.354030277	-0.8680868244	-0.9785447131	 0.126789
H	 2.743633476	-0.1627424431	-2.1017970235	 0.097673
H	 2.0657185835	 1.4065589257	-1.5523247193	 0.110487
H	 4.0982571897	 1.2936410854	 0.1381059757	 0.080838
H	 4.0268111926	-0.5811048138	 2.3058931093	 0.286819
H	 3.4884631022	-1.9309696316	-1.5413330042	 0.114726
H	 3.7508848014	-2.9907603451	-0.089250266	 0.124112
H	 1.7574402435	-2.0656772271	 1.0853061927	 0.092647
166.8409	199.992	260.0004	305.7167	353.1763	390.5532	427.1931	466.0318	512.8141	581.5979	618.4309	634.5439	718.0329	758.0429	815.2695	868.3513	877.3339	918.1006	939.8088	968.6901	972.2736	1006.84	1017.1288	1036.8443	1075.7064	1092.9839	1123.1424	1191.4283	1210.4918	1219.2306	1238.9239	1253.7766	1269.0903	1335.1698	1347.048	1411.7707	1418.1617	1478.7446	1486.2593	1492.4411	1514.2032	3038.6248	3085.1834	3107.6123	3120.096	3128.2168	3131.6902	3146.5492	3182.5942	3213.4055	3776.8089
CC12CC(O1)C1(O)CC21	C[C@@]12C[C@@H](O1)[C@]1(O)C[C@H]21	
InChI=1S/C7H10O2/c1-6-3-5(9-6)7(8)2-4(6)7/h4-5,8H,2-3H2,1H3	InChI=1S/C7H10O2/c1-6-3-5(9-6)7(8)2-4(6)7/h4-5,8H,2-3H2,1H3/t4-,5-,6+,7+/m1/s1
