19
gdb 4199	2.4318282	1.7371438	1.3777428	3.1502	74.12	-0.25244	0.07156	0.324	1015.8488	0.157183	-422.530854	-422.522903	-422.521959	-422.563013	30.97	
C	 3.0719174563	 1.3078168433	-0.1929846437	-0.392658
C	 1.997071724	 0.2128836045	-0.1652431305	-0.106436
C	 2.210883586	-0.8880309144	-1.246415869	-0.260484
C	 2.8790021217	-2.0403030666	-0.5166884732	 0.046411
O	 4.0167612952	-1.6451897301	 0.2581204325	-0.255029
C	 2.7631667582	-1.8425657371	 0.9334806843	-0.052436
C	 2.0087486196	-0.5675432481	 1.1634785872	 0.472483
C	 0.934589619	-0.4917141917	 2.163795135	-0.260737
O	 2.1947530754	 0.1463488527	 2.3852014295	-0.282838
H	 2.9348868523	 1.9969906566	 0.6443579612	 0.127788
H	 4.0699694468	 0.8708389857	-0.1176762588	 0.141879
H	 3.0100144126	 1.8790140609	-1.125034581	 0.10458
H	 1.0189123467	 0.6841340403	-0.302035961	 0.076777
H	 1.2541196255	-1.2359116595	-1.6530853571	 0.104022
H	 2.8122796733	-0.5286464813	-2.087441222	 0.113152
H	 2.9427524715	-3.0268529133	-0.969158583	 0.096765
H	 2.7405935816	-2.6463407652	 1.6642346989	 0.099499
H	 0.0925976539	 0.1773952005	 1.9894554833	 0.114324
H	 0.7219494505	-1.3428428171	 2.8108293573	 0.112938
100.8487	201.47	225.5454	246.4323	292.8528	355.2602	376.9142	461.5792	498.4782	569.3384	699.0725	762.0267	817.7201	857.0997	874.8231	894.9194	898.4278	942.8194	965.6225	984.0907	1018.4376	1049.0211	1092.0008	1111.939	1128.4658	1143.9891	1163.5659	1220.1063	1246.4377	1261.2886	1269.2897	1306.6778	1336.7224	1353.021	1400.324	1409.7531	1454.749	1481.3285	1493.487	1511.8371	1531.4365	3037.6085	3042.6459	3055.1249	3074.3591	3085.2597	3113.6437	3137.1595	3143.5122	3157.6808	3161.4731
CC1CC2OC2C11CO1	C[C@H]1C[C@H]2O[C@H]2[C@@]21CO2	
InChI=1S/C7H10O2/c1-4-2-5-6(9-5)7(4)3-8-7/h4-6H,2-3H2,1H3	InChI=1S/C7H10O2/c1-4-2-5-6(9-5)7(4)3-8-7/h4-6H,2-3H2,1H3/t4-,5+,6+,7-/m0/s1
