19
gdb 3839	2.8266648	1.3929632	1.0927097	2.9917	75.58	-0.24315	-0.02364	0.21951	1148.5118	0.15665	-422.580896	-422.572254	-422.571309	-422.614268	32.928	
C	-3.3041992459	 1.5922584442	 0.3266219129	-0.485685
C	-2.2466423504	 0.7518303203	-0.3478286528	 0.340455
C	-1.564648169	 1.2374298654	-1.5876891053	-0.314339
C	-0.7652194656	 1.1171222067	-0.2916908038	-0.199593
C	 0.0112277837	-0.1496251166	-0.1778302704	 0.358846
O	 1.2027037339	-0.3224681754	-0.2893583132	-0.345469
C	-0.9636864506	-1.2942235223	 0.1263450346	 0.074217
O	-0.5843373647	-2.4987767655	-0.4841279155	-0.438241
C	-2.3628048326	-0.7847432051	-0.264780426	-0.331079
H	-3.379322836	 1.3547055093	 1.3936798252	 0.12184
H	-3.0822034644	 2.6602513468	 0.2352822736	 0.11869
H	-4.2886609474	 1.4181747701	-0.122457408	 0.125892
H	-1.3633295374	 0.5393565051	-2.3946598835	 0.127306
H	-1.7542847531	 2.254145318	-1.9155173702	 0.122838
H	-0.377523688	 2.0258624418	 0.1533708086	 0.109504
H	-0.9300190099	-1.3837732981	 1.2300590426	 0.093075
H	 0.3812220673	-2.4615153727	-0.5502976097	 0.291174
H	-2.6573367393	-1.2213348625	-1.2239416756	 0.121129
H	-3.1124530706	-1.0777843197	 0.4737981265	 0.10944
49.7764	133.2408	225.3272	244.6496	292.6321	333.1283	384.7852	402.424	428.1726	479.8005	552.5943	592.908	658.5456	729.1339	803.3572	851.5126	900.5236	927.644	946.95	991.8101	1026.7754	1045.7935	1058.6926	1073.0053	1101.1031	1147.2073	1170.9803	1188.7791	1247.2849	1261.0969	1288.2835	1298.3949	1362.2258	1398.1895	1416.2997	1423.5911	1486.8347	1488.9793	1499.8986	1507.9874	1824.3714	2908.4966	3026.0323	3059.0228	3087.8262	3100.625	3106.2687	3123.2098	3184.4448	3210.2281	3729.5496
CC12CC1C(=O)C(O)C2	C[C@@]12C[C@@H]1C(=O)[C@H](O)C2	
InChI=1S/C7H10O2/c1-7-2-4(7)6(9)5(8)3-7/h4-5,8H,2-3H2,1H3	InChI=1S/C7H10O2/c1-7-2-4(7)6(9)5(8)3-7/h4-5,8H,2-3H2,1H3/t4-,5-,7+/m1/s1
