19
gdb 2406	3.0274357	1.4434048	1.1753793	2.929	75.63	-0.23828	-0.03536	0.20292	1087.578	0.156672	-422.546016	-422.537754	-422.536809	-422.579088	31.551	
O	-0.9679877729	-1.3360113064	 0.6328952071	-0.478736
C	-0.5179191443	-1.4829315218	-0.6673515574	 0.428623
C	-1.0708815497	-2.7585489279	-1.351559077	-0.272406
C	-1.6423977101	-1.9055061344	-2.5246832242	-0.219566
C	-0.9779154157	-0.6405452194	-1.9380862458	-0.087658
C	 0.5133908075	-0.4730178171	-2.3335271382	-0.251485
C	 0.9709404599	-1.1750881344	-0.9938216128	-0.18409
C	 1.6499401561	-0.170679789	-0.1126669636	 0.149588
O	 1.1284175583	 0.4404488859	 0.7955443036	-0.272373
H	-0.5133832251	-0.5632019997	 1.003580631	 0.292773
H	-0.3210111759	-3.5084899168	-1.6194206393	 0.093061
H	-1.8333526336	-3.2346375441	-0.7324784671	 0.119488
H	-1.3263794878	-2.1856098622	-3.5337824646	 0.093886
H	-2.7336472024	-1.8566865603	-2.510726908	 0.107923
H	-1.5653418086	 0.2757155562	-1.8762787928	 0.073061
H	 0.8180358696	-1.0064320553	-3.2369202172	 0.110407
H	 0.8450079521	 0.5648144523	-2.4213168965	 0.113872
H	 1.638881682	-2.0346003845	-1.1250859331	 0.089015
H	 2.7099792105	 0.0364607288	-0.3810099942	 0.094617
60.7461	109.0994	199.5634	239.2635	316.2002	342.898	401.7144	416.7023	585.8925	622.2026	637.5165	743.6786	750.1871	792.8203	841.0959	877.0111	888.0664	908.4378	950.5902	979.2688	1022.5547	1033.9279	1043.2164	1098.4994	1116.5411	1137.3499	1178.2952	1206.3374	1217.9337	1247.9059	1260.0658	1282.7229	1304.1962	1316.7679	1328.6236	1425.1514	1437.2404	1470.8153	1481.5827	1498.29	1790.7721	2884.6228	3039.498	3053.3454	3059.0322	3060.3678	3100.0019	3106.1847	3116.1431	3126.8218	3682.0874
OC12CCC1CC2C=O	O[C@@]12CC[C@@H]1C[C@H]2C=O	
InChI=1S/C7H10O2/c8-4-6-3-5-1-2-7(5,6)9/h4-6,9H,1-3H2	InChI=1S/C7H10O2/c8-4-6-3-5-1-2-7(5,6)9/h4-6,9H,1-3H2/t5-,6+,7+/m1/s1
