19
gdb 3623	2.1539066	1.5508284	1.2442602	3.3767	75.71	-0.25113	-0.02433	0.22680000000000003	1108.0282	0.154858	-422.533695	-422.524599	-422.523655	-422.568071	32.942	
C	 1.973375947	-0.98898713	-0.7699140836	-0.396674
C	 1.335865258	 0.0073961375	 0.1951816168	-0.088049
C	 1.7617199618	-0.142918866	 1.693596505	-0.250718
C	 2.6019174617	 1.1587117287	 1.6051392626	-0.213648
C	 4.1021271899	 0.9709872681	 1.5583492782	 0.163493
O	 4.6652727011	-0.0912847242	 1.6385536142	-0.242788
C	 1.9892938892	 1.3978589177	 0.2034554236	 0.447046
C	 1.538013609	 2.6521922266	-0.3975767791	-0.262165
O	 2.6987304728	 1.961470803	-0.8860382023	-0.264403
H	 1.5369059854	-1.9836489465	-0.6339553467	 0.115109
H	 1.8175822163	-0.683283368	-1.8088048747	 0.123567
H	 3.0512249949	-1.0675139842	-0.5998640808	 0.139675
H	 0.2527921429	 0.0407125586	 0.0409770498	 0.075753
H	 0.9327895672	-0.0746426166	 2.3995529962	 0.104132
H	 2.3604775036	-1.0281311806	 1.914082183	 0.129824
H	 2.37874066	 1.9500911853	 2.3293496269	 0.093459
H	 4.676446707	 1.9129726495	 1.4226887196	 0.089845
H	 0.6802464275	 2.64952829	-1.0692930118	 0.120259
H	 1.7350201047	 3.6003732912	 0.1019266031	 0.116284
53.7822	70.8537	188.1811	201.8463	216.563	227.6754	301.0236	355.443	456.6998	497.1167	543.3596	663.4868	749.2733	814.7948	854.9782	870.8623	881.3217	935.3028	946.2068	973.3667	1049.1148	1061.1065	1101.7566	1117.9003	1123.6782	1160.9081	1169.9019	1184.4826	1209.3402	1252.0951	1277.1726	1321.6606	1344.1965	1408.2884	1421.0332	1422.5592	1482.1274	1492.8776	1499.929	1530.506	1821.0305	2897.59	3038.4731	3049.2974	3051.8769	3077.4518	3082.2639	3108.6097	3117.4267	3140.4423	3164.6949
CC1CC(C=O)C11CO1	C[C@H]1C[C@@H](C=O)[C@@]21CO2	
InChI=1S/C7H10O2/c1-5-2-6(3-8)7(5)4-9-7/h3,5-6H,2,4H2,1H3	InChI=1S/C7H10O2/c1-5-2-6(3-8)7(5)4-9-7/h3,5-6H,2,4H2,1H3/t5-,6-,7-/m0/s1
