19
gdb 3373	2.4642857	1.6953523	1.1695439	3.247	75.28	-0.24138	0.05357	0.29495	1088.3033	0.156458	-422.49462	-422.486448	-422.485504	-422.527483	30.93	
C	 1.2592473135	-0.3367093035	-1.3196214217	-0.421417
C	 1.3083340908	 0.2371748472	 0.0905432152	-0.085544
C	 2.355323554	 1.3695911815	 0.3591705606	-0.093079
C	 1.9265457464	 2.373747897	 1.4366696513	-0.083402
O	 2.327874446	 1.4752407493	 2.4988937938	-0.287283
C	 2.9278365746	 0.5553915795	 1.5629510446	-0.004822
C	 2.017861962	-0.6041569791	 1.1730907088	 0.46164
C	 2.3545391903	-2.0317987344	 1.1508561888	-0.266069
O	 1.398558647	-1.4945635347	 2.0736832497	-0.262117
H	 0.6077650835	-1.2158166671	-1.3653063891	 0.124602
H	 0.8698389845	 0.4013882962	-2.0288902365	 0.119221
H	 2.2551893952	-0.6384463595	-1.6619930902	 0.115361
H	 0.303507707	 0.5338304083	 0.4106428477	 0.09104
H	 2.9460822706	 1.7123661862	-0.4887217196	 0.079124
H	 2.5155805831	 3.300029133	 1.459418005	 0.100382
H	 0.8595658126	 2.6245162136	 1.4822211925	 0.104644
H	 3.9812307792	 0.3614776379	 1.7852365696	 0.075584
H	 1.9440792942	-2.6733405118	 0.3726166131	 0.115678
H	 3.2892672256	-2.3751305594	 1.5930942765	 0.116457
62.5073	183.2947	221.7968	236.0203	246.0067	291.3861	349.7858	430.5094	522.0893	604.2476	763.4906	788.5663	818.6081	870.1166	882.059	909.1604	946.5316	972.2771	985.4552	1013.4106	1045.7823	1075.179	1109.8648	1124.7948	1138.8332	1149.1454	1158.3102	1171.4241	1206.2934	1222.0878	1256.1344	1282.3498	1286.7868	1354.4096	1362.4807	1405.3932	1433.4343	1495.6949	1498.1232	1520.6189	1530.8776	3006.4462	3027.8961	3045.3636	3053.9452	3065.9136	3080.0255	3097.5011	3098.5088	3126.5862	3167.3543
CC1C2COC2C11CO1	C[C@@H]1[C@H]2CO[C@H]2[C@@]21CO2	
InChI=1S/C7H10O2/c1-4-5-2-8-6(5)7(4)3-9-7/h4-6H,2-3H2,1H3	InChI=1S/C7H10O2/c1-4-5-2-8-6(5)7(4)3-9-7/h4-6H,2-3H2,1H3/t4-,5-,6-,7+/m1/s1
