19
gdb 558	3.9305829	1.2489073	1.127	1.5454	74.75	-0.23585	0.07298	0.30883	1117.6632	0.158275	-422.507198	-422.499485	-422.498541	-422.54004	29.213	
C	-1.5789981864	 2.1068156014	 1.7928746772	-0.097209
O	-1.9402079899	 0.7306681333	 1.4848883724	-0.28438
C	-0.5619841839	 0.3577215864	 1.4961419895	 0.039432
C	-0.0904388559	 1.7812735227	 1.7168560857	-0.223734
C	 0.2107041117	 1.0663846287	 0.4200597873	 0.292912
C	-0.3653989776	 1.3588197163	-0.95449797	-0.31609
C	 0.4303131131	 0.3636459125	-1.8044450119	-0.070843
O	 1.7343679118	 0.3207475708	-1.228325218	-0.260647
C	 1.6489474757	 0.6123974831	 0.1629529363	-0.130843
H	-1.9872530784	 2.8188506585	 1.0664910257	 0.109193
H	-1.916744322	 2.3694383968	 2.8011829763	 0.113397
H	-0.2914794212	-0.5926439912	 1.9445487224	 0.106156
H	 0.6809163894	 2.1799053019	 2.3638571083	 0.099098
H	-1.4440121899	 1.1936477533	-0.9930170484	 0.1223
H	-0.1517846625	 2.3880096547	-1.2650338713	 0.103838
H	-0.0391497372	-0.6322963182	-1.7736372083	 0.093944
H	 0.5382245615	 0.659789134	-2.8516683827	 0.106597
H	 1.9141679594	-0.2733599176	 0.7602191082	 0.095996
H	 2.3788760122	 1.4002017824	 0.3933400115	 0.100883
44.6279	165.0756	181.3899	223.043	306.2326	383.0434	471.1522	554.4243	673.0372	750.3247	791.8303	830.2808	873.2199	894.2101	931.969	948.8948	963.8167	972.6061	994.0545	1024.1479	1036.1021	1078.8061	1088.5444	1094.3495	1140.2752	1156.3672	1161.8283	1203.5675	1234.6159	1240.536	1245.3995	1268.7636	1313.725	1334.8201	1363.4612	1397.093	1434.0169	1484.4402	1514.5273	1517.608	1530.4845	2977.384	2984.8539	3019.2821	3028.6358	3041.1067	3078.4866	3085.9184	3115.9935	3165.8717	3189.6212
C1OC2C1C21CCOC1	C1O[C@@H]2[C@H]1[C@@]12CCOC1	
InChI=1S/C7H10O2/c1-2-8-4-7(1)5-3-9-6(5)7/h5-6H,1-4H2	InChI=1S/C7H10O2/c1-2-8-4-7(1)5-3-9-6(5)7/h5-6H,1-4H2/t5-,6+,7+/m0/s1
