19
gdb 1102	2.6388201	1.4312356	1.1564104	3.4477	76.41	-0.23548	-0.0114	0.22408	1125.8882	0.15555	-422.534368	-422.525559	-422.524615	-422.568045	33.182	
C	-2.0507744206	-3.1010895576	-2.2103471456	-0.484717
C	-1.0133411855	-2.2728659826	-2.9485252026	 0.351836
O	-0.5763286526	-2.6002274293	-4.0307049619	-0.307435
C	-0.5956520821	-1.0051323631	-2.2430533629	-0.132614
C	 0.2598333959	 0.0747345239	-2.9570433829	-0.062736
C	-0.2626640007	 1.1036460761	-1.9093240751	-0.294886
C	-1.5037953135	 0.2915718335	-2.384073633	 0.379766
O	-2.8288578052	 0.4310203928	-2.0245540522	-0.463561
C	-0.9824511659	 0.4423542766	-3.8295783234	-0.259953
H	-1.6617453725	-3.4319167049	-1.2404472191	 0.132469
H	-2.9313727507	-2.4797629017	-2.007685498	 0.146765
H	-2.3325766626	-3.9693191313	-2.8071049234	 0.139374
H	-0.3177823623	-1.221634046	-1.203831658	 0.070516
H	 1.2832989321	-0.0435521178	-3.2996209073	 0.093715
H	 0.0592744972	 0.9618693743	-0.8730143439	 0.086499
H	-0.2335015009	 2.1548237536	-2.206882827	 0.098994
H	-2.8844718678	 0.4814582451	-1.0638615918	 0.286335
H	-1.3012603297	-0.2946862462	-4.5641125569	 0.125931
H	-1.0014623624	 1.4580528945	-4.2321551552	 0.093702
54.1392	122.8147	154.0824	200.426	278.7396	337.8769	356.1869	377.9868	466.491	545.4908	576.4178	633.8494	662.9563	765.5215	802.9726	846.4318	922.5851	939.7446	947.8372	950.868	994.1535	1012.828	1050.6428	1073.5213	1099.3744	1110.9808	1122.3919	1153.7631	1193.9155	1207.5004	1213.7498	1231.8731	1284.7641	1363.7107	1375.1654	1398.7812	1467.3767	1476.0687	1499.0866	1544.2278	1796.9906	3026.3206	3033.1546	3046.0363	3074.4385	3092.4006	3116.5969	3151.1823	3162.6673	3167.1276	3806.1909
CC(=O)C1C2CC1(O)C2	CC(=O)[C@H]1[C@@H]2C[C@@]1(O)C2	
InChI=1S/C7H10O2/c1-4(8)6-5-2-7(6,9)3-5/h5-6,9H,2-3H2,1H3	InChI=1S/C7H10O2/c1-4(8)6-5-2-7(6,9)3-5/h5-6,9H,2-3H2,1H3/t5-,6-,7-/m0/s1
