19
gdb 1143	2.2211918	1.618893	1.0801857	2.5187	77.97	-0.22368	-0.01892	0.20476	1160.9034	0.154727	-422.583651	-422.574113	-422.573168	-422.618629	33.833	
C	-4.0702308459	-1.3417915643	-0.086481513	-0.472748
C	-3.4912719996	-0.2275560917	 0.7549044303	 0.352417
O	-3.8426377105	 0.0009409933	 1.889899603	-0.306264
C	-2.4221110353	 0.6683161638	 0.0996612362	-0.057162
O	-1.9004693225	 0.0992013708	-1.0921944189	-0.272771
C	-2.1420088592	 0.9652076909	-2.2045358769	-0.120024
C	-2.8507822872	 2.150785057	-1.6217741256	-0.208937
C	-3.0077229797	 2.0106689481	-0.3071779239	 0.304643
C	-3.6094449569	 2.952173089	 0.6832249871	-0.491494
H	-4.8290311721	-1.8758497459	 0.4863643978	 0.13492
H	-4.5097189743	-0.9314186368	-1.0023575703	 0.141527
H	-3.2756265456	-2.0225772468	-0.405306411	 0.155276
H	-1.6216175325	 0.7908388869	 0.8463105796	 0.107461
H	-1.1841053476	 1.233900397	-2.6759109505	 0.110593
H	-2.7380375406	 0.4353709594	-2.9639521849	 0.105972
H	-3.1578627771	 3.0049986374	-2.2125968253	 0.104614
H	-2.8542394419	 3.2942857823	 1.4016604662	 0.13515
H	-4.0329551602	 3.8293604164	 0.1878463175	 0.122624
H	-4.3908227213	 2.462412183	 1.2725190527	 0.154203
49.5396	77.351	152.95	157.2951	169.3672	242.8431	268.1379	325.2328	430.5727	453.2262	507.5726	611.2646	619.7947	771.6618	778.9362	820.1038	915.1985	943.2679	971.732	996.9333	1025.0174	1038.1912	1049.3841	1079.0808	1112.9646	1191.6581	1202.141	1230.996	1258.3082	1299.7813	1326.6632	1377.3941	1383.0582	1420.6168	1454.308	1466.6028	1474.4019	1487.3964	1524.3576	1729.201	1805.621	2976.8904	2983.1214	2995.396	3031.4869	3045.4716	3088.7072	3109.863	3123.6958	3157.067	3211.749
CC(=O)C1OCC=C1C	CC(=O)[C@H]1OCC=C1C	
InChI=1S/C7H10O2/c1-5-3-4-9-7(5)6(2)8/h3,7H,4H2,1-2H3	InChI=1S/C7H10O2/c1-5-3-4-9-7(5)6(2)8/h3,7H,4H2,1-2H3/t7-/m0/s1
