19
gdb 5421	1.5936281	1.5472355	0.9081575	0.3831	78.05	-0.25658	0.01621	0.27279	1333.169	0.154114	-422.503731	-422.493724	-422.49278	-422.539368	35.762	
C	-3.0917741612	 0.3042603336	 2.3661579955	-0.404279
C	-1.9733880271	-0.6594355972	 2.0306614486	 0.14623
O	-1.5786773108	-1.4698237018	 3.1696319642	-0.304608
C	-0.1836079806	-1.127205524	 2.9975185908	-0.056938
C	 0.4581175432	-0.6323132851	 4.2024694317	 0.313867
C	 1.0077302577	-0.2108891733	 5.1851418072	-0.433395
C	-0.5382359054	-0.1051439792	 1.8770235401	-0.098632
C	 0.1606074039	-0.2706799191	 0.5377700164	-0.087069
O	 1.4967858116	 0.2016177968	 0.5522781597	-0.416535
H	-2.8027835396	 0.9580941435	 3.1940689258	 0.127869
H	-3.3362704292	 0.923447715	 1.4958411267	 0.118361
H	-3.9926307019	-0.2445126644	 2.6578676413	 0.130699
H	-2.2674655398	-1.3082026857	 1.1918749798	 0.072911
H	 0.3770565383	-1.9939586787	 2.6127161376	 0.093784
H	 1.4873803921	 0.1583911521	 6.0579728924	 0.203443
H	-0.4445746706	 0.9277813696	 2.219912261	 0.100006
H	 0.1073102702	-1.3248706568	 0.2178440391	 0.090324
H	-0.3563260151	 0.3226492139	-0.224924031	 0.115274
H	 1.9863333843	-0.3015311688	 1.2113168431	 0.288686
37.7197	86.9712	120.8498	181.4709	203.1381	232.0951	274.012	291.7348	346.1138	446.2029	471.5721	495.3989	526.3534	619.4765	673.64	711.9789	847.7678	880.4162	916.6932	980.9781	1030.5589	1050.6667	1057.4214	1090.6714	1113.1342	1132.9831	1141.6068	1189.7193	1243.3972	1255.8053	1302.5918	1340.0203	1356.5212	1387.5223	1404.0016	1414.5554	1427.7005	1481.6684	1495.2425	1504.6106	2234.484	2963.3103	2969.0264	2989.043	3035.0384	3063.1663	3092.2829	3106.3689	3118.7293	3501.2363	3812.7777
CC1OC(C#C)C1CO	C[C@@H]1O[C@H](C#C)[C@H]1CO	
InChI=1S/C7H10O2/c1-3-7-6(4-8)5(2)9-7/h1,5-8H,4H2,2H3	InChI=1S/C7H10O2/c1-3-7-6(4-8)5(2)9-7/h1,5-8H,4H2,2H3/t5-,6-,7+/m0/s1
