19
gdb 695	3.4182288	1.0999518	0.8976194	2.4478	77.05	-0.22862	-0.02561	0.20301	1321.8136	0.155405	-422.528022	-422.519222	-422.518277	-422.562253	32.383	
O	 0.7696084011	 1.0891117145	 0.0194485251	-0.294068
C	-0.240757547	 0.4571696984	 0.1292409334	 0.37
C	-0.5536824651	-1.0376522763	 0.328100132	-0.33727
C	-1.9284860307	-0.7623487498	-0.3500748665	-0.271243
C	-1.7418471861	 0.7651268901	-0.1260537715	 0.055909
O	-2.0951462945	 1.593923845	-1.1936566972	-0.253188
C	-2.3038324985	 2.9376525802	-0.8503318787	 0.118589
C	-1.8799937228	 3.9493596399	-1.8644063302	-0.283842
C	-1.1233662115	 3.8242529047	-0.5571882131	-0.294811
H	 0.1317745299	-1.7368785617	-0.154212686	 0.135008
H	-0.6363733418	-1.2992512194	 1.3876778259	 0.132848
H	-1.9081053537	-0.9880238689	-1.4182328613	 0.130958
H	-2.8106283999	-1.2144154903	 0.1029963544	 0.112656
H	-2.2172470066	 1.0834258235	 0.814950134	 0.091958
H	-3.228389021	 3.1042716181	-0.2967410826	 0.084688
H	-1.3971656011	 3.5611256268	-2.7536715921	 0.1277
H	-2.5133549616	 4.8137526627	-2.0284057497	 0.112521
H	-0.1476688813	 3.3534270687	-0.583002425	 0.151983
H	-1.2425256177	 4.6028582638	 0.1886959989	 0.109606
58.7606	92.4592	106.7413	184.3941	213.58	332.7535	369.6076	450.256	469.2771	579.5191	684.1697	720.0445	762.5997	771.359	823.9864	839.3005	911.2964	930.9024	984.2444	990.5746	1011.3563	1060.6547	1066.1023	1080.1624	1095.9438	1124.6189	1153.4109	1187.2226	1194.7796	1205.105	1226.3239	1244.2704	1247.3057	1257.1184	1357.6323	1409.6419	1447.2404	1458.9729	1488.1057	1499.6319	1884.8461	2984.9859	3064.9142	3085.5767	3094.9581	3125.3544	3137.5381	3142.9086	3148.0696	3225.9114	3238.9529
O=C1CCC1OC1CC1	O=C1CC[C@@H]1OC1CC1	
InChI=1S/C7H10O2/c8-6-3-4-7(6)9-5-1-2-5/h5,7H,1-4H2	InChI=1S/C7H10O2/c8-6-3-4-7(6)9-5-1-2-5/h5,7H,1-4H2/t7-/m0/s1
