19
gdb 3559	2.7199289	1.4075734	0.9658141	4.9398	78.6	-0.25991	-0.04423	0.21567999999999998	1219.8721	0.156781	-422.610978	-422.602172	-422.601228	-422.644353	32.922	
C	-2.7178494949	-2.5104949862	 0.0691390401	-0.406687
C	-2.1667362082	-1.1370699068	-0.2812825547	 0.132004
O	-0.7798962067	-1.1615459933	 0.1256473933	-0.256864
C	-0.0398395613	-0.0238710873	 0.0558955391	 0.411959
O	 1.1597622316	-0.0854103147	 0.1405352811	-0.339781
C	-0.7891987657	 1.2478098962	-0.0464528302	-0.217259
C	-2.1079435827	 1.2933581999	 0.1468815504	-0.048793
C	-2.9196626526	 0.0408667744	 0.3541918617	-0.056648
C	-4.3397257691	 0.1947944637	-0.2118907189	-0.410151
H	-2.7350366818	-2.653927161	 1.1538875208	 0.128486
H	-3.7316541904	-2.6367397228	-0.3188479935	 0.122406
H	-2.0830374843	-3.2850886953	-0.3676492742	 0.138207
H	-2.1856443481	-0.9990126918	-1.3728930011	 0.088145
H	-0.1796366436	 2.1318205838	-0.1900392813	 0.122198
H	-2.6320085091	 2.2465357929	 0.1654642551	 0.109557
H	-2.9979011736	-0.1427652902	 1.4373975973	 0.104165
H	-4.8281359217	 1.0748648229	 0.2175651998	 0.124159
H	-4.3181402087	 0.3227433572	-1.2996991627	 0.127077
H	-4.961686509	-0.6739165315	 0.016904468	 0.12782
78.7839	134.2994	203.2518	215.249	256.2274	296.1608	321.7983	397.1742	436.0453	474.207	490.7428	594.5386	691.2899	746.1184	805.804	848.1332	864.1491	921.8794	972.3745	997.2672	1011.3484	1066.9128	1101.5788	1127.9049	1138.3537	1149.6264	1207.887	1253.4871	1301.0241	1317.9598	1374.677	1391.8398	1398.8107	1411.5391	1417.9259	1486.663	1495.3049	1499.4663	1505.2179	1693.6927	1825.4949	2981.1668	2998.5388	3038.5788	3049.8395	3104.5813	3120.9362	3125.1057	3133.8077	3151.8878	3211.9594
CC1OC(=O)C=CC1C	C[C@@H]1OC(=O)C=C[C@H]1C	
InChI=1S/C7H10O2/c1-5-3-4-7(8)9-6(5)2/h3-6H,1-2H3	InChI=1S/C7H10O2/c1-5-3-4-7(8)9-6(5)2/h3-6H,1-2H3/t5-,6+/m1/s1
