19
gdb 816	2.5086763	1.6141589	1.5049044	2.6495	74.45	-0.23787	-0.021	0.21687	991.5039	0.158501	-422.550971	-422.543225	-422.542281	-422.583381	29.654	
O	 0.0007638467	-0.9458750017	-0.2411502104	-0.251063
C	 0.8013347018	-0.1695682792	 0.219088462	 0.144072
C	 0.5097570055	 1.2198315959	 0.7059780847	-0.093673
C	-0.8222539993	 1.9821662403	 0.4349236282	-0.051055
C	 0.0233617926	 3.2906578326	 0.4955842588	-0.260835
C	 1.1961009374	 2.4198081421	-0.0311987312	 0.110836
O	 1.1482320072	 2.209980624	-1.4303655653	-0.274493
C	-0.1728447113	 2.2653094891	-1.9845224683	-0.072933
C	-1.2693857457	 1.7549594954	-1.0197870399	-0.238767
H	 1.873344716	-0.4597516271	 0.325475412	 0.075857
H	 0.7784446297	 1.2597261656	 1.7702098406	 0.095823
H	-1.6398468975	 1.8478597995	 1.144998035	 0.072524
H	-0.2907273402	 4.1471926932	-0.1046212048	 0.105347
H	 0.212896772	 3.6159328536	 1.5212274043	 0.104136
H	 2.2268089718	 2.6818681961	 0.2151817725	 0.081007
H	-0.3867738839	 3.3027891061	-2.2751848537	 0.098721
H	-0.1385828128	 1.6715863967	-2.901468734	 0.116176
H	-2.1936393995	 2.3098641836	-1.2166846991	 0.096314
H	-1.4741276103	 0.6949714641	-1.1758750413	 0.142005
72.6188	152.527	192.6934	240.2105	311.7149	409.6097	468.5947	510.9894	570.2655	705.8331	737.1332	816.8834	824.676	835.0065	893.2019	909.022	938.0463	966.1903	997.7271	1019.4855	1055.6399	1073.0496	1095.8797	1117.6215	1144.5278	1186.786	1208.2248	1232.1316	1244.2843	1274.5879	1283.0707	1326.0949	1350.9705	1366.9691	1376.2997	1413.9011	1427.4792	1488.9922	1496.6829	1525.0215	1819.5452	2852.3812	3003.815	3026.1065	3046.2187	3067.7979	3089.6558	3092.5754	3095.5514	3123.9779	3126.5196
O=CC1C2CC1OCC2	O=C[C@@H]1[C@H]2C[C@@H]1OCC2	
InChI=1S/C7H10O2/c8-4-6-5-1-2-9-7(6)3-5/h4-7H,1-3H2	InChI=1S/C7H10O2/c8-4-6-5-1-2-9-7(6)3-5/h4-7H,1-3H2/t5-,6-,7+/m1/s1
