19
gdb 1352	2.2870798	1.0601723	0.9629746	2.5378	77.52	-0.25298	-0.02916	0.22382	1336.4421	0.152423	-422.537411	-422.52668	-422.525736	-422.573916	37.725	
C	 4.6962941331	 0.4995236302	-1.414212966	-0.414622
C	 3.1741910824	 0.622711188	-1.2746800773	 0.018258
C	 2.6958612208	-0.1724189682	-0.03375476	-0.380251
C	 1.2679800942	-0.0593164441	 0.2398537579	 0.279693
C	 0.0911740297	 0.0645868883	 0.4566461517	-0.434651
C	 2.7168852684	 2.0912128764	-1.1907617162	 0.002615
O	 3.2595640093	 2.7845497071	-0.0746626811	-0.436942
C	 3.071329615	 2.8951838103	-2.4339384213	 0.157497
O	 3.0645090432	 2.4531617745	-3.5535481092	-0.252194
H	 5.1996433793	 1.013192027	-0.5892988395	 0.129831
H	 5.0045551797	-0.5506263965	-1.4031162067	 0.11194
H	 5.0398237117	 0.9374279836	-2.3543630335	 0.134663
H	 2.6930137504	 0.2048013083	-2.1656686128	 0.106929
H	 2.9608509277	-1.2278271317	-0.1685928022	 0.137142
H	 3.2611419088	 0.1709165368	 0.8425599384	 0.13197
H	-0.9491665122	 0.1503922165	 0.6522628943	 0.20013
H	 1.6156199506	 2.1019761644	-1.1464532088	 0.115593
H	 2.6759511377	 2.6472127041	 0.6767828978	 0.299754
H	 3.3174441401	 3.957292085	-2.2124366056	 0.092645
31.6908	83.5325	110.9414	135.5741	190.9094	217.2836	252.9597	271.9403	309.2917	349.5378	365.0072	433.3353	526.256	590.2852	625.7419	633.0684	644.0547	739.6503	892.3163	913.7225	944.9373	993.959	1011.3388	1040.9893	1113.6418	1122.9776	1156.7152	1227.23	1237.7626	1294.0365	1314.6749	1345.2134	1368.1386	1384.8069	1406.6301	1429.5861	1473.1633	1498.1681	1508.8901	1832.816	2231.564	2897.3554	2980.7301	3022.6062	3042.6335	3052.4828	3066.2781	3109.8097	3127.0145	3503.8036	3840.061
CC(CC#C)C(O)C=O	C[C@@H](CC#C)[C@@H](O)C=O	
InChI=1S/C7H10O2/c1-3-4-6(2)7(9)5-8/h1,5-7,9H,4H2,2H3	InChI=1S/C7H10O2/c1-3-4-6(2)7(9)5-8/h1,5-7,9H,4H2,2H3/t6-,7-/m0/s1
