19
gdb 3402	3.1435944	1.3974456	1.1592131	0.887	74.28	-0.23101	0.08077	0.31178	1093.3872	0.15859	-422.524024	-422.516333	-422.515389	-422.555764	30.784	
O	 0.3984654906	-0.0987509304	 0.3548704447	-0.430967
C	-0.7419250457	 0.6576962955	 0.6438930618	 0.083566
C	-2.1032050751	 0.0592765436	 0.395524233	-0.104153
C	-3.2964006093	 0.4145827404	 1.2633197489	-0.117547
O	-3.3304112835	 1.7791820474	 1.6432416315	-0.257094
C	-3.1568764087	 2.715018645	 0.6131150966	 0.133381
C	-3.6907604614	 2.5532480668	-0.7841871398	-0.34527
C	-2.1889325113	 2.4670420912	-0.5100259836	-0.082266
C	-1.5452253702	 1.1172411749	-0.5425202293	-0.069307
H	 0.5176395548	-0.7396437932	 1.063709104	 0.284858
H	-0.6454814192	 1.3567989748	 1.4744137633	 0.096897
H	-2.1028334	-0.9606683348	 0.0210504389	 0.088756
H	-4.2271498324	 0.1389808358	 0.7417526435	 0.09581
H	-3.2757474934	-0.143499289	 2.2058726436	 0.108112
H	-3.1973939765	 3.7076610938	 1.0478082338	 0.101119
H	-4.1885052364	 1.6308657479	-1.0596732265	 0.119703
H	-4.0859591078	 3.436049455	-1.2749283966	 0.111663
H	-1.5685623691	 3.2985489001	-0.8332196237	 0.088248
H	-1.1843081358	 0.7657190753	-1.5050372542	 0.094493
151.962	190.7397	267.4039	298.6809	310.6708	368.8001	388.285	428.7418	561.1098	596.9915	724.6809	753.5243	787.9447	818.1231	849.2437	873.3258	933.209	964.3627	1010.8237	1028.3196	1054.1807	1077.9643	1095.4867	1102.3799	1115.4545	1120.4158	1139.3808	1165.5184	1179.162	1196.7542	1244.19	1289.016	1291.1211	1328.4586	1335.6625	1385.4671	1395.3547	1425.8194	1479.4412	1490.9976	1511.0617	2973.0357	3059.0241	3106.8169	3135.919	3139.308	3144.6833	3154.2744	3171.9919	3225.7046	3803.307
OC1C2COC3CC3C12	O[C@@H]1[C@H]2CO[C@@H]3C[C@@H]3[C@@H]12	
InChI=1S/C7H10O2/c8-7-4-2-9-5-1-3(5)6(4)7/h3-8H,1-2H2	InChI=1S/C7H10O2/c8-7-4-2-9-5-1-3(5)6(4)7/h3-8H,1-2H2/t3-,4-,5+,6+,7+/m0/s1
