19
gdb 3097	2.8934258	1.6408707	1.2184197	1.8665	75.62	-0.23351	0.07401	0.30752	1045.5834	0.157543	-422.493029	-422.485208	-422.484264	-422.525205	30.636	
O	-0.1764681038	 0.1291693521	 0.6702314622	-0.440426
C	-1.5012169731	-0.3441254092	 0.6862110385	 0.147071
C	-1.8380703587	-1.4462313101	-0.3435715557	-0.16066
C	-3.072312422	-1.7663789289	 0.5564978473	-0.24887
C	-1.8919063564	-1.5811574546	 1.5575583515	-0.192803
C	-1.0529846306	-2.432333194	 0.567002817	 0.552627
C	 0.4629455865	-2.6781942797	 0.588692045	-0.364244
C	 0.0815773763	-4.1629797023	 0.4578028677	-0.09549
O	-1.3261637289	-3.8382725958	 0.4596329905	-0.336901
H	-0.0520831231	 0.6984750484	 1.4357364043	 0.284423
H	-2.224011581	 0.4810638544	 0.7235145749	 0.068167
H	-1.8044836268	-1.366610957	-1.4305154561	 0.073776
H	-3.8607797858	-1.0095357844	 0.5859956404	 0.088558
H	-3.4729563121	-2.774501338	 0.4734154834	 0.128832
H	-1.9216485448	-1.6557790399	 2.6459377731	 0.06669
H	 1.0121638241	-2.2471767489	-0.2481421221	 0.12037
H	 0.9596566119	-2.3978860949	 1.5182055536	 0.10761
H	 0.3817515774	-4.6557905569	-0.474575871	 0.10117
H	 0.349029381	-4.8073542303	 1.3035524654	 0.1001
90.1839	191.3092	198.7824	258.1521	334.7427	376.1675	389.4157	468.9945	561.0438	648.5644	763.4427	788.5001	817.5959	872.9818	879.7098	894.4334	902.7504	974.9785	1007.8703	1016.3684	1029.8497	1068.5377	1072.4037	1093.5358	1114.2749	1147.2595	1150.6552	1167.552	1195.5328	1197.5674	1211.7223	1226.097	1245.6039	1256.3603	1304.7414	1330.8895	1353.9233	1438.3225	1484.6776	1514.5012	1532.5616	3018.8805	3019.8949	3059.6223	3066.1954	3092.3291	3100.4872	3114.2	3145.8314	3164.4685	3823.2976
OC1C2CC1C21CCO1	O[C@H]1[C@@H]2C[C@H]1[C@@]12CCO1	
InChI=1S/C7H10O2/c8-6-4-3-5(6)7(4)1-2-9-7/h4-6,8H,1-3H2	InChI=1S/C7H10O2/c8-6-4-3-5(6)7(4)1-2-9-7/h4-6,8H,1-3H2/t4-,5+,6-,7-
