19
gdb 5426	1.5279275	1.4153785	0.792955	2.1841	80.27	-0.23591	0.0456	0.28151000000000004	1452.4263	0.153741	-422.489881	-422.479532	-422.478588	-422.525577	36.67	
C	 1.6415872033	 0.4175765742	-0.2835826614	-0.237835
O	 0.2657069012	 0.1033522557	-0.1592613663	-0.233391
C	-0.28539731	 0.5418792042	 1.0340663946	 0.096103
C	-1.7551178918	 0.7794149353	 1.0676205402	-0.103141
C	-2.6183350201	 0.590142806	-0.1592424216	-0.076997
O	-3.8115148627	 1.3556298284	-0.0966199273	-0.418792
C	-0.7963858082	 1.9823692613	 1.1210682749	-0.296814
C	-0.6398519077	 2.7515830629	 2.3163343359	 0.319691
C	-0.5063155994	 3.3867020049	 3.3299850284	-0.439868
H	 2.2308073873	-0.0388795898	 0.5249299632	 0.114583
H	 1.9762621666	 0.0136245133	-1.241162372	 0.132835
H	 1.8103353429	 1.50314858	-0.2668468595	 0.117065
H	 0.1910471003	 0.146533158	 1.9321350893	 0.102864
H	-2.2498536303	 0.5466837693	 2.0056110968	 0.111439
H	-2.035078665	 0.8097924424	-1.0637573252	 0.10133
H	-2.9407595657	-0.4540943909	-0.2289168941	 0.118082
H	-3.5580862586	 2.2771818414	 0.0225866899	 0.283558
H	-0.7095111689	 2.5292787976	 0.1847084168	 0.114175
H	-0.3902581231	 3.9509841358	 4.2216252877	 0.19511
79.1634	94.1255	119.3738	134.9878	155.1768	194.8428	240.8128	307.9076	347.7418	398.6538	428.5382	491.7277	505.3186	573.3396	612.4388	654.368	822.0084	852.0767	903.943	979.9491	1006.9144	1038.5268	1072.8491	1094.3931	1115.789	1132.4977	1158.6944	1182.9534	1212.4016	1228.3966	1255.1581	1310.1481	1347.1166	1379.2017	1422.3726	1446.8702	1485.3109	1486.9704	1507.7302	1510.0105	2233.2276	2991.7347	3014.529	3046.1345	3074.5876	3095.7207	3127.4087	3132.416	3165.0937	3505.2374	3807.3705
COC1C(CO)C1C#C	CO[C@@H]1[C@H](CO)[C@H]1C#C	
InChI=1S/C7H10O2/c1-3-5-6(4-8)7(5)9-2/h1,5-8H,4H2,2H3	InChI=1S/C7H10O2/c1-3-5-6(4-8)7(5)9-2/h1,5-8H,4H2,2H3/t5-,6-,7+/m1/s1
