19
gdb 1755	2.2515886	1.9785166	1.6999785	2.8005	73.17	-0.24958	0.08103	0.33061	937.191	0.159298	-422.563474	-422.556037	-422.555093	-422.595175	29.067	
C	 0.8178548194	 1.4755850443	-0.1625704747	-0.514381
C	 1.6021803123	 0.1944031517	-0.0862266629	 0.318601
C	 2.6711781024	-0.1589794418	 0.9111993207	-0.137611
C	 3.879564515	-0.6567358738	 0.1319060317	-0.102884
O	 3.5136211567	-0.5968002287	-1.2495143888	-0.257278
C	 2.1053200542	-0.5359977576	-1.347733189	 0.126144
O	 1.5202137182	-1.8221376743	-1.3351405622	-0.257281
C	 1.3229278661	-2.2281560542	 0.0220762082	-0.10288
C	 1.3742417918	-0.9561239761	 0.8554831541	-0.137585
H	 0.557793159	 1.833375395	 0.8385063655	 0.119997
H	 1.3921623665	 2.2657461341	-0.6591131289	 0.126847
H	-0.115790877	 1.3390984867	-0.7197218948	 0.126841
H	 2.8397374465	 0.4573021103	 1.787594051	 0.090208
H	 4.7487678233	-0.0078854194	 0.2856110359	 0.107153
H	 4.1701332633	-1.6817649698	 0.4019509888	 0.102096
H	 1.8635078106	-0.0755789276	-2.3068606083	 0.092561
H	 0.3443404136	-2.7149825046	 0.0963544188	 0.10715
H	 2.0887249844	-2.9610892503	 0.312604572	 0.102094
H	 0.6947546836	-0.8611033741	 1.6954523328	 0.09021
116.8128	195.0334	211.0643	242.4647	273.9002	475.1567	487.9897	589.2606	625.614	732.6305	739.3321	756.1668	870.0994	877.8093	925.2713	935.5908	953.8855	979.9582	984.6272	1005.9262	1059.7754	1071.2711	1089.6085	1104.0137	1107.8088	1136.9329	1219.0811	1224.8641	1234.4949	1249.8858	1313.6547	1328.9751	1356.4126	1374.7318	1386.9837	1418.1617	1463.1961	1488.9187	1500.7824	1516.6084	1533.9555	3003.1174	3005.988	3026.8535	3058.4986	3060.3823	3088.1335	3101.318	3114.2188	3166.4556	3176.2774
CC12C3COC1OCC23	C[C@]12[C@@H]3CO[C@H]1OC[C@H]23	
InChI=1S/C7H10O2/c1-7-4-2-8-6(7)9-3-5(4)7/h4-6H,2-3H2,1H3	InChI=1S/C7H10O2/c1-7-4-2-8-6(7)9-3-5(4)7/h4-6H,2-3H2,1H3/t4-,5+,6+,7-
