19
gdb 4885	2.1510822	1.8905582	1.2224778	1.7666	76.07	-0.24245	-0.03357	0.20888	1065.6708	0.155754	-422.499819	-422.491195	-422.490251	-422.533253	31.923	
C	 1.4218632953	 0.1280500993	-0.1229278186	-0.261782
O	 0.0116783547	 0.0346292645	-0.0059476062	-0.303824
C	-0.4999739449	 0.5373814642	 1.2078908042	 0.384454
C	-0.1584254867	-0.4703525083	 2.2936518871	 0.08005
O	 0.1837147883	-0.2247311615	 3.4226062799	-0.251843
C	-1.9779837353	 1.0460876225	 1.1019777661	-0.113628
C	-1.7079795623	 1.8906596565	 2.3800023299	-0.239905
C	-0.4404421939	 2.0750468283	 1.4927449089	-0.110872
C	-1.4164313634	 2.2505209066	 0.28626826	-0.234951
H	 1.9431341304	-0.3927055567	 0.6933579361	 0.119593
H	 1.6930728462	-0.344080078	-1.0695798762	 0.133445
H	 1.7575080542	 1.1739638245	-0.1349244443	 0.117929
H	-0.2301027547	-1.5186571205	 1.9228169665	 0.087635
H	-2.8485801989	 0.4306521233	 0.8731890128	 0.081734
H	-2.3329708397	 2.780196019	 2.4801296334	 0.097259
H	-1.5881801979	 1.3733130164	 3.329264562	 0.126272
H	 0.4470331567	 2.661552215	 1.7295895961	 0.08089
H	-2.0289327556	 3.1549969393	 0.3042337192	 0.094391
H	-1.0307029825	 2.0343125657	-0.707954717	 0.113152
78.2246	109.818	166.9507	174.5841	239.1743	276.6818	379.4762	437.2539	473.5454	553.8417	627.0501	696.5362	798.039	804.7676	890.1622	899.872	906.525	984.2278	1018.2073	1024.32	1046.9877	1078.9021	1092.555	1093.8201	1109.8082	1163.0354	1185.5529	1191.0579	1198.1579	1200.6295	1229.8517	1242.9401	1248.4947	1263.1027	1409.4717	1481.2329	1488.9847	1498.7739	1508.0231	1536.6917	1822.8808	2873.9419	2991.9213	3046.1815	3073.4092	3081.8443	3111.4475	3117.7808	3123.7432	3161.3055	3169.1711
COC1(C=O)C2CC1C2	CO[C@]1(C=O)[C@H]2C[C@@H]1C2	
InChI=1S/C7H10O2/c1-9-7(4-8)5-2-6(7)3-5/h4-6H,2-3H2,1H3	InChI=1S/C7H10O2/c1-9-7(4-8)5-2-6(7)3-5/h4-6H,2-3H2,1H3/t5-,6+,7-
