19
gdb 919	4.9044663	0.7763415	0.7417628	3.3028	77.58	-0.2493	-0.02489	0.22441	1550.0982	0.154834	-422.533776	-422.524648	-422.523704	-422.568966	32.534	
O	 0.3117166858	-1.243755254	 0.0585164112	-0.237249
C	 0.3895665318	-0.0518003576	 0.2071360154	 0.160267
C	-0.379555469	 0.736866822	 1.2515829913	-0.306433
C	-1.1061423681	 1.9133634256	 0.6362079339	-0.069629
O	-0.2785053711	 3.0020879425	 0.1846831818	-0.291411
C	-1.1637621944	 3.2376755558	 1.266025943	 0.456515
C	-2.310840015	 4.2501017976	 1.2501430652	-0.313558
C	-2.1300292325	 4.3804548956	 2.7931704039	-0.212185
C	-0.7527157607	 3.6577612753	 2.680292961	-0.311093
H	 1.0537123867	 0.5704917269	-0.4319604603	 0.097017
H	-1.0751636437	 0.0621853179	 1.7601548394	 0.123262
H	 0.3466260325	 1.1130648458	 1.9835856775	 0.127167
H	-1.9033855889	 1.650898374	-0.0619744842	 0.102932
H	-2.0231098565	 5.1617786633	 0.7183592099	 0.119252
H	-3.2793386996	 3.9124328696	 0.8738563788	 0.108222
H	-2.1169687824	 5.3927214952	 3.1991479648	 0.109386
H	-2.8620483929	 3.7893545966	 3.3476376065	 0.111093
H	 0.0874357752	 4.3578059754	 2.6573652902	 0.119222
H	-0.5328260071	 2.8687896326	 3.4040322009	 0.107223
47.7901	62.6705	99.0174	142.4706	196.8325	267.9919	376.4413	414.8741	485.5222	517.6226	565.5951	714.3032	779.6202	813.9073	823.0907	856.0321	908.3264	924.0907	957.309	1004.6401	1028.4469	1047.5412	1091.5413	1114.9953	1143.269	1169.8019	1205.966	1223.2115	1227.7914	1245.0694	1267.2904	1277.7522	1294.6608	1354.1067	1421.8223	1445.8309	1467.3757	1479.2702	1485.1694	1515.8563	1833.6372	2898.1884	3032.19	3057.0465	3061.2406	3076.6924	3089.1462	3104.4923	3106.2969	3112.0001	3135.2059
O=CCC1OC11CCC1	O=CC[C@@H]1OC21CCC2	
InChI=1S/C7H10O2/c8-5-2-6-7(9-6)3-1-4-7/h5-6H,1-4H2	InChI=1S/C7H10O2/c8-5-2-6-7(9-6)3-1-4-7/h5-6H,1-4H2/t6-/m0/s1
