19
gdb 5838	3.4795496	0.7454534	0.6568471	2.6453	81.6	-0.24717	0.0424	0.28957	1691.8128	0.155139	-422.508564	-422.498293	-422.497348	-422.546851	34.756	
C	 1.5416426381	 0.0658634853	-0.0118794306	-0.49766
C	 0.0862451617	 0.0559996359	 0.017488193	 0.067805
C	-1.1181273453	 0.0520566939	 0.0442576675	 0.079134
C	-2.5645846662	 0.0271907832	 0.0667107435	-0.265815
C	-3.3282133419	-0.0414768573	-1.2862650377	-0.072744
O	-4.0612052253	-1.2101778525	-0.8688534256	-0.307951
C	-3.2849310202	-1.3236854177	 0.3502458189	 0.132391
C	-4.2086390239	-1.4075531722	 1.550625895	-0.07412
O	-5.0741882689	-2.5183880279	 1.4312067929	-0.420206
H	 1.9485317216	 0.8398720753	 0.6480914929	 0.149706
H	 1.9519387743	-0.8965851519	 0.3131859844	 0.150823
H	 1.917252261	 0.2607220586	-1.0224729995	 0.150055
H	-2.9551637966	 0.8234353985	 0.7093559316	 0.104863
H	-3.9879881425	 0.8025542288	-1.5134479728	 0.110126
H	-2.6839646841	-0.248174757	-2.1481532007	 0.11234
H	-2.6219867005	-2.1962448365	 0.3095014032	 0.090636
H	-3.6270981555	-1.5443953907	 2.4692706213	 0.112914
H	-4.7719280808	-0.4637446489	 1.6412761693	 0.082263
H	-5.494757035	-2.4357376368	 0.5664339636	 0.295441
10.0258	49.2492	74.9391	118.5248	134.073	199.5546	271.3776	305.1819	375.5344	424.5815	454.3454	487.0619	569.0374	645.2907	816.121	877.716	929.8376	1000.8046	1011.0277	1038.2442	1052.6334	1053.4744	1065.9973	1103.946	1110.1531	1165.4745	1195.2849	1207.9784	1225.9642	1268.6675	1319.6213	1356.7623	1376.8008	1397.4369	1415.2437	1435.1454	1477.6579	1478.1593	1495.0183	1523.5265	2370.2631	2965.056	3026.8912	3027.4589	3037.9567	3046.3369	3071.3472	3081.6089	3088.0497	3088.4626	3786.0705	10.0341	49.2487	74.9394	118.5249	134.0722	199.5547	271.3774	305.1814	375.5343	424.5807	454.3473	487.0614	569.0373	645.2907	816.1211	877.7162	929.8377	1000.8046	1011.0278	1038.2443	1052.6332	1053.4742	1065.9977	1103.9463	1110.1533	1165.4754	1195.2851	1207.9787	1225.9645	1268.668	1319.622	1356.7629	1376.801	1397.437	1415.2436	1435.1453	1477.6578	1478.159	1495.0185	1523.5279	2370.2628	2965.0561	3026.8913	3027.4589	3037.9568	3046.3368	3071.3473	3081.6089	3088.0497	3088.4626	3786.0714
CC#CC1COC1CO	CC#C[C@H]1CO[C@@H]1CO	
InChI=1S/C7H10O2/c1-2-3-6-5-9-7(6)4-8/h6-8H,4-5H2,1H3	InChI=1S/C7H10O2/c1-2-3-6-5-9-7(6)4-8/h6-8H,4-5H2,1H3/t6-,7+/m0/s1
