19
gdb 1094	3.0970165	1.3356734	1.091588	3.0041	75.95	-0.2379	-0.01093	0.22697	1147.7247	0.156837	-422.567099	-422.558602	-422.557658	-422.600418	31.958	
C	 0.0929351084	-3.0588739	 0.2987213724	-0.49438
C	-0.1568743414	-1.9076268832	-0.6592383766	 0.294284
O	-1.0213432194	-1.0823140784	-0.4371069903	-0.324728
C	 0.707791309	-1.8008720405	-1.8696696907	 0.206432
C	 0.2257517099	-0.8721790034	-2.986848381	-0.363892
C	 1.3838258259	-0.4499705985	-2.1549412916	 0.108255
O	 2.6866734282	-0.6563204747	-2.6046744312	-0.250142
C	 2.7866611699	-2.0016470168	-3.0733333602	-0.094898
C	 1.7597222445	-2.8289077766	-2.2625290925	-0.337592
H	-0.0022811277	-4.0223372137	-0.2136503802	 0.137934
H	 1.1104409803	-3.0115281378	 0.7033152211	 0.141647
H	-0.6248262034	-3.0035173109	 1.1176037053	 0.142182
H	 0.3840712002	-1.1817150717	-4.0138567904	 0.117666
H	-0.71909096	-0.3841169594	-2.7779333136	 0.146332
H	 1.3003722343	 0.3811812359	-1.4654635631	 0.123419
H	 2.5616705535	-2.0473254245	-4.147263718	 0.106252
H	 3.8200400973	-2.3272971559	-2.9315683381	 0.117473
H	 1.3646998068	-3.6598653902	-2.8552414506	 0.111501
H	 2.2274788636	-3.2498386799	-1.3677292008	 0.112255
57.3554	146.5682	173.5488	207.6845	255.2049	311.3684	391.6776	452.4377	472.8631	586.1014	612.7393	683.3894	695.0227	813.1941	837.4362	883.0235	914.2202	946.0419	964.51	1005.5098	1015.5515	1036.6991	1048.2865	1080.5966	1107.5464	1156.9945	1177.1912	1221.0734	1241.7297	1267.9904	1290.6481	1333.5037	1364.4023	1385.1538	1407.1844	1460.209	1463.8556	1476.0957	1497.5151	1527.9067	1773.4682	3012.4679	3036.1298	3052.9106	3089.1343	3097.1841	3103.2048	3139.9672	3153.5339	3198.3467	3237.2177
CC(=O)C12CC1OCC2	CC(=O)[C@@]12C[C@@H]1OCC2	
InChI=1S/C7H10O2/c1-5(8)7-2-3-9-6(7)4-7/h6H,2-4H2,1H3	InChI=1S/C7H10O2/c1-5(8)7-2-3-9-6(7)4-7/h6H,2-4H2,1H3/t6-,7+/m0/s1
