19
gdb 3511	2.616803	1.4302959	0.9775664	2.6554	77.73	-0.25134	-0.02878	0.22256	1200.5641	0.155919	-422.570537	-422.561602	-422.560658	-422.604772	32.56	
C	 0.8332253346	 0.9636192399	 0.2075795616	-0.410103
C	 0.9742887657	-0.5464519126	-0.0385789409	-0.043082
C	 1.4949924755	-1.2542568057	 1.1897351586	-0.055637
C	 2.4499151848	-2.1783760785	 1.1456402605	-0.0925
C	 3.0353723535	-2.6472367094	-0.1547461956	-0.123273
O	 2.2900235522	-2.2133137943	-1.2766678994	-0.269647
C	 1.9236674944	-0.8470778942	-1.2232686011	 0.023945
C	 1.2828646264	-0.5515245953	-2.5719442452	 0.142904
O	 0.900583382	 0.5330652744	-2.927287353	-0.249091
H	 0.1243638966	 1.1515693181	 1.0202987506	 0.113253
H	 1.7961423109	 1.3999221178	 0.4959243006	 0.116963
H	 0.48180776	 1.4754642872	-0.6901758141	 0.150963
H	-0.0198842787	-0.9481745746	-0.2856341023	 0.092669
H	 1.0672018231	-0.9481093752	 2.1418466582	 0.092307
H	 2.8393281535	-2.6343524473	 2.0517128845	 0.096353
H	 4.087815546	-2.3197459413	-0.2415553913	 0.101874
H	 3.0412048621	-3.7424393804	-0.2034146164	 0.121936
H	 2.8183306801	-0.2072614214	-1.1219029926	 0.093025
H	 1.1892266772	-1.454540137	-3.2144225327	 0.09714
42.4948	95.3016	171.8394	206.6012	242.1005	296.4887	328.5119	391.2364	421.6864	489.7611	540.8313	584.3315	700.6314	807.1248	816.989	915.9407	930.5403	963.4148	995.5832	1023.4545	1030.9853	1080.1862	1102.599	1107.4579	1129.6091	1169.4658	1215.2481	1260.8908	1273.2667	1311.8993	1341.5732	1361.5073	1387.8863	1404.4489	1409.0667	1419.921	1489.0579	1496.0921	1505.3605	1727.5867	1836.1141	2899.6857	2938.0477	2950.996	2992.1002	3035.6726	3053.5315	3099.5318	3139.3335	3146.0778	3174.4165
CC1C=CCOC1C=O	C[C@@H]1C=CCO[C@H]1C=O	
InChI=1S/C7H10O2/c1-6-3-2-4-9-7(6)5-8/h2-3,5-7H,4H2,1H3	InChI=1S/C7H10O2/c1-6-3-2-4-9-7(6)5-8/h2-3,5-7H,4H2,1H3/t6-,7+/m1/s1
