19
gdb 5868	4.7734278	0.5736831	0.5569674	2.3516	84.69	-0.23798	0.03097	0.26895	1989.4139	0.153747	-422.487233	-422.476822	-422.475878	-422.524255	36.209	
C	-4.6738026329	 0.9836315187	-1.1924836499	-0.218476
O	-3.519072363	 1.1115394997	-0.3963806302	-0.225634
C	-2.5476581698	 0.13175487	-0.7106976296	-0.203025
C	-1.3686629346	 0.2939003909	 0.1261233354	-0.067461
C	-0.3886168498	 0.41141052	 0.8177875119	 0.17491
C	 0.8088986763	 0.5546291131	 1.6022076582	 0.223904
O	 1.7873340769	 1.4137548106	 1.0745199154	-0.44276
C	 1.2953210427	-0.6302952068	 2.4257410783	-0.312696
C	 0.7236196482	 0.5866180582	 3.1063842008	-0.287513
H	-5.3656223189	 1.7715137703	-0.8869166508	 0.131802
H	-4.4487755543	 1.1030166584	-2.2646571082	 0.104119
H	-5.162833311	 0.0059183861	-1.0529771886	 0.103697
H	-2.9665663692	-0.8809686657	-0.5719528667	 0.113907
H	-2.2599801385	 0.204909776	-1.7747374957	 0.113608
H	 2.0407524415	 1.0690013717	 0.2108551213	 0.284015
H	 0.709801961	-1.5418819793	 2.4072355592	 0.122997
H	 2.3707091856	-0.7628425919	 2.4590797518	 0.121837
H	-0.257979661	 0.5208681867	 3.5588289	 0.130717
H	 1.4172247909	 1.2643340131	 3.5902904074	 0.132052
27.5636	70.2921	73.2217	121.5612	193.7839	231.5324	289.1035	298.4482	336.5785	354.7602	399.0126	473.8845	552.2644	577.7447	665.0133	776.1759	870.1418	887.8593	927.2897	974.2937	989.5202	1024.1163	1053.9878	1075.88	1082.6249	1148.9549	1182.4676	1194.3753	1219.4113	1239.471	1256.5498	1312.0013	1380.9855	1410.7971	1449.1982	1476.8948	1484.5048	1486.55	1492.954	1515.245	2356.6047	2939.76	2956.2461	2966.5153	3008.4673	3120.5675	3139.3987	3148.0791	3230.4706	3246.2496	3797.5591	27.5624	70.2917	73.2211	121.5612	193.7836	231.5324	289.1038	298.4493	336.5795	354.7602	399.0128	473.8845	552.2643	577.7441	665.0132	776.1758	870.1416	887.8588	927.29	974.2936	989.5202	1024.1163	1053.9878	1075.8799	1082.625	1148.9548	1182.4676	1194.3758	1219.4113	1239.4712	1256.5499	1312.0017	1380.9856	1410.7972	1449.1987	1476.8948	1484.5048	1486.5502	1492.954	1515.245	2356.6047	2939.76	2956.2461	2966.5153	3008.4673	3120.5675	3139.3987	3148.079	3230.4705	3246.2495	3797.5598
COCC#CC1(O)CC1	COCC#CC1(O)CC1	
InChI=1S/C7H10O2/c1-9-6-2-3-7(8)4-5-7/h8H,4-6H2,1H3	InChI=1S/C7H10O2/c1-9-6-2-3-7(8)4-5-7/h8H,4-6H2,1H3
