19
gdb 5113	2.5149869	1.5832417	1.1812426	3.3198	74.69	-0.24269	0.05019	0.29288	1111.8896	0.153804	-422.473078	-422.464106	-422.463162	-422.5066	33.613	
C	 1.24422499	-0.6161396344	 0.9580020344	-0.38077
C	 1.0376395778	 0.2685517319	-0.2802069366	-0.314637
C	 1.761466658	-0.2495815626	-1.4828368868	 0.394547
O	 1.280157493	-1.4283823186	-2.134945661	-0.266478
C	 1.4718561187	-0.2489897405	-2.9179728216	-0.128523
C	 3.0091530218	-0.1212453844	-3.2442294348	-0.109984
O	 3.6852777482	-1.227584567	-2.6437007796	-0.260196
C	 3.3271670563	-0.1206113268	-1.8148314409	 0.369027
C	 4.3740819092	 0.5597709246	-0.9967054093	-0.51441
H	 0.8987530285	-1.6351199463	 0.7624197397	 0.140548
H	 2.3005981193	-0.6690531019	 1.2403796458	 0.120707
H	 0.6878118894	-0.2230257688	 1.8137468599	 0.115049
H	-0.0296077701	 0.3289472432	-0.5211834648	 0.114821
H	 1.3742915443	 1.2922798438	-0.0731021417	 0.1026
H	 0.6342133778	 0.1397965855	-3.4847110796	 0.10877
H	 3.473738988	 0.3757476342	-4.0874092547	 0.108049
H	 4.6323905702	-0.0371446558	-0.1148571382	 0.136427
H	 5.2823898431	 0.7031800157	-1.5882389355	 0.137982
H	 4.0259361766	 1.5383670783	-0.6502132649	 0.126469
76.073	128.6707	179.4245	194.0157	229.3431	249.3918	363.5021	381.8707	447.4632	478.4756	590.3828	608.4557	727.6743	748.7311	784.8521	823.3002	835.5666	863.6683	921.4118	961.1202	982.966	1002.4931	1020.5858	1060.4948	1094.424	1106.8985	1144.8747	1209.8657	1211.3045	1250.3103	1306.3542	1344.4027	1401.7223	1408.4021	1455.3266	1462.1989	1475.6238	1484.7215	1493.3998	1497.4947	1508.6022	3027.7777	3033.5094	3041.4527	3068.5437	3095.3198	3110.266	3118.3765	3121.39	3184.9914	3194.7634
CCC12OC1C1OC21C	CC[C@@]12O[C@@H]1[C@@H]1O[C@]21C	
InChI=1S/C7H10O2/c1-3-7-5(9-7)4-6(7,2)8-4/h4-5H,3H2,1-2H3	InChI=1S/C7H10O2/c1-3-7-5(9-7)4-6(7,2)8-4/h4-5H,3H2,1-2H3/t4-,5+,6-,7+/m0/s1
