19
gdb 1739	2.1258007	2.0357623	1.5896252	0.9608	73.69	-0.21882	0.06347	0.28229	960.7468	0.156863	-422.534825	-422.526766	-422.525822	-422.566697	32.005	
C	 0.1606442047	 0.5711659347	-0.2700119034	-0.486646
C	 1.5681116503	 0.0573601586	-0.111576343	 0.348199
C	 2.1397617962	-0.854671536	-1.1975242778	-0.241069
C	 3.6193607811	-1.0568534021	-0.7644345132	-0.234188
C	 3.8685040798	 0.0814662812	 0.2261213879	-0.125157
C	 2.9221400896	 0.1491464373	 1.4332380633	-0.004818
O	 1.7588010456	-0.6361535027	 1.1813093623	-0.340297
C	 2.7193663557	 1.04622024	 0.2540278185	 0.264464
O	 2.8072980749	 2.3962661819	 0.0007148277	-0.452485
H	-0.1181334699	 1.2141846537	 0.5706132205	 0.11517
H	 0.0630242542	 1.1443553134	-1.1974860358	 0.125702
H	-0.5483810387	-0.2618940509	-0.3038701895	 0.131668
H	 1.5849778576	-1.7949328782	-1.2676463069	 0.103378
H	 2.0763999621	-0.3493092174	-2.1687598456	 0.100239
H	 3.7628569264	-2.0323267568	-0.2910001671	 0.110528
H	 4.3044926923	-1.0004933851	-1.6147707699	 0.100816
H	 4.8655394027	 0.4738095352	 0.3955270626	 0.091574
H	 3.2376439579	 0.2932062968	 2.4600117548	 0.103326
H	 2.1373624074	 2.8490268964	 0.5256240546	 0.289597
178.0938	188.3266	212.693	222.3004	303.7348	345.6568	389.7483	445.8684	506.0675	573.3573	626.8467	680.7202	741.8183	766.9411	820.1773	858.5488	893.4544	908.612	940.1324	955.8559	1003.2936	1022.9451	1024.7461	1056.3013	1115.179	1150.123	1180.3191	1203.3352	1219.7477	1257.2331	1268.1234	1293.7015	1313.5277	1322.1588	1359.0896	1409.3784	1469.954	1475.6706	1489.0512	1494.1903	1500.6361	3033.3181	3038.1616	3057.269	3085.3225	3102.0931	3107.4179	3112.2784	3176.2763	3186.0363	3789.301
CC12CCC3C(O1)C23O	C[C@]12CC[C@@H]3[C@H](O1)[C@]23O	
InChI=1S/C7H10O2/c1-6-3-2-4-5(9-6)7(4,6)8/h4-5,8H,2-3H2,1H3	InChI=1S/C7H10O2/c1-6-3-2-4-5(9-6)7(4,6)8/h4-5,8H,2-3H2,1H3/t4-,5+,6-,7+/m1/s1
