19
gdb 2547	2.8055951	1.4917501	1.2959082	1.8824	76.39	-0.23282	0.00374	0.23656	1067.7922	0.155713	-422.52918	-422.520709	-422.519764	-422.561618	33.245	
C	 1.7137798326	 0.8761414549	-0.3072059545	-0.517551
C	 0.3345100822	 0.3897632364	-0.0303849421	 0.354287
C	-0.8697127689	 0.9713082977	-0.136575771	-0.202961
C	-1.7977465504	-0.1158363741	 0.3750473838	-0.057075
O	-1.2379865701	-1.3232968723	-0.2640374943	-0.314908
C	-0.0498692992	-0.9777748707	 0.5316383441	-0.120856
C	-1.0658662453	-0.6079972581	 1.7002569494	 0.482097
C	-0.7095910794	 0.3254217782	 2.8369161001	-0.46132
O	-1.6672751558	-1.7365083706	 2.2639142994	-0.486561
H	 2.3344611413	 0.8523145537	 0.59764705	 0.131683
H	 2.218986434	 0.2450547634	-1.0489617974	 0.135378
H	 1.7063147177	 1.902927153	-0.6832096055	 0.129963
H	-1.1383512017	 1.9680102563	-0.4556552025	 0.106833
H	-2.8805540614	-0.0245327469	 0.2946569689	 0.080024
H	 0.6866144727	-1.7776785217	 0.6161686195	 0.076864
H	-0.0354281989	-0.1850695351	 3.5314912854	 0.127637
H	-0.23484293	 1.2407485044	 2.4849996583	 0.121995
H	-1.6158779227	 0.5858552011	 3.3921086036	 0.129232
H	-1.8830982966	-2.3099416098	 1.5146898347	 0.28524
139.6297	164.2071	192.6796	212.3535	293.3667	316.7279	398.5208	415.9639	516.4658	565.1956	586.4398	617.5658	633.6571	684.2794	786.5421	794.0305	839.581	867.919	916.0961	928.7636	970.0977	1003.3056	1032.7584	1060.3979	1099.1467	1115.9816	1147.0892	1166.5446	1196.9822	1235.2299	1264.0828	1297.042	1310.6845	1384.4011	1414.0455	1434.3534	1478.292	1485.5976	1488.1232	1493.9031	1674.9902	3017.8594	3050.2199	3064.3329	3109.579	3110.4518	3120.7839	3131.9617	3155.0411	3235.8058	3743.5322
CC1=CC2OC1C2(C)O	CC1=C[C@H]2O[C@@H]1[C@]2(C)O	
InChI=1S/C7H10O2/c1-4-3-5-7(2,8)6(4)9-5/h3,5-6,8H,1-2H3	InChI=1S/C7H10O2/c1-4-3-5-7(2,8)6(4)9-5/h3,5-6,8H,1-2H3/t5-,6+,7-/m1/s1
