19
gdb 1661	3.4596363	0.9443088	0.9077041	3.0008	78.63	-0.24045	-0.01826	0.22219	1361.0507	0.155031	-422.536801	-422.527634	-422.52669	-422.571044	34.108	
O	-2.2994531676	 0.1145039226	 1.3504840835	-0.457927
C	-0.9709526149	-0.2598336751	 1.5875743607	 0.375362
C	-0.6048258972	-0.3159011959	 3.0225018667	-0.336022
C	-0.7180883512	-1.6315368953	 2.242519682	-0.174531
C	-1.8539197114	-2.5307832932	 2.5355315864	 0.148299
O	-1.8115250609	-3.7342310101	 2.4343316844	-0.273781
C	 0.028929271	 0.2216933121	 0.5757482788	-0.025195
C	-0.1180675368	 1.5864372095	-0.047952365	-0.264959
C	-0.3290964369	 0.3490502178	-0.8848953412	-0.288289
H	-2.6128163238	-0.3580737463	 0.5708663682	 0.291699
H	 0.3867780371	-0.0045737878	 3.3294334121	 0.129176
H	-1.3969368228	-0.1088362573	 3.7343066273	 0.135004
H	 0.1988043592	-2.1440971999	 1.9716197847	 0.105381
H	-2.7815234186	-2.0117552155	 2.8623981736	 0.079546
H	 1.0421226281	-0.1066010775	 0.787656544	 0.089552
H	-1.0007519945	 2.1550378438	 0.2205363315	 0.129657
H	 0.776662083	 2.1773280903	-0.2070091812	 0.11513
H	-1.344497386	 0.1265158132	-1.196225088	 0.102127
H	 0.4220959642	 0.0749744846	-1.6166927385	 0.119773
57.6186	105.7208	129.3601	202.96	260.5381	292.2363	334.284	381.4513	424.8838	458.9874	493.3879	598.1925	681.9652	787.8855	818.4189	839.0455	865.1304	894.1955	931.7812	962.7598	992.217	1037.7652	1054.3906	1060.7458	1076.5254	1082.6369	1090.4519	1134.2647	1176.6068	1195.0139	1199.5571	1230.2203	1280.8122	1337.5815	1351.7261	1424.8365	1443.9158	1462.7454	1480.7674	1508.9729	1808.0109	2891.8957	3133.6525	3137.5309	3142.7816	3151.5147	3175.0377	3213.6306	3230.6337	3234.9466	3796.8012
OC1(CC1C=O)C1CC1	O[C@]1(C[C@H]1C=O)C1CC1	
InChI=1S/C7H10O2/c8-4-6-3-7(6,9)5-1-2-5/h4-6,9H,1-3H2	InChI=1S/C7H10O2/c8-4-6-3-7(6,9)5-1-2-5/h4-6,9H,1-3H2/t6-,7+/m0/s1
