19
gdb 2303	2.1277463	1.8868493	1.6637275	2.41	74.1	-0.233	0.06545	0.29845	964.0888	0.15584	-422.506406	-422.498126	-422.497182	-422.538484	32.699	
C	 0.0204185872	-0.0474773786	 0.1701752662	-0.481497
C	 1.5119154246	-0.0162006656	-0.014822067	 0.365984
O	 2.101761685	-1.3309029598	-0.2445990559	-0.339939
C	 2.6929520582	-0.9097526404	-1.5030474965	-0.143175
C	 2.2452111727	 0.5378683191	-1.2652734336	 0.337784
O	 1.6232690725	 1.1445313085	-2.3539735803	-0.472996
C	 3.0989224673	 1.4432242163	-0.3409367431	-0.158044
C	 3.8092565464	 0.6736057104	 0.7394388678	-0.297963
C	 2.3422192808	 0.9284278281	 0.8972111983	-0.092601
H	-0.2370271724	-0.5856638312	 1.0892602293	 0.130592
H	-0.3820552467	 0.9679914765	 0.2510244867	 0.113032
H	-0.4643843926	-0.549357276	-0.6712460883	 0.131197
H	 3.7676104491	-1.1160241441	-1.5514615766	 0.101992
H	 2.1869042322	-1.3685919323	-2.3607390084	 0.109955
H	 1.3770143038	 2.0419280465	-2.1045736722	 0.283321
H	 3.3911859459	 2.4546062249	-0.6041007494	 0.084111
H	 4.1619615812	-0.3381313572	 0.5740780464	 0.133507
H	 4.4535168422	 1.2750411069	 1.3732074701	 0.111938
H	 1.9363125626	 1.483898798	 1.7352918967	 0.082802
168.8883	175.5856	190.8648	278.7511	298.1822	309.638	349.9921	383.1996	499.6673	531.376	587.4525	688.0206	701.4559	779.3017	820.6643	869.0004	901.575	930.0787	946.9093	975.7718	986.0651	1004.0074	1037.8833	1050.7715	1089.995	1106.1444	1124.2132	1155.1436	1163.3275	1206.2399	1228.3273	1264.6393	1309.3871	1331.4129	1359.6963	1400.4726	1409.5326	1479.8419	1484.3757	1488.4412	1514.4312	3024.8437	3032.8491	3076.84	3097.5866	3118.9243	3132.5413	3160.0896	3172.8128	3216.333	3805.6916
CC12OCC1(O)C1CC21	C[C@@]12OC[C@]1(O)[C@@H]1C[C@H]21	
InChI=1S/C7H10O2/c1-6-4-2-5(4)7(6,8)3-9-6/h4-5,8H,2-3H2,1H3	InChI=1S/C7H10O2/c1-6-4-2-5(4)7(6,8)3-9-6/h4-5,8H,2-3H2,1H3/t4-,5+,6-,7-/m0/s1
