19
gdb 2916	2.6136946	1.8283281	1.4092208	2.3438	73.53	-0.22895	0.06195	0.2909	979.6168	0.157413	-422.531763	-422.523979	-422.523035	-422.563368	31.295	
C	 0.709696755	 0.7537256387	 0.1758775027	-0.435475
C	 0.9396511892	-0.746984604	 0.3147598473	-0.036976
C	 1.5839136421	-1.3837212646	-0.9234481359	-0.10233
C	 2.2434406784	-2.6895166885	-0.5364479636	 0.105623
O	 1.8041038324	-3.3596368978	 0.6288539759	-0.271259
C	 2.0942691621	-2.5042097813	 1.7352211125	-0.106018
C	 2.245358495	-1.1152024369	 1.114334885	 0.353109
O	 2.7714254182	-0.2153689414	 2.0376573597	-0.486451
C	 2.9605222258	-1.4195324041	-0.2471536319	-0.215659
H	 0.4563216203	 1.2064519381	 1.140122846	 0.124025
H	 1.5951301799	 1.2638356215	-0.2252978378	 0.107937
H	-0.1149464314	 0.9579021455	-0.5143536501	 0.123276
H	 0.0269857668	-1.23294226	 0.6816400986	 0.073122
H	 1.3378162167	-1.1454370747	-1.9531859664	 0.081246
H	 2.562074716	-3.3643159532	-1.3219133465	 0.10408
H	 1.2671321973	-2.5599852694	 2.4496961619	 0.109733
H	 3.0260692011	-2.8053437353	 2.2363581358	 0.09784
H	 2.8216206531	 0.6537481579	 1.6271666842	 0.285019
H	 3.9520768419	-1.1282640106	-0.5690003873	 0.089158
161.5842	236.2018	246.7854	257.165	300.7536	358.7614	396.152	428.0269	539.6393	629.9312	666.8249	736.8738	744.7638	778.1172	819.2093	876.5518	934.0286	944.1124	989.2957	1012.257	1021.3484	1050.5697	1057.8889	1079.1063	1090.8982	1118.9057	1137.0173	1153.7464	1190.3984	1223.411	1252.8282	1282.5955	1294.0656	1334.9588	1369.0534	1395.4002	1404.7482	1412.9254	1498.7455	1504.0307	1514.4333	2997.4173	3017.5974	3026.0631	3081.6594	3085.1352	3102.5598	3160.1494	3186.6642	3198.8018	3819.7823
CC1C2C3OCC1(O)C23	C[C@H]1[C@@H]2[C@@H]3OC[C@@]1(O)[C@H]23	
InChI=1S/C7H10O2/c1-3-4-5-6(4)9-2-7(3,5)8/h3-6,8H,2H2,1H3	InChI=1S/C7H10O2/c1-3-4-5-6(4)9-2-7(3,5)8/h3-6,8H,2H2,1H3/t3-,4-,5+,6-,7-/m0/s1
