19
gdb 945	3.2782177	1.1612037	0.9791453	1.3397	74.58	-0.2316	-0.02312	0.20848	1226.4552	0.156814	-422.551276	-422.542954	-422.54201	-422.584799	30.917	
O	 0.3757840763	 0.1214072536	 0.9713963932	-0.237651
C	 0.0667296995	-0.2364331666	-0.1372826453	 0.152054
C	-0.681256948	 0.6040732004	-1.1453594731	-0.30477
C	-1.0659172343	 2.0094965142	-0.6677807776	-0.011233
C	-1.7443172946	 2.8364690564	-1.7895547425	-0.123661
O	-3.1499633679	 2.6158087271	-1.676326742	-0.258766
C	-3.4271562963	 2.3248992444	-0.3288048243	 0.122529
C	-2.883528273	 3.2433548661	 0.7334705421	-0.347537
C	-2.16240045	 1.9500289582	 0.390954349	-0.062422
H	 0.3374387963	-1.2541432304	-0.5029037196	 0.080314
H	-0.0438040631	 0.6526055689	-2.0414629899	 0.122701
H	-1.5689577047	 0.0373134351	-1.4629200248	 0.13622
H	-0.1674715147	 2.5173788709	-0.304508508	 0.092856
H	-1.5149251644	 3.9041517198	-1.6719405832	 0.099471
H	-1.440085341	 2.5384862658	-2.7974309571	 0.105094
H	-4.3796496867	 1.8226336649	-0.210925224	 0.0996
H	-2.4504427047	 4.194983501	 0.4442723358	 0.116769
H	-3.4094018644	 3.2673493467	 1.6818013101	 0.115618
H	-2.1193991044	 1.1624890436	 1.1316196012	 0.102813
63.0934	108.5103	149.0898	194.6869	252.7713	337.2583	371.73	466.8122	639.0798	677.7457	729.559	744.0437	799.5606	817.6957	853.4342	897.5976	935.3079	963.5988	979.132	989.5994	1017.7144	1051.9004	1063.5848	1097.5287	1120.7773	1140.2187	1163.2456	1204.6094	1218.7155	1245.9006	1261.0861	1310.8298	1333.1675	1362.3921	1391.8268	1403.2585	1422.3085	1442.6746	1480.2908	1526.8103	1827.7782	2863.6983	3003.9193	3007.7821	3033.7985	3069.4459	3078.4374	3133.4185	3186.3998	3200.3302	3218.9464
O=CCC1COC2CC12	O=CC[C@H]1CO[C@@H]2C[C@H]12	
InChI=1S/C7H10O2/c8-2-1-5-4-9-7-3-6(5)7/h2,5-7H,1,3-4H2	InChI=1S/C7H10O2/c8-2-1-5-4-9-7-3-6(5)7/h2,5-7H,1,3-4H2/t5-,6+,7+/m0/s1
