19
gdb 4559	2.9485434	1.2139104	0.9088771	1.5319	78.46	-0.25682	0.03448	0.2913	1287.9118	0.156014	-422.532063	-422.523213	-422.522269	-422.565335	33.517	
C	 0.3433011024	-0.2622631872	-0.7021612114	-0.409031
C	 1.2330610573	 0.303257009	 0.3820694729	 0.230891
O	 1.2945026023	-0.6243794876	 1.4391581158	-0.24587
C	 2.1246992152	-0.1645398893	 2.4948059736	-0.097493
C	 3.5323598077	 0.1424266823	 1.981139866	-0.209461
C	 3.4134637685	 1.096940769	 0.7779921582	-0.067414
O	 2.5072581601	 0.5466640912	-0.1788965434	-0.26329
C	 4.6937750418	 1.3463014186	 0.1269354087	 0.299509
C	 5.7667325212	 1.5535336238	-0.371000344	-0.412288
H	-0.6545532596	-0.453531654	-0.3012932537	 0.126363
H	 0.2712463822	 0.4440324401	-1.5319243784	 0.128089
H	 0.7669820703	-1.2005910021	-1.0678150113	 0.137671
H	 0.8353186485	 1.2612329814	 0.7747393218	 0.052375
H	 1.6847011893	 0.7383730627	 2.9526234356	 0.089425
H	 2.136730094	-0.9537221821	 3.2507950908	 0.114717
H	 4.1451395204	 0.5961933568	 2.7663815315	 0.109228
H	 4.0191158829	-0.7789569629	 1.6489870603	 0.124629
H	 3.0065825558	 2.060148527	 1.1364401402	 0.094015
H	 6.7097783796	 1.7384893434	-0.8231352135	 0.197936
112.2271	134.4056	168.7711	198.0026	272.4346	312.2171	324.5126	411.7665	464.525	496.7165	551.1751	569.8687	623.4117	646.8472	675.1401	838.0251	864.4413	901.0812	912.0221	967.8311	1036.669	1056.9413	1085.6108	1106.9688	1145.4048	1158.4225	1179.5458	1233.7742	1269.7089	1325.6353	1340.7119	1379.7391	1387.7722	1399.5317	1417.8551	1436.866	1468.5721	1480.937	1488.7452	1502.6676	2246.6594	2895.9473	2934.9378	2961.2462	3056.5024	3059.565	3094.4953	3111.0307	3141.2842	3143.294	3504.38
CC1OCCC(O1)C#C	C[C@H]1OCC[C@H](O1)C#C	
InChI=1S/C7H10O2/c1-3-7-4-5-8-6(2)9-7/h1,6-7H,4-5H2,2H3	InChI=1S/C7H10O2/c1-3-7-4-5-8-6(2)9-7/h1,6-7H,4-5H2,2H3/t6-,7+/m0/s1
