19
gdb 5617	3.6073776	1.2174977	1.0194441	2.3301	76.95	-0.24354	-0.00443	0.23911000000000002	1220.2624	0.155282	-422.531374	-422.522446	-422.521502	-422.565069	32.908	
C	 1.4825590686	-0.1757213133	 0.0170951548	-0.23163
O	 0.0778808354	-0.0581252408	 0.0421451779	-0.24215
C	-0.4059660931	 0.7554370001	 1.0884260829	 0.082566
C	-1.9236287703	 0.7313935036	 1.0809201428	-0.11595
C	-2.4471284125	 1.9555875903	 1.0670771916	-0.130869
C	-1.3632791805	 2.9981156504	 1.0113372393	 0.387832
C	-1.5635397661	 4.3840211127	 1.5539576048	-0.492725
O	-0.5863766558	 2.8840758996	-0.2073220634	-0.28693
C	-0.0927829581	 2.2571764872	 0.9797883366	-0.077224
H	 1.8761329488	-0.5539732579	 0.9746135517	 0.09948
H	 1.7312555334	-0.8887747699	-0.7723486097	 0.129657
H	 1.9750464579	 0.7815870519	-0.2063879631	 0.114717
H	-0.0113077559	 0.386569583	 2.0543232072	 0.06684
H	-2.4665962025	-0.2050995114	 1.0385984883	 0.111392
H	-3.5028238252	 2.2008450613	 1.0596117497	 0.103289
H	-1.8518754009	 4.3503317451	 2.6099618604	 0.126054
H	-0.647240467	 4.9707711961	 1.4560281129	 0.132665
H	-2.3591799549	 4.9008551177	 1.0058729735	 0.130331
H	 0.8352555786	 2.6627336744	 1.3749633919	 0.092654
69.5006	118.0719	169.6428	196.4492	217.936	278.623	310.4038	391.4112	436.4498	511.0028	562.0773	641.8677	718.4587	752.479	841.1537	848.775	898.1457	927.1447	957.2017	992.5348	1022.0679	1045.3052	1061.6684	1096.1105	1130.8834	1161.0851	1180.9585	1217.8398	1240.3501	1289.6866	1323.3948	1350.5334	1369.3767	1410.3107	1449.8339	1477.6863	1484.2371	1488.9058	1496.4822	1507.5326	1679.2693	2920.6171	2971.9437	3027.1745	3035.3229	3096.2818	3116.5714	3126.9364	3141.4303	3193.0385	3218.6286
COC1C=CC2(C)OC12	CO[C@@H]1C=C[C@]2(C)O[C@H]12	
InChI=1S/C7H10O2/c1-7-4-3-5(8-2)6(7)9-7/h3-6H,1-2H3	InChI=1S/C7H10O2/c1-7-4-3-5(8-2)6(7)9-7/h3-6H,1-2H3/t5-,6-,7+/m1/s1
