19
gdb 5287	2.2905974	1.6637095	1.309384	2.7098	74.9	-0.24276	0.00827	0.25103	1049.3837	0.157698	-422.548245	-422.539985	-422.53904	-422.581111	31.243	
O	 1.04080001	 0.7484314969	 0.3113918428	-0.418481
C	-0.2078782821	 0.146460845	 0.0068247599	-0.164103
C	-1.40014768	 1.0209003232	 0.3722337504	 0.272805
C	-2.6998721446	 0.6681971292	-0.3939382778	-0.130378
O	-2.6300191595	 1.8703170527	-1.1874601895	-0.296538
C	-1.5214741044	 2.3698290142	-0.3867241787	 0.062351
C	-1.927996748	 3.3569704333	 0.6707832381	-0.084886
C	-1.9627660291	 2.7970321079	 1.8811779926	-0.060192
C	-1.5663154849	 1.3373723006	 1.8727782935	-0.351726
H	 1.14410759	 0.7660605388	 1.2675271632	 0.286161
H	-0.1981985009	-0.0152975263	-1.0764253786	 0.117355
H	-0.3049113717	-0.8432349176	 0.4827993356	 0.087955
H	-2.6636613892	-0.2337982269	-1.0182792969	 0.098953
H	-3.6025658061	 0.6342351598	 0.2302745091	 0.09582
H	-0.6949669118	 2.6991010645	-1.0249590423	 0.088211
H	-2.1702330654	 4.3896257166	 0.447130209	 0.101992
H	-2.235888099	 3.311533154	 2.7969927067	 0.09954
H	-0.6373354882	 1.1795814368	 2.4410638418	 0.085666
H	-2.3193229551	 0.6975963773	 2.3511223511	 0.109495
95.6769	107.5148	199.8247	245.1326	265.2833	298.9995	358.814	466.3278	495.6875	608.1154	693.0662	745.8769	787.3363	870.1389	897.7074	928.2619	938.5035	963.328	973.1551	981.7094	1011.3375	1025.8026	1069.6545	1095.5412	1111.7426	1135.3937	1156.6513	1192.0758	1230.0943	1266.9961	1277.189	1308.4011	1342.2864	1366.8007	1371.8997	1386.5773	1420.2419	1480.3323	1499.9576	1518.2578	1675.1414	2970.6504	2988.9632	3002.5031	3033.8904	3046.8637	3057.3384	3070.9499	3178.5552	3208.0843	3826.3552
OCC12COC1C=CC2	OC[C@]12CO[C@H]1C=CC2	
InChI=1S/C7H10O2/c8-4-7-3-1-2-6(7)9-5-7/h1-2,6,8H,3-5H2	InChI=1S/C7H10O2/c8-4-7-3-1-2-6(7)9-5-7/h1-2,6,8H,3-5H2/t6-,7+/m0/s1
