19
gdb 3803	4.5388654	0.6183826	0.5646579	1.481	79.1	-0.24687	0.054	0.30087	1915.9113	0.153425	-422.489149	-422.478947	-422.478002	-422.525522	36.217	
O	 4.9499208607	 2.7199029649	 4.3430607332	-0.41977
C	 5.1770471714	 1.7085348497	 3.4078638001	 0.065241
C	 6.3483149195	 1.8086882822	 2.4491360272	-0.350706
C	 4.948408037	 2.0583134675	 1.9672167573	 0.108266
O	 4.4043274193	 1.1111284473	 1.106043929	-0.246335
C	 2.9878530079	 1.0793601128	 1.134287125	-0.057035
C	 2.538493329	-0.0023005836	 0.1466704907	-0.35061
C	 1.0885709077	-0.1237596545	 0.0842857573	 0.287528
C	-0.110181492	-0.2021864402	 0.0525280038	-0.447967
H	 5.6376013372	 2.6647894807	 5.0150743105	 0.289233
H	 4.8846613513	 0.7030229795	 3.7111456192	 0.092683
H	 7.0033281839	 2.6683470787	 2.537137845	 0.117443
H	 6.8225746278	 0.8848029242	 2.1377031602	 0.124647
H	 4.6621486651	 3.0916455804	 1.7668944577	 0.097609
H	 2.6222701781	 0.8515210824	 2.1455485378	 0.109304
H	 2.5712324887	 2.0551035757	 0.842797891	 0.105066
H	 2.9441675568	 0.2372376246	-0.8433925612	 0.14074
H	 2.9884207388	-0.9569698593	 0.4442649999	 0.138311
H	-1.168247748	-0.2815527131	 0.0150111765	 0.196351
47.7702	55.9791	82.8221	135.5943	176.9737	286.9515	300.4721	321.1883	353.6014	372.248	448.3491	498.9278	538.5771	623.0968	648.2156	794.5103	810.4615	850.6466	917.339	965.0444	986.4881	1025.7084	1059.8682	1080.9357	1088.6088	1095.8067	1116.8916	1179.983	1198.4562	1225.537	1232.3313	1289.8575	1298.3344	1304.7872	1349.707	1408.6179	1429.2139	1476.512	1491.77	1524.8369	2242.3421	2990.8661	3027.244	3034.7815	3073.0358	3098.8206	3103.55	3138.3484	3233.0092	3507.547	3800.8843
OC1CC1OCCC#C	O[C@@H]1C[C@H]1OCCC#C	
InChI=1S/C7H10O2/c1-2-3-4-9-7-5-6(7)8/h1,6-8H,3-5H2	InChI=1S/C7H10O2/c1-2-3-4-9-7-5-6(7)8/h1,6-8H,3-5H2/t6-,7-/m1/s1
