19
gdb 2643	2.7008022	1.1733244	0.957701	1.4326	77.62	-0.23513	0.04121	0.27634000000000003	1283.1559	0.153141	-422.512131	-422.50179	-422.500846	-422.547303	37.988	
C	 5.3402743221	 0.4033136064	-2.8679486327	-0.412912
C	 4.5537981986	-0.3133008426	-1.7931196399	-0.089402
C	 3.2832661496	-1.062618505	-2.1166757718	 0.016247
O	 3.112058116	-2.3068281814	-1.4995906764	-0.422102
C	 3.2269806579	 0.2127162281	-1.3011855803	 0.344118
O	 2.7645555553	 1.3721594915	-1.9320732755	-0.463833
C	 2.8720168435	 0.1165980698	 0.1783322968	-0.404498
C	 1.4210185838	 0.0852179786	 0.3564399532	 0.266359
C	 0.219824697	 0.0647018098	 0.4257272129	-0.447636
H	 5.9934164746	 1.1671098891	-2.4331427213	 0.119656
H	 5.9682863189	-0.3017478666	-3.4226219788	 0.117763
H	 4.6731373203	 0.9039943797	-3.5724981783	 0.133765
H	 5.1516593589	-0.7972728479	-1.0243313443	 0.096069
H	 2.9200703943	-0.9854392535	-3.1424810933	 0.086205
H	 2.1735259454	-2.4147401288	-1.3073097634	 0.292023
H	 1.8016777094	 1.3722042558	-1.8594977561	 0.285369
H	 3.3161242372	-0.7893085476	 0.6019397971	 0.144802
H	 3.296185724	 0.9757851318	 0.7115453817	 0.137256
H	-0.8372194767	 0.0444042328	 0.5274497906	 0.200751
40.551	105.7724	179.1923	198.2152	219.777	235.1677	290.221	335.8254	347.3138	364.2727	393.5068	403.6947	458.8306	511.3291	619.6396	629.2942	653.179	767.9158	841.9624	890.5798	926.8087	948.8522	983.9221	1031.3792	1074.7671	1122.7211	1141.2901	1171.6692	1199.3018	1238.2377	1279.0848	1293.9761	1313.7021	1354.4111	1375.4276	1415.1532	1454.7435	1482.0916	1495.5027	1508.4203	2227.8576	3037.8916	3038.1866	3089.4877	3094.7053	3096.7565	3126.6212	3145.773	3503.0689	3768.8612	3790.0634
CC1C(O)C1(O)CC#C	C[C@@H]1[C@@H](O)[C@@]1(O)CC#C	
InChI=1S/C7H10O2/c1-3-4-7(9)5(2)6(7)8/h1,5-6,8-9H,4H2,2H3	InChI=1S/C7H10O2/c1-3-4-7(9)5(2)6(7)8/h1,5-6,8-9H,4H2,2H3/t5-,6-,7-/m1/s1
