19
gdb 5846	2.3628973	1.2005493	0.8629889	2.4449	79.5	-0.24979	-0.06097	0.18882000000000002	1335.2259	0.156591	-422.57947	-422.570298	-422.569354	-422.613843	32.929	
O	-0.1336196695	-0.7557898267	-0.8395462687	-0.412574
C	 0.2580339426	 0.5247317955	-0.3747493277	-0.067647
C	-0.3347109962	 0.8714909173	 1.0041739084	-0.143615
C	-1.8862068016	 0.9257256475	 0.9891343274	-0.227645
C	-2.2496182718	 2.4311467779	 0.8890360314	-0.26062
C	-0.9930031	 3.1212049423	 1.3392228853	-0.126714
C	 0.0477792326	 2.2793012291	 1.4299778798	 0.224675
C	 1.4019676787	 2.6747824042	 1.8551669328	 0.066309
O	 1.7319910982	 3.7994775202	 2.1610683472	-0.264249
H	 0.2308885214	-1.414287194	-0.2391240392	 0.283046
H	 1.3551076197	 0.6232345782	-0.3479365616	 0.091035
H	-0.1096631442	 1.2372311022	-1.1215732749	 0.115256
H	 0.0310160303	 0.1204302905	 1.7190294956	 0.066771
H	-2.2969852157	 0.3233404934	 0.1762233927	 0.121325
H	-2.2788154325	 0.5195323349	 1.9258998998	 0.105157
H	-2.5045973665	 2.7371835663	-0.1356786806	 0.12314
H	-3.1164718179	 2.7005841038	 1.5028598351	 0.117347
H	-0.9264593987	 4.1819184142	 1.5545102004	 0.127825
H	 2.1402195411	 1.8409959631	 1.8944183168	 0.06118
85.0924	102.6545	122.45	185.5572	214.6863	231.8475	296.9895	317.9939	395.8755	509.4169	534.2883	687.0193	740.815	787.3662	855.9221	882.7732	919.729	942.4997	969.8085	1007.2263	1043.1775	1057.6985	1076.5028	1098.2113	1149.2693	1152.3488	1217.7243	1239.5973	1263.1656	1299.0566	1315.3467	1349.1233	1352.4633	1389.9071	1412.1054	1444.8676	1473.5772	1497.8824	1505.6537	1662.7416	1789.3828	2863.8806	2976.9536	2997.2994	3011.5798	3052.9625	3067.035	3070.589	3115.5362	3206.078	3812.1828
OCC1CCC=C1C=O	OC[C@@H]1CCC=C1C=O	
InChI=1S/C7H10O2/c8-4-6-2-1-3-7(6)5-9/h2,4,7,9H,1,3,5H2	InChI=1S/C7H10O2/c8-4-6-2-1-3-7(6)5-9/h2,4,7,9H,1,3,5H2/t7-/m0/s1
