19
gdb 2595	2.4193425	1.5840135	1.0398543	4.6208	79.48	-0.25726	-0.03065	0.22660999999999998	1172.6602	0.157823	-422.597388	-422.588772	-422.587828	-422.6308	31.998	
C	 1.220995726	 0.9697308559	 0.0541583193	-0.455859
C	-0.0503407786	 0.2633922678	 0.4728959403	 0.124472
C	-0.1736848692	-1.0600375989	 0.2888101301	-0.116044
C	-1.266684228	-2.0336264792	 0.6152653142	-0.262052
C	-2.5304763249	-1.4719696883	 1.2664178467	-0.225406
C	-2.9654506	-0.1559662318	 0.6316694548	-0.073396
O	-2.3274126798	 0.9681926912	 1.2395937067	-0.222892
C	-0.9951661536	 1.1972808207	 1.1749263707	 0.357579
O	-0.5797952032	 2.2081358646	 1.6871853984	-0.326397
H	 1.7190896647	 1.4076076487	 0.9230328964	 0.151441
H	 1.9055585416	 0.2794502362	-0.4441639932	 0.109923
H	 1.004240476	 1.8000191415	-0.6263437955	 0.132671
H	 0.6779525905	-1.5426926424	-0.190933363	 0.095929
H	-1.5374332712	-2.5335025744	-0.3273326397	 0.119086
H	-0.8436591915	-2.8339062144	 1.2383907731	 0.121766
H	-3.3367384657	-2.2082395759	 1.1797848618	 0.107014
H	-2.3806205571	-1.292300538	 2.3366024867	 0.125149
H	-2.7837973839	-0.1560036316	-0.450748586	 0.112944
H	-4.0291428221	 0.0291419683	 0.7965954683	 0.124072
68.9396	115.1818	171.0515	251.7471	270.5447	324.9661	359.8403	365.7274	420.5459	538.0055	573.2904	629.7505	722.6736	764.6448	824.6332	859.5602	902.9976	938.3271	995.0814	1040.9559	1074.7165	1080.9394	1095.01	1125.067	1132.6815	1212.6606	1242.2635	1275.4542	1306.8251	1377.116	1383.1706	1405.5789	1417.3504	1426.007	1464.9883	1470.2804	1482.7155	1491.8528	1506.0167	1713.522	1792.5386	2995.8416	3024.5327	3028.9107	3042.574	3045.732	3086.8627	3103.7256	3105.9778	3122.3349	3131.0402
CC1=CCCCOC1=O	CC1=CCCCOC1=O	
InChI=1S/C7H10O2/c1-6-4-2-3-5-9-7(6)8/h4H,2-3,5H2,1H3	InChI=1S/C7H10O2/c1-6-4-2-3-5-9-7(6)8/h4H,2-3,5H2,1H3
