19
gdb 5173	3.340057	1.2897701	1.1104527	2.235	76.1	-0.24477	0.06855	0.31332	1132.995	0.155995	-422.489008	-422.480472	-422.479528	-422.521913	32.783	
O	 1.1295104631	 0.7399988087	-0.6256205146	-0.420587
C	-0.0088729182	 0.3478573417	 0.1315726525	-0.2267
C	-1.2168647572	 0.4968816146	-0.7401164648	 0.393321
C	-1.5380597176	-0.2412710952	-2.0605552655	-0.344853
C	-2.7259611662	 0.6899306447	-1.8308582696	 0.403476
O	-3.8087594175	 0.7736963994	-2.6805446603	-0.470297
C	-2.7123122097	 0.4817215716	-0.264176352	-0.167729
C	-2.7146617769	 2.001725855	 0.0052746918	-0.290615
C	-1.8315176344	 1.8512581891	-1.2510533396	-0.138649
H	 1.9125307988	 0.5901496803	-0.0876452955	 0.287813
H	 0.0759662794	-0.6998247245	 0.4635983528	 0.08809
H	-0.1223521443	 0.9686928793	 1.035488342	 0.087217
H	-0.8924807035	-0.0164459793	-2.9139728608	 0.104773
H	-1.7348423608	-1.3160651639	-1.9858314756	 0.089363
H	-4.4100127816	 1.4525066971	-2.3533009624	 0.284858
H	-3.1972206112	-0.3263786039	 0.287165567	 0.068173
H	-3.6687477728	 2.5276651256	-0.1143066796	 0.079294
H	-2.219951095	 2.3435618318	 0.9194872262	 0.095295
H	-1.2969566944	 2.6092612082	-1.824405752	 0.077756
85.4726	139.5241	220.887	247.2651	278.8635	286.1452	329.3828	435.1808	440.5568	505.526	621.0878	666.6909	712.8508	781.6958	859.8043	862.1974	907.2615	942.9602	980.2706	988.7971	1041.0194	1057.3377	1065.713	1089.383	1105.379	1112.4018	1117.697	1147.3272	1162.7629	1178.3325	1225.8131	1242.7036	1259.009	1274.5964	1303.183	1354.3183	1396.226	1466.3296	1506.8847	1517.317	1523.5819	2959.3197	2985.7713	3032.4152	3042.5278	3087.1229	3095.347	3107.195	3113.8807	3797.1264	3827.8021
OCC12CC3(O)C1CC23	OC[C@@]12C[C@@]3(O)[C@@H]1C[C@@H]23	
InChI=1S/C7H10O2/c8-3-6-2-7(9)4(6)1-5(6)7/h4-5,8-9H,1-3H2	InChI=1S/C7H10O2/c8-3-6-2-7(9)4(6)1-5(6)7/h4-5,8-9H,1-3H2/t4-,5+,6+,7-
