19
gdb 2015	3.1108658	1.3228926	1.0982658	2.6838	74.58	-0.23888	-0.01555	0.22333	1129.2907	0.157215	-422.577481	-422.569095	-422.568151	-422.610727	32.297	
O	-3.9754815542	 0.2401398333	-1.5764642471	-0.464778
C	-2.5906788071	 0.0555094561	-1.4327812194	 0.400831
C	-2.0422805761	-1.0418662734	-2.2927467469	-0.312743
C	-2.1241425416	-1.2407824661	-0.7911233075	-0.103058
C	-0.8539240458	-1.2933939937	 0.0442563676	-0.319825
C	-0.0074945717	-0.0282349323	-0.0520318368	 0.379038
O	 1.1982889666	-0.054706502	-0.1271914082	-0.309373
C	-0.8114188272	 1.2610689144	-0.0244720437	-0.291947
C	-1.7777789025	 1.3375493558	-1.2260549511	-0.298059
H	-4.3305164906	 0.5171019655	-0.7243746658	 0.277659
H	-2.7521426147	-1.5817928297	-2.9082035789	 0.124141
H	-1.0621335391	-0.8980582716	-2.7381093049	 0.119164
H	-2.9237421889	-1.8986657049	-0.4642480646	 0.0927
H	-1.1242949529	-1.3937958662	 1.1058274269	 0.120953
H	-0.2269277186	-2.153462347	-0.2095282778	 0.124249
H	-1.3964633841	 1.2717417045	 0.9052527307	 0.108404
H	-0.1247496546	 2.109898684	-0.0093812114	 0.120558
H	-2.4793001108	 2.1644666827	-1.0800753189	 0.109844
H	-1.2119319562	 1.5743329207	-2.1338172922	 0.122243
47.1292	114.5803	206.904	311.8082	353.5452	373.2039	391.4821	404.326	480.441	509.1709	534.7778	669.0828	691.2731	763.4177	823.9032	835.6229	898.7004	923.8898	938.7533	959.8363	1007.8388	1042.858	1067.0583	1097.7196	1112.8706	1150.5016	1169.8433	1219.5565	1236.2764	1257.8073	1280.9427	1303.9425	1326.2507	1349.6035	1370.4869	1418.5307	1460.1955	1473.1978	1483.6638	1499.6259	1820.8929	3007.9139	3021.1894	3042.5532	3082.94	3085.5051	3114.7374	3127.7688	3151.9791	3223.6621	3791.916
OC12CC1CC(=O)CC2	O[C@]12C[C@H]1CC(=O)CC2	
InChI=1S/C7H10O2/c8-6-1-2-7(9)4-5(7)3-6/h5,9H,1-4H2	InChI=1S/C7H10O2/c8-6-1-2-7(9)4-5(7)3-6/h5,9H,1-4H2/t5-,7-/m1/s1
