19
gdb 1510	3.3865892	1.0808233	1.0133985	3.8556	78.23	-0.23702	-0.02789	0.20913	1245.4025	0.155123	-422.58686	-422.577612	-422.576668	-422.620906	34.301	
C	-1.1773402076	 2.6023801488	-2.4857294648	-0.439383
C	-0.3580209449	 1.5180465927	-1.7863421284	 0.353708
O	 0.371748254	 0.7544848028	-2.7678943396	-0.463971
C	 0.6994445942	 2.0650433482	-0.7990893696	-0.269263
C	 0.7723180348	 1.0430298791	 0.365075997	-0.12583
C	 1.8903576875	 0.0239296226	 0.1610784529	 0.152032
O	 2.641453233	-0.3479971254	 1.0245840172	-0.255257
C	-0.5650537051	 0.3366555573	 0.256243039	-0.097871
C	-1.1738260354	 0.5935436718	-0.8998506538	-0.111815
H	-1.7282059619	 3.2120025154	-1.7627534092	 0.119983
H	-0.5216775025	 3.2544706772	-3.0703607467	 0.127844
H	-1.9066326613	 2.154949558	-3.1713912318	 0.10593
H	-0.26462679	 0.2529153684	-3.2894609192	 0.274827
H	 1.6538647997	 2.2158159538	-1.3104712117	 0.120158
H	 0.3740577902	 3.0297579606	-0.4014414379	 0.11021
H	 0.9297822127	 1.508558635	 1.3423313529	 0.09086
H	 1.9431845626	-0.3677810588	-0.8783481461	 0.097918
H	-0.922914801	-0.3345736686	 1.028947436	 0.113585
H	-2.1242469989	 0.1770351711	-1.2193288763	 0.096336
73.8589	77.4566	175.0442	242.7018	262.6193	266.018	337.1367	351.733	380.3801	422.6188	459.5009	552.376	630.4126	777.0359	788.0659	804.6435	860.6352	923.4373	934.1668	939.3766	980.7074	991.4005	1026.7397	1075.5012	1105.793	1135.6408	1150.0671	1182.0376	1237.5254	1271.6044	1276.6524	1310.7886	1359.525	1382.1179	1405.0621	1416.7427	1474.1367	1490.2183	1490.9379	1673.76	1828.4574	2904.431	3027.9645	3062.7842	3074.0585	3094.7554	3112.6768	3116.8506	3174.6226	3205.3509	3801.9451
CC1(O)CC(C=O)C=C1	C[C@@]1(O)C[C@H](C=O)C=C1	
InChI=1S/C7H10O2/c1-7(9)3-2-6(4-7)5-8/h2-3,5-6,9H,4H2,1H3	InChI=1S/C7H10O2/c1-7(9)3-2-6(4-7)5-8/h2-3,5-6,9H,4H2,1H3/t6-,7+/m1/s1
