19
gdb 3659	2.0554378	1.5833806	1.0939909	3.2713	78.04	-0.23347	-0.01685	0.21662	1170.1978	0.154823	-422.55489	-422.545527	-422.544582	-422.589163	34.419	
C	-2.519807577	 2.7891107269	 1.3364370817	-0.413037
C	-1.1942557114	 2.3540199806	 0.7538036624	-0.064551
C	-1.0054387436	 2.2519130814	-0.7229122294	-0.325054
C	-1.077735618	 0.9850744119	 0.1120646979	 0.230846
C	-2.113595145	-0.1365591415	-0.021834388	 0.0058
O	-2.8858787569	-0.0234476457	-1.1968869974	-0.431873
C	-0.9440988504	-1.1819309026	-0.0262628448	-0.391701
C	 0.0265014214	-0.0137704491	 0.2525802976	 0.342413
O	 1.1963267624	 0.0635136552	 0.5102318072	-0.320914
H	-2.6593646775	 2.3982727269	 2.3500961104	 0.120823
H	-2.5801822079	 3.8814182301	 1.388456366	 0.125268
H	-3.3529754453	 2.4375738987	 0.7197563435	 0.129494
H	-0.3136453187	 2.6388483488	 1.3249223079	 0.105545
H	-1.860315833	 2.4296341422	-1.366895422	 0.13705
H	-0.0386440054	 2.4942575273	-1.1508015862	 0.131253
H	-2.7556364439	-0.2329126712	 0.8641663524	 0.074299
H	-3.5191144175	-0.7480691655	-1.2138186713	 0.287503
H	-0.9680161795	-1.9782795194	 0.7220644926	 0.122384
H	-0.7892197128	-1.6160447151	-1.0189314305	 0.134451
61.55	110.5763	147.3845	176.9559	229.1975	272.3736	285.6326	366.5354	397.8139	491.2441	508.0936	558.7853	606.8703	697.861	758.7998	809.8304	890.355	906.7086	922.4674	981.8254	1002.5217	1032.8357	1061.7829	1092.6539	1109.2126	1126.762	1151.9062	1173.8757	1190.06	1212.0802	1243.075	1277.7722	1336.6488	1403.391	1415.1929	1423.7559	1442.5429	1480.7712	1495.3481	1503.3604	1875.9799	3006.0666	3031.3005	3058.6044	3094.3912	3104.1175	3120.385	3133.2229	3141.6357	3226.2246	3818.2311
CC1CC11C(O)CC1=O	C[C@@H]1C[C@@]21[C@@H](O)CC2=O	
InChI=1S/C7H10O2/c1-4-3-7(4)5(8)2-6(7)9/h4-5,8H,2-3H2,1H3	InChI=1S/C7H10O2/c1-4-3-7(4)5(8)2-6(7)9/h4-5,8H,2-3H2,1H3/t4-,5+,7-/m1/s1
