19
gdb 3118	2.1465416	1.7919448	1.2855985	0.4471	75.22	-0.24723	0.07897	0.3262	1071.1469	0.154382	-422.501913	-422.492927	-422.491983	-422.535246	33.478	
C	 0.6521490555	 0.8987572677	-0.1047382688	-0.396117
C	 0.9251048477	-0.5644551447	 0.2234760363	-0.135819
C	 2.0854311228	-0.8171076502	 1.2105252154	-0.053481
O	 2.3052209054	-2.2336326698	 1.2533634998	-0.291178
C	 2.9172853954	-1.4827271872	 0.1866804633	 0.32665
C	 4.3857387897	-1.5898028236	-0.0491588388	-0.514923
C	 1.8010584245	-1.2899469797	-0.8367924099	 0.400029
C	 1.4738096367	-2.0466401044	-2.0406440706	-0.265398
O	 2.0439112737	-0.7247261845	-2.1127055656	-0.273823
H	 0.1756936306	 1.4029416881	 0.74212428	 0.115144
H	 1.5772718315	 1.4316085164	-0.3455750203	 0.123612
H	-0.0098627608	 0.9853480771	-0.9706924256	 0.129209
H	 0.007077537	-1.090989353	 0.5012112553	 0.087474
H	 2.3729228877	-0.2370253816	 2.0809931314	 0.103812
H	 4.9344481823	-1.4878146462	 0.8906289384	 0.135031
H	 4.6396706227	-2.5612455974	-0.488107426	 0.131935
H	 4.7138260714	-0.8106394215	-0.7432749814	 0.140952
H	 2.1250368509	-2.8528625435	-2.3748014567	 0.117858
H	 0.4375272453	-2.1197507121	-2.3671291861	 0.119032
93.4989	165.3633	191.6604	195.1821	203.2993	238.9904	279.3321	369.1917	447.3776	504.7695	531.251	598.8785	661.9132	787.5723	814.9179	862.397	886.7239	893.5324	966.1089	977.4189	1010.2772	1046.9811	1093.166	1105.0673	1114.8163	1127.9094	1129.3197	1161.0207	1228.9254	1248.7653	1254.441	1341.4529	1398.1083	1409.376	1432.9014	1469.9507	1481.0446	1491.9401	1493.9548	1496.0693	1537.1944	3037.8552	3039.374	3063.5299	3084.6517	3102.1951	3108.4308	3116.0067	3127.1583	3171.6395	3176.8317
CC1C2OC2(C)C11CO1	C[C@@H]1[C@H]2O[C@@]2(C)[C@]21CO2	
InChI=1S/C7H10O2/c1-4-5-6(2,9-5)7(4)3-8-7/h4-5H,3H2,1-2H3	InChI=1S/C7H10O2/c1-4-5-6(2,9-5)7(4)3-8-7/h4-5H,3H2,1-2H3/t4-,5-,6-,7-/m1/s1
