19
gdb 3221	2.6380252	1.654345	1.3684431	1.9411	73.87	-0.24246	0.06475	0.30721	1002.9771	0.158021	-422.519708	-422.511938	-422.510994	-422.551524	30.966	
O	-0.6176569116	-0.1122274836	 0.5174993554	-0.446125
C	-2.0228314233	-0.0122790103	 0.3843712452	 0.160347
C	-2.6601450531	 1.0941239644	 1.2642303383	-0.081812
C	-4.1300482782	 1.3998752047	 0.8818971543	-0.23503
C	-4.5964657643	 0.1186547912	 1.6117568423	-0.068757
C	-4.3043278291	-1.1663765647	 0.8148166593	 0.139901
O	-4.6998066786	-1.1247870753	-0.5370509443	-0.429773
C	-2.7969754413	-1.0919881156	 1.1815188086	-0.152152
C	-3.1693328047	-0.0121008323	 2.2667132627	-0.061994
H	-0.4096816014	-0.1599384825	 1.4576185824	 0.276218
H	-2.2173944737	 0.0387362698	-0.6901331044	 0.087521
H	-2.0049715539	 1.9272682493	 1.5252777118	 0.064243
H	-4.4890437306	 2.290080006	 1.4058028514	 0.098705
H	-4.3726029415	 1.4883709494	-0.180463125	 0.111372
H	-5.5386599289	 0.1586244953	 2.1580965854	 0.064889
H	-4.7544304349	-2.0241554281	 1.3370856514	 0.067003
H	-4.4435416752	-1.9519663579	-0.9577598516	 0.284455
H	-2.2646782443	-2.0276022729	 1.3659310884	 0.058577
H	-2.9655379815	-0.0721914769	 3.3327821884	 0.062414
144.9661	174.8529	251.416	272.5212	286.8228	356.1537	398.589	485.787	563.8114	617.2667	697.1214	795.1374	828.1764	837.3913	880.2673	890.7479	900.2913	959.4422	978.0041	1001.9273	1032.3228	1046.315	1088.4028	1101.771	1108.0852	1116.5215	1142.2669	1176.2467	1192.6412	1206.7383	1232.7703	1250.6092	1254.0461	1259.7706	1291.6439	1319.254	1328.9991	1345.6105	1416.8653	1424.4557	1482.7448	2982.0979	3053.8615	3078.2128	3083.76	3089.9547	3103.1115	3109.6042	3144.5595	3792.6826	3814.3087
OC1C2CC3C(O)C1C23	O[C@@H]1[C@H]2C[C@H]3[C@@H](O)[C@@H]1[C@@H]23	
InChI=1S/C7H10O2/c8-6-2-1-3-4(2)5(6)7(3)9/h2-9H,1H2	InChI=1S/C7H10O2/c8-6-2-1-3-4(2)5(6)7(3)9/h2-9H,1H2/t2-,3+,4-,5+,6-,7-/m1/s1
