19
gdb 3011	2.8502175	1.7319428	1.3615734	3.0924	73.87	-0.243	0.07815	0.32115	1001.2079	0.156352	-422.507653	-422.499812	-422.498868	-422.539316	31.307	
C	 0.9715889173	-0.5091857196	-1.0119865794	-0.429926
C	 0.9654921229	 0.2372855037	 0.311669527	-0.018773
C	 1.9932607929	 1.4039773543	 0.4523557299	 0.002403
O	 3.0168303757	 0.4236244667	 0.7499542943	-0.297029
C	 1.9445127861	-0.2992244294	 1.4235324156	 0.367579
C	 2.2240637936	-1.744688595	 1.7146523468	-0.513232
C	 1.5952239147	 0.6802219578	 2.5895752288	-0.019661
O	 2.6185907426	 1.6410443463	 2.8565121234	-0.229552
C	 1.6371794	 1.9484148504	 1.8647451005	 0.021663
H	 0.4397789656	-1.4631643185	-0.9274315287	 0.116983
H	 0.4707249446	 0.0767024944	-1.7900060171	 0.116299
H	 1.9941927318	-0.7119703036	-1.3395967845	 0.1365
H	-0.0551731284	 0.4584249349	 0.6463141569	 0.065383
H	 2.2468294449	 2.0934685768	-0.3523908689	 0.083158
H	 3.1133613621	-1.8335324149	 2.3465507519	 0.143017
H	 1.3804493659	-2.1962494832	 2.2473583446	 0.121158
H	 2.3963233319	-2.3105320275	 0.7951899194	 0.130047
H	 0.9226628665	 0.4219148746	 3.4005667241	 0.100739
H	 0.9985169393	 2.8078511818	 2.0348210153	 0.103245
203.4368	213.8733	222.2176	241.6291	269.344	317.6666	428.4905	463.6678	506.3567	621.9787	700.8879	724.9319	805.7675	819.9109	836.1126	858.0981	882.2056	899.8217	917.6827	970.0866	998.6407	1041.5944	1065.5469	1077.5258	1112.6607	1127.2575	1160.6305	1212.8644	1225.8712	1239.9392	1267.0725	1277.1422	1318.6945	1367.7132	1404.6477	1409.2171	1420.1406	1479.4375	1490.4054	1499.0689	1506.1068	3032.5343	3037.9809	3040.3072	3094.1	3108.7976	3118.991	3125.2392	3126.7249	3170.6594	3185.6017
CC1C2OC1(C)C1OC21	C[C@@H]1[C@@H]2O[C@@]1(C)[C@H]1O[C@@H]21	
InChI=1S/C7H10O2/c1-3-4-5-6(8-5)7(3,2)9-4/h3-6H,1-2H3	InChI=1S/C7H10O2/c1-3-4-5-6(8-5)7(3,2)9-4/h3-6H,1-2H3/t3-,4+,5+,6+,7-/m1/s1
