19
gdb 3043	2.81645	1.2832423	1.0530576	2.816	76.24	-0.24295	-0.02559	0.21736	1183.8173	0.154639	-422.505852	-422.496945	-422.496001	-422.540186	32.696	
C	-2.1736265231	 1.3196317702	-1.7035262166	-0.44171
C	-2.3698599176	 1.9466047487	-0.3365790232	 0.005517
C	-1.9471817669	 3.4234856761	-0.1103648787	 0.037002
C	-1.8812677872	 3.1719311759	 1.4115374809	-0.268668
C	-1.1735619894	 2.0086039161	 0.6715106733	 0.388795
C	-0.3108362833	 0.9074301092	 1.2336473453	-0.414753
C	 0.3927814804	 0.1038730182	 0.154856368	 0.160625
O	 0.3044264859	-1.0909801272	 0.0352081468	-0.242265
O	-0.5217815749	 3.021334628	-0.2066343732	-0.347374
H	-2.168999322	 0.2266420491	-1.6391433407	 0.131499
H	-2.9879612421	 1.6051119793	-2.3779550019	 0.116244
H	-1.2298325926	 1.6470492051	-2.1448724949	 0.135763
H	-3.3272955466	 1.6695507627	 0.1172662058	 0.07243
H	-2.2473320342	 4.320833699	-0.6512137181	 0.097369
H	-1.2133109962	 3.8375554585	 1.9593600681	 0.107671
H	-2.8111254478	 2.9573964201	 1.9441019027	 0.097922
H	 0.4610394681	 1.3678905087	 1.8660908492	 0.132745
H	-0.9098597432	 0.2301711421	 1.8491548795	 0.129539
H	 1.0194567027	 0.7111585204	-0.5322661624	 0.101648
52.5018	61.7537	154.1717	224.5841	241.0203	291.9309	343.3116	375.7232	464.3687	525.3841	636.6335	675.475	721.9461	784.9157	793.2652	836.4785	905.788	938.4846	952.9639	1014.9031	1023.1697	1042.9965	1073.8034	1090.3352	1120.6973	1147.8422	1167.0238	1207.6401	1212.8819	1225.2383	1251.0806	1285.0838	1343.0796	1394.328	1412.2901	1424.5096	1445.3058	1487.6646	1500.8077	1505.4573	1830.6552	2911.8679	3021.984	3038.8159	3052.1723	3066.9686	3098.4857	3103.5423	3122.2071	3132.0797	3148.7618
CC1C2CC1(CC=O)O2	C[C@@H]1[C@H]2C[C@]1(CC=O)O2	
InChI=1S/C7H10O2/c1-5-6-4-7(5,9-6)2-3-8/h3,5-6H,2,4H2,1H3	InChI=1S/C7H10O2/c1-5-6-4-7(5,9-6)2-3-8/h3,5-6H,2,4H2,1H3/t5-,6-,7+/m1/s1
