19
gdb 1981	3.6428159	1.4543162	1.2738673	3.1236	73.77	-0.23706	0.06544	0.3025	1041.6162	0.157895	-422.536099	-422.528487	-422.527543	-422.56784	29.911	
C	-0.0069720514	 0.0622460455	 0.0300866764	-0.483917
C	 1.4917473891	 0.0939268223	-0.0992143028	 0.410247
C	 2.1621201282	-0.26736851	-1.4225474066	-0.306934
C	 3.5841800913	 0.3150237577	-1.3393688205	-0.079891
C	 4.7162194271	-0.4574831339	-0.6210958787	-0.076965
O	 4.8241053191	 0.5575464269	 0.4050352339	-0.28893
C	 3.6625529979	 1.2455939908	-0.0995454535	 0.105203
C	 2.3866292281	 0.9783776018	 0.680530438	-0.048618
O	 2.2361509105	-0.4064388214	 1.0211542815	-0.28187
H	-0.3115216003	 0.3512652422	 1.0388473178	 0.132676
H	-0.4758159378	 0.7423315592	-0.6888921102	 0.121527
H	-0.3896343014	-0.9459454427	-0.1639785537	 0.129088
H	 2.1566623738	-1.3519360293	-1.5810108416	 0.112385
H	 1.605166092	 0.1825280512	-2.2524228356	 0.102242
H	 3.9070459707	 0.7634134859	-2.279383601	 0.08324
H	 4.4211037574	-1.4263366584	-0.2047576102	 0.111267
H	 5.6539893783	-0.5621685494	-1.1790145851	 0.096145
H	 3.8457673652	 2.3170712874	-0.2381359317	 0.07207
H	 2.0185954622	 1.6824562642	 1.4235698937	 0.091036
152.7332	166.6243	202.0211	263.2226	333.7354	379.4593	394.9549	539.1274	583.0475	679.7177	716.3143	801.3485	834.9853	850.5817	877.7188	907.0987	935.0946	963.7014	999.1847	1017.4711	1037.2263	1045.2595	1074.1703	1102.3018	1128.7067	1163.5638	1197.2545	1226.7898	1239.9621	1264.7975	1295.2085	1319.9294	1333.5052	1347.1571	1371.2487	1409.4928	1444.9082	1477.6756	1485.4157	1497.8958	1515.5538	3025.1202	3033.4463	3038.1434	3044.6211	3074.4653	3076.7006	3097.0074	3106.0175	3124.9282	3138.2012
CC12CC3COC3C1O2	C[C@@]12C[C@@H]3CO[C@@H]3[C@@H]1O2	
InChI=1S/C7H10O2/c1-7-2-4-3-8-5(4)6(7)9-7/h4-6H,2-3H2,1H3	InChI=1S/C7H10O2/c1-7-2-4-3-8-5(4)6(7)9-7/h4-6H,2-3H2,1H3/t4-,5+,6+,7-/m1/s1
