19
gdb 5601	2.4560451	1.3862539	0.9761965	1.8359	76.01	-0.24343	-0.0294	0.21403	1240.641	0.156156	-422.537726	-422.528974	-422.52803	-422.57175	31.748	
C	 1.209825337	 1.2075329457	 0.3752594529	-0.387781
C	 0.9906849083	-0.2800637184	 0.0856450732	-0.18892
C	 1.6845343921	-0.7528580486	-1.1980710837	-0.137817
C	 0.9876572196	-0.4051876532	-2.5443780815	 0.103356
O	 1.9114801983	-0.3133048074	-3.6453395309	-0.286911
C	 1.6770350209	-1.6867279464	-4.0243801071	-0.089349
C	 0.7059426755	-1.9138269205	-2.8394672278	-0.220751
C	 1.4170917293	-2.2429791069	-1.5196057967	 0.39506
O	 1.6024916474	-3.258367768	-0.9133219134	-0.304922
H	 0.6894680233	 1.5084049065	 1.2897056613	 0.119208
H	 2.2741510075	 1.4298662108	 0.5051817141	 0.122749
H	 0.8384151791	 1.8361818911	-0.4408202977	 0.121002
H	 1.3654026458	-0.8877689663	 0.916862629	 0.12233
H	-0.0848864086	-0.4919719224	 0.0182945533	 0.098904
H	 2.7450622875	-0.479159916	-1.1897111527	 0.108609
H	 0.2341327041	 0.3852158634	-2.5477284605	 0.086684
H	 1.1878437045	-1.7513186056	-5.0031146927	 0.115769
H	 2.5934565887	-2.2874739013	-4.0386971242	 0.119296
H	-0.2588927502	-2.3759708865	-3.0431506348	 0.103486
68.1941	99.651	134.641	186.792	217.299	272.1293	301.0249	421.6667	454.871	623.655	690.1865	768.3022	781.9387	842.2499	853.869	925.0032	933.5201	962.9496	978.6146	1021.8968	1033.1	1048.9253	1071.0824	1103.6257	1129.9477	1157.59	1171.9164	1198.3472	1232.6546	1245.8777	1253.8054	1301.3647	1327.8992	1355.6453	1369.8465	1414.0571	1486.6762	1498.5616	1504.8533	1523.6911	1884.3794	3019.7829	3024.1686	3034.8006	3058.3565	3068.3401	3071.1414	3090.0665	3104.8322	3107.0574	3129.4749
CCC1C2OCC2C1=O	CC[C@@H]1[C@H]2OC[C@H]2C1=O	
InChI=1S/C7H10O2/c1-2-4-6(8)5-3-9-7(4)5/h4-5,7H,2-3H2,1H3	InChI=1S/C7H10O2/c1-2-4-6(8)5-3-9-7(4)5/h4-5,7H,2-3H2,1H3/t4-,5-,7+/m0/s1
