19
gdb 1889	2.4281459	1.7772133	1.2429596	1.8457	75.95	-0.22421	0.02083	0.24503999999999998	1041.5123	0.157082	-422.562597	-422.554342	-422.553398	-422.594657	33.141	
O	 0.0527577895	 1.5085381512	 1.430969462	-0.490485
C	-0.9139027335	 0.7378297505	 0.778644738	 0.381847
C	-2.3779364058	 1.0773531543	 0.9973278282	-0.389161
C	-1.7843007189	-0.154595982	 1.6337286525	 0.338083
O	-1.5931017917	-0.0221796461	 3.0262215677	-0.482168
C	-2.1802610378	-1.5345226896	 1.1531540721	-0.342474
C	-1.9725418325	-1.7204835818	-0.3272603557	-0.061858
C	-1.209691147	-0.9316947496	-1.0841107769	-0.05742
C	-0.4431138653	 0.259520687	-0.5768129024	-0.31959
H	-0.163865106	 1.4622771717	 2.3726141072	 0.279569
H	-2.5857028312	 1.9076718172	 1.6636528685	 0.117943
H	-3.0827419233	 0.9436951448	 0.1832095677	 0.116892
H	-0.9440434139	-0.684224475	 3.2942755668	 0.283422
H	-1.5798405207	-2.2842615278	 1.6949782722	 0.099226
H	-3.2234285204	-1.7449162178	 1.4261382366	 0.114224
H	-2.4755368618	-2.5714856675	-0.7790837896	 0.088948
H	-1.1049924673	-1.1541811032	-2.1430500537	 0.089557
H	 0.6226506866	 0.0047889333	-0.4905273156	 0.120963
H	-0.491916239	 1.0809159903	-1.3043712656	 0.112484
134.2181	184.1178	259.2821	275.7442	334.8195	370.8937	402.5292	440.4944	458.2371	507.3661	529.094	545.5143	684.5057	689.2191	722.862	805.7927	889.6466	912.9648	930.7192	949.9335	985.0089	998.7521	1024.7114	1027.8193	1047.2541	1137.8746	1171.1826	1191.6808	1201.8073	1232.2423	1253.2939	1291.873	1365.5841	1367.7858	1392.9364	1415.4387	1432.8391	1470.6571	1479.8059	1503.3099	1725.0991	2969.5818	3008.8493	3023.1733	3033.947	3129.3819	3147.8745	3170.8153	3223.9798	3742.4537	3777.6099
OC12CC1(O)CC=CC2	O[C@]12C[C@@]1(O)CC=CC2	
InChI=1S/C7H10O2/c8-6-3-1-2-4-7(6,9)5-6/h1-2,8-9H,3-5H2	InChI=1S/C7H10O2/c8-6-3-1-2-4-7(6,9)5-6/h1-2,8-9H,3-5H2/t6-,7+
