19
gdb 1744	2.2137311	1.9008781	1.8416531	2.0911	73.9	-0.24235	0.06975	0.31210000000000004	928.1125	0.158021	-422.534912	-422.527366	-422.526422	-422.566712	29.467	
C	-0.110086979	 0.1023145766	-0.2379906672	-0.531549
C	 1.3786795267	 0.0214168772	-0.0265884814	 0.272323
C	 2.1492056064	-0.6916213467	 1.126214465	 0.056911
C	 2.8045993866	 0.6405148448	 1.5354390239	-0.256854
C	 2.2536577989	 1.2905297361	 0.2255627738	 0.058665
O	 3.1921793409	 1.4217664376	-0.8300536698	-0.275522
C	 3.2066573967	 0.2453505407	-1.6411006078	-0.092562
C	 2.3155267046	-0.7790460371	-0.955265175	 0.053883
O	 2.9583860862	-1.4205487029	 0.1740310545	-0.315105
H	-0.6026666558	 0.6256951	 0.5886701879	 0.123179
H	-0.3462339725	 0.6484385805	-1.1590652267	 0.126649
H	-0.5578781466	-0.894261311	-0.3153082547	 0.125511
H	 1.7129440952	-1.3469222169	 1.8834807876	 0.076317
H	 2.3316185822	 1.0705291155	 2.4245138201	 0.098324
H	 3.8892689768	 0.6346690857	 1.6589143604	 0.112423
H	 1.740175019	 2.2474703369	 0.35090391	 0.080116
H	 2.8245494281	 0.4840076746	-2.6445696344	 0.094714
H	 4.2340702112	-0.1241530753	-1.7370896883	 0.115141
H	 1.8797620844	-1.5143583064	-1.6402856878	 0.077433
102.7341	199.8293	203.0031	245.6091	365.984	374.1257	396.2506	579.4729	654.9723	677.8729	749.3854	796.4179	859.808	872.0491	878.2922	925.2981	927.9653	963.3988	979.1816	1026.6346	1053.729	1084.1636	1101.8059	1146.5229	1163.0711	1177.274	1184.6856	1214.4149	1218.6449	1242.382	1267.8611	1297.6509	1344.5053	1345.8879	1364.937	1400.2466	1413.4307	1451.8323	1490.5704	1494.209	1504.704	2997.0153	3023.3433	3050.2811	3052.1347	3061.7261	3073.0334	3085.9982	3087.5223	3094.6169	3124.6349
CC12C3CC1OCC2O3	C[C@]12[C@@H]3C[C@H]1OC[C@H]2O3	
InChI=1S/C7H10O2/c1-7-4-2-5(7)9-6(7)3-8-4/h4-6H,2-3H2,1H3	InChI=1S/C7H10O2/c1-7-4-2-5(7)9-6(7)3-8-4/h4-6H,2-3H2,1H3/t4-,5+,6-,7-/m1/s1
