19
gdb 1967	3.0243896	1.6383563	1.4629972	0.9869	73.65	-0.2395	0.07826	0.31776	964.3488	0.158803	-422.539131	-422.531901	-422.530957	-422.57017	30.05	
O	 0.5314477	 0.1647590253	 0.6333101461	-0.474957
C	-0.8585984895	 0.3609575586	 0.604798615	 0.40838
C	-1.6327101608	 0.020757339	 1.8577770554	-0.354448
C	-1.6953413485	-0.8886617555	 0.6467798297	-0.079944
C	-2.9154879219	-0.8195867627	-0.2563713398	 0.068736
C	-2.4809609212	-0.4019940897	-1.6786451605	-0.251611
C	-2.6224373035	 1.0110671231	-1.0685251504	 0.10417
C	-1.3510445363	 1.4648686375	-0.3419037024	-0.307629
O	-3.560285862	 0.4763071122	-0.0869053724	-0.296127
H	 0.9181539694	 0.876926316	 1.1549614692	 0.278866
H	-1.0477490346	-0.3293863284	 2.7011455825	 0.105566
H	-2.5164219722	 0.6021960712	 2.0919058114	 0.128154
H	-1.1705232429	-1.8374213115	 0.690486546	 0.095088
H	-3.6183773205	-1.645004284	-0.1170020027	 0.076774
H	-1.4990600738	-0.7254906629	-2.0301131383	 0.107196
H	-3.2486778394	-0.5980916979	-2.4287963159	 0.107403
H	-3.072438098	 1.8035879196	-1.6719700886	 0.075465
H	-0.5615416014	 1.6596763981	-1.0761335653	 0.108626
H	-1.5440007328	 2.4015360821	 0.195710851	 0.100294
169.0822	257.7807	302.0821	366.3687	374.8675	400.7789	432.2691	485.9951	560.1885	615.5746	711.0316	789.9743	841.6978	869.4006	887.0725	915.8574	925.5763	929.2376	948.7136	976.8251	994.7982	1031.578	1065.4681	1079.1817	1093.2647	1110.7879	1128.6502	1156.759	1221.4078	1245.9277	1262.2375	1263.0335	1298.8101	1323.1221	1343.0174	1350.4472	1376.7451	1398.1622	1464.8736	1484.1124	1488.7208	3025.7971	3069.2177	3074.9375	3077.2637	3082.2447	3136.8141	3138.132	3168.7146	3235.6958	3789.0736
OC12CC1C1CC(C2)O1	O[C@]12C[C@H]1[C@@H]1C[C@H](C2)O1	
InChI=1S/C7H10O2/c8-7-2-4-1-6(9-4)5(7)3-7/h4-6,8H,1-3H2	InChI=1S/C7H10O2/c8-7-2-4-1-6(9-4)5(7)3-7/h4-6,8H,1-3H2/t4-,5+,6+,7-/m1/s1
