19
gdb 4285	3.240565	1.6174099	1.3889088	2.6764	73.25	-0.24945	0.07919	0.32864	992.735	0.159399	-422.565027	-422.55779	-422.556846	-422.596698	28.671	
C	 0.0312350248	-0.1128884041	 0.2547698923	-0.406367
C	 1.4952619581	 0.0441754174	-0.1330288651	 0.12452
O	 1.8127032763	 1.4446621271	-0.1838144104	-0.272605
C	 2.6364240712	 1.7088206665	-1.2997618903	 0.182627
O	 4.0047309471	 1.5235310213	-0.9954707917	-0.256044
C	 4.3332957003	 0.1428801016	-1.1649326944	-0.10391
C	 3.240038275	-0.451179552	-2.0446140728	-0.101085
C	 1.8120613118	-0.4960901975	-1.5262498474	-0.083222
C	 2.2805543443	 0.6599032933	-2.3624428294	-0.106325
H	-0.1659306102	 0.4106461699	 1.1939867869	 0.128242
H	-0.6176404872	 0.3102051067	-0.5182519734	 0.120603
H	-0.2224892952	-1.1695281674	 0.3885658526	 0.112082
H	 2.1272495982	-0.4309988191	 0.6320907145	 0.07913
H	 2.5010601747	 2.756301055	-1.5705605401	 0.094112
H	 5.312485841	 0.0798847206	-1.6519349731	 0.106711
H	 4.4077769497	-0.3523290219	-0.1866869609	 0.102866
H	 3.5219870931	-1.1809208373	-2.7946850857	 0.093912
H	 1.1557305665	-1.2556595826	-1.9360665852	 0.090708
H	 1.9181262305	 0.9262683627	-3.3457728564	 0.094043
90.8774	173.8235	238.6631	283.9514	353.8295	483.5057	558.8119	627.9731	703.849	722.4073	772.1041	806.252	818.3604	851.3976	916.1433	933.0475	954.3298	966.1795	998.0665	1008.5536	1033.7194	1052.8048	1082.2272	1096.9211	1110.5868	1124.9446	1142.8254	1170.4193	1227.2297	1274.6352	1310.7028	1321.3908	1332.5447	1358.696	1369.206	1395.694	1405.1251	1416.3791	1486.0018	1496.2127	1525.6901	2987.9395	3005.6769	3038.6966	3060.6517	3111.8615	3121.5855	3122.0624	3171.2412	3180.8403	3208.2741
CC1OC2OCC3C1C23	C[C@@H]1O[C@H]2OC[C@H]3[C@@H]1[C@@H]23	
InChI=1S/C7H10O2/c1-3-5-4-2-8-7(9-3)6(4)5/h3-7H,2H2,1H3	InChI=1S/C7H10O2/c1-3-5-4-2-8-7(9-3)6(4)5/h3-7H,2H2,1H3/t3-,4-,5+,6-,7+/m0/s1
