19
gdb 4007	4.1728107	0.8805642	0.8639286	1.8837	77.51	-0.24484	-0.01403	0.23081000000000002	1412.4579	0.15535	-422.548304	-422.539156	-422.538212	-422.582648	33.509	
C	-1.1477527427	-2.4836277843	-2.3228066498	-0.488155
C	-0.9191417371	-0.9845547372	-2.3184174824	 0.367352
O	-1.7249078266	-0.2063023087	-2.7856734026	-0.323274
C	 0.3609993738	-0.514953107	-1.7047304461	-0.138049
C	 0.9550594336	 0.7448822265	-2.3078735877	-0.041904
C	 2.3225364841	 1.0185637643	-1.670168142	-0.296286
C	 1.6252531975	 1.0802176844	-0.2640743784	 0.142378
O	 1.7203117249	 2.3120683752	 0.4086379291	-0.433444
C	 0.2794943782	 0.8063534415	-0.956455378	-0.090067
H	-1.129575317	-2.8721436637	-1.2979207887	 0.141117
H	-2.1066517356	-2.7131847152	-2.7883290984	 0.141904
H	-0.3406122427	-2.9881609875	-2.8665652759	 0.140402
H	 1.0287660212	-1.2895816608	-1.3332923166	 0.082137
H	 0.5862787188	 1.096347234	-3.2630016545	 0.108404
H	 3.1025527565	 0.2660232158	-1.8252456987	 0.100398
H	 2.7270631499	 2.0015157886	-1.9270198461	 0.106899
H	 1.9444780636	 0.327355273	 0.463277563	 0.090545
H	 1.4103076997	 3.0038932602	-0.1869744688	 0.28066
H	-0.68520664	 1.2162331811	-0.6828412972	 0.108982
53.7667	122.7945	137.3168	162.8859	196.3249	311.0542	318.3922	363.6686	418.5643	474.719	592.8208	595.8046	724.9933	822.2819	856.4482	865.1193	890.1898	933.6995	955.4598	975.665	998.2531	1030.1545	1037.6602	1062.0067	1070.1458	1124.5668	1140.8064	1179.8712	1204.6328	1223.9339	1232.0163	1276.181	1290.4681	1326.3138	1376.445	1405.8481	1434.6456	1463.2024	1474.5341	1483.0333	1790.4429	3033.3157	3045.0788	3063.6966	3092.8457	3103.6592	3124.4595	3154.0149	3191.4706	3201.6389	3793.7822
CC(=O)C1C2CC(O)C12	CC(=O)[C@H]1[C@@H]2C[C@@H](O)[C@H]12	
InChI=1S/C7H10O2/c1-3(8)6-4-2-5(9)7(4)6/h4-7,9H,2H2,1H3	InChI=1S/C7H10O2/c1-3(8)6-4-2-5(9)7(4)6/h4-7,9H,2H2,1H3/t4-,5+,6-,7+/m0/s1
