19
gdb 3767	2.3244511	1.3568642	0.970172	2.0489	76.74	-0.25524	-0.03562	0.21962000000000004	1257.9965	0.154469	-422.532037	-422.522711	-422.521766	-422.566529	33.764	
C	 0.3786353061	-3.0559179783	 3.3921419476	-0.40969
C	-0.111014143	-1.7214753502	 2.8796780732	 0.015699
C	-0.9962705041	-1.6286705354	 1.6611224477	-0.315029
C	 0.4323617362	-1.1516765909	 1.5906893795	-0.09637
C	 0.7472705706	 0.3058238433	 1.4929232335	 0.274834
C	 0.0192406333	 1.2146597317	 0.5738705955	-0.216059
O	-0.2416490893	 1.2346416757	 1.9689391973	-0.260568
C	 2.1454159262	 0.7311038971	 1.8377206789	 0.129578
O	 3.076029	-0.0234172525	 1.9513665689	-0.253623
H	-0.3625307857	-3.5239564718	 4.0493571564	 0.117627
H	 0.5721391777	-3.7474107737	 2.5650627111	 0.113839
H	 1.3099775469	-2.9468072001	 3.9578829063	 0.127197
H	-0.3265962139	-0.9839949589	 3.6484414168	 0.097313
H	-1.246803941	-2.5439999786	 1.1350723546	 0.109947
H	-1.7778521478	-0.8770008563	 1.6686896667	 0.121721
H	 1.144478582	-1.7740820863	 1.0581038769	 0.10305
H	 0.5036430827	 2.1056812128	 0.1761664201	 0.123858
H	-0.7595186814	 0.7779626208	-0.0481139402	 0.131654
H	 2.2462254146	 1.8307532014	 1.9789813892	 0.085023
55.0579	112.5132	142.9714	177.1366	221.8938	247.1708	284.2722	357.9416	382.9464	455.5018	484.4425	599.9995	714.2897	810.8596	846.3278	878.4844	879.9951	889.7182	922.938	997.2708	1033.6921	1046.2077	1083.6296	1101.0921	1119.5473	1136.7091	1145.2929	1162.9433	1199.9879	1234.2053	1250.5387	1330.2522	1358.2684	1413.0669	1421.3434	1444.0032	1490.036	1491.6385	1505.2203	1516.1666	1829.9994	2887.1378	3027.601	3086.2497	3092.1322	3096.0018	3131.484	3146.4361	3165.0924	3180.6124	3220.503
CC1CC1C1(CO1)C=O	C[C@@H]1C[C@H]1[C@]1(CO1)C=O	
InChI=1S/C7H10O2/c1-5-2-6(5)7(3-8)4-9-7/h3,5-6H,2,4H2,1H3	InChI=1S/C7H10O2/c1-5-2-6(5)7(3-8)4-9-7/h3,5-6H,2,4H2,1H3/t5-,6-,7-/m1/s1
