19
gdb 5154	1.9481929	1.6343827	1.0458904	3.1767	76.12	-0.23958	-0.02431	0.21527	1192.8745	0.154806	-422.533057	-422.52386	-422.522916	-422.567696	33.107	
C	 1.8457345348	 1.4400535944	-0.1704997318	-0.389604
C	 1.3306241447	-0.0064457538	-0.1607645334	-0.302376
C	 1.8471325589	-0.8077456147	-1.3142792705	 0.410628
O	 3.2165719166	-1.2402978164	-1.2940947584	-0.287512
C	 2.1945327507	-2.2274994467	-1.4965241818	-0.051131
C	 1.8337998798	-2.194906155	-2.9847430273	-0.275907
C	 1.4551304556	-0.6730182588	-2.8192348459	-0.151212
C	 2.2461105598	 0.3308133155	-3.613429797	 0.160358
O	 1.757759244	 1.1933861465	-4.3016720117	-0.265163
H	 1.4524024456	 1.9967154036	 0.6845828156	 0.118917
H	 2.9381505742	 1.4613493184	-0.1182682321	 0.135561
H	 1.5399853767	 1.9655101122	-1.0809608366	 0.135573
H	 1.6319978921	-0.5083088263	 0.7655016301	 0.115311
H	 0.2341130755	-0.0148919304	-0.1896577493	 0.108742
H	 2.1718418348	-3.0587266037	-0.8011047147	 0.109626
H	 2.6576296087	-2.4261181837	-3.6649307382	 0.119662
H	 0.9626458002	-2.7984082145	-3.2467206401	 0.120041
H	 0.3879449652	-0.4913012813	-2.961966057	 0.095622
H	 3.3474803921	 0.2241225548	-3.5129081801	 0.092865
53.5269	80.6843	129.6761	173.1451	211.1927	277.2625	311.6215	357.5671	438.015	479.5697	535.4349	654.5606	735.6334	783.9254	828.8633	871.6012	920.2103	923.09	961.8645	998.2156	1008.7921	1063.4835	1069.6117	1099.9536	1114.5476	1173.5029	1183.584	1205.2244	1251.1555	1263.6564	1295.6483	1309.1933	1352.0302	1409.7172	1418.9703	1457.9617	1471.5527	1482.5529	1499.5641	1510.7446	1817.3646	2908.2968	3032.2212	3042.0806	3068.503	3073.1046	3099.2636	3113.5665	3119.8916	3129.7243	3187.4321
CCC12OC1CC2C=O	CC[C@@]12O[C@@H]1C[C@@H]2C=O	
InChI=1S/C7H10O2/c1-2-7-5(4-8)3-6(7)9-7/h4-6H,2-3H2,1H3	InChI=1S/C7H10O2/c1-2-7-5(4-8)3-6(7)9-7/h4-6H,2-3H2,1H3/t5-,6-,7+/m1/s1
