19
gdb 497	3.5829984	1.2625109	1.1157502	2.2474	77.24	-0.24623	0.00849	0.25472	1132.1502	0.158475	-422.533954	-422.526126	-422.525182	-422.56654	29.748	
C	-0.3615749213	 1.1840713881	-0.0812133242	-0.127798
O	-0.0037254576	-0.1856905936	-0.340694462	-0.273304
C	 1.3786516162	 0.0793016604	-0.029297467	-0.116867
C	 1.1253848801	 1.612332236	 0.0121222284	 0.259939
C	 1.6067372053	 2.3559523018	-1.2345587216	-0.156196
O	 2.9863866767	 2.6618259462	-1.146105354	-0.251769
C	 3.2690443588	 3.5786139	-0.1062905656	-0.125506
C	 2.550822251	 3.2608863661	 1.1760433374	-0.084851
C	 1.5805029931	 2.3507876898	 1.2327504607	-0.145205
H	-0.9463317804	 1.623263626	-0.8996772886	 0.10213
H	-0.9229692184	 1.2947239589	 0.8573120502	 0.094957
H	 1.671287111	-0.3560481953	 0.9353618432	 0.096543
H	 2.0634078763	-0.2754001899	-0.8082091473	 0.11221
H	 1.4795957854	 1.7433197482	-2.1320950763	 0.115563
H	 1.0117065513	 3.2766022028	-1.3617102987	 0.08824
H	 4.3545228098	 3.5440919525	 0.0442508881	 0.120896
H	 3.0259076416	 4.6102948113	-0.4233737504	 0.100439
H	 2.8614285944	 3.8125334043	 2.0594319513	 0.098075
H	 1.0933048467	 2.1143751163	 2.1760598462	 0.092503
86.3505	104.1796	216.046	263.4504	322.4987	380.6324	422.6015	475.8952	524.94	659.2478	724.2045	822.0092	848.9491	901.5199	914.4209	962.2762	976.1039	993.7723	998.0924	1006.2729	1037.1795	1042.5166	1105.7567	1128.94	1155.3087	1161.4529	1181.725	1211.0028	1253.6762	1303.35	1309.9329	1322.5308	1364.967	1377.8618	1409.9763	1425.6722	1483.9694	1495.4234	1511.5644	1536.0133	1717.4718	2930.5249	2959.4904	2993.4032	3010.8229	3044.0943	3052.2143	3062.8169	3083.2676	3144.752	3171.9145
C1OCC11COCC=C1	C1OCC21COCC=C2	
InChI=1S/C7H10O2/c1-2-7(4-8-3-1)5-9-6-7/h1-2H,3-6H2	InChI=1S/C7H10O2/c1-2-7(4-8-3-1)5-9-6-7/h1-2H,3-6H2
