19
gdb 3727	3.2920107	1.1580079	1.0675593	1.9325	75.95	-0.24169	-0.02424	0.21744999999999998	1205.0666	0.155698	-422.563682	-422.55503	-422.554086	-422.597105	32.578	
C	-4.3989178569	-0.2800546486	 0.8648601744	-0.408296
C	-3.41641934	-1.1590365284	 0.1248435079	-0.064344
C	-3.3551649911	-1.1211185731	-1.3968787819	-0.369433
C	-2.2292258889	-0.5611002593	-0.5990329755	 0.427324
C	-0.8305860661	-1.1338711554	-0.5059180427	-0.415336
C	-0.0826403613	-0.0291934202	 0.2464415926	 0.372117
O	 1.0024541533	-0.0902920539	 0.75709684	-0.296266
C	-1.0116797538	 1.190833891	 0.2343490572	-0.191865
O	-2.0915656472	 0.8524522153	-0.6175987579	-0.285909
H	-4.1175872018	-0.1704533066	 1.9181350043	 0.114978
H	-4.4290533174	 0.7185732871	 0.4217881617	 0.132934
H	-5.4092852165	-0.7013922087	 0.8326894185	 0.118529
H	-3.2401559092	-2.1344504025	 0.5735533122	 0.084555
H	-3.1964955847	-2.0429591206	-1.9465128757	 0.115078
H	-3.994180949	-0.3992418832	-1.8956153022	 0.125576
H	-0.7532012179	-2.089583303	 0.0155723244	 0.137079
H	-0.3700755905	-1.2461821785	-1.4962908142	 0.139676
H	-1.3415947842	 1.3966380825	 1.2653155132	 0.124636
H	-0.5064939165	 2.081182756	-0.1505920962	 0.138966
65.6263	126.7479	182.3727	203.2615	233.218	323.7232	404.4259	458.3482	470.2792	509.8445	545.1694	633.0616	739.7969	774.9468	803.1884	849.6243	878.6528	898.6333	925.1003	993.0812	1053.4209	1064.2707	1086.9786	1099.5097	1128.8796	1134.4041	1176.4735	1184.0689	1212.8557	1238.3961	1247.0107	1320.0912	1342.2845	1404.1895	1424.1191	1447.3112	1474.6997	1489.734	1497.3703	1506.4475	1864.2084	2983.8934	3031.9541	3032.9266	3090.0102	3092.6395	3114.8767	3118.2032	3127.6451	3132.1516	3215.9559
CC1CC11CC(=O)CO1	C[C@H]1C[C@@]21CC(=O)CO2	
InChI=1S/C7H10O2/c1-5-2-7(5)3-6(8)4-9-7/h5H,2-4H2,1H3	InChI=1S/C7H10O2/c1-5-2-7(5)3-6(8)4-9-7/h5H,2-4H2,1H3/t5-,7-/m0/s1
