19
gdb 2718	2.3673718	1.520673	1.2015323	2.9101	78.17	-0.23141	-0.00368	0.22773000000000002	1117.8361	0.154611	-422.55633	-422.546778	-422.545834	-422.590292	35.159	
C	-3.1989431568	-1.9750724715	-1.5252560484	-0.42417
C	-2.1296130876	-0.9240306426	-1.2913067319	-0.115785
C	-2.2694128993	 0.0657313071	-0.1707093386	 0.229552
C	-3.4974233309	 0.3019833382	 0.6560872399	-0.49324
C	-1.1010436381	 1.05769023	-0.2718371431	-0.40862
C	-0.1692275867	-0.1356318614	 0.0557086739	 0.329117
O	 0.8907668659	-0.2045362943	 0.6289312536	-0.349703
C	-1.2203052488	-1.159745346	-0.1075047742	 0.277857
O	-1.2203210049	-2.3687710708	 0.5328761602	-0.45327
H	-3.5807344226	-2.3897740151	-0.5906474984	 0.136992
H	-4.0368866008	-1.5505978415	-2.0870662486	 0.120785
H	-2.788728374	-2.8065836717	-2.1056352485	 0.132648
H	-1.6755485241	-0.5645933027	-2.2160702477	 0.086492
H	-3.2360061253	 0.7090889328	 1.6388813203	 0.126707
H	-4.1648382329	 1.0241941163	 0.1692812826	 0.129787
H	-4.0647887867	-0.6186549892	 0.8138071918	 0.133004
H	-0.9661105572	 1.5484875719	-1.2409449564	 0.113306
H	-1.0618599443	 1.8055111545	 0.5250581481	 0.125065
H	-0.6107189248	-2.2896731839	 1.2785745055	 0.303474
81.3697	140.5629	167.7888	178.4241	229.1172	236.7811	254.0728	347.257	382.7386	445.4152	488.8301	519.2566	578.5705	640.4979	668.0239	701.7889	758.5236	903.6235	946.3891	989.4402	1009.1385	1032.4531	1060.283	1081.3773	1116.9139	1154.8206	1161.2947	1205.547	1235.4217	1338.7811	1358.3976	1377.5062	1413.4118	1423.0494	1445.9993	1475.0706	1481.8101	1489.2631	1497.3705	1510.5207	1831.2745	3023.594	3046.0992	3047.0069	3078.1272	3079.9325	3107.1423	3109.0834	3116.5564	3137.3241	3768.7343
CC1C2(C)CC(=O)C12O	C[C@H]1[C@]2(C)CC(=O)[C@]12O	
InChI=1S/C7H10O2/c1-4-6(2)3-5(8)7(4,6)9/h4,9H,3H2,1-2H3	InChI=1S/C7H10O2/c1-4-6(2)3-5(8)7(4,6)9/h4,9H,3H2,1-2H3/t4-,6-,7+/m0/s1
