19
gdb 2433	2.3943673	2.1685955	1.5661737	2.9243	72.62	-0.23542	0.07134	0.30676	914.1718	0.159467	-422.555991	-422.549009	-422.548065	-422.58679	29.198	
O	 0.3107712137	 0.6242534935	 0.1464554548	-0.504955
C	-1.0251599585	 0.951701255	 0.4254863298	 0.417008
C	-1.2557790686	 1.8669189589	 1.6410308627	-0.273078
C	-2.7458646932	 2.2902418122	 1.4793911722	-0.258846
C	-3.0458873273	 1.9420067786	 0.0157170734	-0.027706
C	-3.1221435507	 0.4321004579	-0.3907785736	 0.066948
C	-2.0457861578	-0.232315974	 0.4892676811	-0.290902
O	-2.3459288484	 0.7344284571	-1.5887251382	-0.297509
C	-1.7181339261	 1.7255728751	-0.7434963834	 0.045331
H	 0.6576019697	 0.1086453021	 0.8818391405	 0.276418
H	-1.0492513002	 1.3605352427	 2.5899957795	 0.089981
H	-0.5888507087	 2.7340659005	 1.577332274	 0.104673
H	-3.4073594068	 1.756443094	 2.1696395117	 0.1037
H	-2.8843822953	 3.3576183624	 1.671216748	 0.106374
H	-3.7841107078	 2.5518797594	-0.503023224	 0.080692
H	-4.0569840629	-0.094361095	-0.5865672694	 0.076881
H	-2.3696952267	-0.4782527176	 1.5049504384	 0.088832
H	-1.6547985025	-1.1252546769	-0.0026615774	 0.112583
H	-1.1414060317	 2.4865225541	-1.2682893703	 0.083576
220.8495	230.6267	275.7588	329.4213	408.0575	427.5259	514.9439	584.9304	621.8444	683.9421	746.5607	782.6839	798.5194	862.6025	885.6767	900.4246	928.6642	954.5371	964.2331	998.1274	1028.9461	1037.6719	1053.6392	1094.0562	1127.6498	1146.5012	1191.7309	1200.7841	1216.141	1234.7351	1239.812	1258.1634	1288.3251	1303.3158	1316.0003	1340.8218	1352.0685	1389.7431	1479.9978	1487.2021	1508.5103	3035.6199	3050.0625	3057.9493	3074.8174	3095.3703	3111.9559	3121.2093	3126.8685	3136.1703	3809.4404
OC12CCC3C(C1)OC23	O[C@]12CC[C@@H]3[C@H](C1)O[C@H]23	
InChI=1S/C7H10O2/c8-7-2-1-4-5(3-7)9-6(4)7/h4-6,8H,1-3H2	InChI=1S/C7H10O2/c8-7-2-1-4-5(3-7)9-6(4)7/h4-6,8H,1-3H2/t4-,5+,6+,7-/m1/s1
