19
gdb 3272	2.6103557	1.8743539	1.4639508	1.443	73.81	-0.23766	0.06109	0.29875	952.634	0.158713	-422.534006	-422.526589	-422.525645	-422.565189	30.652	
O	 0.3477357621	-0.0129439385	 0.4823591357	-0.4658
C	-0.9086357943	 0.5435831946	 0.840513957	 0.083192
C	-2.1686656576	 0.0048554141	 0.1084357936	-0.104276
C	-3.262195995	 0.8727436371	 0.7710205358	-0.212856
C	-2.731879788	 2.2138673513	 0.2088156757	-0.085074
C	-2.9123967664	 1.9953376889	-1.3165731604	-0.247425
C	-1.8131245528	 0.9385606021	-1.1337623191	-0.140787
C	-1.2098691602	 1.8196518099	 0.0442230158	 0.426917
O	-0.297350537	 2.8470372733	-0.0835147358	-0.492921
H	 0.3119379946	-0.274768144	-0.4442648964	 0.284275
H	-0.921474871	 0.5682874019	 1.9348042459	 0.078682
H	-2.3373580931	-1.0656489986	-0.0007852983	 0.067437
H	-4.2761879753	 0.6529423194	 0.425253751	 0.097597
H	-3.2451556174	 0.8023013964	 1.8625099125	 0.097867
H	-3.0238187719	 3.141048379	 0.7000471598	 0.07018
H	-3.9024202693	 1.6992556389	-1.6780257549	 0.086718
H	-2.5363787573	 2.8380382488	-1.9020004343	 0.111062
H	-1.2419965826	 0.5189910006	-1.9621811357	 0.06101
H	 0.5761027726	 2.4334439847	-0.0856926481	 0.284203
203.0854	212.688	264.6835	297.3568	360.9597	433.9353	455.7785	493.0836	518.0934	617.3629	655.5913	760.4332	827.8484	830.1825	873.2838	911.5402	925.5527	947.3023	957.28	970.297	999.9609	1032.5601	1042.4062	1069.5446	1088.8875	1122.3481	1139.1306	1180.0484	1196.0585	1211.174	1235.2363	1242.5503	1266.3661	1276.3216	1290.3815	1317.2229	1343.6281	1393.7834	1431.6324	1490.1142	1517.8753	3046.2028	3051.8137	3063.1233	3097.1931	3105.4237	3111.3385	3125.8723	3127.8893	3760.0675	3806.8014
OC1C2CC3CC2C13O	O[C@@H]1[C@H]2C[C@@H]3C[C@H]2[C@]13O	
InChI=1S/C7H10O2/c8-6-4-1-3-2-5(4)7(3,6)9/h3-6,8-9H,1-2H2	InChI=1S/C7H10O2/c8-6-4-1-3-2-5(4)7(3,6)9/h3-6,8-9H,1-2H2/t3-,4+,5-,6-,7+/m1/s1
