19
gdb 516	3.0340534	1.7762119	1.5921085	1.0729	73.7	-0.24024	0.05537	0.29561000000000004	918.6348	0.160194	-422.50093	-422.49437	-422.493426	-422.531361	27.905	
C	-0.3102851079	 1.3833739122	-0.0890597822	-0.192202
O	-0.0769716133	-0.0111779605	 0.3303272204	-0.364451
C	 1.2947589434	 0.1205168542	-0.1503160653	 0.425057
C	 1.4285790939	-0.2322565594	-1.6557591059	-0.260092
C	 2.8515959556	 0.2887897276	-2.0061959488	-0.206289
C	 3.2248794919	 0.9639401552	-0.6835855757	 0.104829
C	 2.7224789212	-0.1123962739	 0.3685685195	-0.354051
O	 2.3371555991	 2.1433526627	-0.5806174305	-0.31727
C	 1.221002939	 1.5935249545	 0.1000656393	 0.121963
H	-0.7006452625	 1.4372540527	-1.109323798	 0.116594
H	-0.9718431389	 1.904928476	 0.6053938509	 0.116865
H	 1.3314481673	-1.3149401243	-1.7760762258	 0.108138
H	 0.6513441915	 0.2329344573	-2.2635280288	 0.105783
H	 3.5443744801	-0.5216999741	-2.2524271961	 0.097878
H	 2.8561272324	 1.0087624748	-2.8265748833	 0.110639
H	 4.2527051709	 1.3070782078	-0.5728319416	 0.084555
H	 3.1835478329	-1.0827438488	 0.1677577099	 0.103418
H	 2.8736135156	 0.170305204	 1.4107917315	 0.114346
H	 1.3284681178	 1.7944174518	 1.1747822904	 0.08429
202.7856	310.0187	354.2926	401.5075	415.0955	478.8698	528.96	561.2986	713.2242	723.3442	770.7856	814.5859	836.8174	850.1581	897.4606	914.3334	943.41	966.2025	991.605	1014.8743	1040.5292	1076.4986	1080.617	1104.5179	1141.4903	1159.0247	1184.8566	1204.7236	1232.0084	1250.2011	1268.7265	1286.2766	1312.2003	1326.5171	1330.0842	1356.2816	1439.7361	1478.0471	1490.2144	1508.3934	1519.1382	2996.2396	3054.1659	3055.6103	3068.9472	3074.0727	3109.3541	3122.3403	3128.7647	3129.4482	3140.3478
C1OC23CCC(C2)OC13	C1O[C@]23CC[C@H](C2)O[C@@H]13	
InChI=1S/C7H10O2/c1-2-7-3-5(1)9-6(7)4-8-7/h5-6H,1-4H2	InChI=1S/C7H10O2/c1-2-7-3-5(1)9-6(7)4-8-7/h5-6H,1-4H2/t5-,6+,7-/m1/s1
