19
gdb 2810	3.977473	1.3349648	1.2841323	1.844	73.81	-0.2461	0.09405	0.34015	1060.4017	0.159405	-422.553484	-422.546358	-422.545414	-422.58469	28.77	
C	 0.0085215365	 0.0158597465	 0.0317679239	-0.423434
C	 1.5211361535	 0.0628162373	 0.015793347	-0.03841
C	 2.2673864204	-0.9337340119	-0.8347983273	-0.054014
C	 2.2907725334	-1.0499897842	 0.6838702151	-0.080727
C	 3.772459816	-0.8025104924	 0.9665790486	 0.17083
O	 4.4853657995	-1.9873120661	 0.6012416138	-0.274067
C	 4.5229538847	-1.9451587209	-0.838256524	-0.077391
C	 3.7386496864	-0.6440959084	-1.1398947146	-0.000627
O	 4.1514498114	 0.1480217104	-0.0123798801	-0.252178
H	-0.3887472845	 0.4423040036	 0.9590994619	 0.121006
H	-0.4120710993	 0.5843739002	-0.8046848824	 0.119732
H	-0.3608315237	-1.0122671498	-0.0456457472	 0.113972
H	 1.953028743	 1.0564915449	 0.0867148213	 0.100257
H	 1.7289850209	-1.6422801131	-1.4535179997	 0.090334
H	 1.7833439225	-1.847083885	 1.2129746962	 0.095385
H	 4.0782107077	-0.4841347297	 1.9626471212	 0.092366
H	 5.5646035944	-1.8909929978	-1.1739920574	 0.105888
H	 4.047629789	-2.8375775671	-1.2591653298	 0.101606
H	 3.9843784478	-0.1323079267	-2.0696645864	 0.089471
188.2884	201.4996	240.5978	265.9675	381.8983	409.7263	446.2612	629.0384	673.6411	798.3942	820.0921	829.2231	841.3002	897.8264	906.9425	914.6819	951.7614	976.6609	982.1608	1005.1544	1022.3955	1065.9849	1072.7086	1086.7692	1114.8046	1133.523	1152.1419	1190.7779	1205.7292	1252.9948	1269.3508	1270.85	1300.1897	1315.303	1338.8755	1367.9065	1416.0636	1436.3145	1494.4326	1501.7924	1517.2512	3028.5886	3031.2757	3077.8705	3093.56	3095.3359	3129.5718	3135.0968	3155.5877	3179.0129	3194.2708
CC1C2C1C1OCC2O1	C[C@@H]1[C@@H]2[C@H]1[C@H]1OC[C@@H]2O1	
InChI=1S/C7H10O2/c1-3-5-4-2-8-7(9-4)6(3)5/h3-7H,2H2,1H3	InChI=1S/C7H10O2/c1-3-5-4-2-8-7(9-4)6(3)5/h3-7H,2H2,1H3/t3-,4+,5+,6+,7+/m1/s1
