19
gdb 2525	2.1934062	1.5364598	0.9506201	3.8062	81.42	-0.23324	-0.05026	0.18298	1240.2816	0.157134	-422.577085	-422.568364	-422.567419	-422.610775	32.244	
C	 1.2766343051	 0.7657727237	-0.278503306	-0.462473
C	-0.1207693099	 0.2061932066	-0.3713100005	 0.291941
C	-1.1713263906	 1.0426939586	-0.2828012597	-0.220487
C	-2.6318371712	 0.822752664	-0.3293719378	 0.315885
O	-3.3752365395	 1.7850202473	-0.4053714918	-0.326654
C	-3.2937337513	-0.5586848725	-0.2712916115	-0.186802
O	-2.4856475707	-1.6730589983	 0.005544602	-0.235036
C	-1.4825276243	-1.913557366	-0.9603468008	-0.102975
C	-0.1541127869	-1.2899567942	-0.5516659822	-0.280541
H	 1.8401618489	 0.2655666593	 0.5192351429	 0.13411
H	 1.8305806617	 0.5834967402	-1.2081369278	 0.133743
H	 1.2769024185	 1.8392790234	-0.0808041433	 0.133644
H	-0.9619953212	 2.1052425317	-0.1791379934	 0.098513
H	-4.0480364975	-0.5103305815	 0.5193525309	 0.14118
H	-3.8356817266	-0.6846145337	-1.2236448818	 0.118464
H	-1.3614147922	-2.9999624054	-1.0381107014	 0.110388
H	-1.7968089842	-1.5432428609	-1.9480240308	 0.097236
H	 0.171682179	-1.7496674237	 0.392894326	 0.131442
H	 0.6109907828	-1.5715156485	-1.2891673829	 0.108421
57.4446	144.2896	153.1858	206.9188	279.9232	302.1249	350.093	430.4644	455.8874	484.0728	540.8509	588.9719	617.6794	790.3948	838.5466	847.5115	913.9617	980.6296	1007.9585	1029.4469	1040.827	1056.7349	1106.2015	1139.9245	1179.7757	1246.1346	1286.7189	1293.3649	1321.4508	1346.5495	1377.2403	1405.0526	1410.6542	1420.8207	1449.6958	1456.2157	1478.7446	1485.145	1503.6308	1692.0104	1743.8517	2972.6506	2991.867	3004.5555	3021.7416	3035.8059	3063.0417	3068.8309	3094.0484	3129.0793	3153.2727
CC1=CC(=O)COCC1	CC1=CC(=O)COCC1	
InChI=1S/C7H10O2/c1-6-2-3-9-5-7(8)4-6/h4H,2-3,5H2,1H3	InChI=1S/C7H10O2/c1-6-2-3-9-5-7(8)4-6/h4H,2-3,5H2,1H3
