19
gdb 2605	2.5236517	1.7611822	1.2760488	3.0968	74.92	-0.22842	-0.01696	0.21146	1037.7602	0.156134	-422.566122	-422.557668	-422.556724	-422.598678	32.487	
C	-0.8668726291	-1.977609635	 1.3609054681	-0.419122
C	-0.991407584	-1.1387296776	 0.0900124165	-0.14125
C	 0.0068802321	 0.0467876498	 0.0572250831	 0.447711
O	 1.2029928715	 0.0334621227	 0.1412287029	-0.334736
C	-0.9690304528	 1.2267114719	-0.0571991164	-0.036636
C	-1.9289575272	 0.7346216052	-1.1609725114	-0.291475
C	-2.2698855818	-0.2654762877	-0.0244276716	 0.404635
C	-3.6256112952	-0.8875625121	 0.1479784014	-0.498961
O	-1.9559277767	 0.8131227385	 0.9417826997	-0.330545
H	-1.5226461225	-2.8530016169	 1.3308990655	 0.115387
H	 0.163154082	-2.3271915107	 1.475121366	 0.136995
H	-1.1220515697	-1.3779751605	 2.2391980946	 0.136279
H	-0.8411897031	-1.7660261278	-0.7969885162	 0.094006
H	-0.5947149725	 2.2429661455	 0.0443571317	 0.098382
H	-2.7377521574	 1.4465239722	-1.3336600536	 0.117784
H	-1.5178457531	 0.3558110254	-2.1008398661	 0.107553
H	-3.7023285537	-1.3948032213	 1.1143050775	 0.137341
H	-4.4080233894	-0.1256945438	 0.0951213661	 0.130421
H	-3.8043850075	-1.6267851178	-0.6399402177	 0.12623
108.0852	189.6534	221.1932	231.6381	237.2375	283.0555	319.9814	453.677	474.7333	528.6734	592.8132	677.0699	700.8219	779.8276	790.3506	836.5407	874.8007	885.4446	969.3895	982.065	1010.8682	1038.0671	1056.2672	1102.2855	1119.6192	1144.0787	1206.5306	1212.5304	1241.3072	1254.8542	1261.974	1327.0706	1343.6478	1398.1398	1417.163	1478.0856	1483.2475	1489.6824	1500.8145	1505.6724	1879.797	3038.6435	3040.298	3042.4806	3062.164	3111.0299	3112.6519	3120.8845	3122.3782	3135.57	3155.4256
CC1C(=O)C2CC1(C)O2	C[C@@H]1C(=O)[C@H]2C[C@]1(C)O2	
InChI=1S/C7H10O2/c1-4-6(8)5-3-7(4,2)9-5/h4-5H,3H2,1-2H3	InChI=1S/C7H10O2/c1-4-6(8)5-3-7(4,2)9-5/h4-5H,3H2,1-2H3/t4-,5-,7+/m1/s1
