19
gdb 4343	2.2897907	1.8701395	1.3476574	1.8042	75.2	-0.24232	0.02045	0.26277	1009.154	0.158658	-422.546883	-422.539094	-422.538149	-422.578746	30.942	
O	 0.5168791194	 1.2137577355	-2.1461331509	-0.436527
C	-0.3533464101	 0.2941932654	-1.5148410558	 0.075718
C	-0.399310391	-0.9989217043	-2.3335687683	-0.263942
C	 0.8535790712	-1.8374773896	-2.4213852951	-0.021279
C	 2.0348910939	-1.7116815705	-1.8132568626	-0.06755
C	 2.46434685	-0.6355777553	-0.8387753437	-0.288386
C	 1.4353124723	-0.3839373958	 0.2504416022	 0.061008
O	 0.9898022566	 0.9700940405	 0.493323591	-0.277924
C	 0.0684608079	 0.026894637	-0.0716083669	 0.029529
H	 0.8529914019	 1.7842607179	-1.4407086259	 0.291976
H	-1.3746768335	 0.7107756605	-1.4921184036	 0.068672
H	-1.2159983006	-1.624742356	-1.9425919471	 0.107279
H	-0.7089819854	-0.7320589114	-3.3530083427	 0.122514
H	 0.7457450336	-2.6796973739	-3.104079296	 0.086408
H	 2.7965691908	-2.4483570874	-2.0578993447	 0.085755
H	 3.4165352134	-0.9153566807	-0.3774405237	 0.0983
H	 2.6336144043	 0.2985121968	-1.3824246985	 0.135522
H	 1.580852582	-0.946364886	 1.1723587871	 0.09958
H	-0.7403054566	-0.2707119226	 0.5962712452	 0.093347
118.1959	190.2189	246.4369	299.3142	332.0497	385.5217	443.8592	449.6834	485.4778	545.6866	665.5652	726.3391	766.9716	813.5364	827.8833	859.8179	913.1085	927.1529	962.2429	1003.1353	1015.2397	1041.4395	1056.0971	1099.2833	1128.8169	1153.2483	1227.2394	1249.1279	1252.864	1284.6116	1303.959	1350.9318	1371.7847	1384.5441	1398.5535	1423.8709	1450.4752	1455.22	1475.7409	1487.5144	1728.8197	2949.4081	3001.847	3035.5784	3050.4255	3088.6751	3104.5069	3119.0286	3124.6145	3155.8674	3742.9434
OC1CC=CCC2OC12	O[C@H]1CC=CC[C@H]2O[C@@H]12	
InChI=1S/C7H10O2/c8-5-3-1-2-4-6-7(5)9-6/h1-2,5-8H,3-4H2	InChI=1S/C7H10O2/c8-5-3-1-2-4-6-7(5)9-6/h1-2,5-8H,3-4H2/t5-,6+,7-/m0/s1
