19
gdb 1218	2.5402404	1.2004679	1.0354432	2.9841	77.18	-0.26055	0.04551	0.30606	1248.6864	0.153634	-422.505884	-422.496051	-422.495107	-422.540386	36.535	
C	 2.2341685748	 2.3189848085	-2.252898084	-0.399196
C	 1.9369425793	 0.8381700205	-1.9831445133	 0.16533
O	 1.7359509346	 0.2402134436	-3.2588435644	-0.449687
C	 3.1409555981	 0.1627127384	-1.2725899963	-0.268939
C	 2.8702227684	-1.2724384261	-0.8824164375	 0.081295
C	 3.7658333592	-2.3696493296	-1.2685109616	-0.183257
O	 2.5293836256	-2.1696009214	-1.9600277119	-0.245266
C	 0.7238978295	 0.716632861	-1.1492241789	 0.363454
C	-0.2601554024	 0.6152506693	-0.4656815891	-0.518319
H	 2.3517918467	 2.8719921291	-1.3176924122	 0.118902
H	 3.1504466645	 2.4047566919	-2.843804878	 0.119264
H	 1.4110847466	 2.7577464933	-2.8210671291	 0.136725
H	 1.795649	-0.7184296562	-3.1431012606	 0.299017
H	 3.9863087664	 0.2139439802	-1.9667302927	 0.110259
H	 3.4054166798	 0.7284765769	-0.3723845531	 0.112036
H	 2.2410438891	-1.4106855195	-0.0048911908	 0.115709
H	 4.6638241852	-2.1489359513	-1.843533208	 0.121978
H	 3.8098126923	-3.2741940703	-0.6647788804	 0.123203
H	-1.1400368377	 0.5247407815	 0.1224347018	 0.197492
64.7404	109.7598	156.6252	190.7583	214.6298	236.6367	302.622	367.6406	393.7349	415.0872	471.3883	478.0217	566.1655	627.6079	637.7614	657.4878	726.8573	784.5295	864.2997	892.6897	933.911	954.0519	976.7394	1062.2021	1082.0389	1105.2522	1155.0246	1170.6035	1184.3832	1201.9294	1282.8032	1297.4292	1322.9788	1398.8519	1429.8706	1438.2326	1463.0339	1479.7606	1493.4434	1526.4818	2226.0018	3041.5249	3049.4458	3089.4422	3091.3847	3127.272	3134.516	3137.229	3179.3345	3499.6191	3742.8299
CC(O)(CC1CO1)C#C	C[C@@](O)(C[C@@H]1CO1)C#C	
InChI=1S/C7H10O2/c1-3-7(2,8)4-6-5-9-6/h1,6,8H,4-5H2,2H3	InChI=1S/C7H10O2/c1-3-7(2,8)4-6-5-9-6/h1,6,8H,4-5H2,2H3/t6-,7+/m1/s1
