19
gdb 2539	2.8531844	1.369391	1.1182775	1.9707	77.43	-0.22159	0.01869	0.24028	1152.7154	0.155231	-422.559871	-422.550855	-422.54991	-422.592744	34.939	
C	 1.2598446698	 0.7251754758	-1.1377557614	-0.485895
C	-0.0233663513	 0.2098112073	-0.5673559592	 0.315046
C	-1.1570852095	 0.8952402445	-0.3716993979	-0.248482
C	-2.1961649542	 0.0599343146	 0.2977854138	 0.274606
O	-3.5238747634	 0.0827965784	-0.1454805897	-0.474036
C	-1.8743618324	-0.4236269893	 1.7046742595	-0.400287
C	-1.5565547204	-1.2937236308	 0.502676983	 0.391635
O	-2.3051818912	-2.4491689617	 0.3035094298	-0.484315
C	-0.1582445719	-1.2326665802	-0.0974318816	-0.375125
H	 2.0745326024	 0.6707708959	-0.4043566401	 0.126177
H	 1.5778736772	 0.1236378355	-1.9989330793	 0.126652
H	 1.167074867	 1.7650335775	-1.4625370483	 0.123855
H	-1.3132940682	 1.9383063996	-0.6256824876	 0.087627
H	-4.0494132801	 0.5977638958	 0.4745416929	 0.290455
H	-1.0858618146	 0.0743552111	 2.2602251759	 0.109023
H	-2.7122962695	-0.7829457485	 2.2951205905	 0.108926
H	-3.1409951983	-2.1649399939	-0.0920231721	 0.287937
H	 0.6239188781	-1.5010386447	 0.6238848684	 0.110012
H	-0.0733023196	-1.9392983068	-0.9330752966	 0.116191
139.1393	171.3828	212.3163	218.5441	253.8532	277.3193	352.1188	382.9784	416.0025	429.4927	476.3474	539.7821	576.3275	590.0859	765.5286	775.6591	834.9405	865.7182	906.4	922.9874	947.1803	968.3502	1016.9869	1037.1334	1066.7509	1131.3241	1154.1373	1181.4671	1217.4249	1220.3454	1273.5045	1324.1656	1356.8034	1386.2284	1401.9607	1412.8122	1459.8919	1476.7868	1478.822	1489.3603	1699.7718	3015.8952	3024.3129	3055.8296	3062.2455	3110.4153	3114.4394	3186.1461	3211.3523	3741.6866	3817.4318
CC1=CC2(O)CC2(O)C1	CC1=C[C@]2(O)C[C@]2(O)C1	
InChI=1S/C7H10O2/c1-5-2-6(8)4-7(6,9)3-5/h2,8-9H,3-4H2,1H3	InChI=1S/C7H10O2/c1-5-2-6(8)4-7(6,9)3-5/h2,8-9H,3-4H2,1H3/t6-,7+/m0/s1
