19
gdb 4452	3.9103788	1.1642156	1.0175009	2.5176	79.41	-0.24269	0.00106	0.24375	1217.7351	0.156783	-422.542201	-422.533937	-422.532993	-422.574922	31.767	
C	 0.179930991	-0.3922502239	-0.5426568909	-0.400364
C	 1.2249540185	 0.3059630538	 0.323607628	 0.085094
O	 1.4005970461	-0.4967908362	 1.482861323	-0.258913
C	 2.4738389101	-0.0678131247	 2.2975715724	-0.166703
C	 3.7976344886	-0.154697815	 1.5634294952	 0.393694
C	 5.0573369749	-0.0498105335	 2.3156225487	-0.241581
O	 4.6183595829	-1.3144138419	 1.8299571227	-0.276239
C	 3.7097703403	 0.2645698043	 0.1466267348	-0.133214
C	 2.5265768438	 0.5151904076	-0.4122278469	-0.081367
H	-0.7384627469	-0.5419259608	 0.0304230188	 0.127706
H	-0.0518711436	 0.2104055197	-1.4257597836	 0.114268
H	 0.5506909729	-1.3678374185	-0.8689430598	 0.132869
H	 0.8276950834	 1.2949656182	 0.6264636888	 0.074332
H	 2.3107370001	 0.9713006612	 2.6329984523	 0.090014
H	 2.4907327539	-0.7206396851	 3.1738873818	 0.119794
H	 5.9416848758	 0.3644622319	 1.8313690471	 0.112163
H	 5.0256348031	 0.076897688	 3.3985327868	 0.111905
H	 4.6381981135	 0.3657826054	-0.4078221306	 0.097456
H	 2.4564239115	 0.8700654497	-1.4371572886	 0.099086
69.2411	194.2055	218.5371	255.389	295.5928	333.6718	363.0554	415.8472	446.4989	555.2477	590.2177	684.8122	745.2335	786.6699	817.2734	883.2883	902.5275	938.2149	982.4371	990.4825	1037.2381	1050.8159	1101.3283	1128.1049	1131.2419	1148.969	1165.0071	1200.0331	1282.1125	1311.3029	1339.253	1339.6758	1365.0379	1398.8116	1406.4252	1447.7658	1479.7675	1484.3639	1500.0451	1527.2985	1711.4431	2904.0187	2955.5134	3046.2636	3068.4267	3100.9767	3122.3278	3129.3026	3152.3504	3156.8758	3179.0435
CC1OCC2(CO2)C=C1	C[C@H]1OC[C@]2(CO2)C=C1	
InChI=1S/C7H10O2/c1-6-2-3-7(4-8-6)5-9-7/h2-3,6H,4-5H2,1H3	InChI=1S/C7H10O2/c1-6-2-3-7(4-8-6)5-9-7/h2-3,6H,4-5H2,1H3/t6-,7+/m1/s1
