19
gdb 1563	3.6179935	1.2007072	1.1425075	2.3255	77.92	-0.24116	-0.00449	0.23667000000000002	1149.9055	0.156169	-422.528446	-422.519982	-422.519037	-422.561057	32.787	
C	 0.0555076021	 1.5794256461	-0.1006553505	-0.437123
C	 0.0066277663	 0.0573792433	 0.0363060051	 0.360462
O	 0.5905506932	-0.5553456586	-1.1242393346	-0.472116
C	-1.4474697143	-0.5147594828	 0.1294093551	-0.273153
C	-1.240591373	-1.8099873861	 0.9230527499	 0.101761
O	-1.9685482361	-2.0830604092	 2.1762764754	-0.308111
C	-0.7115951121	-2.1898883566	 2.9131173182	-0.156646
C	-0.0311985714	-1.5176090243	 1.7489648924	 0.195463
C	 0.6350638443	-0.4415090922	 1.3514781347	-0.271951
H	 1.0919309601	 1.9274853088	-0.1848216472	 0.104587
H	-0.479110324	 1.8924740527	-1.0022219168	 0.126689
H	-0.3961808272	 2.0734755902	 0.7653615998	 0.118163
H	 1.5389370533	-0.3901570084	-1.0975429514	 0.272106
H	-2.0708024356	 0.1652989452	 0.7169360901	 0.113666
H	-1.8871007447	-0.6417649686	-0.8626247169	 0.107902
H	-1.2364589207	-2.7126100942	 0.3014736118	 0.090874
H	-0.7289195492	-1.6485280813	 3.864822874	 0.120508
H	-0.4440641668	-3.2400227452	 3.0902000536	 0.109507
H	 1.4101182061	 0.1028897112	 1.8793090572	 0.097414
95.9392	180.0386	241.6678	243.683	296.5691	301.6878	332.2458	364.6153	450.2846	511.1591	579.0081	637.044	760.9498	781.5465	828.6656	870.1319	892.8388	920.0805	927.11	962.0057	972.6035	992.1291	1052.1185	1071.5944	1117.1067	1138.2631	1140.8341	1161.5532	1229.1835	1248.4464	1259.622	1307.0234	1331.6893	1345.8867	1364.596	1403.7316	1468.5535	1488.7786	1490.6994	1509.6093	1740.2694	3011.9339	3027.1114	3039.577	3065.4887	3074.4859	3094.3697	3115.0843	3124.0971	3192.7806	3809.6467
CC1(O)CC2OCC2=C1	C[C@]1(O)C[C@@H]2OC[C]2[CH]1	
InChI=1S/C7H10O2/c1-7(8)2-5-4-9-6(5)3-7/h2,6,8H,3-4H2,1H3	InChI=1S/C7H10O2/c1-7(8)2-5-4-9-6(5)3-7/h2,6,8H,3-4H2,1H3/t6-,7+/m0/s1
