19
gdb 3235	1.9907847	1.7420944	1.5579945	2.8387	74.55	-0.21933	0.05424	0.27357	1026.4786	0.155251	-422.495265	-422.486528	-422.485584	-422.527992	33.415	
C	 0.636307395	-0.564864567	-0.5776188303	-0.430197
C	 0.7670723446	 0.2541029758	 0.7005096027	-0.055126
C	 1.7826396932	-0.3111137263	 1.7373247736	 0.005431
O	 1.6792043003	 0.6106863313	 2.8601284285	-0.294983
C	 2.3344707157	 1.5585613125	 2.0167224673	-0.016387
C	 2.9398642051	 0.5490829324	 1.0856225433	 0.203707
C	 4.3268875887	 0.2842159518	 0.600231366	-0.541077
C	 1.7616709262	 1.4139742952	 0.6042144367	 0.295579
O	 1.7599894031	 2.4918086518	-0.2530966864	-0.461527
H	 0.0698015732	-1.4851954918	-0.4016306701	 0.121524
H	 0.1082521469	-0.0007257785	-1.3548453443	 0.117537
H	 1.617894987	-0.8467712696	-0.9767912735	 0.112828
H	-0.2158713564	 0.4835814745	 1.1284585189	 0.076114
H	 1.8030549631	-1.3624175879	 2.0212126341	 0.084046
H	 2.7091461171	 2.4858161625	 2.4315205089	 0.110354
H	 4.9711666629	-0.0949490104	 1.4014641804	 0.131651
H	 4.3427181752	-0.4471281336	-0.2162962384	 0.120469
H	 4.7762207709	 1.2092631349	 0.2224749648	 0.130707
H	 1.8619645482	 2.1663081423	-1.1548948923	 0.289351
149.1001	168.1004	194.9874	199.7836	225.6139	297.5091	326.1705	363.809	404.7045	506.9904	583.411	626.4261	664.2191	762.165	772.2988	810.3425	889.7328	912.1845	957.112	959.1682	1006.1267	1040.2607	1058.7329	1093.5402	1115.925	1126.2131	1159.0422	1176.9298	1215.6973	1237.5578	1271.9799	1295.5403	1367.3425	1381.7765	1405.4976	1415.9282	1473.8485	1484.4233	1495.4259	1500.4872	1505.1485	3020.2229	3022.8312	3040.196	3079.5722	3086.7976	3092.1171	3095.2562	3130.798	3204.2242	3783.808
CC1C2OC3C2(C)C13O	C[C@H]1[C@@H]2O[C@H]3[C@]2(C)[C@@]13O	
InChI=1S/C7H10O2/c1-3-4-6(2)5(9-4)7(3,6)8/h3-5,8H,1-2H3	InChI=1S/C7H10O2/c1-3-4-6(2)5(9-4)7(3,6)8/h3-5,8H,1-2H3/t3-,4-,5-,6+,7+/m0/s1
