19
gdb 4831	3.5275457	1.3603167	1.1702642	2.3742	74.5	-0.22972	0.07305	0.30277	1098.0454	0.154782	-422.454611	-422.446214	-422.44527	-422.487483	31.968	
C	 1.4369473827	-0.0546594656	-0.1825372677	-0.251087
O	 0.0460238351	 0.1358634541	-0.0303931763	-0.291651
C	-0.3525041534	 0.8619122741	 1.1181734313	 0.417371
C	 0.0874327891	 2.3189487731	 1.0734867718	-0.468765
C	-1.822255066	 0.5566595935	 1.4564126393	-0.152865
C	-1.4537036719	-0.8206967269	 2.0924165137	 0.088813
O	-2.172567002	-0.5729460948	 3.3385462229	-0.33295
C	-1.5747137957	 0.7089525284	 2.9892763189	 0.073326
C	-0.2407307549	 0.0922615942	 2.4621410302	-0.164374
H	 1.891068078	-0.5053086321	 0.7123132082	 0.105697
H	 1.5721967572	-0.7388101564	-1.0238928998	 0.128731
H	 1.9695095995	 0.8799322427	-0.4077555386	 0.109297
H	-0.341337907	 2.8834068031	 1.9066020984	 0.121267
H	 1.1755217006	 2.4181574053	 1.1365538017	 0.120562
H	-0.2411022136	 2.78303901	 0.1380890382	 0.127762
H	-2.7272707379	 0.8063910054	 0.9035985503	 0.084411
H	-1.4758363351	-1.8186038302	 1.6616348874	 0.105806
H	-1.7414741869	 1.5601025588	 3.6475483842	 0.09742
H	 0.627845142	-0.1809836667	 3.0612087558	 0.081229
77.8134	163.5719	196.4405	205.2395	239.8226	296.6564	369.6302	421.1261	547.7069	593.1521	632.7929	768.6808	800.6081	806.6436	836.3783	879.6062	897.7167	901.0919	930.113	970.4689	1028.2913	1088.6507	1100.7713	1110.8405	1117.9291	1144.3111	1157.2258	1177.265	1180.3934	1185.786	1191.4898	1215.5747	1246.2987	1326.2972	1341.4037	1409.9517	1474.7405	1483.6079	1489.8014	1504.6368	1510.1372	2987.0163	3035.1706	3041.5037	3105.1641	3112.2382	3113.193	3117.4764	3124.4402	3134.7445	3156.4858
COC1(C)C2C3OC2C13	CO[C@@]1(C)[C@H]2[C@@H]3O[C@H]2[C@H]13	
InChI=1S/C7H10O2/c1-7(8-2)3-5-4(7)6(3)9-5/h3-6H,1-2H3	InChI=1S/C7H10O2/c1-7(8-2)3-5-4(7)6(3)9-5/h3-6H,1-2H3/t3-,4+,5-,6+,7-
