19
gdb 3073	2.6783152	1.7101476	1.4401828	1.4684	74.14	-0.24507	0.06247	0.30754000000000004	988.949	0.157466	-422.509993	-422.50205	-422.501106	-422.541895	31.529	
C	-0.658437587	-0.2554444478	-4.3836252728	-0.480835
C	 0.1518903538	-0.1857475206	-3.114256834	 0.355555
C	 1.6242027594	 0.1495773528	-3.1159338765	-0.360166
C	 1.1736325908	-1.2357930679	-2.7006995977	-0.088008
C	 0.674621638	-1.5008134473	-1.274449158	-0.001479
O	-0.7880488868	-1.5562962322	-1.4751791398	-0.301679
C	-0.6297819909	-0.1202994641	-1.783042572	-0.037159
C	 0.3780600075	-0.1173138808	-0.6117743194	 0.108781
O	 1.3025801563	 0.923204692	-0.4369570974	-0.424922
H	-1.4792217739	-0.9735962899	-4.2801423756	 0.127943
H	-1.090303747	 0.719416552	-4.6406241823	 0.114413
H	-0.0391804224	-0.5728820365	-5.2287079145	 0.113715
H	 2.0731493028	 0.1997921001	-4.1048224481	 0.100749
H	 2.0494321908	 0.831122647	-2.3970903761	 0.148367
H	 1.3909949897	-2.0904175342	-3.3311113653	 0.090001
H	 1.0698393709	-2.3551095486	-0.724874762	 0.073189
H	-1.5663949669	 0.437676755	-1.7617203541	 0.074486
H	-0.1822897337	-0.3059963998	 0.3076714551	 0.096049
H	 1.6356256786	 0.8800188707	 0.4637091004	 0.290998
152.5194	169.6866	216.3379	259.2039	292.5456	328.905	423.9095	476.4389	576.0775	594.1057	662.4409	708.8072	747.9368	825.8258	835.0388	857.4622	902.3837	918.2374	953.0226	972.43	988.3567	1035.3083	1062.0782	1064.6686	1097.8084	1123.2528	1159.7764	1173.8803	1186.142	1240.6976	1252.528	1266.6005	1290.2468	1309.513	1336.9926	1395.5762	1415.543	1450.587	1489.0418	1499.3929	1500.2817	3021.5635	3072.0955	3082.4309	3099.5572	3119.1287	3123.5512	3131.0334	3177.4787	3269.4382	3835.91
CC12CC1C1OC2C1O	C[C@]12C[C@H]1[C@@H]1O[C@H]2[C@@H]1O	
InChI=1S/C7H10O2/c1-7-2-3(7)5-4(8)6(7)9-5/h3-6,8H,2H2,1H3	InChI=1S/C7H10O2/c1-7-2-3(7)5-4(8)6(7)9-5/h3-6,8H,2H2,1H3/t3-,4+,5-,6-,7-/m0/s1
