19
gdb 5405	2.0537187	1.7601726	1.1032448	3.0412	77.54	-0.23171	-0.02626	0.20545	1144.3528	0.155062	-422.574052	-422.564589	-422.563644	-422.608544	33.858	
C	 1.3451946226	-0.3198646488	-0.2420427066	-0.253544
O	-0.0323130844	-0.1206984968	 0.0326961653	-0.235123
C	-0.3127644025	 0.6937617971	 1.1487051045	-0.067119
C	 0.3527021704	 2.0972067911	 1.1312839767	 0.365655
O	 0.5164227441	 2.7768507502	 0.1542157074	-0.300329
C	 0.8164069767	 2.4169859584	 2.5575695887	-0.370514
C	 0.6801192606	 1.0885234725	 3.2533649058	-0.176956
C	 0.0930452306	 0.1478407237	 2.5054570109	 0.283397
C	-0.2189098733	-1.262655546	 2.8891398013	-0.490628
H	 1.8865044212	-0.715699687	 0.6290081192	 0.106552
H	 1.3950642619	-1.0525677761	-1.0503578167	 0.130042
H	 1.8315873804	 0.6061980548	-0.5707583085	 0.13125
H	-1.403015105	 0.8400175551	 1.108547896	 0.11262
H	 1.8318708755	 2.8307317876	 2.5535317219	 0.134732
H	 0.1696817411	 3.1961867448	 2.9853795757	 0.137081
H	 1.0141182371	 0.9335563201	 4.2743989753	 0.097846
H	 0.1735777163	-1.5056717062	 3.8802400291	 0.123268
H	-1.3027796892	-1.4354100057	 2.8963573869	 0.131607
H	 0.1984525258	-1.9697752187	 2.1641241071	 0.140162
58.5014	110.1505	154.6249	167.5754	198.9972	240.8962	256.8005	309.3637	396.0791	465.5749	527.0883	561.2049	650.3906	680.7177	790.6305	816.5154	889.5305	960.1485	971.8716	985.5247	1032.5652	1063.3645	1082.319	1145.7798	1171.7134	1186.1326	1200.0536	1227.1794	1256.0078	1287.0824	1338.8903	1357.0986	1413.9776	1451.0981	1474.2345	1475.2836	1486.776	1489.5939	1514.5581	1713.6954	1855.5934	2995.2226	3000.8273	3016.3391	3024.4395	3057.3873	3066.4614	3077.619	3115.1968	3123.6307	3180.5386
COC1C(=O)CC=C1C	CO[C@@H]1C(=O)CC=C1C	
InChI=1S/C7H10O2/c1-5-3-4-6(8)7(5)9-2/h3,7H,4H2,1-2H3	InChI=1S/C7H10O2/c1-5-3-4-6(8)7(5)9-2/h3,7H,4H2,1-2H3/t7-/m0/s1
