19
gdb 951	3.906865	0.9163147	0.7866637	2.8748	78.68	-0.24853	-0.0262	0.22233	1429.8278	0.156649	-422.56668	-422.557949	-422.557005	-422.601063	31.616	
O	 0.4381478802	-0.9578656762	-0.1891099544	-0.238513
C	 0.4631933092	 0.2281023168	 0.0131290293	 0.162037
C	-0.2541149837	 0.9367090133	 1.1408704832	-0.296757
C	-1.1007456444	 2.127953225	 0.6473922229	-0.059942
C	-2.2824775572	 1.6573046237	-0.2150893631	-0.085988
O	-3.1593865259	 2.7260126834	-0.513317459	-0.248188
C	-3.8054870066	 3.2379134303	 0.6360888341	-0.117699
C	-2.8759546908	 3.4246263684	 1.8027194476	-0.089152
C	-1.6351729166	 2.9443429538	 1.7995438999	-0.059202
H	 1.0508104323	 0.9095974415	-0.6483322493	 0.072922
H	-0.8576275274	 0.2097148944	 1.6929380622	 0.125869
H	 0.5207416059	 1.3178917277	 1.8223644713	 0.121972
H	-0.4528291324	 2.7664183738	 0.026949604	 0.095308
H	-1.9444765829	 1.2610755503	-1.1774457047	 0.114841
H	-2.8174915535	 0.8492936551	 0.3123566865	 0.095788
H	-4.2409199505	 4.1987882943	 0.336941194	 0.12066
H	-4.6490851799	 2.5858248436	 0.930316619	 0.100939
H	-3.2649308981	 3.977416596	 2.6537425967	 0.096787
H	-0.9726889376	 3.1139756845	 2.64535674	 0.088316
54.2138	72.9313	120.9699	189.7071	289.6041	318.5291	340.4811	416.9713	495.0316	537.2843	544.4625	698.3657	755.5053	815.5595	895.5136	901.5995	956.7337	992.5636	1002.5197	1019.2928	1036.2323	1081.2486	1100.1507	1122.6795	1151.5245	1203.4563	1218.1008	1247.5187	1266.6213	1317.6037	1339.2518	1355.0584	1373.4427	1409.1818	1427.0297	1428.6609	1459.9614	1485.2465	1497.0003	1723.2481	1836.7924	2843.0013	2933.604	2964.1898	2986.857	3010.4031	3050.9591	3080.6693	3094.3172	3145.2355	3172.4851
O=CCC1COCC=C1	O=CC[C@H]1COCC=C1	
InChI=1S/C7H10O2/c8-4-3-7-2-1-5-9-6-7/h1-2,4,7H,3,5-6H2	InChI=1S/C7H10O2/c8-4-3-7-2-1-5-9-6-7/h1-2,4,7H,3,5-6H2/t7-/m0/s1
