19
gdb 4384	2.4583458	1.4184284	1.0405736	3.0628	80.5	-0.23101	-0.04917	0.18184	1197.0722	0.157166	-422.602943	-422.594052	-422.593108	-422.636546	33.186	
C	 1.3614271363	 0.6898545183	-0.4397100597	-0.478844
C	 0.029180497	 0.0515344654	-0.1786772845	 0.324146
C	-0.1071544933	-1.2771559286	-0.0122692061	-0.247572
C	-1.3849967051	-1.916476719	 0.3185376421	 0.353195
O	-1.4811594529	-3.1065332528	 0.5653102923	-0.354167
C	-2.6186526091	-1.0092930604	 0.4560310855	 0.037338
O	-2.7394653949	-0.6485124641	 1.8329850618	-0.441305
C	-2.4874809964	 0.2722806535	-0.352933547	-0.24071
C	-1.1561478775	 0.9784490766	-0.0714646547	-0.292481
H	 1.5798117773	 1.4489258839	 0.3221590212	 0.138281
H	 2.1733491632	-0.0407341491	-0.4441022815	 0.132227
H	 1.356487428	 1.2142038025	-1.403723282	 0.13579
H	 0.7490883619	-1.9434642815	-0.0714448223	 0.096075
H	-3.4931634934	-1.589646529	 0.1305590052	 0.079899
H	-2.7462409711	-1.4694104556	 2.3389302341	 0.293627
H	-2.5480640312	 0.015318173	-1.4170477118	 0.107317
H	-3.3302023698	 0.9327348773	-0.1258871139	 0.111423
H	-1.0225507269	 1.8295998368	-0.7490992979	 0.104139
H	-1.1716380619	 1.3987103028	 0.9435100692	 0.141621
62.9856	140.3751	180.5176	200.0743	262.0911	308.1233	354.2231	399.528	434.9515	490.6923	496.9885	519.2337	645.8682	740.0949	768.6615	855.5808	896.4354	915.0692	958.5112	980.9261	1030.5594	1044.3169	1067.968	1100.9787	1161.3455	1190.7751	1206.2444	1277.2108	1278.1846	1334.6782	1355.3622	1375.0561	1392.7669	1409.2768	1423.6285	1464.9553	1477.5512	1479.2842	1481.3485	1685.7078	1758.7115	3007.2895	3019.1304	3024.6924	3040.7752	3061.1774	3069.772	3088.3877	3124.3198	3170.0212	3797.7714
CC1=CC(=O)C(O)CC1	CC1=CC(=O)[C@@H](O)CC1	
InChI=1S/C7H10O2/c1-5-2-3-6(8)7(9)4-5/h4,6,8H,2-3H2,1H3	InChI=1S/C7H10O2/c1-5-2-3-6(8)7(9)4-5/h4,6,8H,2-3H2,1H3/t6-/m0/s1
