19
gdb 848	4.1085892	0.8057264	0.7115738	2.1968	78.16	-0.25193	-0.03578	0.21614999999999998	1535.1565	0.156027	-422.592337	-422.583057	-422.582113	-422.62931	32.087	
O	-4.3996094143	 3.5280697303	-1.6345734929	-0.245031
C	-3.8825508901	 2.6159744389	-1.0454797536	 0.149472
C	-2.5049098223	 2.6370121175	-0.4263529817	-0.054031
C	-2.5364827965	 2.2969668684	 1.0872313396	-0.239759
C	-1.2393452298	 1.4901453081	 1.3807026049	-0.238575
C	-0.4712101041	 1.400052806	 0.0367211841	-0.05439
C	-1.5798733074	 1.556087507	-1.0259482043	-0.256835
C	 0.2785426745	 0.096698849	-0.1067265753	 0.149512
O	 1.4598871883	-0.0136245097	-0.3032366786	-0.245046
H	-4.41422271	 1.6415109549	-0.9108985185	 0.068717
H	-2.0759613741	 3.6288176788	-0.5950797649	 0.099318
H	-2.6091131746	 3.2045793953	 1.6903179472	 0.122676
H	-3.4208058912	 1.6931692413	 1.3209812504	 0.109803
H	-0.6244165316	 1.9533867426	 2.1553274149	 0.122401
H	-1.4904334019	 0.4847700464	 1.737963665	 0.109549
H	 0.2513933408	 2.2158788615	-0.056212096	 0.099263
H	-1.1932981773	 1.8235291925	-2.0121656151	 0.12843
H	-2.1309224085	 0.6099285448	-1.1303289899	 0.105805
H	-0.3767900802	-0.8044630336	-0.0131533855	 0.068721
11.2235	59.8311	85.3509	86.1701	277.5386	305.0017	342.8705	368.236	372.4259	477.9263	612.8811	667.4144	775.6089	875.5714	877.5546	913.7037	949.3783	980.9446	991.5312	1015.5405	1049.3267	1080.9788	1103.6026	1119.3913	1198.1514	1209.568	1245.8098	1274.9011	1282.7642	1296.1429	1332.917	1336.8267	1341.7889	1362.6795	1425.4667	1427.2996	1485.878	1487.0049	1507.9016	1835.5844	1839.4617	2827.5577	2829.3146	3008.7469	3034.6119	3048.4747	3071.9577	3074.1342	3096.0609	3106.526	3115.1484
O=CC1CCC(C1)C=O	O=C[C@H]1CC[C@H](C1)C=O	
InChI=1S/C7H10O2/c8-4-6-1-2-7(3-6)5-9/h4-7H,1-3H2	InChI=1S/C7H10O2/c8-4-6-1-2-7(3-6)5-9/h4-7H,1-3H2/t6-,7+
