19
gdb 1990	2.4870314	1.8692196	1.3798997	2.5972	74.22	-0.2296	0.06166	0.29126	991.8644	0.15617	-422.502945	-422.494788	-422.493844	-422.534896	32.45	
C	 0.0737605064	-0.0741380937	 0.1870505435	-0.488694
C	 1.5748973351	 0.032837792	 0.1279414096	 0.371346
O	 2.0521204888	 0.8306451961	-0.9958551008	-0.334996
C	 2.8215460023	 1.6884682956	-0.1141913016	-0.116405
C	 2.4598047392	 0.8280261907	 1.1144357307	-0.115306
C	 3.2802800993	-0.4438631136	 1.406696887	-0.16973
C	 3.8301400457	-1.0674421786	 0.1358728599	-0.324745
C	 2.3899998273	-1.2568879311	 0.4361464887	 0.353975
O	 1.8674860463	-2.5343070117	 0.4979289098	-0.450417
H	-0.2513138779	-0.5658291728	 1.1114495907	 0.105515
H	-0.3851701774	 0.9172636083	 0.1483161652	 0.128061
H	-0.2990008698	-0.6614246577	-0.6588393074	 0.140636
H	 3.8785645845	 1.7403737291	-0.3987620445	 0.102977
H	 2.4052722089	 2.7028356301	-0.0906256023	 0.100357
H	 2.0365900298	 1.3267795046	 1.9860420756	 0.07556
H	 3.6896649256	-0.7066858893	 2.3744846068	 0.090598
H	 4.1516642166	-0.4718566641	-0.7117409344	 0.128806
H	 4.4230639723	-1.9583863964	 0.3166639715	 0.117808
H	 1.1395790069	-2.5395939573	 1.1291114521	 0.284654
145.5935	204.0312	233.1501	271.1651	299.7178	330.8034	357.7118	423.8895	485.4694	499.4692	610.2429	631.6827	763.807	815.4667	827.1646	873.3275	889.7197	898.9671	946.0032	974.2342	982.7595	1001.6169	1047.7805	1074.9233	1092.8686	1102.5612	1148.465	1155.7708	1166.1504	1213.7584	1257.1754	1280.3672	1308.8684	1328.9664	1343.9729	1399.4841	1417.476	1479.1938	1489.6022	1499.1079	1522.0024	3019.6423	3029.9894	3065.0005	3095.8076	3113.2098	3117.7914	3131.5941	3185.295	3216.8959	3796.4655
CC12OCC1C1CC21O	C[C@@]12OC[C@@H]1[C@@H]1C[C@]21O	
InChI=1S/C7H10O2/c1-6-5(3-9-6)4-2-7(4,6)8/h4-5,8H,2-3H2,1H3	InChI=1S/C7H10O2/c1-6-5(3-9-6)4-2-7(4,6)8/h4-5,8H,2-3H2,1H3/t4-,5+,6+,7+/m0/s1
