19
gdb 4672	4.0883858	0.9280572	0.7707761	1.1092	80.37	-0.24321	-0.05417	0.18904	1477.7879	0.155544	-422.57497	-422.565516	-422.564572	-422.610344	32.839	
C	-0.126576893	-0.0901808498	 0.0014910496	-0.382002
C	 1.3926452588	 0.0488535145	-0.0216585034	-0.290907
C	 1.8726197604	 1.4912116124	 0.0446299301	 0.282157
O	 1.0978824352	 2.4249045031	 0.1074696294	-0.317734
C	 3.3443101643	 1.7090165657	 0.029554361	 0.216957
C	 3.9345468578	 2.9058215565	 0.0803733752	-0.170674
C	 5.4207146293	 2.7497861997	 0.0458437504	-0.107977
O	 5.6517765314	 1.3462197052	-0.0312536535	-0.268454
C	 4.4132646282	 0.6418751504	-0.0441734522	-0.171963
H	-0.5427099429	 0.3423811271	 0.9147854429	 0.133075
H	-0.5781303666	 0.439118339	-0.841274519	 0.133247
H	-0.420114583	-1.1421999937	-0.0503887955	 0.109556
H	 1.8557857905	-0.4979513533	 0.8124976876	 0.124176
H	 1.8205793563	-0.405507341	-0.9271221601	 0.124284
H	 3.4158503694	 3.8537228203	 0.1383368777	 0.133953
H	 5.8726806987	 3.2569356014	-0.8219896363	 0.116267
H	 5.9038950579	 3.1652655641	 0.9450645964	 0.116214
H	 4.3426764972	 0.0343465472	-0.9600902485	 0.109934
H	 4.37487956	-0.0551517886	 0.8077322183	 0.109892
56.229	70.9655	102.6584	142.1669	168.1194	204.0025	280.3917	356.465	409.3069	467.0394	573.1312	696.9213	776.6065	798.0028	859.1935	868.1982	919.6932	961.5717	985.2253	1028.6019	1034.6733	1059.1769	1089.7637	1090.7665	1116.7245	1176.3864	1224.6611	1227.893	1280.2021	1280.8055	1360.3054	1381.4351	1395.9725	1412.5269	1450.2707	1490.0319	1496.4686	1509.7913	1527.0561	1680.7984	1774.7411	2968.6635	2976.5323	2985.2724	2990.5629	3009.5322	3035.2731	3052.0457	3123.5063	3127.9799	3233.1811
CCC(=O)C1=CCOC1	CCC(=O)C1=CCOC1	
InChI=1S/C7H10O2/c1-2-7(8)6-3-4-9-5-6/h3H,2,4-5H2,1H3	InChI=1S/C7H10O2/c1-2-7(8)6-3-4-9-5-6/h3H,2,4-5H2,1H3
