19
gdb 437	3.4479652	1.255228	1.1744502	2.3088	74.05	-0.23175	0.08803	0.31978	1117.7814	0.157811	-422.518005	-422.510111	-422.509167	-422.550637	30.191	
C	 0.7989336989	-0.7493612017	 0.2445014894	-0.181049
O	-0.0215364014	 0.4102406061	 0.0750369471	-0.236627
C	 1.3984428236	 0.5762708369	 0.0316443752	-0.03531
C	 2.0074189658	 1.360566942	 1.1451973265	 0.295632
C	 1.4277514444	 2.7206994853	 1.5139573569	-0.377773
C	 1.329864154	 1.5595857456	 2.4724104683	 0.084183
O	 2.255853997	 1.4535234629	 3.5200455192	-0.259535
C	 3.562141178	 1.5994796158	 2.9651780116	-0.09119
C	 3.4761224898	 1.141094362	 1.4901024947	-0.31043
H	 0.7961669916	-1.1765352588	 1.2458670182	 0.118499
H	 0.7631459687	-1.46761301	-0.5731293867	 0.116361
H	 1.7790405568	 0.8006596545	-0.9672140496	 0.089895
H	 2.095571222	 3.5468275923	 1.7339882584	 0.11323
H	 0.5082331654	 2.9994124202	 1.0106081746	 0.129158
H	 0.3650149464	 1.1362059618	 2.7216163633	 0.116231
H	 3.8839178087	 2.648335029	 3.0249395833	 0.101562
H	 4.2527742697	 1.0028852611	 3.5671463725	 0.112299
H	 4.1725692104	 1.6971033936	 0.8548779112	 0.106511
H	 3.7117197204	 0.0751893215	 1.3945401759	 0.108353
76.4922	141.9929	181.1781	231.4989	273.1022	426.0082	457.1263	479.0293	582.3336	681.7584	710.1255	825.84	849.6137	868.5834	892.471	899.493	940.7863	953.5809	992.7354	1022.0571	1023.4156	1041.273	1091.1563	1106.6905	1116.9388	1153.5537	1165.0664	1172.6017	1218.0074	1227.5352	1250.5888	1268.0025	1297.9742	1313.8189	1378.8832	1401.8201	1440.9419	1476.037	1497.1614	1523.6754	1527.8834	3005.4263	3039.8696	3080.6811	3082.2786	3088.1932	3093.271	3132.0166	3176.3021	3198.4212	3222.157
C1OC1C12CC1OCC2	C1O[C@H]1[C@@]12C[C@@H]1OCC2	
InChI=1S/C7H10O2/c1-2-8-5-3-7(1,5)6-4-9-6/h5-6H,1-4H2	InChI=1S/C7H10O2/c1-2-8-5-3-7(1,5)6-4-9-6/h5-6H,1-4H2/t5-,6+,7-/m0/s1
