19
gdb 2716	2.3661248	1.5877082	1.3753851	1.4325	75.02	-0.20188	0.05982	0.2617	1052.1714	0.154625	-422.480992	-422.471902	-422.470958	-422.513978	34.966	
C	 0.0124675372	 0.0075403885	-0.1157029051	-0.418206
C	 1.5263321491	 0.0457892607	-0.0275544915	-0.151815
C	 2.1107431553	-0.0675515273	 1.3752616069	 0.282178
O	 1.371033812	-0.4620366351	 2.4746054897	-0.45713
C	 3.6718241	-0.0538573731	 1.4135594312	-0.116954
C	 4.3450394679	 0.0669999875	 0.0709328645	-0.309211
C	 3.6782452602	 1.2751026669	 0.6785231526	-0.12325
C	 2.117232254	 1.2629656056	 0.643687948	 0.328725
O	 1.3678399633	 2.4160704734	 0.7653730723	-0.454369
H	-0.4512841301	 0.4573520614	 0.76356596	 0.135199
H	-0.3344216644	 0.5552373921	-0.9971843476	 0.123126
H	-0.3438685391	-1.0251330356	-0.2012422317	 0.10371
H	 2.0197715006	-0.4137584964	-0.8802861401	 0.073648
H	 1.1657571635	-1.40047145	 2.3869215581	 0.286603
H	 4.2068933271	-0.3084318684	 2.3201771376	 0.09125
H	 5.431085072	 0.0892083791	 0.1159456748	 0.110755
H	 3.9692122937	-0.4236148723	-0.8194682025	 0.11812
H	 4.2287414284	 2.1728230504	 0.9342148871	 0.086735
H	 1.5139156895	 2.7813099529	 1.6453592458	 0.290886
136.6561	142.5691	202.0535	239.9055	255.727	257.8182	310.7017	330.8525	371.6699	463.6603	527.9685	556.233	623.9467	717.077	748.8314	769.158	812.6413	868.3283	897.8484	944.2503	972.4255	1007.3742	1055.8945	1057.9884	1077.9364	1091.3496	1093.7095	1151.5728	1159.2893	1197.502	1216.7853	1263.642	1285.5416	1310.8062	1349.8654	1372.3386	1410.374	1480.2604	1490.2832	1496.8804	1511.5795	3037.1695	3096.1426	3115.6063	3128.7362	3142.9856	3176.6432	3188.4943	3203.9916	3768.5281	3788.6007
CC1C2(O)C3CC3C12O	C[C@@H]1[C@@]2(O)[C@H]3C[C@H]3[C@@]12O	
InChI=1S/C7H10O2/c1-3-6(8)4-2-5(4)7(3,6)9/h3-5,8-9H,2H2,1H3	InChI=1S/C7H10O2/c1-3-6(8)4-2-5(4)7(3,6)9/h3-5,8-9H,2H2,1H3/t3-,4+,5-,6-,7+
