19
gdb 4624	3.3676706	0.6849455	0.6392707	1.5047	82.18	-0.24885	0.02134	0.27019	1815.4948	0.155096	-422.498845	-422.488691	-422.487747	-422.535893	34.84	
C	 5.4664258035	 0.1597913358	-2.0313352563	-0.41472
C	 4.618082155	 0.8987399259	-1.0112773284	-0.031368
C	 5.3125461102	 1.6002854422	 0.1750126303	-0.079993
O	 4.4825699951	 0.910923983	 1.1339517916	-0.285941
C	 3.9164491401	 0.0618194903	 0.1011575346	-0.049455
C	 2.4676945589	 0.0028557775	 0.1103300329	 0.037763
C	 1.2634781946	-0.0561846638	 0.0958943938	 0.100235
C	-0.1980903054	-0.0648079755	 0.1034740901	-0.196453
O	-0.7791944829	 1.1053631172	-0.4544145034	-0.401075
H	 6.1864315996	-0.5052723656	-1.5417689332	 0.120334
H	 4.8431044747	-0.4477110769	-2.6959103343	 0.127931
H	 6.0297126077	 0.8617482032	-2.6552744428	 0.122954
H	 3.9006097209	 1.556409529	-1.5071774471	 0.09541
H	 6.3738626211	 1.3405319797	 0.2941409376	 0.096596
H	 5.2015345088	 2.6878680965	 0.2455990848	 0.107513
H	 4.3274712396	-0.9563377983	 0.1760319192	 0.096494
H	-0.5708707659	-0.8997375934	-0.5003792643	 0.142152
H	-0.5510475431	-0.2376366508	 1.1328747506	 0.12298
H	-0.3904235726	 1.8618471139	-0.0028504658	 0.288642
27.7023	61.0499	73.6338	116.6067	207.2117	227.3657	252.8776	297.4718	346.8711	385.2758	420.3196	505.3969	603.6406	702.1822	791.6968	894.6968	897.8074	930.5944	972.5106	988.3044	1013.6257	1050.2133	1107.9407	1124.9692	1148.7239	1174.4757	1179.2781	1215.5587	1245.0357	1272.6057	1329.2338	1358.5378	1359.3004	1394.7701	1413.7538	1418.065	1487.1777	1495.8504	1496.8077	1527.6788	2351.0365	2977.4487	2984.4659	3003.7342	3030.0374	3059.144	3062.8179	3081.4812	3100.3524	3104.5581	3816.199
CC1COC1C#CCO	C[C@@H]1CO[C@H]1C#CCO	
InChI=1S/C7H10O2/c1-6-5-9-7(6)3-2-4-8/h6-8H,4-5H2,1H3	InChI=1S/C7H10O2/c1-6-5-9-7(6)3-2-4-8/h6-8H,4-5H2,1H3/t6-,7+/m1/s1
