19
gdb 1020	2.0344997	1.1603988	0.9253088	2.1797	80.97	-0.2501	0.02412	0.27421999999999996	1389.2805	0.153071	-422.512164	-422.501442	-422.500498	-422.549343	37.17	
C	 1.5518705435	-0.0855450791	-0.0496666181	-0.505638
C	 0.0974003648	-0.0693993076	 0.0016756914	 0.140422
C	-1.1082315086	-0.0645302498	 0.0125239592	-0.011122
C	-2.5511869858	-0.0375439531	 0.0964087895	 0.209908
C	-3.3499715523	-1.0111266089	-0.6710315444	-0.222682
O	-3.261912829	 0.3489400019	-1.0939225355	-0.271287
C	-3.1125191493	 0.553213633	 1.3929065661	 0.041328
C	-2.8321378489	 2.0514259228	 1.4994884527	-0.409577
O	-2.6272446285	-0.1703229781	 2.5124575896	-0.427645
H	 1.9798090845	 0.785591252	 0.4577715513	 0.153524
H	 1.9572764344	-0.9845452653	 0.4272500715	 0.154226
H	 1.9035444406	-0.0721664191	-1.0868941699	 0.159516
H	-2.8423281154	-1.7317391896	-1.3091153553	 0.121088
H	-4.317134365	-1.3236822111	-0.2793048296	 0.120283
H	-4.1947001491	 0.3864523867	 1.3827497542	 0.094599
H	-3.2507060113	 2.4415782918	 2.4307084094	 0.122308
H	-1.7537717978	 2.2444495856	 1.4944696351	 0.116775
H	-3.2783169081	 2.5863404767	 0.6559482319	 0.133315
H	-1.6644554688	-0.1028402787	 2.497893011	 0.280658
22.9563	64.1189	81.6697	126.3909	207.2797	233.5204	253.8713	296.7679	313.6424	334.1234	368.1792	451.8103	473.3802	542.2455	587.9239	628.1974	835.9031	859.279	914.1649	954.5176	1015.1836	1050.2006	1054.4299	1061.743	1098.084	1118.2919	1136.9248	1163.5448	1273.9772	1284.033	1333.3511	1394.4393	1402.3159	1413.6231	1421.7263	1475.1729	1477.1335	1489.4744	1495.5837	1520.1951	2359.8832	3030.543	3037.8256	3060.3011	3085.0118	3092.5398	3095.1606	3111.4591	3126.3293	3178.7042	3778.7556
CC#CC1(CO1)C(C)O	CC#C[C@@]1(CO1)[C@H](C)O	
InChI=1S/C7H10O2/c1-3-4-7(5-9-7)6(2)8/h6,8H,5H2,1-2H3	InChI=1S/C7H10O2/c1-3-4-7(5-9-7)6(2)8/h6,8H,5H2,1-2H3/t6-,7+/m0/s1
