19
gdb 5155	2.0845232	1.6541198	1.0459843	2.715	76.57	-0.2434	-0.02086	0.22254000000000002	1171.2022	0.155092	-422.520015	-422.5109	-422.509956	-422.55452	32.862	
C	 1.5099633946	-0.0941936807	 0.0728548507	-0.265022
O	 0.0976686208	 0.0584740607	-0.0055876373	-0.279971
C	-0.4388165542	 0.7459156499	 1.0578488311	 0.447883
C	-0.6750197013	 0.1137383918	 2.4013028062	-0.342042
C	-1.8486956267	 0.6531221618	 1.6109407886	-0.135488
C	-1.9000910958	 2.1755652351	 1.7595357167	-0.253963
C	-0.44491315	 2.290279788	 1.1668985673	-0.175536
C	-0.4337057419	 2.9529423875	-0.1856143645	 0.174356
O	 0.3832459055	 3.7615622698	-0.5451223322	-0.265292
H	 1.800941344	-0.6304491892	 0.9859481116	 0.114364
H	 1.8134098541	-0.6742251915	-0.800777542	 0.132549
H	 2.0211944244	 0.8772874487	 0.0518679431	 0.127993
H	-0.5888067942	-0.968218358	 2.3895877463	 0.121994
H	-0.3608068767	 0.5896825916	 3.3278120664	 0.107786
H	-2.6681601974	 0.0166175618	 1.302998705	 0.101918
H	-2.6435803857	 2.652087427	 1.1148418681	 0.113941
H	-2.0185688228	 2.5591382857	 2.7768972821	 0.11015
H	 0.3255008185	 2.7429145045	 1.7963007988	 0.085983
H	-1.2613043153	 2.6312958357	-0.8592908759	 0.078398
50.2745	97.7235	117.1227	181.8648	212.4398	260.4275	372.4427	380.1545	421.697	471.9331	495.5073	644.9844	749.6386	839.5289	859.9003	899.5064	944.0157	964.0671	984.5961	1016.283	1022.8461	1046.2231	1072.1587	1090.8328	1139.5633	1180.8516	1181.5278	1196.5961	1225.5983	1234.6195	1268.7935	1278.0905	1297.8363	1372.386	1429.8271	1470.7708	1483.4546	1490.3786	1502.7662	1505.412	1828.8383	2866.1905	3002.0196	3052.6773	3061.2153	3080.4789	3103.1446	3105.1372	3130.0621	3196.3786	3205.4794
COC12CC1CC2C=O	CO[C@]12C[C@H]1C[C@@H]2C=O	
InChI=1S/C7H10O2/c1-9-7-3-5(7)2-6(7)4-8/h4-6H,2-3H2,1H3	InChI=1S/C7H10O2/c1-9-7-3-5(7)2-6(7)4-8/h4-6H,2-3H2,1H3/t5-,6-,7-/m1/s1
