19
gdb 2158	3.2145764	1.4879835	1.4579169	1.0042	74.19	-0.2236	0.07686	0.30046	996.6562	0.157038	-422.53478	-422.527099	-422.526155	-422.566183	31.413	
C	-0.1094909513	-0.3232587848	 0.0929670476	-0.502008
C	 1.3410951182	 0.0570407149	 0.0453935491	 0.418873
C	 2.0166518126	 0.7947367254	 1.2208383104	-0.317971
C	 3.2984763142	 1.1119315751	 0.4172116638	 0.378678
O	 4.4722679545	 1.4633867457	 1.0696983756	-0.486867
C	 2.7597550775	 2.0562419667	-0.6775501716	-0.291882
C	 2.0331221752	 0.7976880878	-1.1817406478	-0.120514
C	 3.1594799681	-0.0988880425	-0.6429734412	 0.03376
O	 2.2622896584	-1.0796208755	-0.1149481842	-0.332843
H	-0.3099640651	-0.9648565144	 0.9575640425	 0.129635
H	-0.735293432	 0.5709171608	 0.1770962779	 0.122327
H	-0.3969548802	-0.8663629074	-0.8118345365	 0.128203
H	 1.5033833572	 1.6975167111	 1.562589567	 0.098872
H	 2.1696222499	 0.1089806975	 2.0592303874	 0.094558
H	 4.641319855	 0.8146054131	 1.7614779695	 0.281458
H	 2.1845859414	 2.9291636242	-0.3567575402	 0.096743
H	 3.5424615464	 2.3603600708	-1.3784280841	 0.108641
H	 1.5832949324	 0.6890904098	-2.1663575289	 0.075938
H	 4.0324034977	-0.4700169781	-1.1782824263	 0.084399
200.6322	217.0517	231.5939	289.6954	326.636	372.0503	451.6232	476.504	546.671	561.2021	654.8799	688.0313	731.0632	819.4354	827.104	862.7216	893.2266	909.5288	934.8113	970.2236	1005.4105	1018.0118	1034.0971	1088.1371	1105.2702	1122.9815	1161.0523	1180.3229	1191.1561	1219.4126	1220.8376	1240.558	1289.2427	1332.7918	1349.4839	1392.0946	1416.6894	1473.9606	1478.9585	1492.718	1505.8205	3036.8644	3052.2836	3055.9286	3106.6508	3108.9107	3113.0061	3115.9372	3130.8107	3143.3986	3805.66
CC12CC3(O)CC1C3O2	C[C@]12C[C@]3(O)C[C@H]1[C@@H]3O2	
InChI=1S/C7H10O2/c1-6-3-7(8)2-4(6)5(7)9-6/h4-5,8H,2-3H2,1H3	InChI=1S/C7H10O2/c1-6-3-7(8)2-4(6)5(7)9-6/h4-5,8H,2-3H2,1H3/t4-,5-,6-,7+/m0/s1
