19
gdb 3077	3.0920205	1.5259729	1.2963789	1.7377	74.22	-0.23984	0.07941	0.31925	1021.0894	0.158189	-422.520965	-422.513332	-422.512388	-422.55232	31.547	
O	-0.5649793651	 0.3535524954	-0.0888489574	-0.453699
C	-1.9110971969	 0.3738939108	 0.3227864699	 0.159863
C	-2.9038576519	 0.2762498069	-0.8864559956	-0.053769
C	-2.6335875407	 1.7947988377	-1.0826563907	-0.249889
C	-2.5945512633	 1.7946943658	 0.468281439	-0.14825
C	-3.9960165793	 1.3274846237	 0.8968638355	 0.405602
O	-4.216537387	 1.1080053238	 2.2579053733	-0.471923
C	-5.1566686475	 1.4180969447	-0.0605636684	-0.379098
C	-4.2279142476	 0.2167036233	-0.1064106009	-0.090781
H	-0.0164318633	 0.5462891955	 0.6776771133	 0.283863
H	-2.0887441881	-0.3207982461	 1.153494318	 0.073937
H	-2.7446931205	-0.4440459074	-1.6885378248	 0.066326
H	-1.6422463414	 1.9633505528	-1.4998398548	 0.117952
H	-3.3660263279	 2.4116743138	-1.6035033532	 0.089441
H	-2.1385240799	 2.604070854	 1.0418534078	 0.049932
H	-4.4569407433	 1.9508029657	 2.657810471	 0.281361
H	-6.1153483634	 1.2052517086	 0.4017515437	 0.112335
H	-5.2068767329	 2.1469422132	-0.8608792896	 0.110505
H	-4.61186517	-0.7457595221	 0.2101160839	 0.096292
189.5697	245.2079	286.72	305.7526	310.1276	382.4931	433.7289	474.6098	501.9392	548.4638	595.1159	705.0684	784.5845	849.3311	881.2469	893.179	904.9039	912.4698	934.9127	983.995	1015.9717	1018.4784	1044.3757	1066.3702	1070.8519	1084.1556	1117.02	1131.7813	1177.3861	1216.6339	1232.391	1240.7907	1248.734	1274.0841	1295.1441	1315.074	1330.5971	1392.679	1426.9973	1481.618	1522.5836	3025.6259	3089.711	3098.2546	3119.2225	3134.4458	3155.1828	3184.9089	3216.0351	3793.3046	3821.8163
OC1C2CC1C1(O)CC21	O[C@@H]1[C@@H]2C[C@H]1[C@@]1(O)C[C@@H]21	
InChI=1S/C7H10O2/c8-6-3-1-4(6)7(9)2-5(3)7/h3-6,8-9H,1-2H2	InChI=1S/C7H10O2/c8-6-3-1-4(6)7(9)2-5(3)7/h3-6,8-9H,1-2H2/t3-,4-,5+,6-,7+/m1/s1
