19
gdb 3814	2.5032299	1.7791529	1.3197123	1.9985	73.47	-0.24465	0.07153	0.31618	1005.7625	0.158093	-422.542044	-422.534314	-422.53337	-422.573678	31.484	
O	 0.5531270592	 0.888950061	 0.4536805629	-0.442672
C	-0.848536004	 1.1094259662	 0.3962560957	 0.152023
C	-1.641988942	-0.2014486849	 0.1365255536	-0.337654
C	-2.1574779587	-0.5960841408	 1.5211092698	 0.418566
O	-2.2749774482	-1.9469472271	 1.8486343834	-0.483938
C	-3.0937290165	 0.3619753046	 2.2454397675	-0.123807
C	-2.9529879446	 1.7802212387	 1.6965038839	-0.256663
C	-1.3988272642	 1.6011474736	 1.7446845133	-0.078929
C	-1.6051428814	 0.3083915339	 2.5857914095	-0.147705
H	 0.7173954683	 0.2502200349	 1.157373968	 0.281537
H	-0.9900255781	 1.8476797187	-0.3987320055	 0.082648
H	-2.4493016192	-0.060983626	-0.5908656551	 0.09461
H	-0.9698705214	-0.9699233538	-0.2556181145	 0.110693
H	-3.0712701148	-2.288604865	 1.4277282541	 0.283416
H	-3.9208435431	-0.0372625284	 2.8217634875	 0.082588
H	-3.4036341469	 2.0111003725	 0.7234318233	 0.089129
H	-3.2871656575	 2.5253430285	 2.4226940028	 0.10659
H	-0.8242353554	 2.423207909	 2.1690729489	 0.07643
H	-1.1077789615	-0.0224152154	 3.4874457108	 0.09314
123.607	250.4162	286.8573	316.6517	340.432	371.1304	406.6608	419.494	466.2881	590.4502	684.7663	714.2814	773.3959	826.6577	855.4445	867.1579	894.4444	937.7176	962.6588	973.4793	989.0224	1001.7415	1035.7672	1062.7413	1091.5385	1116.8683	1136.6609	1180.632	1206.8567	1227.2393	1234.6476	1255.7768	1278.6772	1296.0221	1307.5754	1326.3854	1340.4254	1429.5676	1430.5498	1484.9299	1503.3427	3027.3313	3040.6196	3071.8211	3094.342	3096.8774	3124.9542	3172.5839	3207.3054	3790.5606	3797.5983
OC1CC2(O)C3CC1C23	O[C@H]1C[C@]2(O)[C@@H]3C[C@H]1[C@H]23	
InChI=1S/C7H10O2/c8-5-2-7(9)4-1-3(5)6(4)7/h3-6,8-9H,1-2H2	InChI=1S/C7H10O2/c8-5-2-7(9)4-1-3(5)6(4)7/h3-6,8-9H,1-2H2/t3-,4-,5+,6+,7+/m1/s1
