19
gdb 5842	2.7105498	0.9821054	0.7747667	3.0728	78.05	-0.24312	0.05371	0.29683	1471.1408	0.154633	-422.500728	-422.490796	-422.489852	-422.536682	34.966	
O	 5.1864662101	 2.4567986541	 0.9907738472	-0.421743
C	 5.3158419059	 1.4838902426	 2.0176030205	-0.102711
C	 4.6088741627	 0.2351171031	 1.5360786599	-0.050565
C	 4.3548132488	-0.9004785404	 2.5477531543	-0.097848
O	 2.9377028151	-0.8767267315	 2.2855046953	-0.289715
C	 3.0679452859	 0.2899331954	 1.4407317682	 0.166018
C	 2.4411456059	 0.106674376	 0.058796322	-0.375643
C	 0.9865112057	 0.0274799152	 0.094450733	 0.299482
C	-0.213017687	-0.0249381372	 0.1425097131	-0.43898
H	 5.5825589435	 3.2782590086	 1.2958909031	 0.291167
H	 6.373860695	 1.260445422	 2.2312809758	 0.090509
H	 4.8563706647	 1.8297943438	 2.9578619042	 0.090513
H	 5.071612274	-0.1086064345	 0.6064835456	 0.087886
H	 4.8008806507	-1.8750959299	 2.32045862	 0.106481
H	 4.5829067395	-0.6419165643	 3.5916282882	 0.096216
H	 2.6328413481	 1.1746536098	 1.925135566	 0.08433
H	 2.7582243014	 0.9555335804	-0.5616424979	 0.143362
H	 2.856449747	-0.7995914345	-0.3992783389	 0.127866
H	-1.2724147769	-0.0801977087	 0.1812383605	 0.193374
47.0056	66.183	102.4373	116.0266	191.915	254.6741	291.0506	330.9565	357.467	415.0119	443.762	555.8708	614.2898	637.3098	728.5004	843.553	888.5125	925.4774	956.1322	1011.4249	1028.3953	1044.3599	1071.6369	1094.3193	1119.6242	1133.3273	1169.5422	1214.4881	1230.799	1250.514	1281.6849	1293.2534	1313.0052	1347.0573	1379.0543	1407.7943	1457.2836	1463.07	1521.6216	1527.7038	2241.0559	2961.6345	2990.337	2998.6997	3013.0431	3021.4172	3053.7324	3061.61	3075.1407	3508.721	3830.2344
OCC1COC1CC#C	OC[C@H]1CO[C@@H]1CC#C	
InChI=1S/C7H10O2/c1-2-3-7-6(4-8)5-9-7/h1,6-8H,3-5H2	InChI=1S/C7H10O2/c1-2-3-7-6(4-8)5-9-7/h1,6-8H,3-5H2/t6-,7+/m0/s1
