19
gdb 1291	3.8823784	1.027536	0.9505115	2.6577	74.45	-0.23629	0.0547	0.29098999999999997	1285.1801	0.155257	-422.476913	-422.468369	-422.467425	-422.510042	32.844	
C	 1.5690159199	 3.6215470078	-1.04512088	-0.379102
C	 1.0945779838	 4.1319280648	 0.3107163131	 0.104808
O	 1.4059383093	 5.5216993016	 0.3545856062	-0.439684
C	 1.754705035	 3.3996779602	 1.4638773448	-0.034396
C	 1.0923751329	 2.1476947379	 1.9728640239	-0.117595
C	 1.9125446164	 1.4822861562	 3.1259648537	 0.007192
O	 3.1016505058	 2.2463697266	 3.3727972786	-0.237034
C	 1.8559901164	 2.7077919774	 3.9144445052	 0.004779
C	 1.0356768001	 3.4289438928	 2.795499017	-0.134541
H	 1.3105415497	 2.5668048445	-1.1735271611	 0.11372
H	 1.1022846234	 4.1989676064	-1.8476510934	 0.122656
H	 2.6543863192	 3.7302998708	-1.1313929599	 0.124595
H	 0.0014895708	 3.9902012826	 0.3804741619	 0.056281
H	 1.2649918007	 5.8206972189	 1.2589624582	 0.280336
H	 2.838086261	 3.4508876502	 1.4668098134	 0.117743
H	 0.2781653971	 1.6548247857	 1.4576658973	 0.094588
H	 1.9201257921	 0.4363510751	 3.4069035897	 0.111402
H	 1.8070527368	 2.8844391481	 4.9819730077	 0.1111
H	 0.1688119597	 4.0474759223	 2.9928201238	 0.093153
84.7837	132.945	161.8166	229.9396	292.5275	330.6866	388.4926	421.0444	464.0975	490.5237	606.9939	764.3361	773.0108	785.3509	835.814	861.4816	878.6299	903.5113	938.8098	949.8783	975.1595	998.5212	1037.8014	1042.9872	1057.9074	1109.6739	1123.1916	1150.6793	1182.3449	1220.5583	1231.4118	1249.3484	1253.8222	1288.6889	1331.9828	1384.1029	1396.9787	1419.3677	1437.7707	1484.2643	1498.5476	2939.7512	3044.4523	3119.4241	3124.2788	3175.2731	3181.9606	3190.3002	3196.5166	3205.257	3812.6295
CC(O)C1C2C3OC3C12	C[C@H](O)[C@@H]1[C@H]2[C@H]3O[C@H]3[C@@H]12	
InChI=1S/C7H10O2/c1-2(8)3-4-5(3)7-6(4)9-7/h2-8H,1H3	InChI=1S/C7H10O2/c1-2(8)3-4-5(3)7-6(4)9-7/h2-8H,1H3/t2-,3-,4-,5+,6-,7+/m0/s1
