19
gdb 4524	2.8800999	1.5797963	1.1214514	3.1144	77.09	-0.24932	0.00209	0.25141	1104.8125	0.158344	-422.560149	-422.55215	-422.551206	-422.592801	30.117	
C	 0.2853771804	 1.4398803947	-0.2968996869	-0.413116
C	-0.0393569056	-0.0166005972	 0.0149230813	-0.100322
C	-1.4768259422	-0.2490176928	 0.5757226056	-0.074771
O	-1.4571861973	-1.4805709552	 1.3114095531	-0.273689
C	-0.1140922095	-1.8253582005	 1.6177183663	 0.189744
O	 0.1778853076	-1.9717775351	 2.9907629542	-0.274218
C	 1.311034863	-1.1589231711	 3.3168124726	-0.111048
C	 1.5097796521	-0.254544617	 2.1248862313	-0.235594
C	 0.6932082975	-0.6441963468	 1.1538610246	 0.216545
H	 1.3101415831	 1.544405593	-0.6661073231	 0.124088
H	-0.3862797019	 1.8361559823	-1.0650513415	 0.121352
H	 0.182525148	 2.0623659922	 0.5979585675	 0.1231
H	 0.0743779928	-0.6261768916	-0.8920608607	 0.091832
H	-1.7506136487	 0.5869621498	 1.2359717394	 0.099394
H	-2.2344340886	-0.3347570283	-0.2093018658	 0.108128
H	 0.0894948729	-2.7869129437	 1.1210903027	 0.07349
H	 1.0996700154	-0.5806723273	 4.2270888495	 0.116351
H	 2.1774349374	-1.8030550806	 3.5327413557	 0.110196
H	 2.1419491235	 0.6241054654	 2.1487330343	 0.108538
99.7414	136.7546	163.1161	221.1933	257.1794	344.9132	436.9933	484.0574	603.3714	613.2218	708.2398	788.4077	823.9293	886.423	900.199	934.9835	951.9779	961.9438	988.6038	1025.1112	1042.3271	1056.3762	1085.6997	1120.7567	1137.4362	1184.292	1194.757	1221.9388	1269.038	1297.4319	1330.4076	1356.199	1371.8719	1405.2841	1407.1976	1413.1437	1495.814	1500.5284	1514.9876	1520.7143	1744.7779	2974.642	2986.1756	2995.5827	3012.7932	3021.4392	3036.2672	3077.783	3105.8067	3108.0468	3214.7098
CC1COC2OCC=C12	C[C@@H]1CO[C@@H]2OC[CH][C]12	
InChI=1S/C7H10O2/c1-5-4-9-7-6(5)2-3-8-7/h2,5,7H,3-4H2,1H3	InChI=1S/C7H10O2/c1-5-4-9-7-6(5)2-3-8-7/h2,5,7H,3-4H2,1H3/t5-,7+/m1/s1
