19
gdb 3170	2.6868218	1.7251018	1.2249449	1.5586	73.61	-0.24527	0.06217	0.30744	1032.1913	0.158781	-422.536684	-422.529085	-422.528141	-422.568879	29.821	
O	 0.391445029	 0.0970574817	-0.072373611	-0.434213
C	-0.7717026859	 0.4752384559	 0.6589287686	 0.084623
C	-1.9968662816	 0.2843809672	-0.224507192	-0.029985
C	-1.9678934804	 1.0326883891	-1.534810149	-0.286633
C	-2.7389423008	 1.5959672183	-0.3733103853	-0.064053
C	-2.0209831345	 2.653158381	 0.4304215904	 0.126409
O	-2.6151420487	 2.8821639988	 1.7299926402	-0.296282
C	-1.4719990489	 2.3190690182	 2.400103399	-0.083375
C	-0.7769652939	 1.9723437059	 1.0654499602	-0.12376
H	 1.1441958935	 0.1362135387	 0.5262763963	 0.279404
H	-0.861356878	-0.1531898749	 1.5580254371	 0.065166
H	-2.5221854219	-0.6619584738	-0.1783610523	 0.085109
H	-1.0344161208	 1.5015829412	-1.827813034	 0.123601
H	-2.5353113596	 0.6177400824	-2.3598921631	 0.112696
H	-3.8216123732	 1.6383071867	-0.4135771099	 0.094089
H	-1.8803055885	 3.5987357755	-0.1069018319	 0.076518
H	-0.953674274	 3.0643271585	 3.0167002792	 0.098567
H	-1.7426881313	 1.4632116632	 3.0335524464	 0.096774
H	 0.1970688694	 2.4362198463	 0.9055129112	 0.075348
65.8876	185.5937	266.656	288.2393	302.2462	361.497	440.2456	512.6895	644.3814	698.7877	785.2947	828.3658	846.5111	856.7986	892.9307	904.3646	966.3638	990.5491	1003.3279	1034.4557	1046.7636	1058.3243	1064.3446	1083.7109	1093.9679	1109.3639	1130.5905	1166.3267	1189.3638	1213.7584	1239.2114	1269.168	1291.6494	1313.2268	1341.8878	1350.8066	1365.6896	1393.314	1428.3607	1491.6007	1525.5286	2979.4759	3000.8364	3033.0985	3041.9963	3103.2732	3135.9091	3174.3372	3183.2079	3220.9208	3814.446
OC1C2CC2C2OCC12	O[C@@H]1[C@@H]2C[C@@H]2[C@H]2OC[C@@H]12	
InChI=1S/C7H10O2/c8-6-3-1-4(3)7-5(6)2-9-7/h3-8H,1-2H2	InChI=1S/C7H10O2/c8-6-3-1-4(3)7-5(6)2-9-7/h3-8H,1-2H2/t3-,4+,5+,6-,7-/m1/s1
