19
gdb 2033	2.7140414	1.8284677	1.520274	0.4361	73.66	-0.22862	0.06805	0.29667	941.7251	0.158079	-422.52268	-422.515183	-422.514239	-422.554122	30.585	
O	 0.3796582077	 0.7410655346	 0.7240717924	-0.47825
C	-0.971391341	 0.683648544	 0.351381428	 0.399734
C	-1.8943500291	-0.3863836413	 0.8826271872	-0.402305
C	-2.0839499662	 1.0811793005	 1.2754125624	 0.026701
O	-3.1293048168	 1.8675810357	 0.7634316605	-0.270128
C	-2.9073849198	 2.342045058	-0.5645660176	 0.131006
C	-1.4366864197	 2.7956685196	-0.7961314895	-0.239402
C	-1.1419867752	 1.280719094	-1.037499453	-0.065847
C	-2.6092833688	 1.1700148973	-1.5360803353	-0.264455
H	 0.4572461548	 0.5002813999	 1.6523584491	 0.280604
H	-2.6129662361	-0.8705416867	 0.23249507	 0.123636
H	-1.5025501823	-1.0302033631	 1.6657542447	 0.102888
H	-1.8622766524	 1.3393623924	 2.3082309871	 0.09217
H	-3.7302549685	 3.0267594347	-0.7726947936	 0.075511
H	-1.3525461048	 3.390847346	-1.708306917	 0.098695
H	-0.9154274575	 3.288935993	 0.0265067861	 0.108073
H	-0.328533339	 0.9764289165	-1.6978623563	 0.075881
H	-2.6835826508	 1.4957522864	-2.5766622205	 0.104297
H	-3.1665189346	 0.2402316384	-1.4116369748	 0.101193
123.5712	206.5163	243.2853	350.1551	382.6939	438.5745	463.4335	474.2533	522.4012	592.4942	693.0469	784.9793	803.8847	865.1864	882.1137	890.9665	924.8633	938.4165	958.3443	976.6494	1002.9967	1012.7648	1047.7426	1067.9544	1082.311	1119.1714	1128.3936	1147.446	1159.2275	1191.4809	1238.0285	1263.6164	1269.0442	1271.6102	1322.6455	1369.2685	1409.5711	1416.6003	1471.1299	1489.1693	1513.2566	3067.6796	3071.9081	3099.975	3108.4343	3121.8598	3127.5745	3131.6632	3133.3704	3220.1078	3824.762
OC12CC1OC1CC2C1	O[C@@]12C[C@@H]1O[C@H]1C[C@@H]2C1	
InChI=1S/C7H10O2/c8-7-3-6(7)9-5-1-4(7)2-5/h4-6,8H,1-3H2	InChI=1S/C7H10O2/c8-7-3-6(7)9-5-1-4(7)2-5/h4-6,8H,1-3H2/t4-,5+,6-,7+/m0/s1
