19
gdb 5466	3.4496397	1.3350378	1.2821156	2.3265	72.81	-0.23223	0.07576	0.30799	1057.2712	0.159579	-422.557479	-422.550161	-422.549217	-422.589258	29.217	
O	 1.7512810381	 0.7091922745	 0.5224492665	-0.419427
C	 0.7033729714	-0.2291895148	 0.7319280789	-0.085545
C	-0.4515647808	 0.3508134061	 1.5441194771	-0.021943
C	-1.1354033025	 1.5499087187	 0.8930852086	-0.101136
C	-2.5830871523	 1.5642987144	 1.3944513709	-0.126399
C	-2.73477211	 0.3714915866	 2.332233859	-0.22999
C	-1.7294862581	-0.5295910025	 1.5803254934	 0.029459
O	-2.2013524916	-0.4705835884	 0.2233020219	-0.260464
C	-2.2401086317	 0.9376132554	 0.0636066731	 0.091786
H	 2.1188049496	 0.9361010186	 1.3826834399	 0.279201
H	 0.345575159	-0.5077148375	-0.2624542736	 0.127767
H	 1.0812624577	-1.143665842	 1.2172196001	 0.080733
H	-0.1157827742	 0.5729962205	 2.5656271686	 0.062214
H	-0.5988097762	 2.4387722943	 0.5944676172	 0.096402
H	-3.163834375	 2.472291053	 1.4823276904	 0.089162
H	-2.4287141909	 0.5754613338	 3.3620312855	 0.099703
H	-3.744324344	-0.0489014453	 2.3276255727	 0.105802
H	-1.6320966	-1.5678560959	 1.89201505	 0.079336
H	-2.5724945885	 1.2748740604	-0.9072435902	 0.103337
97.0413	170.8158	212.2209	313.568	374.547	446.2084	530.7739	584.9326	705.165	710.0159	804.4046	809.5706	829.5742	873.2658	914.6216	919.7726	952.0931	968.1192	985.2365	998.4569	1027.8495	1048.6249	1050.6181	1056.9962	1084.5007	1088.7464	1108.4392	1157.6447	1193.8523	1222.1968	1233.4317	1254.2401	1274.8077	1298.3685	1335.5886	1371.3313	1384.3191	1396.0368	1414.2606	1487.9016	1508.4487	2972.7303	3021.6429	3059.274	3103.3599	3109.6504	3144.562	3208.0554	3221.8436	3232.8659	3812.4143
OCC1C2C3CC1OC23	OC[C@H]1[C@@H]2[C@@H]3C[C@H]1O[C@H]23	
InChI=1S/C7H10O2/c8-2-4-5-1-3-6(4)7(3)9-5/h3-8H,1-2H2	InChI=1S/C7H10O2/c8-2-4-5-1-3-6(4)7(3)9-5/h3-8H,1-2H2/t3-,4+,5+,6-,7-/m0/s1
