19
gdb 1234	3.7048767	0.6343583	0.585596	2.1444	81.41	-0.24314	-0.01875	0.22439	1898.6901	0.15255	-422.547609	-422.536435	-422.535491	-422.586474	37.93	
C	 0.4407450676	-0.1261063138	-1.0368896233	-0.386348
C	 1.234558683	-0.3073630428	 0.265126529	-0.018585
O	 0.5000655647	 0.1572560151	 1.3955026278	-0.411773
C	 2.5604270698	 0.3165415144	 0.1813494045	 0.08783
C	 3.6350043696	 0.8593022052	 0.1207422434	 0.018049
C	 4.9448910663	 1.4888756035	 0.039993153	-0.444578
C	 5.2668330997	 2.2081772659	-1.288166796	 0.396499
C	 4.1358794701	 2.9479643182	-1.9686865998	-0.474189
O	 6.3930268627	 2.1924166285	-1.7191003153	-0.285746
H	-0.5383393736	-0.6010251166	-0.9343128805	 0.128256
H	 0.2943058242	 0.9377156736	-1.2515290993	 0.114327
H	 0.9697882204	-0.5750836179	-1.8826115569	 0.12561
H	 1.3631987257	-1.3809184965	 0.4493323592	 0.121264
H	 0.4794532381	 1.1196500736	 1.3501701649	 0.281341
H	 5.0363248759	 2.2515993887	 0.8283955086	 0.154392
H	 5.7492314368	 0.7677522899	 0.2154069434	 0.157559
H	 3.6300357025	 3.6142922442	-1.2612854099	 0.137678
H	 4.5248468204	 3.5178284632	-2.8127678193	 0.142826
H	 3.3829756062	 2.2326331435	-2.3148276634	 0.15559
16.0087	36.0431	64.6648	126.9931	141.0804	178.348	254.3769	265.8536	323.3324	333.0603	371.4524	442.0417	470.2868	528.6993	557.3524	591.2509	739.9322	771.3785	839.7215	901.4225	1000.5789	1019.6572	1048.5349	1066.5411	1098.1769	1170.9923	1193.8145	1231.7607	1282.4272	1300.132	1338.4947	1382.8033	1398.5312	1417.0714	1439.9783	1458.9446	1472.3519	1489.029	1491.9441	1824.2923	2356.4102	3005.1516	3036.3799	3040.7686	3043.7399	3082.8887	3106.1531	3112.4562	3127.7055	3158.4932	3804.4713
CC(O)C#CCC(C)=O	C[C@H](O)C#CCC(=O)C	
InChI=1S/C7H10O2/c1-6(8)4-3-5-7(2)9/h7,9H,4H2,1-2H3	InChI=1S/C7H10O2/c1-6(8)4-3-5-7(2)9/h7,9H,4H2,1-2H3/t7-/m0/s1
