19
gdb 3195	3.2808322	1.5935407	1.3930039	0.2394	74.13	-0.23841	0.06977	0.30818	1004.2469	0.156937	-422.520115	-422.512375	-422.511431	-422.551805	30.695	
C	-0.2031432808	-0.2719879279	-0.3264873655	-0.426189
C	 1.2939552522	-0.0593547892	-0.1350435428	 0.039797
C	 1.78994251	 1.3888499932	 0.0848070945	 0.009991
O	 3.2359714702	 1.1989770733	 0.0870154523	-0.323637
C	 3.0490928372	 0.5791260038	 1.3650278884	 0.423369
C	 4.2670088021	 0.3288121785	 2.1958493684	-0.521622
C	 1.7960273594	 1.4078967592	 1.681731272	 0.009613
O	 1.0624726361	 0.2851115701	 2.1690225079	-0.291532
C	 1.8606335378	-0.5001344491	 1.2323399629	-0.025436
H	-0.7668989902	 0.1247365428	 0.5202570368	 0.136926
H	-0.5500538631	 0.223334734	-1.2394924598	 0.112881
H	-0.4379003808	-1.3376696021	-0.4192907342	 0.115811
H	 1.8681926533	-0.4877316649	-0.9617035158	 0.084546
H	 1.4472278708	 2.2014902234	-0.5529326871	 0.081225
H	 3.9734040897	-0.0505148214	 3.1790434131	 0.137715
H	 4.9145070758	-0.4140762761	 1.7184323069	 0.132807
H	 4.8417642094	 1.2496914059	 2.3298328815	 0.13262
H	 1.7110046663	 2.3306120978	 2.2531261629	 0.092383
H	 1.9395215648	-1.5534864514	 1.4975535075	 0.078734
175.48	195.5612	208.3268	227.7595	290.6323	314.5473	504.9716	515.2499	553.8019	659.6837	702.9207	756.1635	790.4033	819.6039	860.0895	874.6149	901.9132	934.3371	952.5401	971.3376	1012.4814	1048.8897	1073.4928	1108.0857	1113.9071	1146.6105	1151.1732	1158.2452	1222.9093	1234.8921	1269.5582	1272.8944	1317.8495	1363.647	1375.7952	1405.6032	1420.2021	1479.0795	1492.8498	1494.2413	1507.4135	3037.6575	3039.5949	3072.5687	3095.83	3108.8645	3121.0951	3133.1207	3135.1643	3137.2349	3147.3343
CC1C2OC3(C)C2OC13	C[C@H]1[C@@H]2O[C@@]3(C)[C@@H]2O[C@@H]13	
InChI=1S/C7H10O2/c1-3-4-6-7(2,9-4)5(3)8-6/h3-6H,1-2H3	InChI=1S/C7H10O2/c1-3-4-6-7(2,9-4)5(3)8-6/h3-6H,1-2H3/t3-,4-,5-,6+,7+/m0/s1
