19
gdb 1631	3.4615846	1.1607464	0.9489766	1.451	79.19	-0.22298	0.01849	0.24147000000000002	1252.3411	0.156457	-422.540148	-422.531454	-422.530509	-422.573816	32.512	
O	-0.9715749641	-0.8255228826	 2.435808367	-0.45684
C	-0.913721771	-1.068037155	 1.0552301788	 0.30807
C	-0.6617671072	-2.5067235772	 0.6295877941	-0.330189
C	-2.051062296	-1.9244859753	 0.5569848038	-0.296058
C	-0.4006704673	 0.0563995814	 0.2465947984	 0.269172
C	-0.09856933	 1.2803893834	 0.6787455311	-0.256427
C	 0.401249153	 2.1236668151	-0.4560221011	-0.102101
O	 0.3295553475	 1.2824384114	-1.606363509	-0.268209
C	-0.1125514142	-0.0163044248	-1.2353686692	-0.162545
H	-0.0651033235	-0.7195106656	 2.7474513126	 0.281705
H	-0.1261012802	-2.6985107468	-0.2931950601	 0.119369
H	-0.4558691665	-3.203826513	 1.4336637314	 0.121219
H	-2.4771605873	-1.7054165906	-0.4149302144	 0.122267
H	-2.7646266889	-2.2299078972	 1.3130549551	 0.132621
H	-0.2070473261	 1.6419045949	 1.6922978019	 0.10328
H	-0.2122707555	 3.0237562391	-0.619321494	 0.106231
H	 1.4384888314	 2.4660874128	-0.3054395003	 0.101012
H	-1.0016485161	-0.285417455	-1.8275509012	 0.105607
H	 0.666862322	-0.7598159049	-1.4701097551	 0.101815
67.3281	97.6384	162.2643	184.887	307.3984	320.0944	353.3724	410.1788	447.6887	518.9658	565.6757	772.8415	773.8425	817.8305	835.7829	896.232	917.715	923.1933	927.7774	979.4192	998.99	1028.3095	1051.5944	1065.1042	1075.1948	1082.5596	1136.2556	1176.5987	1193.4144	1232.4283	1242.1413	1275.1986	1334.2833	1371.102	1385.2471	1399.3018	1451.3685	1489.1763	1517.9157	1530.7612	1715.2863	2960.4813	2967.672	2981.2414	2985.6475	3138.5731	3145.8503	3225.2813	3228.6548	3240.9949	3787.5776
OC1(CC1)C1=CCOC1	OC1(CC1)C1=CCOC1	
InChI=1S/C7H10O2/c8-7(2-3-7)6-1-4-9-5-6/h1,8H,2-5H2	InChI=1S/C7H10O2/c8-7(2-3-7)6-1-4-9-5-6/h1,8H,2-5H2
