19
gdb 1730	2.3083027	1.409074	1.325847	1.9191	76.68	-0.24537	0.03077	0.27614	1098.0061	0.156307	-422.534365	-422.525432	-422.524488	-422.567441	34.248	
O	-0.9510786404	 0.8203911404	 2.3627131922	-0.459815
C	-0.7704224462	 1.1243180381	 0.9789519157	 0.175909
C	-2.1014267051	 0.98757228	 0.2032398533	-0.243069
C	-2.0063579926	 1.6449910879	-1.1801888713	-0.215511
C	-1.4908875922	 3.077532426	-1.0421260225	-0.062075
O	-0.2486819142	 3.1188918796	-0.356243657	-0.24204
C	-0.3373984033	 2.609115626	 0.9529900473	-0.092822
C	 0.2653283568	 0.2651549857	 0.3940163658	 0.336925
C	 1.0937255711	-0.4803719019	-0.057631271	-0.511942
H	-0.9775986506	-0.138075437	 2.4528726124	 0.284045
H	-2.3802877322	-0.0684757567	 0.1245789968	 0.096296
H	-2.8665379483	 1.4864888228	 0.810301408	 0.105736
H	-1.3187774929	 1.0767102596	-1.8160181085	 0.119218
H	-2.9858706055	 1.6464126932	-1.6712852197	 0.097668
H	-1.3116773392	 3.5333857836	-2.0197218224	 0.107604
H	-2.2342484603	 3.6955567509	-0.5086147315	 0.085555
H	 0.6475762509	 2.7170640565	 1.4113131317	 0.120623
H	-1.0703500112	 3.1706930717	 1.5553722898	 0.095986
H	 1.8380392756	-1.1235781363	-0.458462339	 0.201708
106.1795	139.5705	197.4058	226.5403	255.1765	320.1929	337.1751	399.3696	433.415	454.4321	544.9293	571.6545	627.8602	640.365	666.7906	695.2275	848.7573	881.9719	905.1358	938.9992	983.0051	1029.3068	1043.7236	1086.581	1126.186	1139.6164	1197.2867	1210.1049	1238.0796	1289.7942	1322.0443	1339.1625	1373.6233	1375.2505	1394.2085	1415.0746	1475.7578	1484.4525	1489.7969	1504.0746	2227.6824	2955.5437	2977.5981	3032.3427	3040.9294	3077.047	3086.6191	3092.7284	3112.8246	3500.1674	3815.7118
OC1(CCCOC1)C#C	O[C@]1(CCCOC1)C#C	
InChI=1S/C7H10O2/c1-2-7(8)4-3-5-9-6-7/h1,8H,3-6H2	InChI=1S/C7H10O2/c1-2-7(8)4-3-5-9-6-7/h1,8H,3-6H2/t7-/m0/s1
