19
gdb 5732	3.2887646	1.2558805	1.1477989	2.2526	78.52	-0.22796	0.00408	0.23204	1150.825	0.156021	-422.534893	-422.526244	-422.5253	-422.568436	32.357	
C	 1.4251378245	-0.113174775	-0.1513438677	-0.246541
O	 0.0190786353	-0.0717287443	 0.0319058362	-0.236789
C	-0.4290216892	 0.6564362166	 1.1428274965	 0.170131
O	 0.0800891789	 0.126912106	 2.3680825261	-0.313319
C	 0.760530058	 1.1340113315	 3.0875019509	 0.42794
C	 1.9691231675	 0.7358887674	 3.8954225076	-0.327125
C	 0.672275077	 1.0944338812	 4.5913669398	-0.32356
C	 0.663032173	 2.367256492	 2.2819675731	-0.149053
C	-0.0258506783	 2.1146340995	 1.1731990967	-0.168088
H	 1.9272499112	-0.5645990632	 0.7119110721	 0.123023
H	 1.6001992141	-0.7329542362	-1.0331790569	 0.125015
H	 1.8493881971	 0.8845499136	-0.3249031123	 0.106371
H	-1.5162804073	 0.5076201335	 1.117936426	 0.092464
H	 2.2395409752	-0.3134629415	 3.8587016961	 0.129844
H	 2.8061725204	 1.4233663329	 3.9551968752	 0.115507
H	 0.0901656197	 0.2818646016	 5.0108582084	 0.130921
H	 0.6089682228	 2.0320816029	 5.133201965	 0.11572
H	 1.0965492251	 3.3092723668	 2.5928567724	 0.115248
H	-0.2771454851	 2.8023253047	 0.3770586549	 0.112291
62.2853	107.7714	163.346	201.8579	268.3875	282.4265	361.3922	422.4475	503.0655	554.7787	632.0739	745.6475	765.4671	816.7158	858.8949	889.5316	894.1072	925.2327	938.0917	951.3702	976.2476	1000.5473	1025.2542	1062.3816	1067.106	1107.5167	1138.0372	1177.2121	1192.6186	1217.6045	1246.3582	1304.8786	1348.0047	1400.4093	1409.1051	1449.3807	1471.0577	1485.1928	1489.2901	1512.9294	1675.1686	3010.9082	3024.6858	3073.8031	3125.5299	3131.6475	3134.4225	3210.5675	3217.8079	3232.575	3236.894
COC1OC2(CC2)C=C1	CO[C@H]1OC2(CC2)C=C1	
InChI=1S/C7H10O2/c1-8-6-2-3-7(9-6)4-5-7/h2-3,6H,4-5H2,1H3	InChI=1S/C7H10O2/c1-8-6-2-3-7(9-6)4-5-7/h2-3,6H,4-5H2,1H3/t6-/m0/s1
