19
gdb 3308	2.0045447	1.8044682	1.4632421	4.2914	75.04	-0.2595	0.01336	0.27286	1035.4121	0.157214	-422.598932	-422.590264	-422.58932	-422.631838	32.392	
C	-1.6248564433	-0.5651466526	-2.5496653687	-0.432033
C	-1.8679636816	-1.291630036	-1.2433302842	-0.046386
C	-2.35805146	-0.6334189452	 0.0169330471	-0.137862
C	-2.1764603304	 0.8704808339	 0.1227537092	-0.106849
O	-0.7713950095	 1.1298315461	-0.0409290638	-0.229665
C	-0.0424326571	-0.0271462874	-0.0053186435	 0.407789
O	 1.1544546411	-0.0223602486	 0.0430176746	-0.348415
C	-0.9594958794	-1.2163721094	-0.0193638657	 0.150027
C	-0.4766919419	-2.4556685214	 0.6914647447	-0.4802
H	-0.9220992455	-1.1245889499	-3.1752983566	 0.130531
H	-2.5607255787	-0.4641931453	-3.1102057117	 0.120336
H	-1.2121010563	 0.4356270143	-2.4026895876	 0.143806
H	-2.262018295	-2.2969552675	-1.3777990483	 0.094851
H	-3.1504548576	-1.0935013979	 0.5957283884	 0.099954
H	-2.7119494228	 1.4351288321	-0.647175687	 0.122641
H	-2.4838010668	 1.2440221763	 1.1055889772	 0.122371
H	-0.3117394473	-2.2668702898	 1.757284175	 0.128215
H	-1.2013170066	-3.269408222	 0.5972015358	 0.115338
H	 0.4743664189	-2.7869228694	 0.2643340452	 0.145551
123.5568	165.8784	197.0473	204.8819	222.7814	244.2603	266.924	398.5298	488.7548	513.9132	585.7753	681.9121	708.3778	793.4759	798.4478	843.4832	885.0342	949.7994	991.8475	1024.615	1048.8621	1062.8068	1089.9368	1115.1283	1129.751	1134.4481	1166.2493	1234.8724	1265.3554	1318.1376	1357.0373	1386.0431	1416.9866	1424.9149	1458.0167	1484.2205	1498.642	1499.6909	1505.203	1522.6432	1870.9292	3037.63	3038.7111	3041.6813	3082.1142	3096.9489	3104.5972	3116.7219	3118.9408	3135.1892	3179.9182
CC1C2COC(=O)C12C	C[C@@H]1[C@@H]2COC(=O)[C@]12C	
InChI=1S/C7H10O2/c1-4-5-3-9-6(8)7(4,5)2/h4-5H,3H2,1-2H3	InChI=1S/C7H10O2/c1-4-5-3-9-6(8)7(4,5)2/h4-5H,3H2,1-2H3/t4-,5+,7-/m1/s1
