19
gdb 2494	2.2080815	1.9504582	1.4413686	1.9479	75.3	-0.23799	0.00799	0.24598	985.9069	0.158544	-422.58145	-422.573635	-422.572691	-422.613835	30.665	
O	 0.4888377583	 0.51445047	 0.0959794808	-0.482684
C	-0.5577141304	 0.9636254984	 0.951060763	 0.359472
C	-1.1301081059	-0.2573764807	 1.6881777903	-0.264799
C	-2.6042327945	 0.1085940213	 1.8443633249	-0.088199
O	-2.9445175986	 0.8082083611	 0.6494274482	-0.264788
C	-1.8120217667	 1.55228907	 0.209008736	 0.05761
C	-1.895777867	 3.0491607003	 0.6035389611	-0.288213
C	-0.8207556672	 3.2131426131	 1.6487554934	-0.070055
C	-0.1158695016	 2.0985438338	 1.8423406551	-0.161172
H	 0.9442727459	 1.2938350396	-0.2404050909	 0.273277
H	-1.0129546671	-1.1304445459	 1.0394668915	 0.11935
H	-0.627697797	-0.4565146896	 2.6379430856	 0.101229
H	-3.2673894832	-0.7568988428	 1.9248624503	 0.10936
H	-2.7623891395	 0.7449516516	 2.7294671967	 0.091442
H	-1.7276990591	 1.4132829149	-0.8726288659	 0.082043
H	-1.7335891958	 3.720410046	-0.2498408618	 0.105217
H	-2.8978131578	 3.2713057341	 0.986966485	 0.122994
H	-0.6551768115	 4.1503872543	 2.17096163	 0.099732
H	 0.7063557787	 1.9781874604	 2.5400728567	 0.098183
56.5397	173.2669	242.1241	301.2207	330.5211	392.5636	445.9561	454.7859	593.111	615.2578	642.3766	744.3601	762.7633	833.0562	852.4007	893.0724	945.0973	957.8154	982.553	996.2643	1009.9171	1026.5517	1067.7157	1084.518	1108.1367	1156.0621	1157.8406	1191.1637	1231.6177	1247.4099	1264.5051	1313.3893	1315.7569	1352.6685	1359.0597	1385.7984	1407.1887	1472.0443	1481.9404	1518.1337	1679.1664	2978.2898	3022.8963	3060.9573	3064.1879	3070.9468	3089.4153	3115.6075	3172.5098	3198.3958	3805.097
OC12CCOC1CC=C2	O[C@]12CCO[C@H]1CC=C2	
InChI=1S/C7H10O2/c8-7-3-1-2-6(7)9-5-4-7/h1,3,6,8H,2,4-5H2	InChI=1S/C7H10O2/c8-7-3-1-2-6(7)9-5-4-7/h1,3,6,8H,2,4-5H2/t6-,7+/m0/s1
