19
gdb 4313	2.9080345	1.5354419	1.1620164	1.8588	76.67	-0.24162	0.00685	0.24847	1077.2869	0.159058	-422.565144	-422.55738	-422.556436	-422.597359	30.19	
O	 0.1436885528	 1.4144978066	 0.0312714542	-0.427018
C	 0.0636674966	-0.0016087144	 0.0015031437	 0.090533
C	 0.5443394491	-0.5677490964	-1.3688483898	-0.274505
C	-0.7403224784	-0.6143312163	-2.1803788218	-0.264773
C	-1.7938719184	-0.6124349296	-1.3662805476	 0.327215
C	-3.2823075786	-0.4671780154	-1.4452485086	-0.182291
O	-3.6893299883	-0.0839431028	-0.1255101717	-0.271013
C	-2.5453692128	 0.3042804207	 0.6510239512	-0.101843
C	-1.3916008915	-0.5302350116	 0.0890146757	-0.09467
H	-0.3104910435	 1.7455195508	-0.7526820512	 0.280607
H	 0.6844909669	-0.3389211521	 0.8350234277	 0.085716
H	 1.3201451466	 0.0740797681	-1.8004024615	 0.109562
H	 0.9862418502	-1.5673919991	-1.2518318381	 0.110354
H	-0.7606013409	-0.635707118	-3.2641841325	 0.096415
H	-3.5830078671	 0.2927656796	-2.181902468	 0.108174
H	-3.8007074994	-1.4004129814	-1.7015936286	 0.117147
H	-2.3360157483	 1.377487522	 0.5405222636	 0.095158
H	-2.7865363856	 0.1038593937	 1.6978199065	 0.109012
H	-1.3958083595	-1.5283002444	 0.5494777868	 0.086222
101.9367	138.069	228.1168	261.9602	342.2555	386.273	411.0421	477.719	596.5091	619.4019	712.1209	792.0979	812.6137	833.2356	865.2679	917.4067	930.3885	951.3284	988.0427	1007.9102	1026.9352	1065.2453	1091.0045	1112.2123	1163.5987	1172.4656	1204.2367	1218.2841	1235.7672	1245.5556	1282.8398	1302.9519	1321.5861	1328.5483	1357.6891	1394.2812	1433.2383	1476.7585	1505.9724	1526.4809	1732.5551	2990.7345	3002.893	3010.1429	3014.2061	3027.4948	3069.1832	3088.1191	3096.3434	3194.1945	3787.6833
OC1CC=C2COCC12	O[C@@H]1CC=C2COC[C@H]12	
InChI=1S/C7H10O2/c8-7-2-1-5-3-9-4-6(5)7/h1,6-8H,2-4H2	InChI=1S/C7H10O2/c8-7-2-1-5-3-9-4-6(5)7/h1,6-8H,2-4H2/t6-,7+/m0/s1
