19
gdb 736	2.9841754	1.2375757	0.9231317	1.7843	75.36	-0.23649	-0.02418	0.21231	1263.9183	0.157096	-422.557698	-422.549232	-422.548288	-422.591525	31.236	
O	 1.216873379	-0.2973471736	-0.5612477145	-0.301035
C	 0.0790313005	-0.1810425442	-0.192829887	 0.358154
C	-0.8485150588	-1.3109113556	 0.2647856039	-0.184291
O	-2.036213066	-0.6878861436	 0.7114943964	-0.249021
C	-2.1721502795	 0.5434785248	 0.0003335655	-0.109242
C	-0.7504757574	 1.112318652	-0.1174201172	-0.133441
C	-0.4975155184	 2.0747004059	-1.2494994834	 0.030469
C	-0.7353367043	 3.5563735484	-1.0687965171	-0.285789
C	 0.6693421324	 3.02459648	-1.1962922622	-0.255972
H	-1.0274326676	-1.9877158584	-0.5883095513	 0.11967
H	-0.4098326449	-1.8970032113	 1.0776470761	 0.138827
H	-2.600195964	 0.3710965176	-1.0013957354	 0.094626
H	-2.8598890307	 1.1760673392	 0.5644312209	 0.120597
H	-0.4841097506	 1.5861716692	 0.8387444736	 0.106892
H	-0.7346931949	 1.6706715955	-2.2305648555	 0.086449
H	-1.1564030397	 4.1121738465	-1.8989889482	 0.114954
H	-1.0620537738	 3.9027148892	-0.093501082	 0.11094
H	 1.2135846762	 3.2138813756	-2.1141086475	 0.117805
H	 1.2929769625	 3.0085922426	-0.3095364452	 0.119409
63.1175	83.7184	144.1845	190.1541	268.7251	311.2575	387.6243	475.6561	552.1881	592.2368	663.7632	740.6564	784.8894	830.6214	881.7047	920.124	938.6246	956.775	983.6812	1022.0588	1062.2482	1077.4992	1088.3764	1092.2666	1133.6815	1143.3312	1195.041	1197.7871	1212.3785	1227.7533	1239.7204	1272.1449	1286.8332	1325.6513	1386.7116	1423.7086	1471.9603	1475.7161	1507.4293	1516.4202	1858.0884	2964.4565	2970.9347	3009.5728	3087.3462	3110.5668	3130.9668	3136.0844	3142.7796	3211.1678	3228.6264
O=C1COCC1C1CC1	O=C1COC[C@@H]1C1CC1	
InChI=1S/C7H10O2/c8-7-4-9-3-6(7)5-1-2-5/h5-6H,1-4H2	InChI=1S/C7H10O2/c8-7-4-9-3-6(7)5-1-2-5/h5-6H,1-4H2/t6-/m1/s1
