19
gdb 1787	3.4891673	1.4121224	1.2084481	4.7166	75.14	-0.25726	0.01898	0.27624	1068.6413	0.158468	-422.596802	-422.588973	-422.588028	-422.628761	30.617	
C	-4.2785381139	-0.4404889812	-0.0052870362	-0.482666
C	-2.7619915584	-0.378375726	 0.0011419261	 0.285371
C	-1.9470327945	-1.1085600644	-1.105124011	-0.266915
C	-0.8263020363	-1.2485721926	-0.0351197718	-0.151417
C	-1.95205202	-1.2091554578	 1.0379945658	-0.266954
C	-0.050236869	 0.0482937419	 0.0279322615	 0.433087
O	 1.1448594248	 0.1455856003	 0.0337643679	-0.339201
O	-0.82038542	 1.171352327	 0.0781301437	-0.24336
C	-2.2566799227	 1.0625731784	 0.0697222069	-0.094752
H	-4.7008273719	 0.0084697931	 0.9011212216	 0.122758
H	-4.6967772079	 0.0918345153	-0.8673630234	 0.122749
H	-4.6214418059	-1.4785865497	-0.0550065324	 0.121091
H	-2.3814414512	-2.0813050907	-1.3501261195	 0.106074
H	-1.7187052463	-0.5658603544	-2.0267033401	 0.110803
H	-0.1345612237	-2.0876709753	-0.0729332127	 0.094847
H	-2.3873134575	-2.2005133353	 1.1887445047	 0.106041
H	-1.7281841908	-0.7552132445	 2.0074198784	 0.110765
H	-2.6169055817	 1.5552865018	 0.9808795522	 0.115819
H	-2.612814963	 1.6381981541	-0.7931598016	 0.115859
121.1192	190.1632	216.1277	268.7175	317.3954	384.1847	412.5638	430.5278	481.0459	615.9399	676.879	747.9993	765.2134	860.8644	867.6471	895.4897	928.5392	950.1361	969.0075	1017.7302	1025.0721	1050.7057	1083.6192	1089.0019	1154.7862	1203.7754	1206.848	1225.5572	1250.1612	1288.3905	1293.7966	1301.7103	1335.2352	1415.0286	1423.7676	1479.1883	1492.3806	1495.8575	1506.8725	1516.5453	1858.175	3022.327	3027.7266	3051.5962	3056.5115	3064.8786	3090.3334	3102.6395	3110.435	3111.8528	3138.1621
CC12CC(C1)C(=O)OC2	C[C@]12C[C@H](C1)C(=O)OC2	
InChI=1S/C7H10O2/c1-7-2-5(3-7)6(8)9-4-7/h5H,2-4H2,1H3	InChI=1S/C7H10O2/c1-7-2-5(3-7)6(8)9-4-7/h5H,2-4H2,1H3/t5-,7+
