19
gdb 4329	2.7223641	1.5256621	1.114029	1.57	76.14	-0.24258	-0.00152	0.24106	1123.011	0.156769	-422.562432	-422.553942	-422.552997	-422.595058	32.894	
C	-2.4068889244	 3.5250424113	 2.7707712878	-0.483587
C	-2.172082588	 2.2649477552	 1.9744313801	 0.379747
O	-1.0287089122	 1.4778628274	 2.4160485913	-0.306931
C	-0.9703718784	 2.1179411073	 1.1360712041	-0.058151
C	-0.9920567504	 1.2109065881	-0.0744806996	 0.107472
O	 0.3102530654	 0.7321021453	-0.38876004	-0.437978
C	-1.9948127698	 0.0513437053	 0.0836902419	-0.295871
C	-3.2985257843	 0.469143856	 0.7115037109	-0.096317
C	-3.3746572567	 1.4738762168	 1.5840937943	-0.083688
H	-2.9179275677	 3.2942383103	 3.7119148284	 0.128807
H	-1.4598726133	 4.0154524593	 3.0068025024	 0.129962
H	-3.036039888	 4.2252385129	 2.2106101453	 0.125558
H	-0.2635098017	 2.9468435774	 1.0731157404	 0.090077
H	-1.2811547689	 1.8239619658	-0.937587892	 0.096256
H	 0.634580117	 0.2643380806	 0.389778913	 0.285239
H	-2.1561128415	-0.4175425973	-0.8913913492	 0.112464
H	-1.5266837217	-0.7132586688	 0.7195279799	 0.120256
H	-4.1866919312	-0.105273371	 0.4633869254	 0.098106
H	-4.3194954842	 1.7445623182	 2.0463367257	 0.088579
108.4363	164.6842	201.0727	249.7098	297.2844	352.5627	367.9782	392.8121	435.5786	478.7296	549.6151	641.19	673.5177	712.47	754.436	851.5574	899.7367	912.76	951.211	985.7398	1001.4925	1033.4764	1051.2882	1083.2507	1108.1487	1141.1048	1184.1168	1201.2426	1242.8715	1280.3051	1313.0512	1351.1604	1361.3165	1411.9811	1419.6624	1424.3042	1453.8988	1470.2069	1485.3528	1497.6394	1711.2139	3013.6316	3034.9414	3036.7033	3083.1217	3097.2411	3100.6943	3127.8962	3157.7518	3180.3173	3792.949
CC12OC1C(O)CC=C2	C[C@]12O[C@H]1[C@@H](O)CC=C2	
InChI=1S/C7H10O2/c1-7-4-2-3-5(8)6(7)9-7/h2,4-6,8H,3H2,1H3	InChI=1S/C7H10O2/c1-7-4-2-3-5(8)6(7)9-7/h2,4-6,8H,3H2,1H3/t5-,6-,7+/m0/s1
