19
gdb 550	3.4636605	1.6816755	1.4936607	2.5865	72.68	-0.24101	0.07579	0.31679999999999997	937.7726	0.160901	-422.558127	-422.551563	-422.550618	-422.588858	26.943	
C	-0.184918739	 1.3145757169	-0.7834920234	-0.093325
O	-0.4200519219	-0.0184110464	-0.2744339233	-0.296797
C	 0.8790636458	-0.0709567599	 0.3339595166	 0.141755
C	 1.2269176192	 1.3619167214	-0.1670566193	-0.084447
C	 1.3580640743	 2.1172406145	 1.1641757586	 0.059754
C	 2.6840995797	 1.7019912616	 1.8426980993	-0.220164
C	 2.3335177816	 0.2595453918	 2.3263173633	-0.228226
C	 0.8650340004	 0.133218741	 1.8550379423	 0.034672
O	 0.3719375333	 1.4766974337	 1.9883112489	-0.261892
H	-0.2178000207	 1.3370313768	-1.8796702483	 0.096488
H	-0.9015597174	 2.0380813274	-0.3788708814	 0.109628
H	 1.4628919337	-0.9359626141	 0.0033059251	 0.075414
H	 2.062607433	 1.4993418544	-0.8525536414	 0.079886
H	 1.1575391831	 3.1886516096	 1.1254480818	 0.079872
H	 3.5354476443	 1.7307420828	 1.15763087	 0.099229
H	 2.9050471779	 2.3612644371	 2.6847308759	 0.10836
H	 2.9807682291	-0.5069968983	 1.8909543688	 0.101505
H	 2.3969600821	 0.1744384594	 3.4126785038	 0.111495
H	 0.2274923715	-0.5504748596	 2.4146870028	 0.086792
154.0739	240.4913	256.8152	358.5625	413.7694	586.6488	605.8496	753.8144	793.7427	816.4672	833.777	863.0176	891.0617	905.3822	923.8675	940.3901	956.0723	988.4089	1005.6222	1018.7191	1034.3006	1049.6683	1066.8703	1081.6484	1142.3834	1166.2864	1198.7573	1222.7053	1239.8534	1250.092	1256.201	1284.0854	1294.9782	1310.845	1326.2101	1341.2689	1362.7681	1373.5888	1483.0219	1502.8498	1511.1943	3017.6792	3055.9392	3062.9338	3067.6493	3071.2769	3103.134	3112.6444	3119.5863	3123.4873	3133.1409
C1OC2C1C1CCC2O1	C1O[C@H]2[C@@H]1[C@@H]1CC[C@H]2O1	
InChI=1S/C7H10O2/c1-2-6-7-4(3-8-7)5(1)9-6/h4-7H,1-3H2	InChI=1S/C7H10O2/c1-2-6-7-4(3-8-7)5(1)9-6/h4-7H,1-3H2/t4-,5-,6+,7-/m0/s1
