19
gdb 4190	2.875016	1.2869897	1.02886	2.4576	77.1	-0.23984	-0.01767	0.22217	1200.613	0.156444	-422.564173	-422.555667	-422.554723	-422.597274	32.076	
C	 2.5699363557	 1.5096146672	-0.5129818698	-0.404739
C	 2.0406893205	 0.1406920224	-0.1235418878	 0.130131
C	 2.7913154064	-0.5572800936	 1.0362744846	-0.325326
C	 2.7685931806	-2.0274006007	 0.6653363107	 0.211477
C	 1.4243706768	-2.6150768451	 0.223106361	-0.379999
C	 2.3310396857	-2.0422849694	-0.809278344	 0.091136
O	 2.1626059826	-0.7389150996	-1.2584810552	-0.262508
C	 3.839206908	-2.9252748801	 1.1273440133	 0.077486
O	 4.7790819356	-2.5857882155	 1.8071180571	-0.270893
H	 2.4574722097	 2.2095656285	 0.3206781373	 0.121085
H	 3.6295198962	 1.4486097841	-0.7779869937	 0.128352
H	 2.0194480036	 1.9053322155	-1.3708279253	 0.128855
H	 0.9744162771	 0.2268326411	 0.1319721622	 0.078677
H	 3.8340398964	-0.2303963905	 1.0937661556	 0.128416
H	 2.321861996	-0.3446266996	 2.0007901733	 0.113277
H	 1.3405837746	-3.697267767	 0.2561613647	 0.125409
H	 0.5237862909	-2.0841482346	 0.5104149217	 0.130321
H	 2.8001660932	-2.6802227073	-1.5496254159	 0.115988
H	 3.7299855504	-3.9812730857	 0.78417851	 0.062855
92.2241	123.452	196.7175	231.2855	253.2242	306.4177	356.207	413.3838	482.3243	489.9204	614.33	672.5304	770.2986	793.1012	831.3595	874.6838	917.6022	925.1358	953.9692	1012.3799	1043.0799	1047.5817	1079.2938	1089.2451	1125.0359	1152.6884	1184.9628	1212.703	1250.3338	1277.7489	1343.4526	1355.9744	1390.0264	1406.626	1413.3271	1436.5023	1473.323	1483.9286	1495.6297	1499.4414	1802.5211	2849.492	2988.616	3042.9646	3058.718	3102.9972	3118.0243	3122.9421	3128.6905	3182.3773	3219.5865
CC1CC2(CC2O1)C=O	C[C@@H]1C[C@]2(C[C@H]2O1)C=O	
InChI=1S/C7H10O2/c1-5-2-7(4-8)3-6(7)9-5/h4-6H,2-3H2,1H3	InChI=1S/C7H10O2/c1-5-2-7(4-8)3-6(7)9-5/h4-6H,2-3H2,1H3/t5-,6-,7+/m1/s1
