19
gdb 5511	2.321255	1.2990598	1.2046414	1.6795	75.93	-0.24076	0.00774	0.2485	1178.1721	0.155338	-422.535468	-422.526211	-422.525267	-422.569685	33.807	
C	 2.0702502051	 1.5313032017	 0.2288072344	-0.380674
C	 1.5879612645	 0.0766456363	 0.1935225968	-0.234294
C	 2.0827256581	-0.6807730359	-1.0289579074	-0.011198
C	 3.5529519467	-1.2432948184	-1.102886338	-0.194325
C	 3.030284862	-2.2093204126	-2.2174917498	-0.299234
C	 1.8900553337	-2.2369265879	-1.1268654739	 0.269118
O	 0.6917599908	-2.9031531983	-1.1504378577	-0.470055
C	 3.0533708677	-2.3214771855	-0.129965303	 0.377751
O	 3.3722156384	-2.9300843772	 0.8464799447	-0.344375
H	 1.6772272885	 2.0558541533	 1.1047311229	 0.117922
H	 3.1632185181	 1.5872504053	 0.2690888298	 0.119077
H	 1.7430064018	 2.0787683533	-0.6620266867	 0.116374
H	 1.9039670582	-0.4400320325	 1.1083372206	 0.114608
H	 0.4909830086	 0.0517314167	 0.1921016449	 0.111561
H	 1.7992382963	-0.179160656	-1.9607726482	 0.07944
H	 4.4821444736	-0.683853306	-1.1023686102	 0.101495
H	 2.744032419	-1.7134141421	-3.1470836059	 0.112951
H	 3.5923828507	-3.1281495556	-2.3928983228	 0.111598
H	 0.7505059082	-3.6513948985	-0.5449405505	 0.302259
71.6682	118.2453	137.1032	158.7372	217.346	232.4604	288.3675	334.3939	473.2955	514.445	525.498	690.8487	728.4354	756.0745	786.0013	794.6464	823.1489	893.1456	932.1531	965.8316	997.1987	1022.1158	1035.5661	1075.0356	1095.1054	1127.5188	1151.6517	1171.1494	1193.9266	1213.671	1290.4768	1323.9538	1344.906	1392.4324	1411.7325	1422.8835	1486.7662	1498.845	1506.6714	1513.6564	1907.1638	3025.5001	3032.5559	3047.5272	3062.9265	3069.2143	3100.0515	3107.1827	3143.8339	3185.5993	3797.0137
CCC1C2CC1(O)C2=O	CC[C@H]1[C@@H]2C[C@@]1(O)C2=O	
InChI=1S/C7H10O2/c1-2-5-4-3-7(5,9)6(4)8/h4-5,9H,2-3H2,1H3	InChI=1S/C7H10O2/c1-2-5-4-3-7(5,9)6(4)8/h4-5,9H,2-3H2,1H3/t4-,5-,7-/m0/s1
