19
gdb 1943	2.3874259	1.6677204	1.2951668	0.9152	75.42	-0.22142	0.06736	0.28878000000000004	1066.6307	0.153645	-422.492435	-422.483259	-422.482315	-422.525451	35.175	
C	 2.0159970926	 2.4531580413	 0.9514450918	-0.505425
C	 1.9439158243	 0.985693472	 1.213393761	 0.344915
O	 0.8155283922	 0.4674027176	 1.9551400448	-0.327542
C	 1.1326509913	-0.1067138513	 0.672353562	 0.269617
C	 0.0798606482	-0.2134402361	-0.3792193519	-0.513047
C	 2.3349498441	-1.1087936096	 0.8720132076	 0.324268
O	 2.7090806985	-2.0043116948	-0.1135872937	-0.454303
C	 2.8008806356	-1.1634711227	 2.2992457967	-0.356258
C	 3.1633486523	 0.0266072161	 1.427560193	-0.197864
H	 2.329999491	 2.9931556378	 1.8522024606	 0.132162
H	 2.7429783625	 2.6679850056	 0.1612040759	 0.127254
H	 1.0397866662	 2.8385549978	 0.6458155544	 0.131685
H	-0.6518906689	-0.9883357023	-0.1216719143	 0.126621
H	-0.4558497011	 0.7327290558	-0.4921818929	 0.131195
H	 0.5330115936	-0.4843418209	-1.3374756121	 0.137711
H	 2.295957692	-2.8536942777	 0.0786657633	 0.288661
H	 2.1112018868	-1.0539966492	 3.1267774827	 0.131974
H	 3.6299090109	-1.8472323732	 2.4564282425	 0.110563
H	 4.1865554277	 0.2896477537	 1.1944991186	 0.097813
154.9655	174.4077	182.2117	187.1343	216.5226	283.8982	290.6338	381.143	421.0631	436.8163	504.3538	554.511	573.4244	629.1104	692.264	742.4936	844.0722	859.1082	894.7386	916.4529	949.3084	991.3836	1010.8897	1075.8042	1089.8152	1104.1669	1110.839	1165.1085	1191.3716	1255.3873	1258.9797	1300.7879	1389.0156	1406.4373	1408.9238	1470.8806	1474.518	1476.0998	1487.348	1492.8174	1537.9633	3031.2606	3033.0036	3093.2915	3096.5131	3119.6805	3124.079	3134.3561	3206.6409	3230.4826	3785.0081
CC12OC1(C)C1(O)CC21	C[C@@]12O[C@]1(C)[C@]1(O)C[C@H]21	
InChI=1S/C7H10O2/c1-5-4-3-7(4,8)6(5,2)9-5/h4,8H,3H2,1-2H3	InChI=1S/C7H10O2/c1-5-4-3-7(4,8)6(5,2)9-5/h4,8H,3H2,1-2H3/t4-,5+,6+,7+/m1/s1
