19
gdb 4483	2.8056446	1.7403513	1.3395241	2.0711	73.15	-0.23211	0.07084	0.30295	990.4951	0.159365	-422.531503	-422.524208	-422.523264	-422.5629	29.605	
O	 2.0467385317	-1.6995906551	-3.0357635499	-0.44201
C	 1.2683661488	-1.3797012663	-1.8899460199	 0.131691
C	-0.2290733496	-1.3329202406	-2.2308794415	-0.225477
C	-1.1139057592	-0.8068038628	-1.0828818543	-0.24391
C	-0.5013140315	 0.3444355149	-0.3021068138	-0.044812
C	 0.3749343883	 1.4474642931	-0.8456267788	 0.086587
O	 1.1127018637	 1.0733703174	-2.0104275892	-0.313353
C	 1.6992070362	-0.0520970724	-1.2731411649	 0.069529
C	 0.9774291173	 0.3649822574	 0.0152983588	-0.176474
H	 1.884097187	-1.0078550142	-3.6878490645	 0.284318
H	 1.4805013503	-2.1767396925	-1.165714898	 0.088259
H	-0.3381968789	-0.6716316848	-3.0962979754	 0.107942
H	-0.5609394974	-2.3285411543	-2.5400268286	 0.098503
H	-2.0926043686	-0.5178500267	-1.484247465	 0.102476
H	-1.3056091602	-1.6184162653	-0.3679525696	 0.101684
H	-1.1093087501	 0.6968973464	 0.5294192968	 0.088766
H	 0.2084662618	 2.5060734427	-0.681052813	 0.103514
H	 2.7884411588	 0.0422916128	-1.2493389974	 0.087126
H	 1.4066593917	 0.3867024104	 1.0077715084	 0.095642
122.6539	208.7104	283.8743	345.0368	369.0782	392.0386	469.5039	509.5706	615.1958	691.2073	718.4172	774.2903	806.5681	851.3051	875.6679	915.9474	947.1219	958.8262	1005.7138	1013.8082	1044.2312	1052.6627	1064.1161	1087.4697	1107.9608	1129.7307	1140.3616	1196.5895	1235.5766	1247.931	1279.0915	1295.0389	1309.1819	1333.5537	1362.8601	1376.1537	1392.9954	1423.6617	1441.6177	1479.7207	1495.8413	3013.1527	3034.0776	3044.8134	3056.9225	3073.7917	3096.5331	3128.4908	3176.0216	3201.7592	3793.144
OC1CCC2C3OC1C23	O[C@@H]1CC[C@@H]2[C@@H]3O[C@H]1[C@H]23	
InChI=1S/C7H10O2/c8-4-2-1-3-5-6(3)9-7(4)5/h3-8H,1-2H2	InChI=1S/C7H10O2/c8-4-2-1-3-5-6(3)9-7(4)5/h3-8H,1-2H2/t3-,4+,5+,6-,7+/m0/s1
