19
gdb 2488	2.3352801	1.6746553	1.4405394	4.135	74.03	-0.26376	0.01529	0.27905	1022.0736	0.158348	-422.614564	-422.606522	-422.605578	-422.646868	30.829	
C	-0.8921148678	 1.946744738	 1.2509132408	-0.480421
C	-1.0204917634	 1.0867746008	 0.0037039287	 0.107026
C	-1.2261793369	 1.8559388997	-1.3193739588	-0.258984
C	-1.9251783725	 0.8579250693	-2.2652538135	-0.230235
C	-2.837754141	 0.0362800173	-1.3304141576	-0.226479
C	-2.0324871074	-0.0942599032	-0.046837356	 0.099921
O	-0.9139463689	-1.044656161	-0.1910730492	-0.272079
C	 0.0155126162	-0.0386259728	-0.1259735683	 0.44068
O	 1.2006303172	-0.1396071481	-0.1648674079	-0.341081
H	-0.7997246207	 1.3374704744	 2.155314427	 0.128866
H	-0.0019734244	 2.5800637148	 1.1853001337	 0.140997
H	-1.7641524295	 2.5992247207	 1.3645948364	 0.120362
H	-1.8789804146	 2.7154622747	-1.1229750433	 0.102565
H	-0.2851998449	 2.2438555523	-1.7189080887	 0.12146
H	-2.4763603775	 1.3527626999	-3.0681394053	 0.103684
H	-1.1866844915	 0.2009923033	-2.7359307588	 0.126673
H	-3.7569655536	 0.5919863697	-1.1069587981	 0.106508
H	-3.1281795599	-0.9357418153	-1.7376441158	 0.119361
H	-2.6011336891	-0.3328618648	 0.8530959948	 0.091175
118.4735	179.2056	204.1375	226.888	274.2164	285.076	359.2057	509.101	575.1008	606.3676	673.4731	746.3174	776.4282	831.7603	863.7077	884.1371	910.3363	920.3695	948.9496	993.7279	1038.0312	1055.1813	1109.9849	1112.7129	1149.1636	1187.9523	1215.4543	1246.8226	1264.0245	1291.3303	1329.2204	1337.6008	1361.3902	1368.9059	1413.4435	1471.3359	1484.9173	1493.1324	1496.2061	1503.6144	1926.9572	3031.3821	3035.1417	3038.0104	3058.7494	3096.1102	3100.2952	3104.3356	3106.4411	3110.0396	3111.5839
CC12CCCC1OC2=O	C[C@]12CCC[C@H]1OC2=O	
InChI=1S/C7H10O2/c1-7-4-2-3-5(7)9-6(7)8/h5H,2-4H2,1H3	InChI=1S/C7H10O2/c1-7-4-2-3-5(7)9-6(7)8/h5H,2-4H2,1H3/t5-,7+/m1/s1
