19
gdb 4580	2.4006295	1.5679455	1.0767629	2.4501	80.14	-0.23775	-0.03319	0.20456	1135.8593	0.158115	-422.54335	-422.534884	-422.53394	-422.57621	32.25	
O	-0.1239089857	 1.4156764843	 0.0393446288	-0.438298
C	 0.030258222	-0.0087818364	 0.010968065	 0.077638
C	-1.403976851	-0.5333162603	-0.1571826749	-0.088912
O	-1.5086455189	-1.8298585448	-0.7071186894	-0.25557
C	-0.841862394	-2.8650901433	 0.0162886572	-0.120925
C	-1.2147984766	-2.9182060448	 1.4707566534	-0.085149
C	-0.6069677012	-2.1935519042	 2.4189292377	-0.072972
C	 0.5255237581	-1.2823631152	 2.2368865657	-0.087064
C	 0.8097551778	-0.43958691	 1.2335645824	-0.100072
H	 0.6970922485	 1.8041981163	 0.3578382792	 0.280444
H	 0.6011124505	-0.2989179503	-0.888049308	 0.083359
H	-1.9392489163	-0.4445174021	 0.7962018195	 0.104815
H	-1.8945503953	 0.1252277284	-0.8784418516	 0.120897
H	-1.1307028641	-3.7887334713	-0.4925650753	 0.108174
H	 0.2481951244	-2.7533618842	-0.0797765493	 0.100959
H	-2.0433427248	-3.5625944552	 1.7519746621	 0.096838
H	-0.9264393973	-2.3236607103	 3.4518229341	 0.096834
H	 1.2424559688	-1.3045996425	 3.0576990513	 0.09669
H	 1.7581431654	 0.0964320361	 1.3181942419	 0.082314
85.4674	177.6631	224.4476	243.2978	272.2139	282.2468	332.9901	393.0195	453.8442	542.1234	564.482	632.3816	711.1328	814.8923	818.1097	855.305	924.9343	931.4605	1004.1479	1012.5747	1016.9136	1030.4987	1060.7538	1076.139	1117.2742	1141.4986	1233.1056	1254.2449	1262.0196	1296.3865	1313.6093	1345.5376	1380.3797	1403.0864	1422.358	1436.5324	1462.6243	1497.6935	1506.7854	1689.7108	1706.4283	2947.9536	2996.0805	3033.3511	3086.9832	3089.1474	3102.3502	3123.3812	3137.6061	3169.248	3816.4358
OC1COCC=CC=C1	O[C@@H]1COCC=CC=C1	
InChI=1S/C7H10O2/c8-7-4-2-1-3-5-9-6-7/h1-4,7-8H,5-6H2/b3-1-,4-2-	InChI=1S/C7H10O2/c8-7-4-2-1-3-5-9-6-7/h1-4,7-8H,5-6H2/b3-1-,4-2-/t7-/m0/s1
