19
gdb 2482	3.0594179	1.3139794	1.1012795	1.28	77.01	-0.25104	-0.02731	0.22372999999999998	1141.4201	0.156805	-422.564333	-422.555813	-422.554868	-422.597202	31.758	
C	 1.4148855586	 0.5680767258	-2.8101382052	-0.502059
C	 0.5844499038	-0.5451268664	-2.224103597	 0.293926
C	-0.7169959246	-0.9268923558	-2.9238367192	-0.133883
O	-1.0592588007	-2.2263615379	-2.4586767882	-0.254359
C	 0.1500713072	-2.9163690267	-2.1492452201	-0.110826
C	 1.1139233009	-1.8373782554	-1.6986685095	-0.099419
C	 0.5314336432	-0.8333071322	-0.7078877041	-0.163296
C	 1.4627195506	-0.1486099531	 0.213069249	 0.123893
O	 2.6434558365	 0.031210179	 0.0085028387	-0.275081
H	 2.3362148178	 0.7143877116	-2.2451800072	 0.162457
H	 1.6782646033	 0.3350341164	-3.8480388428	 0.119555
H	 0.8605403779	 1.5134340463	-2.8133004712	 0.119803
H	-1.5599507872	-0.2635742972	-2.7034050983	 0.112129
H	-0.5477663707	-0.9218861496	-4.0139301466	 0.095416
H	-0.0866703353	-3.6648294802	-1.3864248709	 0.115238
H	 0.554229109	-3.4357226062	-3.0335166116	 0.099234
H	 2.1787724608	-2.0268434168	-1.6336317106	 0.115013
H	-0.4515866589	-1.0491825452	-0.2998017504	 0.102147
H	 0.9963681481	 0.2070695636	 1.1583852352	 0.080111
123.8421	175.752	200.1845	209.8721	226.7545	251.5199	314.3677	337.7545	403.0714	595.8754	657.6383	694.0503	765.2973	821.6543	891.6031	932.781	953.2471	977.5291	1002.5458	1028.0262	1043.5602	1083.1392	1089.1036	1099.397	1107.7292	1137.2167	1214.582	1226.2116	1254.2764	1271.7775	1318.6183	1361.4754	1380.2196	1417.5194	1430.8824	1447.2557	1497.9906	1503.0071	1507.9849	1519.0105	1793.4766	2885.1705	2963.5625	2974.6852	3032.1533	3068.9168	3075.0698	3086.4974	3144.4183	3156.467	3194.6583
CC12COCC1C2C=O	C[C@@]12COC[C@@H]1[C@H]2C=O	
InChI=1S/C7H10O2/c1-7-4-9-3-6(7)5(7)2-8/h2,5-6H,3-4H2,1H3	InChI=1S/C7H10O2/c1-7-4-9-3-6(7)5(7)2-8/h2,5-6H,3-4H2,1H3/t5-,6-,7+/m1/s1
