19
gdb 2778	3.2913407	1.0985116	0.9636808	2.8885	77.23	-0.24623	-0.02255	0.22368	1259.0845	0.154825	-422.536519	-422.527328	-422.526384	-422.570463	33.87	
C	 0.3885245087	 0.7453545319	-3.4036960911	-0.501248
C	 0.1018639735	 1.1534871178	-1.9888623887	 0.347691
C	 1.026167074	 2.0178497058	-1.1170319359	-0.318638
C	 0.6627128093	 1.1602282625	 0.1299884381	-0.105261
C	 1.8000767393	 0.3459652881	 0.697106898	 0.140157
O	 2.9290782657	 0.3332243946	 0.2771218698	-0.237256
C	-0.2747493512	 0.3119112519	-0.753718536	-0.16805
C	-1.2865104436	 1.2166203698	-1.4196290497	 0.050307
O	-2.258605466	 0.595060351	-2.206914284	-0.430448
H	-0.379038415	 0.0615366337	-3.7723745657	 0.137524
H	 0.4021874487	 1.6215057562	-4.0633855724	 0.11967
H	 1.3644867828	 0.2548029557	-3.4820999719	 0.121872
H	 2.0823471603	 1.8942318112	-1.3648671876	 0.135293
H	 0.7835650904	 3.0838658691	-1.0635974151	 0.095102
H	 0.1557506653	 1.6670609611	 0.9630011639	 0.082113
H	 1.5078683216	-0.2972001624	 1.5595398373	 0.075771
H	-0.4518448124	-0.7551976548	-0.6698434796	 0.089992
H	-1.6258217491	 2.1202591801	-0.9032515646	 0.075587
H	-2.8985778923	 0.1788860765	-1.6202526349	 0.28982
64.6413	122.5336	193.1206	199.7323	241.8948	284.6311	305.9999	319.2776	372.3309	375.8344	514.1715	645.3239	682.5799	717.6042	817.3185	851.0233	904.6515	924.8182	945.5342	993.2006	1014.7098	1044.3639	1077.3714	1083.6865	1120.3091	1148.1546	1169.6533	1208.4463	1220.2039	1241.8667	1268.1428	1287.4289	1345.5126	1361.3115	1415.4647	1421.8515	1454.1627	1484.6339	1492.7907	1500.2037	1825.7043	2862.426	3009.2286	3028.4286	3041.0123	3051.089	3085.816	3121.8027	3128.8541	3168.1109	3808.2945
CC12CC(C=O)C1C2O	C[C@]12C[C@H](C=O)[C@H]1[C@@H]2O	
InChI=1S/C7H10O2/c1-7-2-4(3-8)5(7)6(7)9/h3-6,9H,2H2,1H3	InChI=1S/C7H10O2/c1-7-2-4(3-8)5(7)6(7)9/h3-6,9H,2H2,1H3/t4-,5+,6+,7+/m1/s1
