19
gdb 2923	2.7681023	1.7080465	1.2308488	2.6156	74.57	-0.23514	0.07868	0.31382	1036.1386	0.157571	-422.522309	-422.514532	-422.513588	-422.553999	31.006	
C	-3.4990524252	 0.530776754	 0.6177186158	-0.509118
C	-2.5492513463	 0.9526822535	 1.7169764563	 0.297707
C	-3.1736403175	 1.4025245354	 3.0395859636	-0.13251
O	-2.0174627456	 1.717345126	 3.8205873367	-0.282683
C	-0.9672390653	 1.4331915615	 2.9204002167	 0.148084
C	-1.3284416365	 1.9241481575	 1.4835450194	-0.157044
C	-0.5247387732	 0.7485187841	 0.9131941637	 0.119159
O	 0.8737176057	 0.9141155669	 0.9890530883	-0.446064
C	-1.2683409892	 0.1279499499	 2.1212437865	-0.190595
H	-4.1183976052	-0.3128159649	 0.9434655339	 0.121484
H	-4.175903953	 1.3515444577	 0.3542086279	 0.122776
H	-2.979566933	 0.2261687194	-0.2944892336	 0.124388
H	-3.8124730226	 2.2890035598	 2.9282918391	 0.098234
H	-3.7580799983	 0.609346092	 3.5248490321	 0.097412
H	 0.0030461467	 1.626180129	 3.3665412782	 0.10226
H	-1.366363662	 2.9518255999	 1.1197437127	 0.072379
H	-0.8266869466	 0.3886184796	-0.0766036998	 0.065277
H	 1.2888014404	 0.0806724687	 0.7467754336	 0.283047
H	-1.2421842532	-0.9002386099	 2.4876829888	 0.065809
183.0376	215.9976	242.7015	265.9811	282.7067	317.5533	378.863	456.6584	527.9607	614.3859	729.1981	734.896	748.0995	819.4527	890.2898	906.8113	921.9257	946.9397	999.0165	1002.5146	1033.121	1066.4231	1083.2148	1096.761	1105.0706	1153.1108	1175.9528	1181.387	1193.7904	1219.4322	1241.2903	1256.8574	1281.5178	1311.8947	1322.4174	1388.5767	1416.0194	1447.3126	1491.3052	1498.1074	1520.126	3004.5699	3029.5912	3037.9749	3040.9029	3086.4261	3094.2565	3108.3538	3112.1149	3185.0635	3822.6237
CC12COC3C1C(O)C23	C[C@]12CO[C@@H]3[C@H]1[C@@H](O)[C@H]23	
InChI=1S/C7H10O2/c1-7-2-9-6-3(7)5(8)4(6)7/h3-6,8H,2H2,1H3	InChI=1S/C7H10O2/c1-7-2-9-6-3(7)5(8)4(6)7/h3-6,8H,2H2,1H3/t3-,4+,5-,6-,7+
