19
gdb 1586	2.3393483	1.4258886	1.1032226	1.5891	79.61	-0.24652	-0.06657	0.17995	1169.6487	0.154496	-422.57832	-422.568908	-422.567964	-422.612501	34.089	
C	-1.2369618319	 0.6099989615	 1.2844043569	-0.409956
C	-1.0168714898	-0.2123646934	 0.0072198653	 0.269129
C	-1.2227780935	 0.6474817554	-1.2474451574	-0.409955
O	-1.984311435	-1.2857010763	-0.0140960881	-0.309595
C	-1.344890963	-2.553708729	-0.0292215154	-0.133418
C	 0.1198365969	-2.2603795535	-0.0166944072	-0.176279
C	 0.3189518766	-0.9396009721	 0.0039410081	 0.187805
C	 1.6385177829	-0.2833032129	 0.0210368827	 0.074134
O	 2.6956909387	-0.8732630183	 0.0179409714	-0.263993
H	-1.1110608896	-0.0175110401	 2.1705774747	 0.12132
H	-0.5299871438	 1.444206641	 1.3456523332	 0.114671
H	-2.2507948855	 1.0206430012	 1.2913402736	 0.127926
H	-1.0868419809	 0.0464610855	-2.1503392423	 0.121323
H	-2.236542603	 1.0583075109	-1.253583919	 0.127926
H	-0.5153092325	 1.4830277975	-1.2760410677	 0.114671
H	-1.6534175031	-3.150866969	 0.8443528689	 0.117184
H	-1.6435262612	-3.1247813539	-0.9234306125	 0.117186
H	 0.8987939827	-3.012373087	-0.0234457949	 0.138769
H	 1.6138546951	 0.8287065326	 0.0371668395	 0.071152
72.8096	106.2851	179.5766	202.8571	215.8188	253.0256	255.3271	336.0647	339.446	396.0547	502.5446	581.9007	617.4605	766.1479	802.2156	838.7272	855.0632	925.2743	939.4264	977.6483	1008.3593	1042.5927	1046.9562	1089.783	1130.8225	1182.5926	1200.42	1213.462	1243.9599	1319.5742	1372.9762	1396.7196	1416.0271	1449.9753	1475.1922	1482.1418	1495.2337	1503.6618	1510.8184	1676.5395	1790.7555	2884.5054	2970.1346	2983.5996	3036.0935	3041.1248	3107.4548	3113.5392	3121.676	3124.2007	3225.9379
CC1(C)OCC=C1C=O	CC1(C)OCC=C1C=O	
InChI=1S/C7H10O2/c1-7(2)6(5-8)3-4-9-7/h3,5H,4H2,1-2H3	InChI=1S/C7H10O2/c1-7(2)6(5-8)3-4-9-7/h3,5H,4H2,1-2H3
