19
gdb 4648	6.1027725	0.4361218	0.4215522	3.23	83.63	-0.25338	-0.02849	0.22488999999999998	2555.4185	0.152491	-422.516319	-422.505155	-422.504211	-422.555473	36.185	
C	-0.153743807	-0.0690905078	-0.0554153737	-0.365802
C	 1.385389409	-0.0659207602	-0.02490741	-0.317349
C	 1.9591344568	 1.2751095744	-0.0149177313	 0.167492
C	 2.4112800452	 2.3907196423	-0.0136386972	-0.024973
C	 2.9666788963	 3.7347536808	 0.0166413912	-0.208927
O	 3.1819017339	 4.20598866	-1.3056533023	-0.245703
C	 3.7179216	 5.5030410662	-1.3394913892	-0.132579
C	 3.9010131175	 5.8988891356	-2.7947702144	 0.139642
O	 4.3461087372	 6.9592141405	-3.1439965938	-0.238202
H	-0.5610124004	 0.4409355037	 0.8217258337	 0.128276
H	-0.5250027397	 0.4438015134	-0.9465805438	 0.131535
H	-0.5321795383	-1.0954674341	-0.0644353763	 0.116299
H	 1.7384250113	-0.6150297217	 0.8574196966	 0.132003
H	 1.772815192	-0.6140538959	-0.8931756787	 0.135084
H	 2.2831679427	 4.4162454718	 0.5517151692	 0.118631
H	 3.9174367101	 3.7398803892	 0.5769874417	 0.119193
H	 3.0565722907	 6.240664136	-0.8526164055	 0.121968
H	 4.6951308806	 5.5643906995	-0.8299500765	 0.12213
H	 3.5827412221	 5.1118923762	-3.5128192798	 0.101281
29.3683	46.924	64.4804	81.7066	88.41	140.424	172.3995	229.2136	293.1936	332.2239	374.32	465.463	510.6587	588.4626	742.5354	768.9937	784.4956	964.2496	1001.2753	1027.5184	1075.5819	1080.4212	1103.299	1116.3419	1148.6116	1180.8814	1232.5848	1257.7167	1286.8645	1340.8441	1351.9869	1397.0557	1410.2469	1428.4413	1471.6877	1480.3783	1494.7826	1504.9481	1506.5204	1845.1026	2373.8972	2904.936	2950.0681	2959.0938	2969.5923	2985.3954	3022.8485	3045.6938	3050.5673	3119.2802	3125.452
CCC#CCOCC=O	CCC#CCOCC=O	
InChI=1S/C7H10O2/c1-2-3-4-6-9-7-5-8/h5H,2,6-7H2,1H3	InChI=1S/C7H10O2/c1-2-3-4-6-9-7-5-8/h5H,2,6-7H2,1H3
