19
gdb 4818	1.8850646	1.5802042	1.0456005	1.8888	78.81	-0.23415	0.04468	0.27883	1211.7147	0.153833	-422.510666	-422.500465	-422.49952	-422.545106	37.688	
C	 1.221150098	-0.6095637381	-1.1136884541	-0.423644
C	 0.969460048	 0.2165955483	 0.1248052341	-0.084621
C	 1.9591417629	 1.2210627832	 0.6164218503	 0.078962
O	 1.4816313545	 2.4233746118	 1.1299124651	-0.435229
C	 1.7325288882	-0.0532208205	 1.437702062	 0.054504
C	 1.0002349846	 0.1590664395	 2.7496651856	-0.173038
O	 1.8334488651	 0.9874765175	 3.5695356697	-0.424231
C	 2.7722303822	-1.04259497	 1.4561896598	 0.308025
C	 3.6360576223	-1.8806056033	 1.4763534792	-0.460424
H	 0.651025137	-1.5440266165	-1.0883502069	 0.122405
H	 0.9232441057	-0.0544040272	-2.0093772353	 0.122291
H	 2.2778982683	-0.8711471549	-1.2083083078	 0.132825
H	-0.0650265574	 0.5067153931	 0.2886802189	 0.096673
H	 2.9134467901	 1.2801566413	 0.0932055339	 0.096904
H	 1.8141784076	 2.485667636	 2.0365949403	 0.295562
H	 0.0384643111	 0.6516622315	 2.5625129215	 0.103852
H	 0.8100830529	-0.8057222687	 3.2373028813	 0.106862
H	 1.4040567286	 1.0964398225	 4.4240418088	 0.293194
H	 4.4051291103	-2.6120460657	 1.4983111034	 0.189128
115.2125	122.2675	148.0371	172.3385	198.6304	251.7097	273.5396	297.522	327.5724	382.5031	410.5236	498.7977	527.2574	533.8382	570.5591	610.0998	650.6222	734.7388	815.6119	884.2334	957.7602	995.0491	1030.2674	1052.6082	1092.5891	1120.6561	1131.7059	1173.707	1219.6904	1233.8798	1253.6372	1308.2169	1352.4741	1380.2298	1418.3226	1442.8698	1463.233	1492.9366	1499.8824	1508.6912	2229.0901	3012.0279	3037.2648	3055.7685	3098.6573	3105.4474	3119.9889	3150.5656	3503.9491	3736.8343	3821.599
CC1C(O)C1(CO)C#C	C[C@@H]1[C@@H](O)[C@]1(CO)C#C	
InChI=1S/C7H10O2/c1-3-7(4-8)5(2)6(7)9/h1,5-6,8-9H,4H2,2H3	InChI=1S/C7H10O2/c1-3-7(4-8)5(2)6(7)9/h1,5-6,8-9H,4H2,2H3/t5-,6-,7+/m1/s1
