19
gdb 721	3.3938703	1.2985389	1.0189204	1.3648	74.3	-0.23994	-0.0171	0.22283999999999998	1157.0932	0.158598	-422.572343	-422.564518	-422.563574	-422.605291	29.767	
O	 0.8198441247	 0.0189612641	-1.0488745934	-0.310315
C	-0.0426608646	 0.0842395747	-0.2064264577	 0.398055
C	-0.8819072045	 1.3497557663	-0.0033283641	-0.309758
C	-1.6867602324	 1.3365982458	 1.3048328568	-0.248786
C	-2.5869754614	 0.1049872863	 1.3198667848	 0.148586
O	-2.9016728585	-0.3919964393	 2.6394163431	-0.29302
C	-2.3728829737	-1.6980072879	 2.3251721551	-0.09122
C	-1.87833084	-1.2233200742	 0.9414572233	-0.071406
C	-0.3680471485	-1.0772055386	 0.7307426591	-0.332998
H	-0.2143041649	 2.2133562707	-0.0738575807	 0.133827
H	-1.5588053857	 1.423037215	-0.8664153226	 0.132819
H	-1.01145586	 1.2864634774	 2.1658172396	 0.112375
H	-2.2706464724	 2.2554779105	 1.4138851872	 0.108507
H	-3.5039136511	 0.293168743	 0.7442678901	 0.077042
H	-1.5970124907	-2.0100793257	 3.0355819268	 0.10299
H	-3.1601160705	-2.4619652246	 2.3004445607	 0.103083
H	-2.3297704808	-1.7476338493	 0.0966035737	 0.088016
H	 0.1153696752	-0.849925053	 1.6918927158	 0.128061
H	 0.0987580397	-1.9853852113	 0.3430836722	 0.12414
54.8278	99.1303	201.1655	313.3154	362.5619	387.9948	443.7167	503.8611	551.0478	571.6363	726.7395	764.7179	810.5663	859.9141	885.203	920.265	976.8897	992.6806	1028.1562	1036.4551	1054.5656	1088.6085	1120.1024	1139.1331	1165.452	1188.9753	1223.1739	1242.4981	1254.936	1288.3732	1302.6102	1328.0675	1342.3133	1363.2	1376.4338	1389.36	1448.9007	1462.9602	1505.2099	1525.2506	1820.0376	3000.6297	3010.4716	3015.1653	3022.1752	3048.7049	3051.3987	3083.7337	3090.524	3093.7623	3110.3488
O=C1CCC2OCC2C1	O=C1CC[C@@H]2OC[C@@H]2C1	
InChI=1S/C7H10O2/c8-6-1-2-7-5(3-6)4-9-7/h5,7H,1-4H2	InChI=1S/C7H10O2/c8-6-1-2-7-5(3-6)4-9-7/h5,7H,1-4H2/t5-,7-/m0/s1
