19
gdb 1859	2.4650476	1.7030962	1.2271427	4.514	75.26	-0.25768	0.01491	0.27259	1068.7742	0.156613	-422.602691	-422.593885	-422.592941	-422.63572	32.904	
C	-3.4298224088	-1.4139556587	-0.653021252	-0.488371
C	-2.2862108741	-0.8026336142	 0.116730108	 0.263668
C	-1.6990634283	-1.4680206172	 1.3270801813	-0.364944
C	-0.852494675	-1.2998582011	 0.0703669552	 0.120077
C	-0.3143985574	-2.4785321223	-0.6987860198	-0.482019
C	 0.0026104396	-0.0689356824	 0.1319832875	 0.422872
O	 1.1935674816	 0.0078146882	 0.0313676402	-0.350952
O	-0.784533208	 1.0322517763	 0.3283814693	-0.234943
C	-2.1723281786	 0.7164133436	 0.1423641442	-0.141582
H	-4.3928700676	-1.1382104834	-0.2081407586	 0.128433
H	-3.4346149546	-1.0770276064	-1.6955651167	 0.125791
H	-3.3705292491	-2.5058412105	-0.6523780871	 0.127122
H	-1.4640833485	-0.8763833927	 2.2069045429	 0.127973
H	-2.020169808	-2.4830410156	 1.5384517188	 0.119475
H	 0.6597180395	-2.7709853591	-0.2963259011	 0.147418
H	-0.9862145859	-3.3384592747	-0.6320932273	 0.115498
H	-0.1743878371	-2.2349190243	-1.7567872285	 0.129142
H	-2.7368422715	 1.179347335	 0.9583818693	 0.120711
H	-2.5046517382	 1.1556229494	-0.8065223655	 0.11463
125.1732	156.8308	180.3928	197.4071	208.7764	265.4485	315.9898	374.3339	429.9895	508.5916	543.6346	656.2077	696.0205	717.7013	791.7383	840.2816	912.2803	941.631	974.8557	988.9134	1030.1923	1054.8607	1060.806	1102.1336	1109.7519	1128.3811	1189.0601	1237.3943	1254.6788	1348.6168	1373.2648	1415.971	1417.3752	1426.7321	1481.3654	1489.6116	1493.2963	1495.6218	1506.2369	1522.1943	1873.1763	3025.0004	3030.1448	3041.6995	3076.1751	3087.9945	3107.0569	3110.2935	3118.9836	3121.0016	3208.3832
CC12CC1(C)C(=O)OC2	C[C@@]12C[C@]1(C)C(=O)OC2	
InChI=1S/C7H10O2/c1-6-3-7(6,2)5(8)9-4-6/h3-4H2,1-2H3	InChI=1S/C7H10O2/c1-6-3-7(6,2)5(8)9-4-6/h3-4H2,1-2H3/t6-,7+/m0/s1
