19
gdb 992	2.6962904	0.9964495	0.8623119	1.561	80.52	-0.25012	0.04467	0.29479	1430.4611	0.153321	-422.511884	-422.501371	-422.500427	-422.548852	36.869	
C	 1.5054877353	-0.0709983808	 0.0180623813	-0.500022
C	 0.0510494233	-0.0156306914	-0.0054472304	 0.031912
C	-1.1518864366	 0.040215262	-0.0193358946	 0.097639
C	-2.6253036133	 0.0871808365	-0.0225090682	 0.122874
C	-3.1465044753	 0.8168317933	-1.2660791824	-0.401498
O	-3.1151691791	 0.796762878	 1.1086513103	-0.449866
C	-3.1596927089	-1.3516485949	 0.0153576081	 0.066222
C	-4.4690036672	-1.657220963	 0.5973018466	-0.188124
O	-3.2542263908	-1.9176365343	 1.3223390188	-0.252167
H	 1.9164783075	 0.66801643	 0.7145330963	 0.152683
H	 1.8619169783	-1.0580769394	 0.3321325315	 0.150587
H	 1.9272361844	 0.1363469868	-0.9715599492	 0.149153
H	-2.8233692141	 0.3067480857	-2.1772757667	 0.122175
H	-4.2387803	 0.8530941422	-1.2402365651	 0.121959
H	-2.7584340928	 1.8374957132	-1.2816742722	 0.137488
H	-2.933453785	 0.2299176482	 1.8712643209	 0.28962
H	-2.7435899242	-2.0174376077	-0.7399817494	 0.101834
H	-5.0721177846	-0.8458592817	 0.995623267	 0.129955
H	-5.0089632768	-2.5439737628	 0.2712603975	 0.117575
17.4538	69.54	100.0305	142.1389	216.1391	225.4785	272.1133	290.3654	329.648	361.6924	408.4511	448.7242	479.1418	557.042	608.0179	692.0902	817.3357	875.0624	923.0623	939.7303	1015.2259	1040.7183	1052.0458	1053.6732	1094.4468	1103.6177	1161.8652	1169.4065	1202.4828	1226.0362	1284.5187	1375.1209	1407.0575	1413.5107	1422.7799	1477.0136	1478.1827	1481.0478	1491.5892	1513.6581	2365.3293	3027.911	3049.9617	3089.2768	3090.2318	3099.8126	3120.5836	3129.3078	3136.4702	3197.1025	3753.9848	17.4644	69.5411	100.0319	142.14	216.141	225.4796	272.1136	290.3654	329.6483	361.6929	408.452	448.7243	479.1437	557.0419	608.0181	692.0902	817.3363	875.0632	923.063	939.7309	1015.2259	1040.7184	1052.046	1053.6734	1094.4471	1103.6178	1161.865	1169.4068	1202.4833	1226.0361	1284.5189	1375.1203	1407.0571	1413.5108	1422.78	1477.0138	1478.1828	1481.0471	1491.5883	1513.6578	2365.3292	3027.9109	3049.9617	3089.2768	3090.2318	3099.8127	3120.5837	3129.3078	3136.4703	3197.1027	3753.9865
CC#CC(C)(O)C1CO1	CC#C[C@](C)(O)[C@@H]1CO1	
InChI=1S/C7H10O2/c1-3-4-7(2,8)6-5-9-6/h6,8H,5H2,1-2H3	InChI=1S/C7H10O2/c1-3-4-7(2,8)6-5-9-6/h6,8H,5H2,1-2H3/t6-,7-/m0/s1
