19
gdb 1637	3.6768455	1.0470941	0.9215806	3.7285	75.76	-0.24145	-0.01572	0.22573	1291.1033	0.154676	-422.547527	-422.538598	-422.537654	-422.581415	33.266	
C	-3.9466525499	-1.2796356283	-1.256192781	-0.461499
C	-3.0826229352	-0.0439414645	-1.1254379648	 0.395391
C	-3.545811458	 1.2287151973	-1.6969269954	-0.229118
O	-2.5434501736	 0.4504155867	-2.3624492695	-0.269694
C	-2.1074348658	-0.0511074454	 0.0326690412	-0.063036
C	-0.9510504879	-1.1069013991	-0.0346474492	-0.356832
C	 0.0087778152	 0.0175480068	 0.3814490542	 0.398449
O	 1.1163191434	 0.0366257172	 0.8323109542	-0.291282
C	-1.0516679726	 1.0937838329	 0.1161824192	-0.369416
H	-4.5790212788	-1.4048910789	-0.370638071	 0.123262
H	-4.5890766912	-1.2096467517	-2.1370132436	 0.130128
H	-3.3278063474	-2.1774242819	-1.3554452514	 0.131652
H	-4.5098265642	 1.2724311478	-2.2018973268	 0.115599
H	-3.2003026433	 2.1734001056	-1.2800155898	 0.115527
H	-2.6629183291	-0.1489347444	 0.9704067911	 0.086391
H	-0.9937216622	-1.9831120312	 0.6158808112	 0.127265
H	-0.7501679105	-1.4310066564	-1.0620575024	 0.142952
H	-1.1691053339	 1.8732964237	 0.8718352831	 0.123705
H	-0.8891919949	 1.5514854239	-0.8659683391	 0.150557
72.8305	81.7741	172.3296	194.5009	237.089	327.8868	366.0593	418.7205	428.1314	507.6012	520.0652	614.7865	679.6721	717.0471	790.6122	865.2149	909.845	925.6917	929.6378	991.2935	1009.7347	1025.231	1061.0735	1104.2597	1116.6764	1135.2603	1170.0564	1195.7835	1198.336	1237.2608	1244.7512	1259.4822	1372.5853	1393.8132	1415.344	1423.6161	1446.1662	1483.6379	1495.4917	1530.6588	1896.941	3037.4997	3051.2767	3056.1291	3063.109	3084.7195	3101.6028	3120.4217	3122.9714	3126.1188	3170.2874
CC1(CO1)C1CC(=O)C1	C[C@@]1(CO1)C1CC(=O)C1	
InChI=1S/C7H10O2/c1-7(4-9-7)5-2-6(8)3-5/h5H,2-4H2,1H3	InChI=1S/C7H10O2/c1-7(4-9-7)5-2-6(8)3-5/h5H,2-4H2,1H3/t7-/m1/s1
