19
gdb 5746	4.267687	0.9660787	0.8569356	1.9789	75.7	-0.24229	-0.02406	0.21823	1338.1549	0.156292	-422.545666	-422.536959	-422.536015	-422.579756	32.265	
O	-0.7593674334	 0.7002968422	-1.2428913012	-0.419672
C	 0.3310144223	 1.2499866653	-0.5235687019	-0.085632
C	-0.0974210017	 1.9623280157	 0.7534866555	 0.012445
C	 1.0918998737	 2.4791221106	 1.6194659591	-0.268399
C	 0.6776175458	 1.5231077339	 2.7812390302	-0.148259
C	-0.5406694778	 1.0218277678	 1.9120317517	-0.047027
C	-1.5393670542	 1.6489128318	 2.9230143147	-0.369164
C	-0.3344354668	 2.1630622221	 3.7392820578	 0.409935
O	-0.2291916149	 2.7937119206	 4.7505296693	-0.295095
H	-1.1695103461	 0.0267724214	-0.6909181868	 0.283917
H	 1.0845484795	 0.4801611313	-0.2844696941	 0.084065
H	 0.8074710187	 1.9658515931	-1.2027385584	 0.113411
H	-0.8445943653	 2.7189183449	 0.4940593044	 0.080931
H	 2.0677380793	 2.2228432204	 1.1975429417	 0.112881
H	 1.0973809864	 3.5435209232	 1.8642098007	 0.118925
H	 1.4518450846	 0.8928799306	 3.2201896261	 0.092121
H	-0.6951767146	-0.0327247589	 1.6755195237	 0.062356
H	-2.2367692119	 2.4043343349	 2.5487377869	 0.128791
H	-2.1095664636	 0.9094554691	 3.4961710207	 0.133471
39.8754	115.8942	136.2261	207.6906	268.2714	301.6283	376.1573	420.6121	474.5936	512.0473	615.0647	711.3295	766.0097	835.5999	850.5905	872.7053	910.9608	946.5613	973.2563	997.8424	1042.5314	1052.3878	1079.9908	1098.65	1105.1941	1139.1818	1165.5135	1193.6901	1223.5181	1224.5208	1245.6694	1266.6505	1276.3606	1291.7196	1351.9132	1390.3859	1417.659	1433.1884	1484.0458	1502.5404	1888.4522	2960.4186	3047.6267	3054.9486	3058.3487	3069.0493	3082.6365	3102.2148	3107.8101	3114.9951	3815.7974
OCC1CC2C1CC2=O	OC[C@@H]1C[C@@H]2[C@H]1CC2=O	
InChI=1S/C7H10O2/c8-3-4-1-6-5(4)2-7(6)9/h4-6,8H,1-3H2	InChI=1S/C7H10O2/c8-3-4-1-6-5(4)2-7(6)9/h4-6,8H,1-3H2/t4-,5-,6+/m0/s1
