19
gdb 4701	7.1387968	0.5733963	0.5377942	1.796	79.14	-0.26949	0.01469	0.28418	2026.6027	0.153381	-422.561517	-422.550725	-422.549781	-422.599559	36.452	
C	 0.7439118175	-0.8481413808	 0.2761611828	-0.370489
C	 0.5995689656	 0.5831155241	-0.2349842667	-0.30319
C	 1.927909682	 1.3032026871	-0.3442799962	 0.444681
O	 3.0058307267	 0.8403896499	-0.0700528876	-0.348982
O	 1.7531013128	 2.5644750857	-0.7998430853	-0.247584
C	 2.9481760765	 3.3471517957	-0.9448728675	-0.05785
C	 2.5131353712	 4.7180642612	-1.4667872828	-0.356177
C	 3.6507960284	 5.6084168866	-1.6552166942	 0.28424
C	 4.6067309253	 6.3213612417	-1.8013429761	-0.439378
H	 1.2040217159	-0.8651703482	 1.2672688641	 0.133276
H	-0.2347537951	-1.3315431797	 0.3399985548	 0.112434
H	 1.3793626225	-1.4387581737	-0.3884120192	 0.133285
H	 0.1234688686	 0.6120127379	-1.2223354056	 0.132235
H	-0.0494913703	 1.1799493357	 0.4168495719	 0.132238
H	 3.4562553282	 3.4300791734	 0.0198758831	 0.133871
H	 3.6322282924	 2.8536686842	-1.6407843278	 0.133897
H	 1.9744238659	 4.5860493276	-2.4127524132	 0.141702
H	 1.7993363294	 5.1593533266	-0.7609241095	 0.141704
H	 5.4440049867	 6.9606700852	-1.9344922051	 0.200086
27.2713	48.2191	57.7633	82.8854	163.1112	181.5982	211.9509	280.2239	313.4041	353.416	430.0554	548.8912	579.1284	627.9739	653.9386	665.1422	784.2831	810.7926	883.2265	973.1566	1004.8778	1028.7753	1077.4298	1084.0962	1104.8468	1107.612	1209.9419	1230.3187	1278.1159	1295.117	1307.3394	1374.2918	1413.7942	1416.7383	1459.176	1476.7394	1492.7673	1500.1997	1514.9844	1821.8854	2244.1572	3032.8269	3041.9872	3052.8494	3063.8774	3065.5977	3071.2296	3114.2366	3124.6457	3129.7661	3507.1434
CCC(=O)OCCC#C	CCC(=O)OCCC#C	
InChI=1S/C7H10O2/c1-3-5-6-9-7(8)4-2/h1H,4-6H2,2H3	InChI=1S/C7H10O2/c1-3-5-6-9-7(8)4-2/h1H,4-6H2,2H3
