19
gdb 4959	2.4636051	1.6929303	1.2458568	1.511	74.8	-0.23264	0.0826	0.31524	1062.3178	0.156252	-422.490126	-422.481638	-422.480694	-422.523099	32.195	
C	 1.524209204	-0.0616499277	 0.1472094074	-0.262152
O	 0.1062127162	-0.0131044482	 0.0756060393	-0.287895
C	-0.4674159036	 0.7257668879	 1.0795640599	 0.392594
C	-0.7134472977	 0.1533711937	 2.4878313298	-0.132917
C	-0.9406245484	 1.3325796751	 3.4329649642	-0.242428
C	-1.6667672352	 2.0002228901	 2.2344541756	-0.103706
C	-1.8735550547	 0.5631500896	 1.5947307584	-0.18896
C	-0.5359135797	 2.2522352593	 1.1882677705	 0.088227
O	-0.9487882146	 2.8867287606	 0.0009427767	-0.448324
H	 1.8607222102	-0.5040406368	 1.0946271839	 0.112227
H	 1.8623044352	-0.6846124461	-0.683322318	 0.129165
H	 1.9662007625	 0.9384399402	 0.0472969536	 0.122652
H	-0.3998637011	-0.8581631545	 2.7156385838	 0.091139
H	-1.6294283188	 1.0734494531	 4.2423780166	 0.102647
H	-0.0705624449	 1.8563732594	 3.8472047616	 0.089299
H	-2.4342592644	 2.7595713326	 2.366214026	 0.078697
H	-2.725275707	 0.0069734386	 1.2323934077	 0.099075
H	 0.3392707926	 2.8087449533	 1.5423452974	 0.076433
H	-1.5407766105	 2.28238732	-0.4629500644	 0.284226
80.2555	162.1321	175.517	219.1659	233.5164	305.4368	380.1757	404.4022	470.0759	537.0842	642.5838	723.4139	809.3299	827.5562	834.7262	896.728	922.7836	943.5386	971.6937	985.27	1000.0274	1035.1939	1057.5897	1102.741	1124.6269	1143.9641	1159.983	1180.1179	1187.2338	1200.459	1231.0652	1253.9573	1277.9093	1294.1903	1310.587	1391.9442	1444.0346	1486.1359	1492.9804	1501.6378	1505.5592	3000.4676	3025.8868	3047.9771	3058.5332	3087.0877	3127.0975	3144.5429	3189.7649	3228.2075	3786.0529
COC12C3CC(C13)C2O	CO[C@]12[C@H]3C[C@H]([C@@H]13)[C@@H]2O	
InChI=1S/C7H10O2/c1-9-7-4-2-3(5(4)7)6(7)8/h3-6,8H,2H2,1H3	InChI=1S/C7H10O2/c1-9-7-4-2-3(5(4)7)6(7)8/h3-6,8H,2H2,1H3/t3-,4+,5-,6+,7-/m1/s1
