19
gdb 2243	2.5714159	1.9001153	1.3466707	2.3647	73.91	-0.22402	0.06106	0.28508	984.7374	0.157998	-422.543924	-422.536174	-422.53523	-422.575355	31.752	
O	-1.464982391	-1.1445908036	 1.8148660605	-0.473566
C	-1.909791402	 0.0459610751	 1.2554732377	 0.30259
C	-3.3221707058	 0.3721673193	 0.8028413938	-0.302227
C	-2.9174365418	 1.8888746222	 0.8713329195	-0.046123
C	-2.4313692269	 2.3953729045	-0.5005635529	-0.20533
C	-1.2151843999	 1.4905709776	-0.8304333593	-0.287437
C	-0.8648231825	 0.851675212	 0.5092662689	 0.432548
O	 0.4471210166	 0.4346265764	 0.6900615976	-0.500091
C	-1.6322508349	 1.4995265198	 1.6491378652	-0.250042
H	-1.8055288721	-1.216545017	 2.7131233264	 0.29126
H	-3.6685429049	-0.0215546025	-0.1598430209	 0.093181
H	-4.0558399274	 0.1227076944	 1.5765928327	 0.092066
H	-3.637067672	 2.5393276874	 1.3673155855	 0.070942
H	-3.2166426	 2.3476419966	-1.2613450864	 0.095182
H	-2.1176978221	 3.4413797095	-0.4171228951	 0.099431
H	-1.4469843509	 0.7381537764	-1.5917467219	 0.099977
H	-0.3567657298	 2.0623926775	-1.1941479189	 0.110003
H	 0.406054528	-0.4253061066	 1.1302745084	 0.2886
H	-1.1884854405	 1.946576941	 2.5287013692	 0.089036
193.7029	209.3218	274.8041	302.1125	346.0457	390.6453	403.5804	445.9802	453.9176	582.5215	630.6902	670.9619	729.077	755.6186	824.3539	852.5195	873.5015	914.7596	946.463	967.436	973.5775	1039.4904	1070.5937	1081.3372	1113.4855	1144.3911	1164.3036	1185.8711	1222.5853	1228.494	1259.495	1265.4182	1284.4199	1316.8518	1336.2268	1346.6889	1401.4972	1438.9609	1486.6223	1497.4587	1511.7752	3027.9356	3040.9184	3048.6469	3078.4008	3080.4019	3097.0979	3114.3163	3205.7548	3749.5046	3800.3215
OC12CC3CCC1(O)C23	O[C@]12C[C@@H]3CC[C@@]1(O)[C@H]23	
InChI=1S/C7H10O2/c8-6-2-1-4-3-7(6,9)5(4)6/h4-5,8-9H,1-3H2	InChI=1S/C7H10O2/c8-6-2-1-4-3-7(6,9)5(4)6/h4-5,8-9H,1-3H2/t4-,5+,6+,7-/m0/s1
