19
gdb 2840	3.0512613	1.4387358	1.1357417	1.4857	74.7	-0.23124	0.06231	0.29355	1110.9638	0.156199	-422.510993	-422.502648	-422.501703	-422.543181	33.097	
C	 1.1355071619	 1.2674811658	-0.0112353152	-0.406043
C	 0.931889398	-0.2413844853	 0.0419659656	 0.008349
C	 1.7759217308	-1.0199160233	-0.9747590681	-0.108883
C	 2.9105500128	-1.2189109228	 0.025284303	-0.212239
C	 1.7888336704	-0.9701713079	 1.1196039193	-0.115517
C	 1.3841281897	-2.465024933	 0.9769230179	 0.072802
O	 2.0614291095	-3.3609368101	 1.8412748867	-0.458279
C	 2.0317510931	-2.3983269392	-0.4007114499	 0.36885
O	 2.3073764467	-3.4643772024	-1.2219725857	-0.466039
H	 0.6801020093	 1.7551980648	 0.8574760225	 0.112492
H	 2.2013921427	 1.520081952	-0.0223291022	 0.116721
H	 0.6800481099	 1.6951426177	-0.9110638999	 0.114099
H	-0.1409348452	-0.4763229043	 0.0672899368	 0.064521
H	 1.8724450733	-0.8531785891	-2.0413685846	 0.09278
H	 3.9663587773	-1.0064967141	-0.051398518	 0.094654
H	 1.9379662283	-0.5485018926	 2.1128428679	 0.07203
H	 0.3220795323	-2.7199445026	 1.0590808779	 0.082577
H	 2.9877851937	-3.088034998	 1.8643506875	 0.277528
H	 2.6495152755	-4.1688147856	-0.6573375415	 0.289597
179.6497	194.4023	215.2964	231.4673	255.6577	359.8614	375.6491	400.2238	445.128	455.5329	582.3026	649.496	752.077	805.0655	820.6282	845.2865	874.4883	909.7372	917.3496	928.837	958.7712	1013.0825	1040.3236	1057.5959	1091.593	1120.8276	1131.8974	1154.604	1159.1315	1214.4821	1220.9946	1266.3048	1275.738	1285.2638	1346.1304	1381.91	1408.3711	1427.6732	1466.0042	1495.1935	1498.0027	3008.8045	3026.9562	3058.6549	3093.7005	3098.3894	3126.5553	3185.2274	3228.113	3765.1346	3775.549
CC1C2C3C1C(O)C23O	C[C@H]1[C@H]2[C@H]3[C@@H]1[C@H](O)[C@@]23O	
InChI=1S/C7H10O2/c1-2-3-5-4(2)7(5,9)6(3)8/h2-6,8-9H,1H3	InChI=1S/C7H10O2/c1-2-3-5-4(2)7(5,9)6(3)8/h2-6,8-9H,1H3/t2-,3-,4+,5-,6+,7-/m1/s1
