19
gdb 4410	3.0104841	1.5373433	1.2060052	1.6425	74.92	-0.2408	0.07636	0.31716	1064.3354	0.156216	-422.466982	-422.458958	-422.458014	-422.499636	30.665	
C	-0.0259607487	 0.0692097288	 0.0021982677	-0.403238
C	 1.4774194961	-0.0931129304	 0.0945170044	 0.066383
O	 1.8872225547	-0.9058528551	 1.2309958275	-0.299254
C	 2.6260753388	-1.8192622278	 0.3980079112	-0.181282
C	 2.1832522899	-1.0658989968	-0.8626277452	 0.36136
C	 3.0353903116	-0.6406290055	-2.0754732148	-0.029056
C	 2.9600726157	-2.0836146656	-2.6267205718	-0.237426
C	 1.5544372186	-1.6479655351	-2.1488008088	-0.023416
O	 1.7733512182	-0.3288077758	-2.7960895905	-0.320113
H	-0.4030126706	 0.6092414104	 0.8761414308	 0.123723
H	-0.2835675539	 0.6338359462	-0.8987123187	 0.13412
H	-0.522381265	-0.9053677593	-0.0367077734	 0.112175
H	 1.9632091761	 0.8920640274	 0.1380804023	 0.076959
H	 3.7041326236	-1.7933919324	 0.6080107623	 0.101406
H	 2.2720533111	-2.8532322542	 0.500891323	 0.10388
H	 3.8426081771	 0.0905676025	-2.1338893152	 0.098267
H	 3.0712258838	-2.170281826	-3.7079722876	 0.112161
H	 3.4735244638	-2.8767136722	-2.0765839457	 0.103191
H	 0.5875449088	-2.1284936991	-2.2992453574	 0.10016
72.1331	159.7263	185.5755	235.9686	267.0633	341.2841	441.7448	467.9394	558.7717	646.387	742.1709	787.0788	795.4839	872.9188	875.3206	880.3096	921.2904	993.486	1017.8007	1025.4307	1028.5307	1071.9561	1090.7537	1103.275	1121.9654	1150.9316	1170.0019	1173.1054	1180.2193	1207.9228	1215.6601	1269.6844	1285.2522	1323.6264	1374.318	1391.5368	1399.867	1484.7517	1486.1075	1493.7272	1520.9747	2996.119	3004.0141	3037.9435	3039.5676	3062.4025	3110.8406	3113.5788	3120.3457	3121.1654	3148.894
CC1OCC11C2CC1O2	C[C@H]1OC[C@@]21[C@H]1C[C@@H]2O1	
InChI=1S/C7H10O2/c1-4-7(3-8-4)5-2-6(7)9-5/h4-6H,2-3H2,1H3	InChI=1S/C7H10O2/c1-4-7(3-8-4)5-2-6(7)9-5/h4-6H,2-3H2,1H3/t4-,5-,6+,7-/m1/s1
