19
gdb 3500	2.9674789	1.0108858	0.7993758	2.6582	77.45	-0.24754	-0.02157	0.22597	1401.6492	0.156001	-422.579864	-422.570735	-422.569791	-422.614888	32.918	
O	-1.0012638374	 3.9931195785	-2.1375176909	-0.43482
C	-1.7628667501	 2.8438763935	-1.7973782494	 0.092146
C	-3.1710833198	 3.1171610095	-1.3237018577	-0.127602
C	-3.4976643667	 2.3666590977	-0.272870792	-0.066248
C	-2.3731092727	 1.4484596625	 0.1446291397	-0.275118
C	-1.1548537511	 2.0171345417	-0.6274541037	-0.00299
C	-0.1117205629	 0.9867821751	-1.0810544887	-0.304579
C	 0.6138819519	 0.3610541252	 0.0864266497	 0.16204
O	 0.6413895745	-0.815933878	 0.3388172905	-0.241996
H	-1.06310772	 4.608998963	-1.3983437526	 0.2755
H	-1.7751708888	 2.2530153566	-2.7237467839	 0.095663
H	-3.8172843088	 3.8203349497	-1.8371540028	 0.103069
H	-4.464929777	 2.3613728563	 0.2180179855	 0.102124
H	-2.2187882567	 1.4215448556	 1.2293467148	 0.11119
H	-2.5846732662	 0.413014033	-0.1576112796	 0.122721
H	-0.6565705895	 2.7502764289	 0.022589931	 0.072403
H	-0.5679034575	 0.1919828215	-1.6795745839	 0.118424
H	 0.6342209695	 1.5065847982	-1.6997661048	 0.129407
H	 1.1411644093	 1.0977216015	 0.7397516189	 0.068667
47.7128	73.9776	90.1049	171.3593	259.0974	279.9281	350.8979	404.144	449.1048	494.9461	555.3685	595.5939	740.2314	771.1722	807.1696	874.2066	931.8707	953.3763	970.2704	983.568	1035.8881	1068.1666	1077.0069	1098.7215	1120.4379	1144.9351	1172.4918	1208.2321	1250.2442	1269.1918	1302.2023	1317.772	1328.5842	1367.3718	1381.032	1426.2346	1429.5499	1463.229	1488.8796	1682.38	1834.5556	2841.6398	3001.5261	3012.6136	3013.8451	3017.9449	3056.6764	3092.2168	3182.7587	3208.519	3792.2006
OC1C=CCC1CC=O	O[C@@H]1C=CC[C@H]1CC=O	
InChI=1S/C7H10O2/c8-5-4-6-2-1-3-7(6)9/h1,3,5-7,9H,2,4H2	InChI=1S/C7H10O2/c8-5-4-6-2-1-3-7(6)9/h1,3,5-7,9H,2,4H2/t6-,7+/m0/s1
