19
gdb 785	2.4693905	1.4707354	1.072182	1.8848	76.04	-0.24572	-0.01927	0.22644999999999998	1157.4897	0.15618	-422.535563	-422.526781	-422.525836	-422.569629	31.876	
O	 0.6993759589	-0.9343241798	-0.6109212421	-0.275971
C	 0.2816134842	 0.0626137041	-0.0704285813	 0.109227
C	-0.6664091852	 1.013934837	-0.6890964788	 0.222689
C	-1.6545502105	 1.6924960033	 0.2530080391	-0.3036
C	-0.5113677826	 2.4781220767	-0.29001817	-0.307659
C	-1.0810612887	 0.6791321383	-2.1036588114	 0.07258
C	-2.0966681311	-0.4628536438	-2.3310454145	-0.278973
C	-2.9254290677	 0.6144355173	-3.0552369769	-0.069897
O	-1.9966779535	 1.652833849	-2.6601783334	-0.305168
H	 0.5965059519	 0.3326141081	 0.9654157975	 0.068741
H	-2.635497025	 1.8857572683	-0.1641989721	 0.138955
H	-1.6411220041	 1.3988282079	 1.2971905855	 0.12073
H	-0.7222947795	 3.1953165659	-1.074188053	 0.150677
H	 0.3097389887	 2.7367392781	 0.3702189794	 0.122366
H	-0.1834023113	 0.5854939699	-2.727931027	 0.090491
H	-1.746082811	-1.3022154389	-2.9305927014	 0.121574
H	-2.5497666741	-0.8373608537	-1.4115938454	 0.111963
H	-2.9689245965	 0.5116621691	-4.1466048006	 0.105783
H	-3.9352575329	 0.8055992232	-2.6755421235	 0.105494
64.0412	90.7307	144.7782	161.274	234.6847	256.2464	325.8249	424.8245	474.2415	595.0107	670.4482	785.7316	789.9608	838.2801	854.1614	926.0058	936.2249	944.0554	956.2029	1019.0948	1032.5322	1051.4501	1066.7581	1083.0121	1093.1868	1114.3363	1169.5342	1201.2054	1213.6503	1255.1522	1264.3915	1300.7048	1327.8013	1357.2893	1401.5869	1440.1836	1451.7954	1486.6848	1490.4979	1530.9788	1804.3176	2852.0564	3018.1754	3025.2326	3063.7077	3088.3952	3138.8203	3139.9545	3148.3295	3227.2451	3239.8994
O=CC1(CC1)C1CCO1	O=CC1(CC1)[C@H]1CCO1	
InChI=1S/C7H10O2/c8-5-7(2-3-7)6-1-4-9-6/h5-6H,1-4H2	InChI=1S/C7H10O2/c8-5-7(2-3-7)6-1-4-9-6/h5-6H,1-4H2/t6-/m1/s1
