19
gdb 3102	3.4282739	1.0740811	0.9588589	2.406	76.35	-0.24034	0.08191	0.32225	1288.9809	0.156033	-422.46015	-422.451874	-422.45093	-422.493331	31.184	
C	 5.8936548314	-0.2366111608	 0.584577762	-0.444277
C	 5.4908911847	-0.0930696545	-0.8731893199	 0.046439
C	 5.0284526447	-1.27961351	-1.7679822397	 0.014478
O	 4.454299325	-0.2852187981	-2.7075301622	-0.314809
C	 4.0294262239	 0.1476926769	-1.3534268377	 0.008789
C	 3.6580432946	-1.3275619693	-1.0314427674	-0.00406
C	 2.4916419114	-1.9430959148	-1.7421595677	 0.055029
C	 1.2611595215	-2.3000850476	-1.0226931307	-0.187113
O	 2.2032272782	-3.3053036627	-1.3916951621	-0.240909
H	 6.9013561711	-0.6591043454	 0.6584749793	 0.127452
H	 5.9156678073	 0.7447692801	 1.070377813	 0.125366
H	 5.2233797422	-0.8780340553	 1.1618148206	 0.124952
H	 6.1811797077	 0.5522936898	-1.4226919088	 0.087824
H	 5.6073335816	-2.0979580113	-2.1972612572	 0.09831
H	 3.4132017671	 1.0456348979	-1.2872627916	 0.092765
H	 3.6756316597	-1.62814394	 0.0183151103	 0.075554
H	 2.4257250992	-1.7275707226	-2.8057792536	 0.111161
H	 1.1845044985	-2.100718291	 0.0461872636	 0.107435
H	 0.3120720802	-2.3252754513	-1.5566234602	 0.115615
78.4577	147.9381	153.8853	179.4736	302.34	306.0155	365.7781	467.9259	570.2837	599.5373	750.1738	793.526	803.8149	850.8695	864.7124	877.7682	884.2259	929.7062	994.3612	1031.9794	1043.2053	1097.9159	1106.1067	1116.3614	1128.0504	1150.718	1155.3783	1178.6739	1179.4333	1199.2649	1227.6985	1258.3433	1265.0996	1280.4521	1330.7342	1389.051	1416.6793	1462.3454	1494.2231	1500.8902	1528.7062	3038.2751	3076.7235	3080.5395	3089.5156	3097.361	3107.5968	3118.4617	3121.7434	3148.4302	3164.8196
CC1C2OC1C2C1CO1	C[C@H]1[C@@H]2O[C@H]1[C@H]2[C@@H]1CO1	
InChI=1S/C7H10O2/c1-3-6-5(4-2-8-4)7(3)9-6/h3-7H,2H2,1H3	InChI=1S/C7H10O2/c1-3-6-5(4-2-8-4)7(3)9-6/h3-7H,2H2,1H3/t3-,4-,5-,6-,7+/m0/s1
