19
gdb 1522	2.5037744	1.4867112	1.1470114	1.401	78.13	-0.24187	-0.02918	0.21269	1136.7905	0.154106	-422.541238	-422.531947	-422.531003	-422.574948	34.362	
C	 0.1904367821	 2.8469871616	-1.1541597459	-0.46102
C	-1.0971066462	 2.3352109705	-0.5365014029	 0.24068
C	-2.3650884227	 2.6265234212	-1.3147848792	-0.446475
C	-1.1921360935	 2.2813791911	 0.9724080776	-0.391064
C	-1.0437818126	 1.0051204109	 0.1883692787	 0.297467
O	-2.0671218563	 0.0038967122	 0.102331155	-0.316964
C	-1.1011990139	-1.0751198061	 0.1053991878	-0.18985
C	 0.0286658048	-0.0368151223	 0.2237834594	 0.281438
O	 1.2217743363	-0.053510326	 0.3084620347	-0.302151
H	 1.0667802991	 2.5100406891	-0.5943794424	 0.143517
H	 0.2968593844	 2.4938038949	-2.1857091237	 0.119959
H	 0.1943856621	 3.9430542482	-1.1738260953	 0.118225
H	-3.2372254137	 2.158645961	-0.8522743367	 0.134902
H	-2.539026645	 3.7069616442	-1.3703002394	 0.119849
H	-2.2873120143	 2.2462573753	-2.3390468707	 0.121334
H	-0.3434020664	 2.6002023626	 1.5696380307	 0.129482
H	-2.1654181165	 2.43778754	 1.4265122611	 0.130109
H	-1.2186361579	-1.7442307762	 0.9650749374	 0.135863
H	-1.1107195199	-1.6545467023	-0.8249152359	 0.1347
109.433	117.8484	144.7079	197.4852	226.1422	255.8362	307.7093	345.1511	377.1875	450.3276	504.4633	550.5936	619.744	702.6743	734.0413	854.1242	870.4074	913.2897	979.1728	990.0408	1003.5549	1012.6926	1016.6941	1041.2697	1056.1909	1136.8919	1146.2702	1172.8181	1216.435	1282.1087	1306.6461	1387.2749	1411.2364	1425.5097	1462.6434	1480.938	1482.7465	1491.2403	1500.9585	1513.5822	1903.7092	3027.3339	3032.7339	3033.3253	3086.4938	3088.1827	3093.1575	3118.422	3122.9076	3125.5177	3216.8828
CC1(C)CC11OCC1=O	CC1(C)C[C@]21OCC2=O	
InChI=1S/C7H10O2/c1-6(2)4-7(6)5(8)3-9-7/h3-4H2,1-2H3	InChI=1S/C7H10O2/c1-6(2)4-7(6)5(8)3-9-7/h3-4H2,1-2H3/t7-/m0/s1
