19
gdb 3155	2.5846005	1.7709094	1.234777	2.5419	73.77	-0.25028	0.07867	0.32895	1041.9931	0.157318	-422.549101	-422.541101	-422.540156	-422.581091	31.786	
C	-2.8060708227	 1.4578385153	 3.5472048957	-0.483704
C	-2.0924502926	 1.1895386048	 2.2507590885	 0.428383
O	-0.8042753354	 1.8315665402	 2.0994163397	-0.315827
C	-0.8600711759	 0.3935623304	 2.1173971685	-0.083598
C	-0.7118792992	-0.1604830723	 0.6971507006	 0.113476
O	 0.4222107554	 0.3857667804	 0.0515710221	-0.439514
C	-2.0256912576	 0.2392178108	 0.0173158531	-0.071789
C	-3.3103758091	-0.2953228707	 0.5971339686	-0.30374
C	-2.8482563438	 1.0970400129	 0.9542389967	-0.116337
H	-3.5954280537	 0.7174640251	 3.7116005747	 0.127639
H	-2.1093764355	 1.4271479383	 4.3882659831	 0.130907
H	-3.2746737919	 2.4477500321	 3.5285487189	 0.129785
H	-0.3610381124	-0.0780114677	 2.9603057992	 0.094955
H	-0.5648624597	-1.2459753385	 0.7015549561	 0.085862
H	 0.4048740135	 1.3298016663	 0.2595310955	 0.288946
H	-1.9765391876	 0.4499075639	-1.0443387429	 0.096173
H	-4.1598484103	-0.387045714	-0.0704985376	 0.117257
H	-3.2577684146	-1.0698520578	 1.3575671053	 0.110005
H	-3.4115386969	 1.9566749506	 0.6072189042	 0.091123
141.4261	193.9071	201.4598	266.3268	289.2697	371.2119	422.7215	468.227	503.269	567.1566	579.3824	710.2963	772.1224	813.6256	832.3447	850.6161	887.1643	919.8683	953.929	999.7696	1032.8741	1050.7223	1058.5612	1071.218	1096.1354	1104.6401	1114.0029	1125.609	1185.9613	1235.0883	1267.095	1286.9104	1308.4132	1345.1244	1378.9315	1410.1172	1439.9039	1442.4872	1482.6032	1489.6507	1496.659	3038.6896	3054.8384	3101.8262	3120.7251	3126.6939	3146.935	3166.6058	3185.9132	3210.4952	3758.3916
CC12OC1C(O)C1CC21	C[C@@]12O[C@@H]1[C@H](O)[C@H]1C[C@@H]21	
InChI=1S/C7H10O2/c1-7-4-2-3(4)5(8)6(7)9-7/h3-6,8H,2H2,1H3	InChI=1S/C7H10O2/c1-7-4-2-3(4)5(8)6(7)9-7/h3-6,8H,2H2,1H3/t3-,4+,5+,6+,7-/m0/s1
