19
gdb 5564	5.0246039	0.9364504	0.894174	0.7049	77.23	-0.21755	0.07216	0.28971	1366.2156	0.154887	-422.468935	-422.460261	-422.459316	-422.502322	32.49	
C	 1.4722514007	 0.0276856634	 0.0008273135	-0.235605
O	 0.059557289	 0.0470269881	 0.1032336315	-0.246678
C	-0.390424424	 0.6915678059	 1.2485937981	 0.074728
C	-0.5459073266	-0.1554856297	 2.4848799819	 0.043295
O	-0.9344346061	 0.6504059358	 3.6024504969	-0.315266
C	-2.1576023659	 0.9967330051	 2.9175561035	 0.47268
C	-2.8327419697	 2.3093898247	 3.1230664043	-0.335504
C	-3.4614926794	 1.0173805488	 3.637932063	-0.345121
C	-1.7664295147	 0.2369116619	 1.677546431	-0.272029
H	 1.9350834056	-0.4917788051	 0.8512992343	 0.111778
H	 1.7186784827	-0.5011800592	-0.9224684021	 0.129476
H	 1.8844863349	 1.046100426	-0.0495669774	 0.11192
H	-0.0930958505	 1.7380899806	 1.3559866899	 0.092294
H	-0.0622765531	-1.1079050912	 2.6649540099	 0.110724
H	-2.3980805813	 2.9755282124	 3.8602933997	 0.126936
H	-3.2805647721	 2.8049257025	 2.2681154182	 0.119555
H	-3.4339083529	 0.840287181	 4.707564751	 0.127263
H	-4.3387171541	 0.628120043	 3.1313050148	 0.117283
H	-2.4087373325	-0.3481638538	 1.0339876182	 0.112272
80.8562	133.9938	157.1214	187.8027	246.9765	291.226	333.725	409.8728	497.5675	508.2128	593.7101	754.3572	800.8447	856.9575	872.669	897.4677	917.5763	951.6159	969.3932	983.6187	1019.6965	1040.8194	1047.2033	1053.1713	1068.8633	1099.1425	1155.6225	1169.9628	1182.4794	1184.4646	1186.719	1234.858	1257.9534	1288.7521	1396.0454	1408.3647	1447.6193	1482.7111	1485.2782	1505.2724	1507.5781	2989.977	3042.9907	3067.6411	3122.8605	3129.3516	3133.053	3186.386	3212.7031	3213.9723	3227.8016
COC1C2OC3(CC3)C12	CO[C@@H]1[C@H]2OC3(CC3)[C@@H]12	
InChI=1S/C7H10O2/c1-8-5-4-6(5)9-7(4)2-3-7/h4-6H,2-3H2,1H3	InChI=1S/C7H10O2/c1-8-5-4-6(5)9-7(4)2-3-7/h4-6H,2-3H2,1H3/t4-,5-,6-/m0/s1
