19
gdb 2619	2.4028605	1.7069118	1.1567091	2.3746	74.92	-0.25025	-0.0291	0.22114999999999996	1083.3481	0.156252	-422.579075	-422.57042	-422.569476	-422.612524	33.065	
C	-3.3630965161	-1.5682418311	 0.4923768376	-0.467898
C	-2.2675696006	-0.8038656673	-0.2100033372	 0.30817
C	-2.56531651	 0.0091372894	-1.4431841382	-0.327099
C	-2.1721333138	 0.7246912811	-0.1754906798	-0.084324
C	-0.71955343	 1.1507013718	-0.019571706	-0.354254
C	 0.0255963522	-0.1534304082	 0.2581620119	 0.37464
O	 1.0737956427	-0.2851264861	 0.8387424987	-0.318982
C	-0.8402566705	-1.362139515	-0.1562510064	-0.018314
O	-0.6768648359	-2.4084714275	 0.7693472897	-0.440048
H	-3.1015964837	-1.7597629642	 1.5360426934	 0.1323
H	-4.3005842912	-1.0037301063	 0.4657641965	 0.107961
H	-3.5394142194	-2.5380597928	 0.0147540688	 0.125422
H	-1.8557396754	-0.0085361997	-2.2678826065	 0.10521
H	-3.6020334512	 0.0768118794	-1.7565795156	 0.114768
H	-2.9290826856	 1.3010996854	 0.3443639397	 0.092621
H	-0.3055215332	 1.6381148269	-0.9114794688	 0.132601
H	-0.5578600429	 1.8336344554	 0.8189582297	 0.138054
H	-0.515195606	-1.6873711134	-1.1612596655	 0.086679
H	 0.1988977507	-2.274787388	 1.1612094579	 0.292491
38.0546	173.6026	201.4501	261.4265	275.3013	324.234	384.4089	411.2702	437.5513	480.7254	518.2701	633.0437	644.1616	755.3883	775.2687	827.2401	875.8734	891.8926	937.5277	982.1162	1027.0266	1041.3297	1064.6351	1105.5651	1111.4659	1126.5525	1171.4854	1191.5238	1242.389	1264.434	1279.3962	1308.9537	1353.4508	1384.14	1416.0683	1421.1134	1451.5701	1482.4609	1489.4822	1502.2862	1833.7815	2929.1826	3032.91	3035.2983	3096.5982	3097.8002	3105.2183	3118.9382	3170.2549	3196.801	3721.9164	38.0536	173.6022	201.4498	261.4264	275.3012	324.2338	384.4088	411.2702	437.5512	480.7254	518.2701	633.0438	644.1616	755.3883	775.2686	827.2399	875.8735	891.8925	937.5276	982.1163	1027.0266	1041.3299	1064.6351	1105.5651	1111.466	1126.5526	1171.4854	1191.5239	1242.3889	1264.4341	1279.3964	1308.9539	1353.4507	1384.1401	1416.0684	1421.1135	1451.5702	1482.4612	1489.4823	1502.2864	1833.7814	2929.1826	3032.91	3035.2983	3096.5982	3097.8001	3105.2182	3118.9381	3170.2549	3196.801	3721.9162
CC12CC1CC(=O)C2O	C[C@@]12C[C@@H]1CC(=O)[C@H]2O	
InChI=1S/C7H10O2/c1-7-3-4(7)2-5(8)6(7)9/h4,6,9H,2-3H2,1H3	InChI=1S/C7H10O2/c1-7-3-4(7)2-5(8)6(7)9/h4,6,9H,2-3H2,1H3/t4-,6+,7+/m0/s1
