19
gdb 3365	2.2892981	1.6742159	1.1793576	2.6121	75.62	-0.24533	-0.02582	0.21950999999999998	1098.0982	0.155646	-422.550399	-422.541393	-422.540449	-422.584015	33.448	
C	-1.1548779338	-2.3360855309	-1.0502613379	-0.490093
C	-1.1948449592	-1.1336962338	-0.1348997529	 0.214798
C	-1.7191581017	-1.3515897789	 1.3276769564	-0.287879
C	-2.8882913481	-0.354662755	 1.0831343618	-0.223848
C	-2.2152897169	 0.101231106	-0.2246201635	-0.103355
C	-1.0250630779	 1.1006576139	-0.0038659435	 0.057022
O	-0.8643163995	 2.1613761985	-0.9028413447	-0.445739
C	-0.0993157837	-0.0943185386	-0.2860540259	 0.305513
O	 0.9548598786	-0.1008921423	-0.8679399084	-0.328787
H	-0.3894964906	-3.0458322156	-0.7171917979	 0.132751
H	-2.1173791813	-2.8583411967	-1.0538411296	 0.118606
H	-0.9134659473	-2.0476553215	-2.0775490535	 0.130215
H	-2.0183256448	-2.3832198083	 1.5247870361	 0.114463
H	-1.0147281883	-1.0497415409	 2.1068708499	 0.112696
H	-3.8354844609	-0.8705837264	 0.9076415578	 0.109642
H	-3.0519679575	 0.4199504029	 1.8381068257	 0.104842
H	-2.7984267843	 0.3105117665	-1.1206410882	 0.089525
H	-1.0010188842	 1.4692922982	 1.0311484205	 0.09348
H	-0.0498871885	 1.9849521329	-1.3930541221	 0.296148
61.2858	153.6719	193.6995	207.8116	250.6267	272.6247	281.104	330.1978	381.3185	463.3954	550.5518	665.8717	725.4273	765.8878	812.5618	829.6924	895.2464	918.4796	956.8445	978.1676	995.7667	1013.7944	1067.955	1083.9887	1145.5262	1155.5657	1191.9416	1210.0461	1225.2647	1248.8022	1270.5349	1285.328	1331.1132	1355.4008	1398.11	1409.592	1477.9316	1486.8161	1489.9201	1494.709	1841.3398	3003.0527	3031.5203	3054.2508	3064.764	3096.7307	3100.1224	3110.1172	3119.9756	3126.835	3751.8159
CC12CCC1C(O)C2=O	C[C@]12CC[C@H]1[C@H](O)C2=O	
InChI=1S/C7H10O2/c1-7-3-2-4(7)5(8)6(7)9/h4-5,8H,2-3H2,1H3	InChI=1S/C7H10O2/c1-7-3-2-4(7)5(8)6(7)9/h4-5,8H,2-3H2,1H3/t4-,5-,7-/m0/s1
