19
gdb 464	4.3605946	1.0051644	0.901084	1.4606	75.42	-0.24435	0.06919	0.31354000000000004	1301.8541	0.157282	-422.491347	-422.48337	-422.482426	-422.524728	29.698	
C	 2.771024455	-1.5688115583	-1.3601243451	-0.187973
O	 1.6279866713	-1.7800991929	-2.1913533324	-0.241501
C	 1.6981968536	-0.5688966358	-1.4337450745	 0.076753
C	 0.683476767	-0.3943256527	-0.3396945786	-0.004026
C	 0.905604957	 0.8684507285	 0.5606189443	-0.26951
C	-0.4958045119	 1.3826216649	 0.1727579673	 0.125398
O	-1.5357057681	 0.8889706741	 1.0427220701	-0.294329
C	-1.8661391537	-0.1789491616	 0.1218409467	-0.086639
C	-0.6926793287	 0.1836498031	-0.7986130126	-0.092005
H	 2.8392294875	-2.2164531838	-0.4867020828	 0.113503
H	 3.7093957315	-1.4005572814	-1.8868654352	 0.115412
H	 1.8804156776	 0.3193344732	-2.0441927078	 0.089555
H	 0.5899324257	-1.3364068153	 0.2086571294	 0.077842
H	 1.0475303587	 0.6923309295	 1.628565119	 0.114432
H	 1.7142300514	 1.5095328208	 0.1937489774	 0.100406
H	-0.626523037	 2.4405874409	-0.070719959	 0.075754
H	-1.8363545347	-1.1677586165	 0.5970079867	 0.101963
H	-2.8581560544	-0.0258936793	-0.3225303592	 0.101588
H	-0.8743497276	 0.2610671526	-1.8699123437	 0.083376
66.8525	73.2375	164.4401	223.5738	303.1043	391.2068	401.6925	472.102	686.448	775.1407	817.0613	825.9867	862.2998	885.2129	910.9694	935.1314	970.5154	982.3718	993.634	1028.9376	1050.7764	1064.6901	1104.2257	1122.4702	1153.0092	1156.6684	1171.1282	1178.4789	1199.8445	1233.0263	1249.3115	1261.5365	1272.1126	1296.813	1308.7241	1334.4235	1362.6241	1452.3365	1462.8511	1523.3831	1530.26	3006.5199	3048.0626	3050.1129	3059.7421	3070.3198	3078.0324	3082.4757	3119.7229	3120.6359	3167.6198
C1OC1C1CC2OCC12	C1O[C@H]1[C@H]1C[C@@H]2OC[C@H]12	
InChI=1S/C7H10O2/c1-4(7-3-9-7)5-2-8-6(1)5/h4-7H,1-3H2	InChI=1S/C7H10O2/c1-4(7-3-9-7)5-2-8-6(1)5/h4-7H,1-3H2/t4-,5+,6-,7+/m0/s1
