# b3lyp 6-31G(2df,p) opt Freq 

 titel

0 1
C 0.9336964392 -0.7720986744 -0.676057595
C 1.0285059156 0.2360037936 0.4718609077
C 1.7536457048 1.5097290677 0.0629546803
O 1.7963977268 2.3831552361 1.1784898034
C 2.4535865173 3.5949741471 0.8903228419
C 2.4710153622 4.4545601699 2.0635190799
C 2.50659985 5.1974754762 3.0145335977
C 2.5239449911 6.0482235415 4.1754942173
O 3.0239673715 7.1491588588 4.2114426709
H 0.4094232605 -1.6776794467 -0.3586730392
H 0.38885394 -0.3554707818 -1.5303569974
H 1.9268370549 -1.0703498103 -1.029577683
H 0.0276400398 0.5052962356 0.8273416759
H 1.5560422971 -0.2050724165 1.3249580676
H 2.7776098644 1.2788120425 -0.2786219715
H 1.2344110158 1.9960724736 -0.7810619962
H 3.4930571052 3.4155786465 0.56216029
H 1.9562771418 4.1299729825 0.0615678959
H 2.028960602 5.6056874381 5.063703564

