# b3lyp 6-31G(2df,p) opt Freq 

 titel

0 1
C -4.2529248404 -1.1620404617 -1.5614728862
C -2.821600961 -0.6891368061 -1.3972060944
O -2.7234264958 0.7590835018 -1.3464758396
C -2.2133197751 0.7379877516 0.0038776423
C -0.7801459845 1.2423630849 0.0923391368
C 0.0983809576 0.0303097988 -0.2439556214
O 1.2316228506 0.0645235468 -0.6425127715
C -0.7144024172 -1.2452853495 0.0369190504
C -2.1838906402 -0.8241559188 0.0062036276
H -4.8816356251 -0.8015076645 -0.7410460292
H -4.6698526402 -0.7883381706 -2.5015962116
H -4.2957149537 -2.2568692009 -1.5782864586
H -2.1960604166 -1.0852424954 -2.2095089631
H -2.8987648889 1.2356492271 0.697282766
H -0.5790353975 2.0807219698 -0.5777434118
H -0.5360299388 1.5617861896 1.1146841786
H -0.4517762966 -2.0313485507 -0.6759363411
H -0.4223673106 -1.6044202391 1.0323001463
H -2.8047897762 -1.3335757628 0.7437007804

