# b3lyp 6-31G(2df,p) opt Freq 

 titel

0 1
C -3.6235799264 -1.2030452504 -1.5994177501
O -3.5778726177 -1.2456053142 -0.187274104
C -2.9341152778 -0.1248819216 0.4040889397
C -3.1980056705 -0.2275467697 1.9166525235
C -4.6684395138 -0.104993626 2.2628578691
O -5.0852475137 0.4876338818 3.2253388859
C -1.4975565634 -0.0752687652 0.1117062151
C -0.3148617616 -0.0409733672 -0.1139015887
C 1.114596037 0.0026445914 -0.3846559501
H -4.1671678742 -0.3155451534 -1.9583762946
H -2.6165293644 -1.1972794515 -2.0366730117
H -4.1532826541 -2.1003072674 -1.9265517094
H -3.3995103614 0.8006021201 0.0197728994
H -2.8524672643 -1.2178219078 2.2410012606
H -2.6343967774 0.5278602979 2.4680185029
H -5.3538739808 -0.6202905848 1.5570022282
H 1.6566480939 0.474949775 0.4418133205
H 1.5225407459 -1.0055382659 -0.5146311612
H 1.3327418548 0.5717780287 -1.2947247753

