# b3lyp 6-31G(2df,p) opt Freq 

 titel

0 1
C 0.3300533937 1.8071677239 5.5470074078
C -0.3379167867 1.5176670218 4.2196664962
O -0.4100765643 0.0715416615 3.9679865036
C 0.464391059 0.2224997766 2.8634770557
C 0.5371348341 1.7038405577 2.97944498
C -0.1737211072 1.0872160816 1.7767291471
C 0.581229546 1.1244299104 0.4945544697
C -0.2462658473 1.074709194 -0.7754376333
O 1.7961922964 1.1717039765 0.4745071578
H -0.2622694173 1.3872804383 6.3651618169
H 1.3315621158 1.3691400767 5.581267229
H 0.4141690681 2.8885086114 5.7010277238
H -1.338731688 1.9646483583 4.1735017923
H 1.1983686352 -0.5433409144 2.6464422351
H 1.3736025174 2.3762915905 2.8511369605
H -1.2588288423 1.1082963498 1.7277598601
H -0.9170499125 1.940465048 -0.8231974153
H 0.4103970654 1.0697255455 -1.6459826265
H -0.8810774557 0.1813187719 -0.7821097005

