# b3lyp 6-31G(2df,p) opt Freq 

 titel

0 1
O 0.493069839 0.7236682599 -0.0373282449
C -0.7497757656 0.7191553503 0.6582098584
C -1.3532193972 2.1337534773 0.8293802375
C -2.2172223075 2.3702483202 -0.4070578012
C -1.6199361018 2.0618189798 -1.7546407025
C -2.4803162315 1.0283180151 -1.060866091
C -1.7729867215 -0.0023875142 -0.2296611696
C -2.4342185937 -1.2401383058 0.206872782
O -1.4056108955 -1.2599154684 -0.7853552906
H 1.118335353 1.2335731398 0.4876034468
H -0.6325935504 0.2080753977 1.623228632
H -1.9826596717 2.1578470068 1.7269657698
H -0.5666791055 2.8860257912 0.9638303641
H -2.9997584606 3.1181285176 -0.3458244391
H -2.0650468733 2.5553886834 -2.6118934123
H -0.5554339789 1.8787595754 -1.8286614191
H -3.4439917928 0.771527836 -1.4849648516
H -2.1722116524 -1.6910863391 1.163891124
H -3.4380316519 -1.467362333 -0.1518200726

