# b3lyp 6-31G(2df,p) opt Freq 

 titel

0 1
C -2.4196488358 -1.4141482723 0.7704777648
C -0.9551114865 -1.0692933201 0.921697248
C -0.2445146081 -1.4994256511 2.1465334442
O -0.0616924389 -2.2073834273 0.9252109357
C -0.4474680604 0.0933320976 0.1568185046
C -1.143492301 1.0429904423 -0.4665079625
C -0.2129642821 2.0160206303 -1.1291259999
O 1.0970089557 1.5504068009 -0.8211072097
C 1.0263531225 0.3469318782 -0.0639075461
H -2.6507256526 -2.3245884236 1.3278280592
H -3.0518533877 -0.6042943531 1.1485623205
H -2.6697281492 -1.5789959738 -0.2818386531
H 0.6205427221 -0.9444790806 2.5048599448
H -0.8055958585 -2.0268162766 2.9177979974
H -2.2208532321 1.1328895133 -0.5153934371
H -0.356238299 2.050958087 -2.2217981428
H -0.3397465043 3.045376268 -0.7570908148
H 1.5004474446 -0.4811102087 -0.6098667353
H 1.5834200213 0.4743670996 0.877136162

