# b3lyp 6-31G(2df,p) opt Freq 

 titel

0 1
C 1.5643911194 -0.1787735517 0.0981208881
C 0.1160462539 -0.0825042836 -0.0133428621
C -1.0808616339 -0.0040188922 -0.1126624644
C -2.5296332228 0.1118416304 -0.2189678648
C -3.039997157 1.5583274293 -0.1134899241
C -4.5832888646 1.661786873 -0.1519824427
O -4.8312932598 2.7765997169 -0.9918462886
C -3.7825903565 2.7462233042 -1.9254629565
O -2.6219387431 2.3485592822 -1.2278729416
H 1.8634290629 -0.6546014385 1.03875529
H 1.9882275077 -0.7702602544 -0.7210590322
H 2.0310375557 0.8119787305 0.0652621585
H -2.8781671285 -0.3091850159 -1.171152565
H -3.0106800311 -0.4780127742 0.5746866006
H -2.631451944 2.0192897036 0.7928854654
H -5.0255856666 0.7446564206 -0.5742647779
H -5.0331532084 1.8546632287 0.8238805344
H -4.006530002 2.0328701983 -2.740792276
H -3.6380527612 3.7501314828 -2.3351012511

