# b3lyp 6-31G(2df,p) opt Freq 

 titel

0 1
C 1.2632047041 -0.4228439824 1.0470392783
C 0.8377108819 0.155762961 -0.3096748828
C 1.5614529148 -0.4771983408 -1.4538381229
O 3.0008276541 -0.2108079129 -1.5488292391
C 2.8755669113 0.0120297031 -2.9166372247
O 3.7133872904 0.4161181167 -3.6554386705
C 1.4243299536 -0.3684697843 -2.9617939643
C 1.2507175203 -1.7150007644 -2.2202118494
C 2.1710750972 -2.9032456985 -2.3807706984
H 1.0431244427 -1.4933849636 1.1065871129
H 2.3373179769 -0.2897886909 1.2031722003
H 0.7350917888 0.0783582802 1.8629208875
H -0.2381228967 0.0122399362 -0.4636603045
H 1.0225450433 1.2361195354 -0.3308841872
H 0.6613935223 0.0656298258 -3.5921638505
H 0.1919591584 -1.9690999004 -2.1708938534
H 1.9953370912 -3.6308154077 -1.5814235607
H 1.9952040104 -3.4048276949 -3.3371787201
H 3.219893505 -2.6031800374 -2.3355964006

