# b3lyp 6-31G(2df,p) opt Freq 

 titel

0 1
C 1.0661048202 1.0298557274 -0.8731470552
O 0.0799059864 0.2459414375 -0.1982007104
C 1.4404073602 0.1126074562 0.2174094329
C 1.7753506658 0.6681019883 1.6038733951
C 3.1575757469 0.1601798477 2.0250441737
C 4.1268538395 0.0386157633 0.828230179
C 3.4218488204 -1.3282621414 0.6824411409
C 2.1114908389 -1.2251094545 -0.1038399165
O 3.0868484609 -1.2920267916 2.0987010603
H 1.2571059587 0.7495509416 -1.9090039549
H 1.01682034 2.1029054893 -0.6882503129
H 1.7309117519 1.7625698259 1.6043654267
H 1.0414666583 0.3051242845 2.3316283454
H 3.5125990621 0.6052445211 2.9578048668
H 4.0548842355 0.7612943675 0.0128851342
H 5.161997476 -0.0711552705 1.1536787349
H 4.0123142856 -2.2092574317 0.4190696949
H 2.2792869243 -1.3259860383 -1.1815706082
H 1.4591616985 -2.0474210322 0.2095867933

