# b3lyp 6-31G(2df,p) opt Freq 

 titel

0 1
C -1.9175491927 -3.2064559813 -1.1731829736
C -1.5300897063 -1.7357452093 -1.2352086562
O -0.7174508866 -1.4615651665 -2.3627461356
C -2.7066345097 -0.7197910628 -1.182355683
C -2.1207163142 -0.0724758259 0.0946331478
C -1.0608319593 1.0405573528 -0.1595043595
C 0.0383632351 -0.0366066788 -0.0981357306
O 1.2341788928 -0.009930767 -0.154262589
C -0.9763378612 -1.1570920311 0.1287901871
H -2.5744561906 -3.4102322465 -0.3219275071
H -2.4358274383 -3.4948745425 -2.0933162026
H -1.0266630684 -3.8372866822 -1.0672474626
H 0.1199975303 -1.9283744462 -2.2573463974
H -2.7764508332 -0.0757304629 -2.0619662985
H -3.6723842247 -1.2050031411 -1.0215029913
H -2.7930904748 0.089992526 0.935160897
H -1.1316651736 1.5904243842 -1.1022915977
H -0.964233772 1.7631293762 0.6578169356
H -0.7910173525 -1.873160335 0.9306943672

