# b3lyp 6-31G(2df,p) opt Freq 

 titel

0 1
C 1.2766343051 0.7657727237 -0.278503306
C -0.1207693099 0.2061932066 -0.3713100005
C -1.1713263906 1.0426939586 -0.2828012597
C -2.6318371712 0.822752664 -0.3293719378
O -3.3752365395 1.7850202473 -0.4053714918
C -3.2937337513 -0.5586848725 -0.2712916115
O -2.4856475707 -1.6730589983 0.005544602
C -1.4825276243 -1.913557366 -0.9603468008
C -0.1541127869 -1.2899567942 -0.5516659822
H 1.8401618489 0.2655666593 0.5192351429
H 1.8305806617 0.5834967402 -1.2081369278
H 1.2769024185 1.8392790234 -0.0808041433
H -0.9619953212 2.1052425317 -0.1791379934
H -4.0480364975 -0.5103305815 0.5193525309
H -3.8356817266 -0.6846145337 -1.2236448818
H -1.3614147922 -2.9999624054 -1.0381107014
H -1.7968089842 -1.5432428609 -1.9480240308
H 0.171682179 -1.7496674237 0.392894326
H 0.6109907828 -1.5715156485 -1.2891673829

