# b3lyp 6-31G(2df,p) opt Freq 

 titel

0 1
C -0.3081225936 -0.0011560032 -5.7667072666
C 0.6764870688 -0.6905537936 -4.8513822734
O 1.1690870481 -1.7717594389 -5.0861381658
C 1.0437035098 0.0304178469 -3.5790071518
C 0.5723099644 -0.4510254454 -2.1814165209
C 0.7896458287 1.0565335535 -1.9371555694
C 2.320257838 1.228729999 -2.033203421
C 2.5311679653 0.4009506702 -3.3403245481
O 0.3673511803 1.3032017968 -3.3179294877
H -0.4769943587 -0.6090158516 -6.6560626084
H -1.2495019717 0.1744285986 -5.2356468919
H 0.0695552997 0.9892030041 -6.0441856414
H -0.4835695214 -0.7230704064 -2.1787845382
H 1.1809790094 -1.1815934353 -1.6447849296
H 0.2329645114 1.6291737802 -1.1959675357
H 2.5961028349 2.2783029652 -2.1510901265
H 2.8490080081 0.8218062815 -1.1674214586
H 2.9240863244 1.0014991345 -4.1630924918
H 3.158783384 -0.4833337061 -3.2187224831

