# b3lyp 6-31G(2df,p) opt Freq 

 titel

0 1
O 1.4562498563 0.8613049617 0.1756594008
C 0.3649252468 -0.0468545903 0.2468568587
C -0.9199853227 0.6238463151 0.6394605931
C -1.9332225463 1.3850096416 -0.2153694556
C -2.8642283437 1.3154593087 1.0269090279
C -2.1540109197 2.2228919401 2.0776703824
C -1.0733418895 1.1510482421 2.0727606695
O 0.0294381951 1.0389168047 2.9023966701
C -2.0164910112 0.0866106719 1.5540067976
H 1.5694559198 1.2111164976 1.0670255692
H 0.2725848003 -0.4900838788 -0.7506539522
H 0.5772085065 -0.8660092544 0.950610675
H -1.6693695796 2.3787590778 -0.5944591337
H -2.298976704 0.7623001151 -1.0375834232
H -3.9467619408 1.337149005 0.9294257344
H -1.8949387829 3.2445237392 1.77686051
H -2.6991323806 2.2400774704 3.0274582472
H -0.2705589928 0.8984180052 3.8069770789
H -2.259344101 -0.9164487926 1.8740941101

