# b3lyp 6-31G(2df,p) opt Freq 

 titel

0 1
O 0.4144468087 0.3366005519 -0.8175424307
C -0.0731576348 -0.1305547217 0.1782938341
C -0.5031996801 0.6756309005 1.4083691117
C -0.9784931996 2.1030545483 1.0489619517
C -2.5122757304 2.154476296 1.0375876644
C -3.0316016797 1.7274924857 2.441173595
C -2.8044451345 0.27591301 1.948482187
C -3.0713385881 0.7988011845 0.5102966989
O -1.4435340051 -0.1019382659 2.1469742849
H -0.2361260658 -1.2240042965 0.3061730446
H 0.3992462658 0.726564974 2.0348309437
H -0.5909020353 2.8300903827 1.7697448199
H -0.5581030864 2.3516389198 0.0693552681
H -2.8830571852 3.0831791883 0.5995487607
H -2.4667634104 2.0423615716 3.322544812
H -4.093149291 1.9506249875 2.5762760939
H -3.4037358731 -0.5407686019 2.3539463812
H -2.5773459319 0.3073853077 -0.3320692323
H -4.1444485432 0.8509611477 0.3112891512

