# b3lyp 6-31G(2df,p) opt Freq 

 titel

0 1
O 0.6196932394 0.8656677502 0.569639635
C -0.7156900266 0.5365789519 0.8799626596
C -1.1792110389 0.8233003759 2.3502996423
C -1.5092004337 -0.6853175401 2.5425652619
C -1.0239197796 -0.9836475255 1.0928025301
C -2.4225856749 -1.5389569688 0.7432715692
C -3.5188225988 -0.517828286 0.9914836157
C -2.9073418188 -1.2339714633 2.1570310981
O -3.6471366417 -2.0517092243 2.9939272758
H 1.1920744223 0.4424814466 1.2187836693
H -1.3142500288 1.0185883352 0.1033596541
H -0.3406752883 1.1621960563 2.9667777023
H -2.0021151421 1.5327964758 2.4766738446
H -1.0778760214 -1.2049013313 3.3982878334
H -0.1925485356 -1.6624520873 0.8952951723
H -2.609981439 -2.4010099842 0.1147362542
H -3.3856217007 0.5439480656 0.8060409911
H -4.507006559 -0.8879766828 0.7351296617
H -4.295439344 -1.5081034939 3.4553004793

