# b3lyp 6-31G(2df,p) opt Freq 

 titel

0 1
C 1.1321278925 0.187417021 -1.3171274351
O 0.0463244004 0.1094834348 -0.3798214081
C 1.3706773829 0.2594710673 0.1236153342
C 2.0002554733 -0.8490712929 0.9827197189
C 2.5452492862 0.00020815 2.1521413098
C 1.3817985207 0.5146992252 3.0307728968
C 0.7783054337 1.6262401166 2.1186263541
C 1.7176253439 1.5382860931 0.8960281632
O 2.9825959613 1.1944419157 1.4745245226
H 1.3478979578 -0.7354100875 -1.8551037229
H 1.1618661923 1.0927672806 -1.9227312798
H 1.2590719523 -1.5957689474 1.2779271693
H 2.8170836487 -1.3510340385 0.4575194842
H 3.3837918005 -0.4370780319 2.6934531488
H 0.6660110777 -0.2728756755 3.2788741133
H 1.7644773968 0.9305965983 3.9653829725
H -0.2623457817 1.4461028764 1.8427453668
H 0.8485816325 2.6108956898 2.5852905962
H 1.8094036081 2.4414634451 0.2934833353

