# b3lyp 6-31G(2df,p) opt Freq 

 titel

0 1
C 2.5901725476 2.5176098416 0.6776115218
C 3.1011644163 1.1359183171 1.0783265094
O 4.5214237424 1.066578714 1.0035013427
C 2.5788923831 0.0136961581 0.1489278483
C 1.1178652081 -0.0293421744 0.1371389133
C -0.0826204771 -0.084799932 0.1580346267
C 3.1380256519 -1.344811606 0.5584200201
C 4.3920113072 -1.8584405138 0.0089914097
O 3.1289328248 -2.3595307312 -0.4417662256
H 2.9838787071 3.2811468706 1.3584389118
H 2.916686753 2.7632699449 -0.3381218797
H 1.4992849084 2.5600918434 0.7172648459
H 2.7632154949 0.9086965345 2.1028312217
H 4.8796150817 1.8061737048 1.5039478292
H 2.9436513855 0.2274763984 -0.8642945965
H -1.1432722085 -0.1364900378 0.1571282894
H 2.8203450167 -1.682957138 1.5458553376
H 4.9434847476 -1.2551261685 -0.7086876823
H 4.9921800194 -2.5545595658 0.5926688365

