# b3lyp 6-31G(2df,p) opt Freq 

 titel

0 1
C -0.3365067231 -3.5735039295 3.6248329412
C -1.1173694414 -2.5504946463 2.7989691409
O -0.1718713448 -1.6181530514 2.2950526853
C -0.696958032 -0.7030373145 1.3515040497
C 0.4206534204 0.192781727 0.8975264932
C 0.3839394193 0.8486898706 -0.4140195114
O 1.2328554875 -0.2739288326 -0.1808930356
C -2.16950629 -1.8975850853 3.5929270436
C -3.0251982407 -1.3630653181 4.2467884845
H 0.1573602389 -3.0771982685 4.4634996798
H -1.0093777743 -4.3406680796 4.0152925229
H 0.4223472357 -4.0443154703 2.9953563092
H -1.6011138439 -3.0667692573 1.9519578166
H -1.1173422621 -1.2341703582 0.4826160841
H -1.4984358073 -0.0990510571 1.8046451432
H 0.9774923303 0.6693408209 1.7045750509
H -0.455921026 0.6687322956 -1.0847782153
H 0.8879426266 1.8040551605 -0.5520523378
H -3.7834902131 -0.8941188759 4.8241773651

