# b3lyp 6-31G(2df,p) opt Freq 

 titel

0 1
C -4.5049020006 2.1822668949 0.3684487589
C -3.3877227607 1.3325829432 0.8995389878
C -3.3291119882 0.8127667956 2.3146413632
C -3.3584009124 -0.1652464298 1.1622190432
C -2.0229731853 -0.2716870654 0.4024086806
O -1.7887054084 -1.3589057939 -0.4033421902
C -0.9109890003 0.5778494469 0.9376066159
O 0.2570822116 0.3227119123 0.189897256
C -2.0274720222 1.239176183 0.1399325453
H -5.4482682659 1.9483639726 0.8725484145
H -4.3017589721 3.250008804 0.5199505433
H -4.6498129827 2.0220415445 -0.7063614413
H -2.4679591427 0.9291050755 2.9625543225
H -4.2729065279 0.8852897759 2.8493079061
H -4.1494263642 -0.8912286126 1.0237530106
H -0.8618036198 -1.2909695928 -0.6739107227
H -0.710012899 0.7803289987 1.9889226392
H 0.6492276224 1.1632893348 -0.0677609499
H -1.806310782 1.8160918127 -0.7512656231

