# b3lyp 6-31G(2df,p) opt Freq 

 titel

0 1
C -1.142654119 2.3786974614 1.1084787765
C -1.0240576552 1.1595750539 0.2078115454
C -2.1217731978 0.033219829 0.2394766969
C -3.1029558733 0.0431295114 -0.8951383378
O -4.3012839147 0.023686459 -0.786759156
C -0.9923941789 -1.0590265653 0.161072355
C -1.0756169381 -2.3178739499 1.0095442391
C -0.0182978765 0.0562410891 0.5715749845
O 1.031991212 0.0591550597 1.1446629021
H -1.3110385374 2.0832218089 2.1484391269
H -0.2204864999 2.96592355 1.0737618033
H -1.9705895748 3.0228081438 0.7976160123
H -0.8518219989 1.4597619195 -0.836029386
H -2.6513986535 0.0055431803 1.1946509255
H -2.6153364635 0.0711046222 -1.901465414
H -0.8122994736 -1.30996317 -0.8943789153
H -1.8849936869 -2.9717113532 0.6713186394
H -0.1370752215 -2.8765463574 0.9507272653
H -1.2517793286 -2.0713674225 2.0609138671

