# b3lyp 6-31G(2df,p) opt Freq 

 titel

0 1
C 1.3921353037 1.1271285507 -0.0209817739
C 1.0760032364 -0.3686020279 0.0142703061
C 1.6751900724 -1.1730900334 -1.2402687255
O 2.7629159824 -2.0426107922 -0.8096923319
C 3.0758455805 -1.483812061 0.4441371785
C 3.6876814345 -1.9196184393 1.7919780583
O 2.7806745558 -2.6270045022 2.6303091923
C 2.5514030188 -1.2201675246 2.4543975702
C 1.7441672592 -1.2057355958 1.1067189094
H 0.9429082509 1.6388174769 0.8363244365
H 2.4689880219 1.3242580114 -0.0036874843
H 0.9907632345 1.5867391005 -0.9305044851
H -0.0110792953 -0.4920594614 0.0220265939
H 0.9230302691 -1.8093304563 -1.7141175339
H 2.0546717555 -0.4629036918 -1.9860215916
H 3.5970545404 -0.5220795711 0.2832030664
H 4.7392959335 -1.964837677 2.0519194194
H 2.5390504108 -0.5942229901 3.3377410201
H 1.1957178949 -2.1510791255 1.1555220051

