# b3lyp 6-31G(2df,p) opt Freq 

 titel

0 1
O 0.0887441061 -0.0593693745 0.6684964107
C -0.1580175773 1.203297262 1.188070733
C -1.3780312251 1.8926743497 0.5836692871
O -1.3562440748 3.1333098212 1.310463753
C -0.2130710767 2.9600239164 2.1468802507
C 0.9065601423 2.3614454816 1.2497034345
C 1.9843342829 1.8600224703 2.211135887
C 1.0780954763 1.2271346793 3.3185642907
C -0.299752571 1.519079404 2.7238808124
H 0.8691686114 -0.4272076728 1.0956681178
H -1.2774365694 2.0717183553 -0.4932005204
H -2.3117122522 1.3494582644 0.7706972822
H -0.0596330407 3.8374497781 2.7737797683
H 1.2140179743 2.8803674889 0.3405982284
H 2.6543256098 1.131034097 1.7412712154
H 2.6132457124 2.6689768194 2.5934916135
H 1.2548176595 0.1536998376 3.4511940656
H 1.219611361 1.6955145464 4.2966835166
H -1.1870585089 1.2037087955 3.2747974735

