# b3lyp 6-31G(2df,p) opt Freq 

 titel

0 1
C 1.5732442286 -0.0965770959 0.1932080395
C 0.120622395 -0.0337935252 0.2518730792
C -1.0804941401 0.035881709 0.2782156723
C -2.5415020684 0.0623119818 0.352601773
C -3.1872635178 -0.6511869481 -0.8446240413
C -3.0171040224 -0.5452154406 1.6792334941
O -3.0289877337 1.4507872538 0.4313390242
C -2.7426504209 2.321109413 -0.5453326818
O -2.1289932913 2.1164834726 -1.5555393625
H 2.0171871158 -0.0923533507 1.1946238013
H 1.9074902006 -1.0070472101 -0.3161216835
H 1.9791595569 0.7586572021 -0.3578455552
H -2.9229110051 -1.7116647277 -0.8178312981
H -4.2759643546 -0.5608597583 -0.7822227179
H -2.8397989351 -0.2233430554 -1.7836943938
H -2.7026082936 -1.5894944573 1.7416175034
H -2.5883527756 0.0015659208 2.5214395633
H -4.1076855953 -0.4955267316 1.7417319867
H -3.178722733 3.2947166176 -0.2651868729

