# b3lyp 6-31G(2df,p) opt Freq 

 titel

0 1
C 1.4189935414 -0.0372180892 -0.0037301998
O 0.0017596803 -0.0808135981 0.1586777543
C -0.4659744546 0.6923745216 1.2380699183
C -1.8216210078 0.2283400813 1.7512082282
C -0.5894881548 -0.0913013278 2.5577430244
C -0.343397187 0.553459455 3.894090984
O -0.0979310656 -1.3978865729 2.5269820002
C -0.1430486965 2.0915649528 1.2122023924
C 0.1411606353 3.261233127 1.1975934784
H 1.9333261482 -0.4057475215 0.8924144113
H 1.6505710247 -0.6847202132 -0.8519250848
H 1.7592394025 0.981736089 -0.2203879812
H -2.5053681735 0.9911727031 2.1055739825
H -2.276839488 -0.5786441395 1.1861862466
H -0.9006260001 0.0248877542 4.6743080466
H 0.7206841654 0.5105022071 4.1447751199
H -0.6574860719 1.5989481948 3.886584049
H -0.0926814143 -1.6692725377 1.5994103199
H 0.3821539962 4.2954231438 1.1815578399

