# b3lyp 6-31G(2df,p) opt Freq 

 titel

0 1
C 1.4979929018 -0.017790725 -0.0222122271
C 0.0444477621 0.0374318737 0.0190296345
C -1.1569608466 0.0999612319 0.0532737763
C -2.612104491 0.1133606085 0.0884847751
C -3.1806801925 -1.2357555824 0.5646170976
O -4.593651146 -1.1846758955 0.6308113618
C -5.029496757 -0.145315517 1.4941900073
C -4.4743980793 1.195260459 1.0287522911
O -3.0563354912 1.1542020755 0.9628176332
H 1.9363194367 0.7229636873 0.6553645089
H 1.8685451853 -1.0035067638 0.2795395783
H 1.8767178457 0.1879168293 -1.0292907071
H -3.0104862087 0.3053918462 -0.9233275846
H -2.9203987676 -2.0305190003 -0.1389913938
H -2.7482854614 -1.4712557731 1.54960334
H -6.1233758896 -0.1496970343 1.4684025457
H -4.6979455387 -0.3432483335 2.5265531715
H -4.8958860547 1.4434430169 0.0406465184
H -4.7310095672 1.9945578567 1.7304857929

