# b3lyp 6-31G(2df,p) opt Freq 

 titel

0 1
O 0.8106538703 0.4134622001 0.8257081485
C 0.3611965536 -0.0652855176 -0.1806407139
O -0.5978233823 0.4542990505 -0.9549668057
C -1.1493733421 1.7409029055 -0.5413195931
C -2.2785454043 1.532195714 0.4680338679
C -3.0813043289 2.8294019927 0.6315404781
C -3.7147483599 3.2634718021 -0.6995126159
C -2.7669127604 3.1033381365 -1.8592899042
C -1.6224014052 2.4258398373 -1.7909475078
H 0.6867382917 -1.0214547046 -0.6205612811
H -0.3283247063 2.2964720723 -0.0741684408
H -2.9294755427 0.7332211533 0.0927750898
H -1.8614719172 1.201193047 1.4227676133
H -3.8531317764 2.7017310218 1.3970840367
H -2.4137775689 3.6232167767 0.9903842939
H -4.6237130989 2.6758137236 -0.8979620862
H -4.0519118375 4.305675446 -0.6381400275
H -3.0517490005 3.5740194134 -2.7974407387
H -0.9674628244 2.3451838594 -2.6538921133

