# b3lyp 6-31G(2df,p) opt Freq 

 titel

0 1
C -0.7053842007 0.2279235883 2.9279889072
C 0.1614203831 1.4387657882 2.6972436951
C -0.3588673496 2.5746553845 1.8405366463
O -1.1509764304 2.1231367611 0.748770984
C -0.5376551938 1.1919126588 -0.1071799832
C 0.7838593452 1.5568383364 -0.8238633538
O 1.4624254447 0.4334454864 -0.2291637877
C 0.2877916219 0.0385526612 0.5279447268
C 0.4966963958 0.1373825619 2.0139238633
H -0.6513993138 -0.2719597087 3.8884302551
H -1.6896279118 0.2265652574 2.4716555844
H 0.8071147011 1.7590584899 3.5096324936
H -1.0194585126 3.2302739983 2.4173186265
H 0.4827751157 3.1878635602 1.4830560479
H -1.3282077448 0.860802468 -0.7823170767
H 0.7584315594 1.4934186305 -1.9183228037
H 1.2282924918 2.5176943896 -0.5366339399
H -0.0283293798 -0.9720096004 0.2389574404
H 1.3558626387 -0.4202517514 2.3752702446

