# b3lyp 6-31G(2df,p) opt Freq 

 titel

0 1
C 1.08812771 -0.5534333987 -0.8616262749
C 0.8743849447 -0.1210534053 0.582646734
C 1.9614840984 -0.7514195277 1.6171600756
O 2.5522217629 -1.9722015026 1.2906488824
C 2.8201971488 0.5638134421 1.4238912294
C 2.7643854485 2.0251499396 1.9883090692
C 1.3278799466 1.8040669956 2.4549236979
C 1.5150225139 1.2046224062 1.0278991983
O 2.2152269927 2.474550842 0.6419709149
H 0.9124587137 -1.6287695312 -0.965325914
H 0.3961016232 -0.0311211134 -1.5280046518
H 2.1022483809 -0.333857575 -1.2120560164
H -0.1732325273 -0.2536670167 0.8711415152
H 1.526526945 -0.8826053841 2.6078695649
H 3.0203181062 -1.8751745591 0.454623738
H 3.525426119 0.4565064485 0.5951596426
H 3.5535970612 2.6644890743 2.3907676397
H 1.1505916932 1.1257549317 3.2922255641
H 0.7102250584 2.7010131738 2.4955366509

