# b3lyp 6-31G(2df,p) opt Freq 

 titel

0 1
C 1.5407419111 0.1769200049 0.0508247566
O 0.1314726497 -0.0300807338 0.0121377349
C -0.5301254642 0.5355987777 1.0680496773
C -0.8920854789 2.0209812788 1.0930243517
C -1.9982301564 1.019989002 1.148076911
C -2.1370617257 0.502341367 2.5934919865
C -3.1525373086 -0.6122390023 2.8321170882
C -0.6896038727 -0.0570464113 2.4390557936
O -0.063374217 -0.8666226818 3.0655796661
H 1.9799050379 -0.2727298388 0.9486139142
H 1.9522897771 -0.30737977 -0.8367370432
H 1.7856169597 1.2477190245 0.0266756017
H -0.6732120228 2.6503494913 1.9517863137
H -0.725458518 2.4900494017 0.1281633924
H -2.7483048511 0.9173963882 0.3749028613
H -2.2505142086 1.2976630644 3.3388197668
H -2.9871540292 -1.0697330769 3.8112796385
H -4.1754483574 -0.2244683058 2.7995104413
H -3.0611147951 -1.3988463398 2.0759360073

