# b3lyp 6-31G(2df,p) opt Freq 

 titel

0 1
C 1.5247819736 -0.0123351304 0.0253006063
C 0.0695237087 -0.0152140407 0.0229353543
C -1.1337219763 -0.0246044493 0.0338253565
C -2.5898345273 -0.0081156237 0.0121537441
C -3.1672920671 1.3123107088 -0.5348476307
C -4.6896786963 1.2873064796 -0.3799312954
O -5.0516202172 0.9832551825 0.960272568
C -4.484036153 -0.2321026947 1.3678205072
O -3.0804317596 -0.2212875206 1.3418182941
H 1.9131948032 0.0051194079 1.0494294957
H 1.9276704647 -0.9037550682 -0.467679387
H 1.9224072679 0.86603548 -0.4947551161
H -2.9516047885 -0.8354307998 -0.6260705065
H -2.7470036336 2.1409000734 0.0423745628
H -2.8845099127 1.4421987911 -1.5843803599
H -5.1342434472 2.2581840191 -0.6128125443
H -5.1270439615 0.5390795283 -1.0639631448
H -4.7795982319 -0.3943338898 2.4059562323
H -4.8629237362 -1.0540589036 0.7279292435

