# b3lyp 6-31G(2df,p) opt Freq 

 titel

0 1
O 0.5531270592 0.888950061 0.4536805629
C -0.848536004 1.1094259662 0.3962560957
C -1.641988942 -0.2014486849 0.1365255536
C -2.1574779587 -0.5960841408 1.5211092698
O -2.2749774482 -1.9469472271 1.8486343834
C -3.0937290165 0.3619753046 2.2454397675
C -2.9529879446 1.7802212387 1.6965038839
C -1.3988272642 1.6011474736 1.7446845133
C -1.6051428814 0.3083915339 2.5857914095
H 0.7173954683 0.2502200349 1.157373968
H -0.9900255781 1.8476797187 -0.3987320055
H -2.4493016192 -0.060983626 -0.5908656551
H -0.9698705214 -0.9699233538 -0.2556181145
H -3.0712701148 -2.288604865 1.4277282541
H -3.9208435431 -0.0372625284 2.8217634875
H -3.4036341469 2.0111003725 0.7234318233
H -3.2871656575 2.5253430285 2.4226940028
H -0.8242353554 2.423207909 2.1690729489
H -1.1077789615 -0.0224152154 3.4874457108

