# b3lyp 6-31G(2df,p) opt Freq 

 titel

0 1
O -0.4869283272 -1.5192850363 -1.5960045761
C -0.5353623537 -0.1539914468 -1.7488953231
C -0.9056261306 0.7368905097 -0.6257598499
C 0.5540447397 0.7933027196 -1.1018677399
C 0.9087236565 1.8609245544 -2.1212455702
C -0.2128040501 1.7847789422 -3.1906383346
C -0.7230102444 0.3280582232 -3.1730763765
C 1.5568655253 0.1017001188 -0.3003445031
O 1.3068343903 -0.8430602596 0.4329447061
H -0.0918993784 -1.7000882366 -0.7256094545
H -1.509042224 1.6231585876 -0.7945652469
H -1.0477959767 0.2589607709 0.3379948916
H 0.9841064443 2.8650839186 -1.6893075281
H 1.8836705633 1.6272549351 -2.5662188222
H -1.0248159967 2.4696891084 -2.9271904933
H 0.1384737904 2.0857701597 -4.180344071
H -1.7621205907 0.2442827422 -3.5076154923
H -0.117446602 -0.3170327664 -3.8186653692
H 2.6059052246 0.4411943952 -0.4349596668

