# b3lyp 6-31G(2df,p) opt Freq 

 titel

0 1
O 0.4740907517 2.9259109189 1.016388026
C 0.7781341257 1.6194795848 0.5559176388
C -0.221359993 1.2171875527 -0.5415063048
C -0.1590356655 2.105424872 -1.8017273145
C -0.9892339632 3.3906983873 -1.6747251783
C -2.4219663898 3.1144909567 -1.2446964963
O -3.3535619408 3.8151211455 -1.5887353499
C -2.6154068975 1.9644037051 -0.3324845324
C -1.6240714933 1.1308060816 0.0020708191
H 1.1200421429 3.171877691 1.684663767
H 1.7955691316 1.57061409 0.1366876538
H 0.7242882943 0.8880579114 1.3785129151
H 0.0831965512 0.1997483704 -0.8267575014
H 0.8832903658 2.3500952599 -2.0337820072
H -0.5386073873 1.520928666 -2.6483779158
H -0.5481161435 4.0357069527 -0.9066864448
H -1.0138726634 3.9535583376 -2.6114497497
H -3.6193427381 1.8458973521 0.0639278461
H -1.8166011378 0.3274255045 0.7119359991

