# b3lyp 6-31G(2df,p) opt Freq 

 titel

0 1
C 3.3391244894 1.0493148121 -0.5176881327
C 1.9145079519 0.5581760447 -0.3306135143
O 1.669797751 -0.5642292225 0.049914261
C 0.8218205231 1.5752197623 -0.6191361267
C -0.6321671959 1.0249320249 -0.5891778898
C -0.9717619475 1.9819528898 0.5674678632
O -1.4183621248 3.2824100816 0.1190852635
C -0.0976088488 3.8471746556 0.2764832047
C 0.5001951875 2.4779978284 0.6280635174
H 3.4853936443 2.0255074316 -0.0429227235
H 4.0435125071 0.3237207177 -0.109467746
H 3.5394575538 1.1846337967 -1.587299045
H 1.0964374495 2.1658722022 -1.4988784056
H -1.231236048 1.1662932868 -1.4903218236
H -0.6365204686 -0.0266433115 -0.2922458602
H -1.5567546784 1.6130762329 1.4135479582
H 0.2670742091 4.329963441 -0.6394750937
H -0.0706163057 4.575111773 1.0983497179
H 1.153408061 2.3984596027 1.4965718051

