# b3lyp 6-31G(2df,p) opt Freq 

 titel

0 1
O -0.8543072052 1.8859397804 2.6919562631
C 0.03387695 0.8271883738 2.3436092732
C -0.6733858547 -0.1194681724 1.3461889185
C -0.2633880225 0.2472522907 -0.0860867515
C -0.3948823329 1.7866257451 -0.2940610874
C 1.0542749654 1.8995788301 0.2119058244
C 1.3125207452 0.4229105164 -0.1370824059
O 1.9636181655 0.1422096508 1.1135035308
C 1.3059485588 1.3300043744 1.6521829134
H -0.4028469412 2.4616885008 3.3181583349
H 0.3244152025 0.2651425814 3.2430927545
H -0.3915264257 -1.152491929 1.5648925513
H -1.7554714857 -0.0282951097 1.4791119347
H -0.7204933157 -0.4087666042 -0.8291087055
H -0.4444577968 2.05520864 -1.3535602614
H -1.184561423 2.3008922981 0.2544600977
H 1.7058610353 2.7221546674 -0.0838993068
H 1.8497146608 0.039700046 -1.0061040668
H 1.9697869901 1.9005711901 2.3103060488

