# b3lyp 6-31G(2df,p) opt Freq 

 titel

0 1
O 1.1098169559 -1.0474255511 -0.6436538894
C 1.1672306135 0.2705423109 -0.134636042
C -0.1297791777 0.6677607315 0.602898406
C -0.1085427822 2.0783036637 1.1044647596
C -0.771418291 3.1243366131 0.5850401583
C -0.4917731539 4.3654281062 1.3344482656
O -0.930556619 5.4711966419 1.1157120969
C 0.4778652504 3.9910819824 2.4698113003
C 0.72682805 2.4811733144 2.3064634778
H 1.0857726362 -1.6561532454 0.1016309645
H 2.0383059438 0.4115863404 0.5230781309
H 1.3058046732 0.9228654054 -1.0023462847
H -0.9691889021 0.5143034105 -0.0816992303
H -0.2664747977 -0.019680975 1.4504784159
H -1.4394950739 3.1014315998 -0.2672957483
H 1.3888009875 4.5897169535 2.3800807352
H 0.0246077862 4.2490567294 3.4311950262
H 1.785847891 2.2454396165 2.1459827769
H 0.4229128498 1.9036068317 3.1887246706

