# b3lyp 6-31G(2df,p) opt Freq 

 titel

0 1
C 1.5462300449 -0.9571163937 0.9549067281
C 1.1116470712 -0.0963622793 -0.2328745662
C 1.5090392682 1.3847536364 -0.0731526292
C 1.1271659077 2.2457945682 -1.224417204
C 0.2491397428 3.2799201752 -1.3842731066
O -0.5743217799 3.8692178216 -0.4736974319
C 0.3205385788 3.696934764 -2.7522702789
C 1.2392381029 2.8824120056 -3.3303668527
O 1.7396166271 2.0003961824 -2.431515914
H 1.2587938617 -2.0033733231 0.8135288884
H 2.6330947525 -0.9257280333 1.0905303886
H 1.0876743973 -0.6099536079 1.8880541915
H 1.559689583 -0.478317264 -1.1569314557
H 0.0254755937 -0.1609637918 -0.3690721487
H 1.0427794493 1.7904510917 0.8356229412
H 2.5931574841 1.4470883758 0.097625162
H -0.4533778106 3.4430609195 0.3809383472
H -0.2401335383 4.4927885296 -3.2151539166
H 1.6326324534 2.8077952632 -4.3307772024

