# b3lyp 6-31G(2df,p) opt Freq 

 titel

0 1
C -0.1793049906 -0.2956155028 0.029761715
C 1.3298009153 -0.1840910076 -0.0118001242
C 2.0313792283 -1.0725302236 0.9647432454
O 1.4598154895 -1.8032835599 1.7367265513
C 2.1706338052 -0.0529358776 -1.3012332323
C 1.4348567921 0.8079857479 -2.3315261437
C 1.3913492857 1.9857118942 -1.3032088646
C 2.1035408937 1.0866244629 -0.2865997746
O 2.9975244382 1.5430430435 0.6646928304
H -0.548969692 -0.0308825226 1.0243526501
H -0.6662589577 0.3538483476 -0.6995092819
H -0.4894825206 -1.3259284625 -0.1657938701
H 3.1400651514 -1.0310389845 0.9257731715
H 2.9566975832 -0.7679646604 -1.5147545277
H 2.0524949301 1.0376607678 -3.2023333872
H 0.4707570807 0.4298652068 -2.6810420919
H 2.0320282102 2.8158818788 -1.6160905498
H 0.41685887 2.3902611488 -1.0163252659
H 3.676347947 2.0634584533 0.21992642

