# b3lyp 6-31G(2df,p) opt Freq 

 titel

0 1
C -0.3778323447 2.8251449351 -0.7416076953
C -0.9739451291 2.1708913003 0.5228257402
C -1.2942924171 3.1907461088 1.5206348158
C -1.5365198607 4.0520145883 2.3239707334
C -0.0305826653 1.0792226903 1.1107477211
C -0.5928113052 0.4567708288 2.4004852789
O 0.1772553053 -0.6497903672 2.8390023216
C 0.1671423967 -0.0317061921 0.0933111318
O 1.2046057636 -0.2933515093 -0.4549565633
H -0.1769020685 2.075520962 -1.5116756118
H -1.0700095397 3.5663448715 -1.1479939884
H 0.5625587428 3.3303267655 -0.504114062
H -1.9129456699 1.6722217967 0.239377685
H -1.7643116309 4.8089540531 3.0332972481
H 0.9510779662 1.5264194249 1.3080398254
H -0.6868168041 1.2306878322 3.1722433727
H -1.5975762856 0.0593982706 2.2132409848
H 1.0626629693 -0.3364148577 3.0513880995
H -0.762704323 -0.6103831215 -0.1234228775

