# b3lyp 6-31G(2df,p) opt Freq 

 titel

0 1
O 1.4007698307 -0.3290575335 0.0745475397
C 0.2867072424 0.1235554377 -0.0025232651
C -0.4397521005 0.8008182589 1.1405316852
C -1.1667691687 2.075217174 0.7087196785
C -1.7436548497 2.8669968286 1.8881685054
C -2.7122734159 3.9077655511 1.3904813053
C -3.2055829202 3.8671746775 0.1556057681
C -2.8676104309 2.7561074404 -0.7982644742
O -2.2088387081 1.6692131029 -0.1723801471
H -0.2968372674 0.0677075787 -0.9464415722
H -1.1970259214 0.1004638641 1.5201609887
H 0.275034314 1.0014360076 1.943448254
H -0.4677252548 2.7321407233 0.1615918609
H -2.2391553345 2.1825050421 2.5913958116
H -0.9263449428 3.3417304694 2.4456673389
H -2.9914202351 4.7068132642 2.071675415
H -3.8762979926 4.6384121415 -0.2131588238
H -3.7797377404 2.3390594894 -1.2414078211
H -2.259104354 3.1465756722 -1.6347971377

