# b3lyp 6-31G(2df,p) opt Freq 

 titel

0 1
O 0.981055231 -0.1072206227 0.5284556138
C 0.4136494142 -0.5978547443 -0.6711426262
C -0.4569109551 0.3967423562 -1.4555158833
O -1.1769928054 -0.0177091733 -2.3378801613
C -0.3375375305 1.8542266789 -1.0885952689
C -1.0158296513 2.9472093861 -1.9628986819
C -0.0307510973 3.962676318 -1.3086353524
C 0.8342850576 2.7249869036 -1.6815917528
C 0.0825572431 2.7064323071 -3.0440099753
H 0.3004103839 -0.1107476995 1.2080598437
H 1.2548662427 -0.8561471333 -1.3272371558
H -0.1684871894 -1.5182225404 -0.5291491054
H -0.4430585557 1.9741806981 -0.0053116518
H -2.0858332987 3.0715316869 -2.1271179997
H 0.1677719881 4.876361634 -1.8749244518
H -0.1632056044 4.1697527156 -0.2429731328
H 1.8991493026 2.5793161975 -1.4983030127
H 0.2903838863 3.5480427074 -3.7099098756
H 0.0386036984 1.7654173241 -3.5908826697

