# b3lyp 6-31G(2df,p) opt Freq 

 titel

0 1
C 1.5340111223 1.543321098 -0.1531217537
C 1.2478735554 0.0379126852 -0.156430433
C 2.0122011175 -0.6778180956 -1.2529069812
O 1.6609043151 -0.2197948813 -2.5800741447
C 1.3113947311 -1.5428441258 -3.0154245033
C 1.5771069494 -2.1461313297 -1.6158908327
O 0.360105717 -2.5873548325 -1.0425483742
C 2.6209796288 -3.1531838706 -1.5023107396
C 3.4811216866 -3.9822813974 -1.3645267908
H 0.9476327579 2.0516437957 0.6178230042
H 2.592755712 1.7481918826 0.0400564233
H 1.2786309227 1.9807953012 -1.1220701066
H 1.5309736502 -0.4049011475 0.8082268863
H 0.1789456041 -0.1503309336 -0.293429278
H 3.0960071275 -0.5925902015 -1.0950725147
H 0.261388149 -1.6264175667 -3.3160196267
H 1.9647024816 -1.9092280355 -3.8142782828
H 0.5646011062 -3.0361758668 -0.2148896438
H 4.2408693156 -4.7171538781 -1.258470258

