# b3lyp 6-31G(2df,p) opt Freq 

 titel

0 1
C -1.5161081987 -1.5053577571 -0.5541802932
C -1.879271412 -0.1713129513 0.0357173588
C -3.1940187519 0.0650558693 0.833262668
C -3.0602062415 1.5268326934 0.4151851027
C -2.1664125353 1.1786364739 -0.7622734299
C -1.5654694159 1.8751807216 0.4306648167
O -1.0986779154 3.1734969496 0.4417406704
C -0.8090894443 0.6228243378 0.8659705717
O 0.5031735965 0.5471374652 0.3577090854
H -1.4494059147 -2.2678811798 0.2311341879
H -2.2624827265 -1.839340229 -1.2825467219
H -0.5415879038 -1.4567193426 -1.0495099414
H -4.0533043973 -0.416194696 0.3551861838
H -3.1839947699 -0.1857036121 1.9016612276
H -3.7929575414 2.3236149871 0.4570868927
H -2.2277031072 1.4427143249 -1.8080114133
H -1.2162532652 3.5345627674 1.3279560424
H -0.7415547245 0.37585099 1.9330063089
H 0.5410506988 1.0902397678 -0.4384147575

