# b3lyp 6-31G(2df,p) opt Freq 

 titel

0 1
C -4.7833421547 0.3578100065 -1.9821866784
O -4.5653653978 0.9650289665 -0.722624783
C -3.2196158517 1.1478480327 -0.3820318673
C -3.1730380756 2.0804177973 0.8318594737
C -2.508719484 -0.1817250007 -0.0583597478
O -3.1032091874 -1.2318389605 0.0497343715
C -1.0707939063 -0.0840739847 0.1032609851
C 0.127190547 0.0015343918 0.2281158916
C 1.5690539195 0.0827663725 0.384566783
H -4.426630133 -0.6776686353 -2.0050815538
H -5.862284607 0.3669032326 -2.1527446878
H -4.2936394358 0.9264817251 -2.7884713491
H -2.6626130006 1.6111639336 -1.2172035515
H -3.7260914684 1.6334153912 1.6626753424
H -2.1429705703 2.2619581826 1.1466032774
H -3.6419110004 3.0332706861 0.5757012322
H 1.8505090695 -0.0551674821 1.4343275021
H 2.068922085 -0.6991278548 -0.1971040542
H 1.955411222 1.0529627896 0.0558711241

