# b3lyp 6-31G(2df,p) opt Freq 

 titel

0 1
C 0.2764881217 2.4517121615 -0.0157316593
O -0.6205357791 1.4031240526 -0.383567307
C -0.106604054 0.1772654829 0.0337310332
C 1.2520244325 -0.2620402382 -0.4603522109
O 1.8985209249 0.5167723171 -1.4199585296
C 3.1049096276 1.0822725597 -0.9037051706
C 2.8225408441 2.0955932421 0.2318330171
C 1.426672963 1.8531935044 0.8527196975
C 1.0940972408 0.3620806053 0.9157969468
H 0.6763917359 2.9137867662 -0.9241937914
H -0.2959497582 3.2102450669 0.5328208963
H -0.877429343 -0.5635790114 0.2151444586
H 1.4526408212 -1.3317033214 -0.5302430637
H 3.7599397396 0.2761465422 -0.5436997834
H 3.5994439361 1.5578175532 -1.7539214849
H 3.5963858413 2.003632167 1.00137451
H 2.8781609841 3.1229745597 -0.1442044236
H 1.3977651289 2.2851694353 1.855867992
H 1.2739334024 -0.1995516651 1.8243245528

