# b3lyp 6-31G(2df,p) opt Freq 

 titel

0 1
C 1.379783123 0.0555021356 -0.1554237912
O -0.0106202892 -0.0814273141 0.081753635
C -0.4475831618 0.591045203 1.214489446
C -0.6230909798 2.0983544558 1.177300239
C -1.8264573941 1.1758956767 1.2664194547
O -2.408258862 0.9189039356 2.5200425365
C -1.5605842712 0.0903828154 3.2844617298
C -0.2898327517 0.670805317 3.8466313026
C -0.2617119599 -0.1152290955 2.5499226994
H 1.9771190119 -0.3711411289 0.6628395548
H 1.5997823744 -0.4889337145 -1.0763488318
H 1.6654587259 1.1091365245 -0.2805128478
H -0.3469125627 2.7175846076 2.0220626472
H -0.474472389 2.5601715027 0.2061326317
H -2.5284585879 1.1291283026 0.4412458847
H -2.0993967668 -0.6855052116 3.8172014363
H -0.1468100025 1.744312643 3.8306939598
H 0.1231106064 0.1799703727 4.7222147468
H 0.236882137 -1.0757185876 2.5075935865

