# b3lyp 6-31G(2df,p) opt Freq 

 titel

0 1
O 1.5242161856 3.5843333645 1.8706632667
C 2.9343664308 3.412349737 1.9088759697
C 3.3679133979 1.9916260621 1.6311955144
C 4.5333747144 1.6854898783 0.7188026263
C 3.1269769315 1.4049712967 0.2649533808
C 2.6395346285 -0.0281044794 0.1385298811
O 3.0423235787 -0.6391736365 -1.0836237768
C 1.184082187 -0.1031058493 0.3253019905
C -0.0124042598 -0.1389132785 0.439793403
H 1.1237518896 2.8535058742 2.3523491926
H 3.3338352407 4.0818971384 1.1388318357
H 3.3480986754 3.7467551317 2.8738610962
H 3.2332664745 1.3082306558 2.4685632326
H 5.0587352543 2.5185032472 0.2638442956
H 5.1685798503 0.8410239148 0.9650168118
H 2.6941286889 2.0821773551 -0.4670804794
H 3.1268914557 -0.6280778345 0.9178879338
H 2.5253930004 -0.2391275012 -1.7917816996
H -1.0682340143 -0.1849613065 0.546483585

