# b3lyp 6-31G(2df,p) opt Freq 

 titel

0 1
C -0.0358769594 0.1354595593 0.4015437475
C 1.3287142665 -0.1130128965 -0.1802288767
C 1.6964448155 -1.4723624802 -0.803187485
C 3.0988624365 -1.0007757519 -1.1388582683
C 3.5735841014 -0.2309837887 0.1480591059
C 3.965610936 0.9717522094 -0.7399332426
C 2.8979296772 0.444794718 -1.7254014036
O 1.5901800502 0.8005163599 -1.2495815955
O 2.3368974222 0.0536579795 0.8208913413
H -0.2272266414 -0.5644652578 1.2180056007
H -0.0936304412 1.1548390562 0.7898351043
H -0.7996138977 0.0075476967 -0.3688241376
H 1.6624490415 -2.2871234676 -0.0767068904
H 1.0854259139 -1.7099910161 -1.6766600339
H 3.8090700333 -1.6589242708 -1.6323946434
H 4.2793418908 -0.6602293798 0.8606548001
H 3.815691414 1.970343277 -0.3256653051
H 4.9778088399 0.8660851519 -1.1430908471
H 2.9614847211 0.6578527217 -2.7934391206

