# b3lyp 6-31G(2df,p) opt Freq 

 titel

0 1
C 2.2184100327 -1.8715392325 -1.3117370181
C 0.7839550649 -1.4084464646 -1.3145272351
C -0.3683133245 -2.4150430126 -1.1182759653
C -1.4213216152 -1.4928999457 -1.7666982498
O -0.91010479 -1.4056293418 -3.1312906957
C 0.1125799605 -0.5951699203 -2.5401880738
C -0.8206192925 -0.0762284772 -1.4274497672
C 0.2938705633 -0.2476109392 -0.3913900866
O 1.1099588468 0.9076979789 -0.423838487
H 2.47510716 -2.3900455416 -0.3796611429
H 2.4106535112 -2.5655541656 -2.1369563913
H 2.9046394429 -1.0246989637 -1.4266477975
H -0.2652895159 -3.3400530181 -1.6900204666
H -0.5498901676 -2.6509868683 -0.0650595806
H -2.4817678876 -1.7333969211 -1.7064363006
H 0.7216503309 -0.0153849506 -3.2293562609
H -1.4471768443 0.8090232839 -1.5090365014
H 0.0242912552 -0.5197693608 0.6395878694
H 1.9130003992 0.7173757908 0.071653341

