# b3lyp 6-31G(2df,p) opt Freq 

 titel

0 1
C 4.682430626 0.1838709194 0.6389574475
O 3.4711462593 0.6051438023 1.2197424923
C 2.3504242791 0.2287011385 0.4395295988
C 1.1178624075 0.6806517088 1.0667274496
C 0.0821983188 1.0432598274 1.5646929724
C -1.1440695544 1.4778637906 2.1619667177
C -1.3836035685 1.292738169 3.6631967025
C -2.1531021829 0.4738361348 2.6712730199
O -3.4869680429 0.7855683667 2.4061340968
H 4.8364401641 0.6270854289 -0.3582461196
H 5.4890003715 0.5110558976 1.2988928987
H 4.7296071846 -0.9124531346 0.5355311524
H 2.4307732043 0.6571652694 -0.5753688847
H 2.3273038495 -0.8683637309 0.3120510191
H -1.5953275308 2.3703778152 1.7387272881
H -0.6009456562 0.8147321576 4.2401869018
H -1.9142839198 2.0959224018 4.1618800177
H -1.8859601251 -0.5766624961 2.5661472132
H -4.0145016641 0.4975650536 3.1589631558

