# b3lyp 6-31G(2df,p) opt Freq 

 titel

0 1
C 5.5124793045 0.4367776912 2.270351205
C 5.1573976825 0.5507603393 0.8017932507
O 5.81281178 1.2034157143 0.0197920968
C 3.8951982671 -0.1708200896 0.3654201934
C 3.6793357873 -0.4332565761 -1.1450567916
C 2.212293527 0.0581494508 -1.0189348653
C 2.6045501452 0.7097972021 0.3473439722
C 1.6393156013 0.5864698653 1.4889234306
O 1.8710173556 0.0115253989 2.5244448986
H 5.9134904892 -0.566656598 2.4617315771
H 6.2651065046 1.1784966891 2.5406189121
H 4.6172753064 0.5367511224 2.8923579365
H 3.7162138862 -1.049653229 0.9906465882
H 4.296257847 0.251423216 -1.7309403325
H 3.8341613799 -1.4545037243 -1.4974837976
H 1.8301568716 0.7253852998 -1.79346959
H 1.5069176253 -0.7669753157 -0.8845658771
H 2.8382665655 1.7715839253 0.1993464751
H 0.648345054 1.0645756483 1.3113989879

