# b3lyp 6-31G(2df,p) opt Freq 

 titel

0 1
C 1.6104980496 1.4303141573 -0.1276713271
C 1.3613541506 -0.0819478695 -0.1672998664
C 2.0413660318 -0.7655633335 -1.3527573643
O 3.4462761618 -0.619844313 -1.2642851854
C 1.5375006763 -2.1872128139 -1.8257371364
C 0.3406450162 -1.4411637254 -2.5106288879
C 1.5597187546 -0.5052115939 -2.8192455773
C 2.2754076703 -1.8380496173 -3.1339391903
O 2.9392908613 -2.3474989835 -3.9781696955
H 1.1987247051 1.8697706474 0.7855006295
H 2.6807610546 1.6480159676 -0.164112772
H 1.138876263 1.9284477326 -0.9809090562
H 1.7606154393 -0.5454596438 0.7466563582
H 0.2877968198 -0.2846283469 -0.1503826987
H 3.7371479725 -0.9620603776 -0.4118761344
H 1.5135164206 -3.1177888356 -1.2611106174
H -0.1180101925 -1.9386337371 -3.3653573255
H -0.414451028 -1.0327391916 -1.8419379623
H 1.566640683 0.4349931776 -3.3658689305

