# b3lyp 6-31G(2df,p) opt Freq 

 titel

0 1
C 0.6594912135 1.0603579786 -1.2466303366
C 0.165635672 -0.2125713344 -0.5333293394
C 0.8388946636 0.4075677305 0.7189421815
O 1.1886548147 1.6008461265 -0.0143265964
C 2.0498877381 -0.2938076098 1.2420246163
C 2.1932384684 -1.2679794563 2.4284676586
C 3.6684824184 -0.7585576081 2.6027816578
C 3.435876971 0.1777511864 1.4085547107
O 3.0672182599 -0.6494187154 0.2951228404
H 1.4501642738 0.9030799881 -1.9883734054
H -0.1156751647 1.7073720577 -1.6729094321
H -0.9179801386 -0.3149890971 -0.4651170406
H 0.6063748916 -1.1486784894 -0.8764423667
H 0.1596808752 0.6325029879 1.5524843356
H 1.5585777042 -1.0083227142 3.2793748314
H 2.0596279022 -2.3231740004 2.1798828968
H 3.8180565513 -0.2273707095 3.5455731516
H 4.4656562119 -1.4927545252 2.4658805369
H 3.8770000532 1.1399038141 1.1789121197

