# b3lyp 6-31G(2df,p) opt Freq 

 titel

0 1
C 0.5096137062 0.6582491233 -0.2191774206
C 0.7729821515 -0.7427013119 0.3110098359
C 1.0668332415 -1.8061054454 -0.8198593047
C 2.5470006975 -1.9485133892 -0.6416200874
C 3.8726746885 -2.737933109 -0.7673854021
C 4.1336077454 -1.384143315 -0.0172899031
O 3.3068105633 -0.7115671132 -1.0212152897
C 2.8448855364 -1.6682250282 0.8257266661
O 1.9273636958 -0.6905726655 1.2041321279
H 0.3876153577 1.3568081055 0.6133925048
H 1.3510466738 0.9870679023 -0.8329602224
H -0.4065949286 0.6761108425 -0.8191080836
H -0.0812051937 -1.0787399827 0.9125230069
H 0.5523181748 -2.7510001387 -0.6234599614
H 0.7737714956 -1.4390672071 -1.8057301021
H 3.9665085423 -3.6774600744 -0.2162141147
H 4.3051208079 -2.7783583621 -1.7660591171
H 5.0861036523 -0.9268899822 0.2511038844
H 2.8995810119 -2.5020482089 1.536002813

