# b3lyp 6-31G(2df,p) opt Freq 

 titel

0 1
C -3.3292625585 3.3900477214 0.104239168
C -2.7070900377 2.0308123195 0.2193828226
C -3.3043113406 0.7683526078 0.8468916612
C -2.14946085 0.0044426886 0.1506451658
C -1.9898380306 1.2203581527 -0.852095695
C -1.1728482315 1.8534176625 0.2502762551
O -0.3064644694 2.915029981 0.0852900812
C -0.8640104107 0.4964429885 0.8853469154
O 0.3394256845 -0.0831402236 0.4402732661
H -3.5170574887 3.8261053857 1.0934359935
H -2.6721534795 4.0727064026 -0.4431309876
H -4.2889153153 3.3456333543 -0.4223619678
H -3.3671048243 0.7002483533 1.9407528058
H -4.2815501053 0.5331517917 0.4127233658
H -2.2266730605 -1.0447849955 -0.1247154614
H -1.9650341237 1.3203872459 -1.9276382919
H -0.2762999194 3.418966406 0.9069038949
H -0.8591075192 0.4040442058 1.9780563383
H 0.4850779705 0.2071046618 -0.46825436

