# b3lyp 6-31G(2df,p) opt Freq 

 titel

0 1
C -4.1049134907 -0.8113094521 -1.3648543475
C -2.6624182477 -0.3061102988 -1.3150927818
C -1.6143164352 -1.4657575751 -1.273344158
C -0.9160518037 -1.2045716707 0.0855067587
O -1.9710559516 -0.6690720453 0.8929131035
C -2.3386317412 0.4180192108 0.0185578525
C -1.015663802 1.1978533464 -0.0893211642
C -0.0172911864 0.025313278 -0.112361071
O 1.1720960683 0.0615893977 -0.2728075386
H -4.3225932973 -1.4245156217 -0.4842996509
H -4.8185685866 0.0192552205 -1.3873741966
H -4.277823018 -1.4248346807 -2.2549284527
H -2.4778074403 0.3587313927 -2.1648520277
H -2.1089881822 -2.4402165205 -1.2533245357
H -0.9169437539 -1.4558381939 -2.1147171456
H -0.4396014401 -2.0558187716 0.5673176521
H -3.1706978418 0.9664042168 0.4602898113
H -0.9047783958 1.8338146025 -0.9708803286
H -0.844491924 1.8085738051 0.8026035708

