# b3lyp 6-31G(2df,p) opt Freq 

 titel

0 1
O 0.0440218672 3.2798633834 3.0006159116
C -0.6318538436 2.4093829011 2.0954771658
C -1.6508915931 3.1325869991 1.2446587051
C -2.8794381031 2.6368462323 1.3761774345
C -2.9323385006 1.4340153853 2.290373334
O -3.4653079851 0.278553197 1.6464297195
C -1.4703292931 1.3001743785 2.7624503526
C -1.1457673092 0.8592100305 4.1683216782
C -0.8872447526 -0.0682923069 3.0146027174
H -0.6286442836 3.6868533005 3.5589536425
H 0.1812380327 1.9947654973 1.4873188528
H -1.3675196524 3.9836101018 0.6347351156
H -3.7709770891 2.9982280391 0.8750702413
H -3.6181976309 1.595082535 3.1309317092
H -2.9043275131 0.0941278668 0.8840977872
H -0.2945891215 1.3318979135 4.6458288681
H -1.9753536463 0.6316008566 4.8305066361
H 0.1429847145 -0.2406808348 2.7189382377
H -1.5504534771 -0.9157097661 2.8804787808

