# b3lyp 6-31G(2df,p) opt Freq 

 titel

0 1
O 0.2204532758 0.9828816241 0.665290019
C 0.4557754052 0.0224872545 -0.3698933696
C -0.4852598815 0.229800395 -1.5238876092
C -0.5196474942 1.5585085523 -2.3409280186
C -2.0141826891 1.3054404829 -2.5130454251
C -2.1905567418 -0.2439708811 -2.6674567978
C -0.7943380155 -0.8619421827 -2.5932501845
C -2.0567179358 0.3826165205 -1.3200340009
O -2.8275894978 0.2684900335 -0.1950737846
H 0.5438257993 1.8335822392 0.352760861
H 1.5079787729 0.0382414068 -0.6943919575
H 0.2719976504 -0.952699128 0.0938232672
H -0.3387418868 2.4388142895 -1.7143587192
H 0.119814312 1.6074016514 -3.2300981815
H -2.7798408097 1.9743906325 -2.8841257144
H -3.0830797317 -0.6382763778 -3.1354624183
H -0.8245862989 -1.863293222 -2.153342393
H -0.1679057044 -0.8729755648 -3.4927275012
H -2.4147354386 0.8208207141 0.4816568784

