# b3lyp 6-31G(2df,p) opt Freq 

 titel

0 1
C -1.7009890799 -0.6483468823 2.5591490414
C -1.9461761233 -1.2612486656 1.1981953246
C -2.3277940223 -0.4674827712 -0.0101052151
O -2.162935789 0.932497319 0.0708010801
C -0.7828190136 1.2646255375 0.0525089589
C 0.0064126513 -0.0480000826 0.0196637594
O 1.2054480765 -0.1409966486 -0.0689386279
C -0.9862648892 -1.1688663719 -0.0087347158
C -0.6086683363 -2.4082398118 -0.7829527455
H -0.9246689088 -1.1925320552 3.1061090982
H -1.4032473619 0.399961439 2.4960760547
H -2.6192664489 -0.6861539432 3.1546128451
H -2.4043602938 -2.2478202354 1.2379335305
H -3.1511325013 -0.7574134031 -0.6550965842
H -0.5434063454 1.8493971435 -0.8461292638
H -0.5115361152 1.8671185115 0.9280050294
H 0.2787277775 -2.8731097264 -0.3425158064
H -1.4203875175 -3.1412082744 -0.77442768
H -0.3737865191 -2.1709718588 -1.8256333737

