# b3lyp 6-31G(2df,p) opt Freq 

 titel

0 1
C -0.1069893117 1.4128655654 0.0893474617
C -0.0316793139 -0.061838831 -0.1298931318
C -0.9949684374 -0.9458679933 -0.3766143703
C -2.3989848911 -1.2780850234 0.0849059668
C -1.7109419316 -2.490767914 0.8419943995
O -1.2980648474 -2.179878803 2.1466571326
C -0.492171825 -2.3317057147 -0.1602155584
O 0.8504052379 -2.2335953482 0.2452158861
C 1.2468326437 -0.8578052423 0.1120676664
H 0.4908188447 1.9608874592 -0.6503932012
H -1.1363323628 1.7740155281 0.0158948577
H 0.2870855957 1.6880071723 1.0760581348
H -2.9113120603 -0.5408603108 0.7082959314
H -3.0740439008 -1.6243983906 -0.7039407268
H -2.2510898271 -3.4464791736 0.7938547334
H -2.0844731962 -2.0889066246 2.6938953848
H -0.5960475904 -3.0468633822 -0.9882709995
H 1.9936810677 -0.7665115755 -0.6931068608
H 1.7285454761 -0.530172638 1.0448257137

