# b3lyp 6-31G(2df,p) opt Freq 

 titel

0 1
C 0.1609682594 0.1599439938 -0.292411295
C 1.4493192756 -0.2345121655 0.3940553971
C 1.2723277859 -1.0487226359 1.6828570958
C 2.6617634001 -1.3911063592 2.2916439456
C 3.7837926429 -0.8239667888 1.4377363826
C 3.5496335683 0.4985625541 0.7304145265
O 2.2121132737 0.9385242399 0.7040734837
C 3.5853038165 -0.7705343752 -0.0662575347
O 2.2664734001 -0.991629108 -0.5077053203
H -0.4501667037 0.7697982328 0.3772982033
H 0.3872077205 0.7350043846 -1.1925043091
H -0.4043346938 -0.7326231595 -0.5711129873
H 0.6701234542 -0.4635942231 2.3837855946
H 0.7129715882 -1.9581332794 1.445295005
H 2.7412354411 -0.9906242818 3.3074931086
H 2.7832270019 -2.4758457228 2.3766127698
H 4.7982766346 -1.0094418108 1.7785303037
H 4.2683939772 1.3064465195 0.6935463826
H 4.3350317973 -1.0588462446 -0.7911292924

