# b3lyp 6-31G(2df,p) opt Freq 

 titel

0 1
O 1.6844477535 0.5058296869 0.2646337098
C 0.3046570559 0.4315872403 -0.0597936088
C 0.0542281443 0.4350734749 -1.5491322224
C -1.207204873 -0.1808984249 -2.1030461906
C -1.7225259915 0.3510721222 -3.4429509901
C -0.6360053611 -0.0347605166 -4.4411297116
O -0.4920808023 -1.4493976863 -4.6120317051
C 0.447445848 -0.7674299098 -3.7679224191
C 0.1252546423 -0.8752222147 -2.3083317547
H 2.1239395035 -0.2204848678 -0.1901612502
H -0.1675370162 -0.4570704861 0.3914120811
H -0.1533172781 1.3109317611 0.4058889091
H 0.439022056 1.3152439551 -2.060776865
H -1.9221355447 -0.5894835443 -1.3977664066
H -2.6750866822 -0.1125234338 -3.7200717796
H -1.8750242117 1.4367003403 -3.4303489454
H -0.4724083923 0.5585297318 -5.3373770173
H 1.4750900331 -0.7628568535 -4.1247998198
H 0.3699093467 -1.789006335 -1.7746632639

