# b3lyp 6-31G(2df,p) opt Freq 

 titel

0 1
O 1.3429972658 0.0266058068 0.5319847169
C 0.1426420995 -0.4063040865 -0.055695871
C -0.3430835381 0.3354593221 -1.2831975873
C -1.7602098977 0.0813108097 -1.8339850201
C -1.2087523358 0.2389730295 -3.2887304894
C 0.1693976784 0.5181930516 -2.6951686227
C 0.0880379257 1.7277413696 -1.7598627366
C 1.3997854267 2.2994240143 -1.3803078728
O 2.4572651488 1.7024653579 -1.3785558275
H 1.9973803976 0.1713694917 -0.1639560459
H 0.1770294047 -1.4801484343 -0.3141536555
H -0.6277927323 -0.3036614254 0.7205994753
H -2.1059054365 -0.9346036966 -1.6260569258
H -2.5333245989 0.7847532079 -1.5102123145
H -1.2497039211 -0.6972687288 -3.8498294367
H -1.6415826581 1.0342824727 -3.9032611523
H 1.1390068436 0.2685552898 -3.1096615777
H -0.6893403385 2.4742857724 -1.9132351054
H 1.3736216661 3.3818334858 -1.133450111

