# b3lyp 6-31G(2df,p) opt Freq 

 titel

0 1
C 3.2245532563 -2.4354990192 0.0173130434
C 2.2084553315 -2.1092957742 1.0936471309
C 1.1108686858 -1.1531947356 0.6490642343
O 0.2875719261 -1.705949896 -0.3627438027
C 2.6378204035 -2.0423045192 2.5397348948
C 1.7985104835 -3.2186288738 2.0551708548
O 2.4485207293 -4.4485060536 1.8665799732
C 0.4200240387 -3.3345284495 2.4632316796
C -0.7308985724 -3.4629068165 2.7938451797
H 3.8909043406 -3.2429518429 0.3217404817
H 2.7080448779 -2.7366607602 -0.8984593145
H 3.8272495506 -1.548714748 -0.2097231737
H 0.5156290574 -0.8301213897 1.5141631334
H 1.5696285563 -0.2585147244 0.2127061316
H -0.2055500183 -2.4280167428 0.0441575675
H 3.6715679362 -2.2789839971 2.7690020835
H 2.1725214991 -1.3124799977 3.1939655555
H 2.4973294825 -4.8879502344 2.7230221178
H -1.7424222545 -3.5750337053 3.0980377293

