# b3lyp 6-31G(2df,p) opt Freq 

 titel

0 1
O 0.9072963622 -0.6784404507 0.368636133
C -0.1374064137 -0.1356431033 0.1137442638
C -0.4173818244 0.6431534542 -1.151803914
C -1.0641898418 2.010030706 -0.8185244848
O -2.4554794595 1.7614671931 -0.6898790936
C -2.8147143473 0.7710736139 -1.6352435861
C -2.9212927022 1.2314488855 -3.1189762866
C -1.6455010012 0.4112053817 -3.4678109749
C -1.5268332075 -0.0424090823 -1.9813965253
H -0.9965042511 -0.1768084371 0.8228591604
H 0.5182646411 0.7427448737 -1.7077329101
H -0.7160680698 2.4464074465 0.1226306561
H -0.8536322631 2.7291028789 -1.6244855755
H -3.6817780918 0.2395773251 -1.2384765847
H -3.8312002325 0.8992623808 -3.6236589388
H -2.8352976555 2.3137127987 -3.243248863
H -1.8146591961 -0.4120698932 -4.1645927111
H -0.7983803764 0.9967950933 -3.8348704828
H -1.5639075293 -1.1218386849 -1.8228287621

