# b3lyp 6-31G(2df,p) opt Freq 

 titel

0 1
C 2.6411676735 -3.0173590011 0.7673124302
C 2.6171287698 -1.6098375261 0.2050456938
C 1.2414157585 -0.9484902522 0.328557079
O 0.3109677323 -1.6234239675 -0.4954249759
O 2.988901971 -1.5937822022 -1.2108706979
C 3.9733403595 -0.5652004536 -0.9944738716
C 3.841513389 -0.6943302746 0.5455269691
C 3.654123665 0.5021472774 1.3377450133
C 3.5055264785 1.500407417 1.9917886051
H 2.5271077718 -2.9900813258 1.8564736413
H 1.8136571385 -3.596493018 0.3494315776
H 3.5831796852 -3.5158532599 0.5240678416
H 0.8722806895 -1.0091536262 1.3572573254
H 1.3169404261 0.1162957055 0.0643955231
H 0.7204348484 -1.6570577494 -1.3700332649
H 4.9453879114 -0.8308416902 -1.4213722136
H 3.6552615591 0.4080850972 -1.3853807596
H 4.6554088223 -1.2948194519 0.9623073481
H 3.3725148806 2.3805850016 2.5710070957

