# b3lyp 6-31G(2df,p) opt Freq 

 titel

0 1
C 1.0865070692 1.1043784991 0.4359807242
C 0.8967021061 -0.3557662182 0.026056673
C 1.786745594 -0.7933526984 -1.148708235
O 3.1748478289 -0.673278612 -0.8143267134
C 3.8689876507 0.1134158402 -1.7836728753
C 2.8159958215 0.5254809088 -2.7723305503
C 1.6391236718 0.0268269593 -2.4127002193
C 1.5171902986 -2.263690199 -1.5088705104
O 0.4371017409 -2.7907723224 -1.4740309468
H 0.4511776202 1.3475490793 1.2926061672
H 2.1251790186 1.2928064155 0.7219979601
H 0.8302539446 1.7903693319 -0.3773172179
H 1.1216713187 -1.0134353995 0.873535049
H -0.1414915211 -0.560680319 -0.2538795808
H 4.3469893912 0.9745687055 -1.2927892114
H 4.670020399 -0.4827260923 -2.2462267949
H 3.0217310852 1.149338742 -3.6329684618
H 0.6898901213 0.1390598554 -2.91973648
H 2.4367570007 -2.8006668861 -1.8332845263

