# b3lyp 6-31G(2df,p) opt Freq 

 titel

0 1
O 3.2851787339 3.877136393 -1.4100719752
C 2.4025085748 3.3745225541 -2.3844828516
C 1.9908483931 1.9305203169 -2.0522020268
O 1.3999626392 2.0038124534 -0.7530957321
C 1.328940777 0.7854808802 -0.0677939186
C 0.3426130037 0.7207510602 1.052435236
C 0.1073589386 -0.0817631701 -0.2119263068
C 1.0908629632 1.3814780653 -3.0675955045
C 0.3632197895 0.978975259 -3.9356798514
H 2.8514589969 3.7205957328 -0.5621052263
H 1.4891132929 3.9817509735 -2.4734851945
H 2.921000546 3.3929200678 -3.3467443694
H 2.903630315 1.3175788755 -1.9974174268
H 2.2959697657 0.2986888882 0.059871395
H 0.6288198924 0.2054544965 1.9621153399
H -0.2755875803 1.5987196022 1.2011626959
H 0.2319303247 -1.15855914 -0.1831122653
H -0.6628803438 0.2725680826 -0.8852602622
H -0.2775624825 0.6070471788 -4.6968752253

