# b3lyp 6-31G(2df,p) opt Freq 

 titel

0 1
C -0.1874220317 2.2124023826 -0.9435300717
C -1.0017383881 1.3503828188 0.0365826977
C -2.290318308 0.7584556537 -0.5654123009
C -1.8985688211 -0.6610703974 -1.0716735974
C -0.8885897628 -1.1466437231 -0.0165939633
C -0.1739476846 0.1233681719 0.4570907355
O 0.8773664016 0.1596567897 1.0400852643
C -3.1019265701 -1.5653891729 -1.1819881066
O -3.5115348931 -2.0657505888 -2.1956961877
H 0.7687086335 2.4898176695 -0.4925543124
H 0.0213721791 1.6738879865 -1.8742783632
H -0.734109251 3.1248336962 -1.1985219644
H -1.2062487614 1.9458356555 0.9323291903
H -3.0620337847 0.6638094385 0.2088462548
H -2.7095047172 1.370397958 -1.3675963758
H -1.4315410618 -0.6012989433 -2.0588371234
H -1.4148443081 -1.5693407036 0.8528307058
H -0.1806266704 -1.9012274544 -0.3640658851
H -3.61494131 -1.7395023373 -0.2035650166

