# b3lyp 6-31G(2df,p) opt Freq 

 titel

0 1
C -1.7581006941 2.9944313201 -1.1545181328
C -1.4048068449 1.5364229162 -1.4250638669
C -2.6441464688 0.6339447803 -1.4670617243
C -2.3386339303 -0.7451396182 -1.9927259075
C -1.5216240406 -1.5692036291 -1.344581209
C -0.9022883719 -1.2132425009 -0.0153185233
C 0.0206873661 0.0038620383 0.0215324913
O 1.1031453213 -0.0484346788 0.5407841894
O -0.4179350895 1.2097344029 -0.4155174852
H -2.3033217649 3.0902760845 -0.2102510229
H -0.8486973257 3.5956539823 -1.0880180895
H -2.3831600338 3.390071428 -1.9603925533
H -0.8909516867 1.4585271148 -2.3920871412
H -3.0844897079 0.5877846178 -0.4606226433
H -3.3827292742 1.1290786121 -2.1047300815
H -2.7795054644 -1.0425802531 -2.9395580162
H -1.2878198801 -2.5487975979 -1.7498869974
H -1.6981900839 -1.0162863001 0.7188956141
H -0.3053827757 -2.0358923091 0.3776963195

