# b3lyp 6-31G(2df,p) opt Freq 

 titel

0 1
C 1.6010566376 -0.7974107449 -0.687412812
C 0.8611190618 0.2789009142 0.1276303969
C 1.5413482048 1.6145841077 0.0991361063
C 1.0974349808 2.7609561504 -0.4276315726
C 2.0541957899 3.9278390131 -0.2237957062
O 1.4743038733 5.0025967669 0.4978338065
C 3.2161272328 3.272090261 0.5331966401
O 2.8066611237 2.8233077755 1.8335852708
C 2.8802853177 1.8640201554 0.7424615343
H 2.6178608581 -0.9577155613 -0.3141049273
H 1.0739641488 -1.7544866659 -0.6318069912
H 1.673800255 -0.5082332613 -1.7402647278
H -0.1605602173 0.3867327775 -0.25201436
H 0.7758424387 -0.0600476019 1.1692138503
H 0.1228751904 2.9094469159 -0.8804152254
H 2.3919935995 4.3562614767 -1.1744037251
H 1.3233714186 4.6597286731 1.3888145983
H 4.2281123734 3.659983396 0.4656756578
H 3.6202372824 1.081356982 0.8784578464

