# b3lyp 6-31G(2df,p) opt Freq 

 titel

0 1
C 0.0838949519 -0.2056035055 -0.0528379728
C 1.5789386037 0.036740637 0.0567701495
C 2.309924866 -1.0945571857 0.7861118319
O 3.5498794594 -0.6906292155 1.332966109
C 4.3137223335 0.088674927 0.4314893979
C 3.4475682314 1.1181327579 -0.2765689447
C 2.0796279534 1.4906003822 0.3622401417
O 1.6095506377 1.9211901765 -0.9722233758
C 2.2975938656 0.6331875852 -1.1943429155
H -0.3786519884 -0.2513713599 0.9394164738
H -0.3898852465 0.5941502103 -0.6236980593
H -0.1195941702 -1.1598717182 -0.5529322138
H 1.7113583231 -1.4476399401 1.6322003119
H 2.4395226552 -1.9490662098 0.0971488545
H 5.0865996778 0.57755995 1.0331094743
H 4.8261945655 -0.5495893886 -0.3102337669
H 3.9997951187 1.9674108216 -0.6826590239
H 1.8575060085 2.1414629199 1.2087458553
H 2.3380813937 0.2516635056 -2.2166166172

