# b3lyp 6-31G(2df,p) opt Freq 

 titel

0 1
O -0.058390367 0.0849349229 -0.1066324631
C -0.5402489728 0.8983386212 0.9439160109
C -1.9620078378 1.4989558547 0.7283142878
C -2.5247453139 0.4060512737 1.6664008422
C -1.0947747786 0.1332779709 2.1817775702
O -3.5573788874 0.7860257786 2.6099761763
C -4.4624498324 -0.1504431328 2.0202962274
C -3.9647079523 -1.5500661021 2.1885058538
C -3.4196188967 -0.6810679685 1.0703028666
H -0.6997711379 -0.6133030179 -0.275059291
H 0.2568909778 1.6172777845 1.1399933078
H -2.0707211913 2.4870285325 1.1836621037
H -2.3303249706 1.5310435404 -0.3007261081
H -0.913227184 0.6730451405 3.1153630515
H -0.7816173595 -0.9078425886 2.3009548212
H -5.4947778859 0.1501509312 1.8879826903
H -3.3483209911 -1.7970540679 3.0485258924
H -4.6408403446 -2.3343461299 1.8616561681
H -3.4902839141 -0.9390480035 0.0213476721

