# b3lyp 6-31G(2df,p) opt Freq 

 titel

0 1
C -0.9919345923 -2.0721992207 -1.1773799086
C -0.8490921281 -0.9827182412 -0.1250249674
C 0.1117633951 0.1966464699 -0.3806453692
O 1.2570829308 0.2684474469 -0.7225752772
C -0.9599697148 1.2451937055 -0.0475005015
C -1.7855369877 1.6102682608 -1.2997428764
O -2.6118262538 0.4346612845 -1.1651091915
C -1.9867737685 0.065909626 0.0932054823
C -2.9861269398 -0.1289612035 1.2018843175
H -1.6472074975 -2.8778153953 -0.8321122469
H -1.417375386 -1.6566801528 -2.0940452786
H -0.0138924646 -2.5039972233 -1.4087411105
H -0.5725949735 -1.4113179341 0.8498001246
H -0.7438363456 2.0171393515 0.6898484148
H -2.3754973061 2.5274322537 -1.1830313111
H -1.2487828768 1.6466385308 -2.2540848579
H -3.6376957557 -0.98044796 0.9765175879
H -2.4823444671 -0.3277725808 2.153108263
H -3.6177351281 0.7564658019 1.3177089567

