# b3lyp 6-31G(2df,p) opt Freq 

 titel

0 1
C -1.6188898924 -0.0933449773 -2.2217753907
C -1.824362541 -0.0252940611 -0.7118289865
C -1.0539172822 1.1468330621 -0.009320499
C -1.5566712587 1.2992021195 1.4481262855
C -2.023886488 -0.0731019041 1.9793600594
O -1.2885496719 -1.1724357397 1.4384462803
C -0.8867311377 -0.9931597886 0.0804375675
C 0.1373083406 0.1713732192 0.0482794791
O 1.3269484961 0.2743936248 -0.0015731979
H -2.0211707705 -1.0256290302 -2.6309264778
H -2.1221321072 0.7404358764 -2.7217084301
H -0.5567636659 -0.043610261 -2.4880875959
H -2.8848385912 -0.1057762992 -0.4634930151
H -0.9317811048 2.1039090518 -0.5208032457
H -0.752443855 1.709973655 2.06731463
H -2.3931142072 2.0059898155 1.4922063854
H -1.9063598273 -0.1393152281 3.0643018549
H -3.0918722185 -0.2074374933 1.7606285563
H -0.6380999174 -1.9757326917 -0.3246797099

