# b3lyp 6-31G(2df,p) opt Freq 

 titel

0 1
C 1.2004194566 -0.3331385705 1.2449610074
C 0.9398305572 0.2601574175 -0.1445441842
C 1.7749532404 -0.3899616973 -1.2261812122
C 1.3882963646 -0.3239030573 -2.6717492954
O 2.4091065239 -0.1153021824 -3.5911354377
C 1.2690161698 -1.6530740749 -1.9454816859
O -0.058856049 -2.051529278 -1.7171035668
C 2.1938671712 -2.7074539757 -2.2556973977
C 2.9444549156 -3.612736926 -2.511638652
H 0.9544824799 -1.4004264226 1.2737880867
H 2.2533637037 -0.2324760485 1.5291152637
H 0.597907655 0.1686432388 2.0081668065
H -0.1196949552 0.1555097601 -0.3977958734
H 1.1552617101 1.3359546242 -0.1323510475
H 2.8498407473 -0.3849837459 -1.0647784632
H 0.425449132 0.1318834103 -2.9079077297
H 2.2769233585 -0.7173535967 -4.3321322355
H -0.0660372977 -2.617067853 -0.9362667706
H 3.611843886 -4.4084939621 -2.7328166824

