# b3lyp 6-31G(2df,p) opt Freq 

 titel

0 1
O 1.1906977443 -0.3658529588 -0.5118446326
C 0.0270285657 -0.2097964143 -0.274746375
O -0.8343706928 -1.2526939742 -0.1624503909
C -2.1654820043 -0.8176991566 0.1501920633
C -2.2078457038 0.7206977793 0.0010308522
C -2.8485416876 1.2443545287 -1.3126178629
C -1.6698955874 1.503374637 -2.2701099919
C -0.559178796 2.0088453695 -1.3358332517
C -0.7122475529 1.1147988834 -0.0876167056
H -2.8497622464 -1.3297903276 -0.5326303345
H -2.3936592092 -1.1392357768 1.1719266498
H -2.7064370608 1.1534580326 0.8700219305
H -3.5929868865 0.5532057793 -1.7196590137
H -3.367350131 2.1874602019 -1.1082706202
H -1.3553002848 0.568724426 -2.7503486778
H -1.9168724039 2.2094250645 -3.0670303025
H 0.4458593578 1.9364287428 -1.7578046984
H -0.7388142547 3.0548137001 -1.0643028583
H -0.3178062858 1.5905535932 0.8137909201

