# b3lyp 6-31G(2df,p) opt Freq 

 titel

0 1
C 1.4164905606 0.7086723036 -0.5496816204
C 0.0531858651 0.1303986702 -0.3040434803
C -0.1351606991 -1.1500625555 0.0344385278
C -1.4868674898 -1.6931677761 0.3021836512
O -2.294359823 -2.0968260322 -0.8406899909
C -2.6602575862 -0.91628092 -0.1157470411
C -2.4223260571 0.3929590436 -0.8892601293
O -2.3911449401 0.1421953825 -2.281175725
C -1.1223427782 1.0796999385 -0.4310214745
H 1.5970987191 1.5725823276 0.103027482
H 2.2088062457 -0.0243618665 -0.3770995472
H 1.502222026 1.076296604 -1.5799022695
H 0.7094789959 -1.8262382977 0.1364281637
H -1.5824825113 -2.3861514994 1.1369436006
H -3.5929830477 -1.0051189074 0.4379745306
H -3.262043188 1.0729197483 -0.7027736549
H -2.136557126 -0.7872361239 -2.3721749155
H -0.8925577916 1.8678913244 -1.1554331298
H -1.2826063143 1.584567986 0.5337704726

