# b3lyp 6-31G(2df,p) opt Freq 

 titel

0 1
O 1.4729530732 -0.2932202877 -0.1073237073
C 0.3032466327 -0.0245629284 -0.014452343
C -0.3102689769 0.7935779944 1.100520251
C -1.0575544769 2.019721605 0.5681455025
C -2.4076701381 1.787585215 -0.1560605878
O -3.1213948589 2.5742300462 0.8211178601
C -1.920943303 2.8018866134 1.561501059
C -1.9121503552 2.8148795707 3.0549443966
C -1.6651264532 4.0928425977 2.2604610414
H -0.4235405287 -0.3758754066 -0.7844426893
H -1.0191590241 0.1531388257 1.644016887
H 0.487807845 1.0832792913 1.7907214838
H -0.3743030975 2.660962275 0.0041333364
H -2.4926659692 2.2108195353 -1.162712805
H -2.7578667606 0.7475685784 -0.171726089
H -2.8723097525 2.712720842 3.5492435337
H -1.0784436302 2.3623241627 3.5823914204
H -2.4616092421 4.8288799988 2.2379778476
H -0.6615018638 4.5061222012 2.2414682618

