# b3lyp 6-31G(2df,p) opt Freq 

 titel

0 1
C -4.0142037747 0.3862858287 -1.4336749414
C -2.9345582542 0.0973889848 -0.3839252317
O -3.5467702225 -0.1351142364 0.8954837517
C -2.070082705 -1.1089598671 -0.7951933524
C -0.8482862834 -1.2620188354 0.1158639292
C 0.0014361497 -0.0004416235 0.1306769337
O 1.2088921786 -0.0207094381 0.255738517
C -0.7476670933 1.2757515483 0.028684441
C -2.0670667347 1.3233488994 -0.1763213303
H -4.6592722645 1.2033052747 -1.0975867421
H -3.5726518397 0.6623751521 -2.3960092148
H -4.6373717937 -0.5015771171 -1.5960438415
H -4.2488051821 -0.7836300006 0.7678373027
H -2.6874112786 -2.014963371 -0.7678687516
H -1.7458730486 -0.9786377679 -1.8347608249
H -1.1920444205 -1.4299013484 1.1446782071
H -0.2165661584 -2.1070426022 -0.1669290119
H -0.1559121059 2.1775655455 0.1549039858
H -2.5857319388 2.2794680842 -0.1894046157

