# b3lyp 6-31G(2df,p) opt Freq 

 titel

0 1
C -0.3692179194 2.3087979985 -1.2013499135
C -0.7824289925 1.2570892649 -0.1890040175
O -0.5522818866 1.8221215263 1.1116828369
C -2.2001609378 0.728860696 -0.2838822348
C -2.529999851 -0.2399248741 -1.3912419402
C -2.1934890928 -0.7750291185 -0.0239227146
C -0.7588597088 -1.2322285126 0.1703572113
C 0.0904100364 -0.0322536193 -0.2756274575
O 1.2411918988 -0.0667803788 -0.6197129679
H -0.5668898482 1.9655029562 -2.2200528289
H -0.9227222934 3.2348786177 -1.0252257276
H 0.7009178757 2.5070516248 -1.1051738312
H -1.0032697315 1.2706287912 1.760695655
H -2.9882987378 1.3651380502 0.104254147
H -3.5639470577 -0.2839804251 -1.7140057634
H -1.8126340457 -0.38592192 -2.19501936
H -2.9789124558 -1.2386152029 0.561067842
H -0.5423637662 -1.4408164975 1.2266071332
H -0.4785715256 -2.1246131873 -0.3962011784

