# b3lyp 6-31G(2df,p) opt Freq 

 titel

0 1
O -0.7303318716 0.1997109908 0.4302326642
C -2.1326080927 0.3074200506 0.4346906473
C -2.9057913239 0.3521942484 -0.9096118149
C -2.4569371951 1.8618042969 -1.0203965735
C -2.7213542877 1.7581344199 0.5164695626
C -2.9082762014 2.4335910665 1.8963435371
C -4.1704211193 1.4963147974 2.0724050269
C -4.1966000665 1.4327197778 0.5087231286
O -4.2710697407 0.3382543294 -0.4235526115
H -0.3460930765 1.0322170958 0.1394569846
H -2.5027083827 -0.446226471 1.1318591574
H -2.7814092002 -0.3671877245 -1.7168199451
H -1.4213696506 1.9450863009 -1.3571673004
H -3.0884528588 2.5512377192 -1.5847361491
H -2.0919992799 2.3275904217 2.6134386061
H -3.1965176553 3.4861032147 1.8322398885
H -3.9165791025 0.5524504816 2.5549435722
H -5.0484658761 1.9263810837 2.5570848379
H -4.8275913285 2.2519469002 0.1406260911

