# b3lyp 6-31G(2df,p) opt Freq 

 titel

0 1
C -0.0678778857 -0.3082593632 -0.2303754951
C 1.4229425488 -0.060109459 -0.085235624
C 2.0326649763 -0.8433927987 1.0696442525
O 1.729622427 1.3750854471 0.0949745425
C 2.6513466519 1.3196168258 -0.9788404918
C 1.9340454255 1.0359951791 -2.293573532
C 2.7593119493 1.1443222158 -3.5144782556
O 2.3550210426 1.5247669261 -4.5862747564
C 2.3248198037 -0.0907493456 -1.3336389607
H -0.5871014375 0.0013621154 0.6821913255
H -0.4934938112 0.2474976415 -1.0679509088
H -0.2617079347 -1.3742199843 -0.3871733756
H 1.5368478815 -0.57525065 2.0071505496
H 1.9110989846 -1.9202733624 0.9104629246
H 3.0990790387 -0.6240750205 1.1669017656
H 3.5776179652 1.876684347 -0.9008043516
H 0.8998478925 1.3440385898 -2.4039321177
H 3.8268698492 0.8466860587 -3.3774091857
H 2.9553201523 -0.9171074224 -1.635302125

