# b3lyp 6-31G(2df,p) opt Freq 

 titel

0 1
C -0.449366136 -1.820472685 -2.2076396059
C 0.0119991797 -0.6778804545 -3.0816663911
O 0.2092999686 -0.7424224923 -4.2696726872
O 0.1798805633 0.4417538159 -2.3472285821
C 0.641042919 1.6169806886 -3.0573715928
C -0.5501336889 2.3497405133 -3.7214787203
C -0.8685007813 3.458609615 -2.7485039885
C 0.0696938319 3.5885360261 -1.8127606522
C 1.187122531 2.5888236543 -1.9894204061
H -1.4010130188 -1.5665283207 -1.7319358923
H -0.5647382222 -2.7178657138 -2.8141828846
H 0.2749236525 -1.9986783901 -1.4079208126
H 1.3862531754 1.2936246817 -3.7838476128
H -0.263801468 2.7472379533 -4.7041809447
H -1.3847833876 1.6649433092 -3.9000155781
H -1.7533416919 4.0783032243 -2.8403512389
H 0.0728330948 4.3309259003 -1.0229036961
H 2.1083450735 3.0762726034 -2.3353012621
H 1.4416502651 2.046377531 -1.0730166014

