# b3lyp 6-31G(2df,p) opt Freq 

 titel

0 1
C -1.9235497557 -1.5993260773 0.9600101844
C -1.305473092 -0.3097035195 1.4622525326
C 0.1935170565 -0.0452532762 1.491597917
C 0.9853683041 -0.5843193226 0.3103894189
O 1.7525980365 0.3674451594 -0.4434110651
C 0.6187175706 -0.2365209657 -1.0672487943
C -0.6098018301 0.6222298918 -1.3024908783
O -1.7811821583 -0.1467794064 -1.085337165
C -2.2035476801 -0.3041972371 0.2416017314
H -1.2690465065 -2.283251446 0.4299384382
H -2.7079729766 -2.0787433117 1.5354681655
H -1.7973058298 0.1123262093 2.3360461963
H 0.3710566451 1.0346014951 1.5428403765
H 0.6010331279 -0.4660864867 2.4185615299
H 1.5046224588 -1.5287299183 0.4693628833
H 0.8591195026 -0.9410981085 -1.8638515684
H -0.5739386195 1.5073880225 -0.6562709539
H -0.656972257 0.9608128382 -2.3422498511
H -3.1865181564 0.1392303995 0.3897969321

