# b3lyp 6-31G(2df,p) opt Freq 

 titel

0 1
O -1.0915183668 2.6350099823 -3.2052731131
C -0.4506989245 2.7958777365 -1.9860858192
C -1.0097390924 3.8489070785 -1.045155212
C 0.2875622684 4.103977742 -1.760505477
C 0.095875988 1.5115452058 -1.4533814847
O -0.072970801 0.500296438 -2.1216355383
C 0.8176832289 1.4739175559 -0.1565921043
C 1.9501421476 0.4621596488 -0.0267045433
C 0.6655052665 0.209588866 0.6809061976
H -1.0064009349 1.6846148574 -3.391568138
H -1.8959182128 4.3492372042 -1.4180464504
H -1.0021078282 3.6646741489 0.0230610773
H 0.2685629086 4.7747695547 -2.6116015317
H 1.2151471709 4.1005929949 -1.1995622895
H 0.9300121737 2.4068227693 0.3804168489
H 2.1551666602 -0.1245809357 -0.9143323179
H 2.8172598296 0.7683034838 0.5468125035
H 0.0082764775 -0.5466813994 0.268246286
H 0.6214689108 0.3366214179 1.7562956559

