# b3lyp 6-31G(2df,p) opt Freq 

 titel

0 1
C 1.1378623961 -0.5107354701 1.2424642546
C 0.9277140664 0.1397681762 -0.1269020552
C 1.7031538934 -0.5712528342 -1.2432975382
O 1.2824332278 -1.9400799952 -1.3451102437
C 0.7998992481 -2.2255430804 -2.6529618273
C 0.9419239254 -0.9478167275 -3.4148115742
C 1.467517847 -0.004801567 -2.6274032801
C 1.7887004161 1.3711772182 -3.0456188526
O 1.5681906089 1.8190339896 -4.1486465463
H 0.8313520349 -1.5594846624 1.2178594442
H 2.1922078936 -0.4753672946 1.5388208987
H 0.5559573962 0.0010465334 2.0144360087
H -0.1365543967 0.137429655 -0.3913408471
H 1.24573734 1.1904089586 -0.0970961376
H 2.7762368856 -0.5596307042 -0.9863035336
H 1.3882968152 -3.0402771875 -3.1052905261
H -0.2446791358 -2.5732965807 -2.6105670654
H 0.6673616628 -0.8176060943 -4.4538176781
H 2.2704891048 2.0014443072 -2.2659991408

