# b3lyp 6-31G(2df,p) opt Freq 

 titel

0 1
C 1.2023023494 1.18932392 0.1843846083
C 0.9330665519 -0.318344011 0.0821888625
C 1.6203933109 -0.9533744743 -1.0808709674
O 3.0498116045 -0.9819987803 -1.1279256777
C 2.9495756994 -1.8782221332 -2.2648211211
C 2.4074421767 -0.9757138784 -3.4014980369
C 1.1291927367 -0.9064437321 -2.5702539788
C 1.4352649623 -2.2112669837 -1.8668204702
O 0.666370048 -3.3384323491 -1.7700964308
H 0.7169107576 1.6140306993 1.0680313487
H 2.2759641779 1.3838271404 0.2567491391
H 0.8256466991 1.7148551808 -0.6986173771
H 1.2612048456 -0.8160085013 1.0037550952
H -0.1426836892 -0.5091397955 -0.0115737392
H 3.8064949312 -2.5395287572 -2.3772676865
H 2.972193681 -0.0578849138 -3.5907868031
H 2.2542478466 -1.5347768313 -4.3282589319
H 0.1582606135 -0.5027974227 -2.8286562315
H 0.926605207 -3.8202862168 -0.9759449517

