# b3lyp 6-31G(2df,p) opt Freq 

 titel

0 1
O 0.2660644999 0.6134503532 0.0472743343
C -0.6859867451 -0.0906489907 0.8091968441
C -0.9438719486 0.5395517043 2.2300803531
C -2.1696100253 -0.2405204095 2.7005805026
C -2.7586929009 0.6365220134 1.5724514183
C -4.172222585 0.4351620339 1.018109388
C -3.4978728419 -0.7009472154 0.136613698
C -2.1515902963 0.0911391684 0.302312253
O -1.8335295757 1.7036480039 1.9808615259
H 0.0041985104 1.5422817768 0.0726912158
H -0.3214606433 -1.117530962 0.8932591512
H -0.0799811371 0.7832692244 2.8474661199
H -2.1804847603 -1.3294817015 2.6051722563
H -2.5229570999 0.0819685154 3.6807684715
H -4.9648912266 0.1597645704 1.7173253908
H -4.5067302719 1.2620842903 0.3865812632
H -3.516170309 -1.6695870285 0.6392396007
H -3.8734671894 -0.8157641508 -0.8807187354
H -2.1409543639 0.8711659639 -0.4661375413

