# b3lyp 6-31G(2df,p) opt Freq 

 titel

0 1
C 0.6113984847 0.8914753124 -0.8478715025
O 0.0383953309 -0.0931059697 0.0228786635
C 1.4298052325 0.1553923152 0.1192638767
C 2.4927954925 -0.9240539298 -0.1057474656
C 3.2633758594 -0.3718980996 1.1343176601
O 4.4295564569 0.3804300359 0.8557423599
C 4.04761738 1.7115764813 0.5198525606
C 2.8006091446 2.0108862569 1.3673570709
C 2.1050918348 0.6471295716 1.4115773284
H 0.6475552712 0.6191717136 -1.9024020177
H 0.31465597 1.920181241 -0.6452525958
H 2.0986730305 -1.9334188644 0.0409548178
H 3.0474022937 -0.887344265 -1.0467266227
H 3.5144362868 -1.1070942597 1.9004877614
H 4.8972730819 2.3655223586 0.7323177668
H 3.8146310867 1.7924530285 -0.5538175979
H 3.0929393602 2.3138211482 2.3776004789
H 2.1815891816 2.8038583109 0.9391125912
H 1.5000555912 0.4813680941 2.3042288859

