# b3lyp 6-31G(2df,p) opt Freq 

 titel

0 1
C 1.3515996136 0.6464354296 0.1651842987
C -0.0534286624 0.1684746873 -0.0145910416
C -1.1574470978 0.8803263387 -0.2447741874
C -2.4037724335 0.0365099179 -0.3475364241
C -1.9258131325 -1.3518832524 0.1398055546
C -0.3703745675 -1.3280461269 0.0554213187
O 0.2442189959 -1.9706029173 1.1447612941
C 0.1003419811 -1.9857637148 -1.2334613189
O 0.9206647752 -2.8718981925 -1.2471526482
H 1.7475696748 0.2974235801 1.124584063
H 2.0169725372 0.2459556986 -0.610708006
H 1.4109390569 1.7371530721 0.1344001307
H -1.1761081908 1.9602303207 -0.3530802824
H -3.2302161328 0.4306891763 0.2549163755
H -2.7745126903 -0.0016011387 -1.3807869083
H -2.1606458561 -1.4988722994 1.1968173316
H -2.373349552 -2.1825505757 -0.4141319342
H 0.8237056568 -2.6479756309 0.7601586992
H -0.3536260059 -1.5937051625 -2.1663825852

