# b3lyp 6-31G(2df,p) opt Freq 

 titel

0 1
C -2.0890239724 2.3550208008 1.7521844439
C -1.9667871516 1.4187715958 0.5388037331
C -2.651336749 2.0320300467 -0.6896415989
O -2.6812906814 0.2034839703 0.7932883045
C -0.51814299 1.1018536195 0.2392669648
C -0.0102420938 -0.1320160942 -0.0298971915
O 1.3289191203 -0.0673790299 -0.2657153292
C 1.683852094 1.2375032635 -0.1480494342
C 0.6040986615 2.0003482292 0.1592815426
H -1.6141565068 1.9107082565 2.6338532376
H -1.6070581237 3.3197725339 1.5670134965
H -3.144887965 2.5314490001 1.9757225604
H -2.6102605963 1.3307312005 -1.5264603089
H -3.699781217 2.2494371839 -0.4652559188
H -2.1538948581 2.958882816 -0.9877360109
H -2.2985309416 -0.1931582531 1.5839945073
H -0.4578684186 -1.108091814 -0.1010495619
H 2.7272739631 1.4559769256 -0.305762374
H 0.6006415762 3.0684928789 0.3117058076

