# b3lyp 6-31G(2df,p) opt Freq 

 titel

0 1
C 2.5682044108 1.4796309406 -0.270302401
C 1.7059080185 0.233660854 -0.1456402415
C 2.0906173071 -1.0069644519 -0.9887561238
O 2.158014233 -1.8428834508 0.19320762
C 1.9385892793 -0.7165098072 1.0325062702
C 1.2966636031 -0.8442762471 2.3514358907
C 2.7892575525 -0.4698176592 2.2715359911
C 3.7874332496 -1.4861666032 2.6701265536
O 4.861748705 -1.2297545108 3.1583272571
H 2.3080801845 2.2222586235 0.4913128676
H 3.6301409271 1.2394238384 -0.1588034413
H 2.4265130201 1.9495654171 -1.2490522156
H 0.6466020366 0.4869437187 -0.2508742549
H 1.3433719615 -1.3745717269 -1.6987212712
H 3.0654708517 -0.9339568515 -1.4863114253
H 0.6100211907 -0.0773111348 2.6933176834
H 1.0690542302 -1.8506699005 2.6908966487
H 3.0705203078 0.5545565236 2.4929920891
H 3.4741031809 -2.5365467619 2.4810128432

