# b3lyp 6-31G(2df,p) opt Freq 

 titel

0 1
O 0.9664902698 0.7834312923 -0.5471259085
C -0.1280844919 0.3650495201 0.2597351329
C -1.3832228062 0.5179988277 -0.5477776895
C -1.79851981 1.7803416122 -1.3228388983
C -2.7860913348 0.8266985544 -2.0468772849
C -3.7659823062 0.4789830223 -0.9064762474
C -2.6897324922 -0.2516031374 -0.0812944283
O -2.3643280799 -1.3669227597 -0.9662067156
C -1.7409711044 -0.3582601963 -1.7706033697
H 1.7743849142 0.6709568302 -0.0380323179
H -0.0241656381 -0.6885816505 0.563256606
H -0.1972362302 0.9705975552 1.1792080008
H -2.2210851825 2.6331353814 -0.7823036793
H -0.9744499083 2.112926114 -1.9581440997
H -3.1830490122 1.0446280066 -3.0362330392
H -4.1882248581 1.3664607492 -0.4272103942
H -4.5657591385 -0.2113744055 -1.1817370324
H -2.8840648694 -0.5490384316 0.9491864286
H -1.0634273109 -0.7107159646 -2.5457080333

