# b3lyp 6-31G(2df,p) opt Freq 

 titel

0 1
O 1.3616114733 0.8476050253 0.1670733272
C 0.3120856141 -0.0517954938 0.486728893
C -0.9544158821 0.6849651331 0.9084829009
C -1.9867534463 -0.1906052775 1.6866294637
C -3.1453974153 0.7907824402 2.0280902888
C -2.1384587471 1.4848791325 2.9417949334
C -1.2781558879 0.2346669929 3.0383699396
C -0.7698644781 1.4028319425 2.2451111682
O 0.2981982613 2.2189370632 2.5957750432
H 1.5008220064 1.3878137411 0.9551524118
H 0.1269879111 -0.645107265 -0.415512706
H 0.6119513137 -0.7519766101 1.2845225864
H -1.3476389313 1.2715178751 0.0681291678
H -2.184972731 -1.2119527087 1.367700295
H -3.5899325507 1.3533787055 1.1986563325
H -3.9351870968 0.3014442463 2.6050905039
H -2.307932864 2.2188262294 3.7202569658
H -0.8810746137 -0.30362352 3.8855507381
H 0.0903122647 3.1226481777 2.3308361265

