# b3lyp 6-31G(2df,p) opt Freq 

 titel

0 1
C -2.7379184317 1.1515049665 -1.921245219
C -1.4102716504 0.5925619267 -1.4394715229
O -1.4943702034 -0.8555494413 -1.2741834764
C -1.0250857338 -1.059475391 0.0649427143
C -1.7684884267 0.0404063317 0.8703430147
C -0.9196706321 1.016426591 -0.0304832871
C -0.6727823708 2.4729598867 0.2634085284
C 0.166969874 -0.0784158584 0.1471555948
O 1.3317544165 -0.0978721132 0.405205624
H -3.5261167468 1.0428297017 -1.1714581158
H -2.6383248259 2.2123013934 -2.1732813088
H -3.052375529 0.6160392526 -2.822073659
H -0.6348876618 0.8136898283 -2.1868332532
H -1.0037238304 -2.1162316687 0.3167859687
H -2.8520818832 0.058676377 0.7457965111
H -1.4885601353 0.0848699664 1.9251299861
H -0.248028076 2.6025097399 1.2632463442
H 0.0380221438 2.8957820822 -0.4547985555
H -1.596011287 3.0586006686 0.2072573014

