# b3lyp 6-31G(2df,p) opt Freq 

 titel

0 1
C 3.1940803708 -5.3961577696 -1.0101137122
C 2.5449128086 -4.0962738023 -0.6332495532
C 3.1503465395 -2.8189314625 0.0060365608
C 1.6632493875 -2.4370211411 -0.1637514183
C 0.8913072822 -1.1928826503 0.1644376077
O -0.4801326812 -1.3210601829 -0.1787499132
C 1.5489221758 -3.2516150678 -1.4926614731
O 0.3556650198 -3.9943057125 -1.0664609345
C 1.1968901406 -3.8988094981 0.1335307097
H 3.6415855721 -5.8831669638 -0.1372100699
H 2.4515694684 -6.0768252962 -1.439045139
H 3.9866308894 -5.2431908966 -1.7503010869
H 3.515935348 -2.9144647254 1.0328936971
H 3.8700255749 -2.2635124805 -0.602883878
H 0.9817643048 -0.9730032623 1.2397128524
H 1.3262745066 -0.3345032298 -0.3712215581
H -0.6082737199 -2.1999204989 -0.5606704167
H 1.6138427787 -2.9227015989 -2.5300524082
H 0.8372153033 -4.3506396005 1.0582147638

