# b3lyp 6-31G(2df,p) opt Freq 

 titel

0 1
C -0.0542300497 -0.014060673 0.1581300593
C 1.3751264657 0.359034827 -0.2117883721
O 2.10349176 0.7270976109 0.9817360086
C 2.7479979911 2.020091685 0.8586675311
C 1.8882068584 2.7682675689 -0.1501773825
C 2.2942522803 3.0927468007 -1.6200306246
C 0.9037419521 2.5649500632 -2.1064885929
C 1.5085060915 1.5925211791 -1.0667286563
O 2.8248696559 1.7316447148 -1.7658727472
H -0.0449224296 -0.7860710581 0.9315640649
H -0.5944954667 0.8529633567 0.5506556346
H -0.5922026555 -0.4001372536 -0.7136145784
H 1.8853302687 -0.4864918807 -0.6914626314
H 2.7455989781 2.466983277 1.8556633327
H 3.7785924702 1.8978311752 0.5124283554
H 1.0677435393 3.348577542 0.2781278357
H 2.8872633088 3.9146732794 -2.0225484388
H 0.0060891491 3.1203500265 -1.8235984632
H 0.8877896625 2.2100382391 -3.1369616549

