# b3lyp 6-31G(2df,p) opt Freq 

 titel

0 1
O 2.5812465756 3.8206625633 2.2625121108
C 3.0238328972 2.7064100177 1.5072242915
C 2.7002821867 1.3726456162 2.1914044167
C 3.1584495752 0.1555681084 1.4116893316
C 2.5038000102 -0.0947609883 0.051493553
C 1.0456842469 -0.1135108649 0.0977028597
C -0.1550736591 -0.1167625296 0.1429485913
C 4.502201751 -0.3992993073 1.6364698413
O 3.3464322208 -1.0267219668 2.1967136625
H 3.0431464186 3.8072451439 3.1069795108
H 2.4992498268 2.7801423513 0.5490901148
H 4.1035186919 2.7683713546 1.2927128037
H 3.1818777408 1.3400610111 3.176121435
H 1.619319719 1.3130269294 2.3554130253
H 2.8361042411 0.6765707506 -0.6560235882
H 2.8747485823 -1.0519572159 -0.3311148224
H -1.2162721551 -0.1282437185 0.1790788342
H 5.0011637754 -0.9578462461 0.8450896421
H 5.1698631547 0.078835971 2.3523110662

