# b3lyp 6-31G(2df,p) opt Freq 

 titel

0 1
O -1.7140207626 1.3789176597 1.6711289883
C -1.5586292747 0.3332207776 0.7725834237
C -2.4487288213 0.2605140743 -0.4987647352
C -1.8681198411 -1.177399613 -0.5028446585
C -1.9712762654 -1.1573845194 1.0416363504
O -0.4589785021 -0.9748865382 -0.7473394782
C -0.1868458598 0.1103678107 0.1347269243
C 0.7585806358 1.191159932 -0.2610359236
C 1.1256249328 0.199235234 0.8399430121
H -1.1659428338 1.2008167525 2.4437695021
H -3.5137270233 0.2964450301 -0.2648204054
H -2.1973225986 0.9087630832 -1.3399928668
H -2.2400015995 -1.9835484653 -1.1298377482
H -2.9939356572 -1.243819867 1.4119853509
H -1.2821883182 -1.7985834331 1.5958192559
H 1.2663583839 1.0887325001 -1.2134925724
H 0.5149927189 2.2080630417 0.029521326
H 1.8655490763 -0.5582392396 0.6063405648
H 1.15616806 0.5572464499 1.8657839599

