# b3lyp 6-31G(2df,p) opt Freq 

 titel

0 1
O -2.1117833512 -1.4243925722 1.2588477122
C -1.0707429202 -0.4653067625 1.2031604157
C -1.4294815815 0.8376583357 1.9317189001
C -0.3491893719 1.8773308892 1.827670954
C -0.1970101259 2.8150293167 0.6828723079
C -0.4722117125 3.4151355347 2.0601175999
C 0.774974637 3.3591106959 2.8831981536
O 1.3062643479 4.1259514358 3.63549332
C 0.9843896064 1.8451727587 2.604522525
H -2.223875549 -1.6879944916 2.1777803918
H -0.1264341239 -0.8705733366 1.6004363144
H -0.9095970337 -0.2604342788 0.1396186083
H -2.3657942159 1.2220920993 1.5111210298
H -1.625055973 0.6131481971 2.9901484422
H 0.7672288079 2.9668737772 0.2052646489
H -1.043109651 2.8904706609 0.0062170564
H -1.3428912455 4.0354168036 2.2362881056
H 1.8785632756 1.5414921761 2.0523187706
H 0.9375665402 1.2888481708 3.5462091638

