# b3lyp 6-31G(2df,p) opt Freq 

 titel

0 1
C 3.361946971 1.8982730347 -1.6378682234
C 2.5249468688 0.6553344393 -1.9962265446
O 3.3531935096 -0.5036930313 -2.0295938715
C 1.8963149691 0.8101714122 -3.3099950394
C 1.3423324405 0.9720697871 -4.3636627819
C 1.4193256166 0.4426991453 -0.9385941083
C 0.5641108256 -0.8352022099 -1.0345732559
C 1.1219073789 -1.145085389 0.3667934881
O 2.0169501675 -0.0038740517 0.3071944431
H 3.7511361988 1.7928040665 -0.6205139079
H 4.199571742 1.9871906332 -2.3324590504
H 2.7590499461 2.8092099606 -1.6898253399
H 3.5565415096 -0.6786447755 -1.0993851075
H 0.8670673283 1.1069282013 -5.3039643307
H 0.8516956084 1.370507922 -0.7983592437
H -0.5132052643 -0.690617374 -1.1114966217
H 0.9080014455 -1.5166959981 -1.8123582896
H 0.4036196163 -1.038370196 1.1881524461
H 1.6699059816 -2.0853057167 0.4880464191

