# b3lyp 6-31G(2df,p) opt Freq 

 titel

0 1
C 1.4161519357 0.09203768 -0.6732725267
O 1.0838473607 -0.2364427285 0.6646595183
C 0.0759553301 0.5479325734 1.2022865004
O 0.5007762953 1.9179552858 1.3284588023
C 0.0410282023 2.3791745049 2.5792186282
C 0.5359982219 1.7189496143 3.8513559911
C 1.0277395688 0.3088841665 3.5249738013
C -0.2427448661 0.1181983804 2.6334222606
C -0.8488033249 1.4007155668 3.2622464309
H 1.8356052646 1.1018668615 -0.7432746796
H 2.1599899778 -0.6357715592 -1.00428524
H 0.5350062988 0.0275746045 -1.3294103151
H -0.8118285731 0.5247058867 0.5429903554
H -0.1684535629 3.4419226545 2.5936570017
H 0.7789546092 2.2996351021 4.7345571057
H 1.9939360528 0.2022576357 3.026490473
H 0.9907446108 -0.3399575732 4.4027231597
H -0.7775211215 -0.8266258353 2.7071293779
H -1.8519660902 1.568115879 3.6307476449

