# b3lyp 6-31G(2df,p) opt Freq 

 titel

0 1
C -0.7944252263 2.3378173536 1.2761992719
C -1.0120468327 1.349987091 0.130037562
C -2.3182553151 0.5236333288 0.105007852
C -2.0013242168 -0.5289273494 -0.9981405611
C -0.9596280167 -1.0433958178 0.0531057022
C -2.0296079959 -0.6031185889 1.132109323
O -3.1356760241 -1.4622231831 1.2636149932
C -0.0289629998 0.1506155249 0.1457718177
O 1.1683914456 0.1829849911 0.2579014189
H -0.9716382798 1.8803084801 2.2542916427
H 0.2376376245 2.6993903218 1.2616660215
H -1.4630257553 3.1990226628 1.1832011367
H -0.8924400035 1.8809272326 -0.8233188849
H -3.2642053905 1.0641588708 0.1323739162
H -2.8095547315 -1.2428677674 -1.142152044
H -1.6205089805 -0.1685030353 -1.9573702305
H -0.5095318717 -2.0346102712 0.0342216115
H -1.6407901688 -0.3127362784 2.1163317894
H -2.859137101 -2.233943966 1.7679716415

