# b3lyp 6-31G(2df,p) opt Freq 

 titel

0 1
C 3.4150975074 0.4227248046 1.5584249724
C 2.0353761011 0.8662068463 2.0590393115
C 2.1140264982 1.546793614 3.438119417
O 0.8590678539 1.6370103482 4.0807093029
C 1.3396327937 1.782428316 1.0512888116
C 0.2252290961 1.2714341958 0.2250907323
O -0.0473216088 2.0820938421 1.365644651
C 2.091640826 2.919387557 0.5707292189
C 2.7349885295 3.8574891089 0.1821414456
H 3.8517571195 -0.3038261527 2.2497537555
H 3.3501755321 -0.0458510061 0.5714231699
H 4.099515183 1.2725015752 1.4786946131
H 1.3931687547 -0.0141020529 2.1815401507
H 2.7566982414 0.9514235118 4.0963739066
H 2.5904185452 2.5357153849 3.3274257622
H 0.226078193 1.972256757 3.4347629598
H 0.0113491353 1.740290843 -0.7328500305
H -0.0538860889 0.2225348409 0.3137864859
H 3.2949754976 4.6917037761 -0.1630366465

