# b3lyp 6-31G(2df,p) opt Freq 

 titel

0 1
C 0.4269326493 0.6468545637 1.361471506
C -0.7848815342 0.4353771743 0.5837744271
C -1.7909731107 0.2561120005 -0.054518604
C -3.0298664873 0.0245855977 -0.7981693208
O -4.1488706173 0.7734127587 -0.3404568958
C -4.5300739458 0.500175338 0.9940443497
C -3.9334059516 1.4464363661 2.0458066774
C -3.5688412658 2.8406231037 1.5831034855
O -3.8384526547 1.0824705123 3.1945823975
H 0.1824322589 0.9308290966 2.3906766417
H 1.0316048759 -0.2654160122 1.4043596492
H 1.0473983613 1.4405922727 0.9319513077
H -2.9045415669 0.3104564266 -1.8477566259
H -3.2688377905 -1.051079138 -0.7789451507
H -5.6199267408 0.6343200884 1.0390622885
H -4.3111903166 -0.5327781846 1.2915206315
H -3.3016613211 3.4528073842 2.4453654855
H -2.7308469807 2.7898146052 0.8824575912
H -4.4044362312 3.2936599061 1.0386013186

