# b3lyp 6-31G(2df,p) opt Freq 

 titel

0 1
O -0.7931365178 -0.8394569345 1.0678428848
C -0.1732686176 0.308435674 0.5302263558
C -1.1757174814 1.3136049565 -0.0724439109
C -2.196585757 1.7923005272 1.0150918079
C -1.6677785943 3.1432040251 1.4273702728
C -0.7205750097 3.5875748837 0.6064493152
C -0.4356687753 2.6146108215 -0.5130185496
C -1.9258672793 0.6859739313 -1.2238437452
O -1.8819879944 -0.4821586444 -1.5336246548
H -1.1879455334 -1.2962890318 0.3136354987
H 0.3633936465 0.7951570064 1.3516600977
H 0.5664611876 0.0424182939 -0.2404210108
H -3.2183995683 1.8814987263 0.6169513825
H -2.245522319 1.05621205 1.823210205
H -2.0568645096 3.676791105 2.2873312382
H -0.2108106178 4.5410236415 0.6862794238
H -0.811708808 2.9991726764 -1.4724694579
H 0.6348572953 2.4272413372 -0.6628570534
H -2.5713856964 1.3929311148 -1.7945592899

