# b3lyp 6-31G(2df,p) opt Freq 

 titel

0 1
C 0.1094719657 0.5827711092 -0.2380372088
C 1.0271657458 -0.110569955 0.7139500967
C 0.7936810026 -0.4488781453 2.1986397443
C 2.3524124411 -0.3821662102 2.4170227803
C 3.0511705098 -1.6185077447 2.9053647183
C 3.4045295547 -1.8106822264 4.3172293444
O 4.4003142447 -1.4490627599 3.3603129406
C 2.486973602 -0.0656756102 0.9142498254
O 1.8764657204 -1.153275206 0.2035914844
H -0.257026453 1.5216013568 0.1895500663
H 0.6265159727 0.8010565975 -1.1761097175
H -0.759926629 -0.0444662843 -0.4659840909
H 0.264517756 0.330163463 2.7524843726
H 0.3128789838 -1.4142560655 2.3779234387
H 2.6349408113 0.4724613202 3.0380314239
H 2.896258558 -2.5031555321 2.2881042557
H 3.1532105829 -1.0386030617 5.0443733621
H 3.4867037332 -2.817978993 4.7236425771
H 3.2668997775 0.4852518477 0.4003302466

