# b3lyp 6-31G(2df,p) opt Freq 

 titel

0 1
C 4.6892026568 -4.1439465384 -4.0278885966
C 4.6819459245 -5.2834092433 -5.0216487184
C 5.928371676 -5.9709366467 -5.3973568019
O 5.3262314973 -5.0173731931 -6.2735737409
C 3.3984197326 -6.0304408252 -5.1361227295
C 2.7934977138 -7.088505155 -4.1902504842
C 2.0664106573 -7.7082113506 -5.4372366793
C 2.7062297393 -6.608802253 -6.2976709779
O 2.2880991201 -5.3523530735 -5.7438330052
H 4.4715816511 -4.5070212623 -3.0176713717
H 5.6620634477 -3.6469082317 -4.0203254875
H 3.9225555147 -3.4114017778 -4.2974240294
H 6.8669612446 -5.6611986357 -4.9392432149
H 5.8967028789 -7.0042787623 -5.7404600879
H 3.5373968343 -7.7636441554 -3.7604419243
H 2.1587532317 -6.6880893654 -3.3967513207
H 2.429225233 -8.7107419527 -5.6757728648
H 0.9743534602 -7.7071620011 -5.4243889841
H 2.9830006361 -6.6153320869 -7.3450665708

