# b3lyp 6-31G(2df,p) opt Freq 

 titel

0 1
C 2.1411861023 1.6551770031 0.6098801537
C 1.6559260452 0.2780651811 0.1777919558
C 2.4592023997 -0.3530639543 -1.0073560926
C 2.9447650266 -1.4807580181 -0.0915534401
C 4.2915500869 -2.0561000871 -0.0156516198
O 4.6595109088 -2.8415411727 0.8314711408
C 1.7620608982 -2.1889363112 0.561934493
O 0.5552468093 -2.3487124264 -0.1152198201
C 2.1139918243 -0.8658701057 1.0985639111
H 1.6542828425 1.972593952 1.5384662669
H 3.2235402405 1.658043555 0.7832085353
H 1.9211682742 2.4044921669 -0.1577526522
H 0.5742451314 0.2881021539 0.0189335721
H 1.8733002095 -0.6672666427 -1.8750374135
H 3.2739757277 0.2952812203 -1.3419088356
H 4.9885717688 -1.7083179819 -0.8132564637
H 2.0813865034 -3.0321193491 1.1729849338
H 0.6417768419 -3.1008644034 -0.7105343023
H 2.4704737188 -0.7437964195 2.1157122174

