# b3lyp 6-31G(2df,p) opt Freq 

 titel

0 1
C 1.1496430044 1.593627608 -0.2800504936
C -0.3225630445 1.4770481282 0.2108260303
C -0.156930035 -0.0495671727 0.1739359254
C 1.3762861882 0.1219529612 0.1703834895
O -0.7706919874 -0.8864307873 1.1863805204
C -1.3747716367 -1.7389690179 0.2012939555
C -2.7554435051 -1.2507544031 -0.2661565263
O -2.1490187702 -0.4120571366 -1.2868661023
C -0.8295407395 -0.8710302808 -0.9458871364
H 1.2140756112 1.7085120583 -1.3649589668
H 1.7732463279 2.3567542742 0.1881033959
H -0.4358991329 1.8220607756 1.2424356399
H -1.1233332865 1.8947508784 -0.4023990658
H 1.7615618288 0.0621078848 1.1920688541
H 1.9629588894 -0.5422328067 -0.4707520367
H -1.2042730755 -2.8010140169 0.3825888237
H -3.3940498755 -2.0192795971 -0.7192500775
H -3.320314105 -0.6779075269 0.476439177
H -0.2419348963 -1.1801593126 -1.8127863763

