# b3lyp 6-31G(2df,p) opt Freq 

 titel

0 1
C -2.4349309908 2.9925074563 0.7755581
C -1.1003345119 2.4086840944 0.3712159249
C 0.1242946523 2.9936137946 1.0376219936
O -0.9551847483 2.1469482214 -1.0330495361
C -1.0508712728 1.0274384228 -0.1756899556
C -2.1246976699 -0.0763716299 -0.2174641856
C -1.0452512669 -1.1189333746 0.2118064601
C 0.0302241775 -0.0215622571 0.0497853711
O 1.2273234421 -0.0086489684 0.0621735509
H -2.6193248417 2.8360945954 1.843701098
H -2.4430855259 4.0722505339 0.5907181383
H -3.2512221781 2.5426852744 0.2067336566
H 0.0514755793 2.9023030378 2.1265221167
H 1.0281812965 2.48341085 0.7009703703
H 0.2070818881 4.0589639783 0.7961750098
H -2.9648956397 0.0506049469 0.4672844135
H -2.5079048489 -0.2437566387 -1.2264706495
H -1.1333193696 -1.4747355181 1.2422693212
H -0.9102929611 -1.9817539793 -0.4444933481

