# b3lyp 6-31G(2df,p) opt Freq 

 titel

0 1
O 0.0793308295 0.1566416939 0.0141736153
C -0.9078252425 -0.0412446775 1.0191036349
C -0.9482729342 1.1241952323 2.0253474569
C -2.173352342 1.0502232757 2.9088136616
C -3.3367813736 0.5666725053 2.4690800382
C -3.5081046619 0.0987436039 1.0692648084
O -4.6103032935 0.6447008651 0.3878393515
C -3.195818537 -1.3188961588 0.6819346956
C -2.2434010592 -0.2018126033 0.3008507946
H 0.9358995555 0.2207901842 0.4490731408
H -0.6928760204 -0.9633259776 1.5835543176
H -0.0373720431 1.1195929776 2.6371618345
H -0.9361505084 2.0683388721 1.4624709468
H -2.0821621006 1.4016021101 3.933251368
H -4.2135971774 0.5293974444 3.1108974897
H -4.4765508476 1.5980654304 0.3390226748
H -2.889760516 -2.0105185188 1.460385178
H -3.8103465856 -1.7444872515 -0.1036236379
H -2.2223971021 0.0915841025 -0.7428402392

