# b3lyp 6-31G(2df,p) opt Freq 

 titel

0 1
C 1.449884589 0.81601665 -0.4234533375
C 0.0423755761 0.3581393431 -0.1680016231
C -1.0099278529 1.1788962813 -0.1451757305
C -2.4117956054 0.6963420263 0.1527485994
C -2.3406604711 -0.689441261 0.8124393608
O -1.4799493521 -1.5505094471 0.0900072457
C -0.1351828512 -1.1164696176 0.1030251312
C -3.1945467566 0.6427473818 -1.1541749312
O -4.0113106165 1.4581631019 -1.4967401616
H 2.1111252819 0.5516707858 0.4117621514
H 1.8676626758 0.3346711817 -1.3168483452
H 1.4985328223 1.8984985287 -0.5643808852
H -0.8884428369 2.237382022 -0.3594849615
H -2.925831089 1.406782028 0.8096947207
H -2.0001981263 -0.5765072836 1.8541274089
H -3.3187263943 -1.1798800154 0.8269001186
H 0.3422133358 -1.367509152 1.0688500998
H 0.3805957867 -1.7067561022 -0.6638273829
H -2.9256585153 -0.2235953815 -1.7979057179

