# b3lyp 6-31G(2df,p) opt Freq 

 titel

0 1
C -1.6846753675 2.4900111707 0.8689822506
O -1.6415323086 1.6796756885 -0.3325997936
C -0.2661825723 1.3694938683 -0.1222299569
C 0.7637028238 1.4714345041 -1.2487250406
O 1.3549170864 0.2145166093 -0.8502072533
C 0.2809870864 -0.0567249576 0.0916231113
C 0.7343141927 -0.1414463343 1.5595003188
C -0.0214370964 1.0030451135 2.2876338116
C -0.232301143 2.1088154052 1.2291393839
H -1.8493390451 3.5463820935 0.62754197
H -2.4609704411 2.1522368651 1.5653335061
H 0.3059351804 1.4152410082 -2.2452207868
H 1.4788713548 2.3022121615 -1.2195138996
H -0.3471796355 -0.8892546313 -0.2429794221
H 0.5469051056 -1.1158776705 2.0181571713
H 1.8147223277 0.0323200367 1.5801733569
H -0.9946145823 0.6377235032 2.6353755125
H 0.5159948641 1.3568843766 3.1713308471
H 0.4668053099 2.9406957592 1.3290325129

