# b3lyp 6-31G(2df,p) opt Freq 

 titel

0 1
C 1.3726210225 -0.02463635 -0.1703117269
O -0.0122450712 -0.0674413715 0.0821802925
C -0.3940634182 0.7257157411 1.1818693025
C -1.9044985264 0.5932976509 1.3453641039
C -2.455295014 1.4222970656 2.5362738076
C -1.9575535458 0.8180869133 3.8549344747
O -1.1007185658 1.3059217031 4.5404309989
C -3.9130117426 1.4430207504 2.5446720631
C -5.1141983739 1.4221229626 2.5838910403
H 1.9561823167 -0.3923348796 0.6883579454
H 1.5672827554 -0.6678615552 -1.0316897816
H 1.7139739106 0.9962669697 -0.4038660039
H 0.1326805213 0.4030961542 2.0954132839
H -0.1199266992 1.782182641 1.0142135739
H -2.3979653201 0.9265565592 0.4282332652
H -2.166043869 -0.4623915289 1.4787878068
H -2.0604376827 2.4439371037 2.4852437424
H -2.45143599 -0.1428459544 4.1205147042
H -6.1760543576 1.4238350549 2.6083420372

