# b3lyp 6-31G(2df,p) opt Freq 

 titel

0 1
C -2.3347784468 2.0668932629 -2.2733416758
C -2.6562098605 1.6949154485 -0.841448717
O -4.0263852584 1.3764585744 -0.7838620695
C -1.7670610855 0.632307351 -0.1171666319
C -1.8792586588 1.4731812476 1.1798228499
O -3.0313379977 1.1369392839 1.9421057295
C -2.2200392714 2.7117697522 0.2964534367
C -3.1573887387 3.7025160897 0.7705355612
C -3.9465016775 4.5275422096 1.147704404
H -2.5828982668 1.2359440765 -2.9411120574
H -2.9282206252 2.9344347981 -2.5771318487
H -1.2740546745 2.3057446763 -2.3915027107
H -4.249283042 1.2411111207 0.1473626646
H -2.1723557114 -0.3821503639 -0.0807683197
H -0.7440089427 0.6056695005 -0.503373806
H -0.994504922 1.5559292996 1.8218497335
H -2.9052127655 0.2482757522 2.2919529287
H -1.2792435382 3.1865607411 -0.0033824238
H -4.6448413263 5.2526677391 1.4847394024

