# b3lyp 6-31G(2df,p) opt Freq 

 titel

0 1
C 0.4150925848 1.4777764892 5.319081513
C 0.8902363914 1.90389197 3.9250968899
O 1.0406226727 3.3165505368 3.8379087166
C -0.0395208421 1.4204122934 2.8572427349
O -1.3681461893 1.9733115507 2.8565864516
C -1.500776166 1.4225826499 1.5121644825
C -1.5748128662 -0.1060050755 1.7590340026
C -0.1171445371 0.0302035084 2.2037943864
C 0.0613928546 1.3057907803 1.3754135288
H 0.425931055 0.3880029839 5.4225354435
H 1.0684033584 1.9129226841 6.0791315778
H -0.6073789588 1.8264170115 5.4943508587
H 1.8848597987 1.4840189738 3.7308979392
H 0.1538083412 3.6753196134 3.7117126658
H -2.203150595 1.9683348544 0.88619195
H -2.3265218479 -0.4465285207 2.4778507418
H -1.6533230506 -0.6638168022 0.8224221592
H 0.6103680096 -0.7478371967 2.3974701553
H 0.7950189066 1.6257195952 0.6493728025

