# b3lyp 6-31G(2df,p) opt Freq 

 titel

0 1
C 0.9118579984 2.9381295457 -0.5852903389
C -0.4988549836 2.5658653088 -0.2125385298
O -1.3243921331 1.9838797383 -1.2184053239
C -1.0011916939 1.1810891589 -0.0725584238
C -2.1192541745 0.7703251686 0.8749356002
C -2.206897256 -0.7669657561 0.7308514139
C -0.7525058003 -1.2023683007 0.4778401986
C -0.154955585 -0.0596220256 -0.3418817813
O 0.785348417 -0.1319683969 -1.0917567553
H 1.5018833214 3.128079882 0.317930128
H 1.3820311759 2.1408675965 -1.1604278036
H 0.9065691276 3.858103442 -1.1794121143
H -1.0268491517 3.3030351116 0.3994234225
H -1.8483021698 1.0347733907 1.9044802149
H -3.0516158886 1.2846827658 0.6322274093
H -2.6525155936 -1.2480168369 1.6042307919
H -2.8241661925 -1.0241503827 -0.1367713029
H -0.1948300963 -1.2619994499 1.4233051154
H -0.6294312813 -2.15838802 -0.0344921808

