# b3lyp 6-31G(2df,p) opt Freq 

 titel

0 1
O 0.7878943081 1.1256994651 0.308328892
C 0.4553995558 -0.2118585575 0.6479282454
C -0.7258157675 -0.267294821 1.5796461738
C -0.6367602221 0.2842871353 3.0019572748
C -1.7395545136 -0.4191298356 3.8010528792
C -3.1838150533 -0.2260254522 3.4225535795
C -2.431725465 -1.4244837982 2.8929905074
C -1.8060587462 -1.269988961 1.5262157372
O -1.9858583808 0.026226047 0.9298680075
H 0.0016401613 1.5094421887 -0.096641823
H 0.2356797066 -0.8127259838 -0.2471702913
H 1.3437230084 -0.633417529 1.1302612218
H 0.3450177034 0.0329068378 3.4187160578
H -0.7206678364 1.3753858533 3.0129939681
H -1.5238015328 -0.6716528338 4.8332571524
H -3.9224324886 -0.4093198333 4.195497042
H -3.4404023058 0.5500661634 2.7123323385
H -2.6939501939 -2.4228243448 3.2216369794
H -1.8121884375 -2.1024511804 0.8270891877

