# b3lyp 6-31G(2df,p) opt Freq 

 titel

0 1
C -0.2240109142 1.8809607514 -0.4982515616
C 0.5368509602 1.4929182478 0.7530318139
O 1.7482826702 1.43422594 0.7844469104
C -0.2924644027 1.1858482836 1.9603879482
C 0.265417454 1.5441736041 3.3098012645
C 0.2404699449 0.0972537348 2.9019416023
C -0.7778137303 -0.795111999 3.5395492091
C -0.3554343982 -2.2316192037 3.7702882683
O -1.8749713961 -0.3825525662 3.8526615713
H -0.8460984831 2.7623007796 -0.3039161737
H 0.4725983842 2.0903646714 -1.3104384907
H -0.9051403344 1.0731985919 -0.7903027387
H -1.3712217048 1.2130598937 1.8583158022
H 1.2338702203 2.0300984114 3.3178383353
H -0.4492607302 1.8443017424 4.0669321277
H 1.186916657 -0.3397739857 2.6050882707
H -1.1641573938 -2.7883109801 4.244443707
H -0.0871851259 -2.7027467423 2.817507735
H 0.5403481128 -2.2651950953 4.4011345988

