# b3lyp 6-31G(2df,p) opt Freq 

 titel

0 1
C 1.3550242547 0.6712672749 0.7459144625
C -0.0152193508 0.1917516997 0.3536716593
C -1.0218956947 1.011460283 0.0408517192
C -2.4209958909 0.5187945192 -0.2126510846
C -2.5847425249 -0.8552961914 0.4296610839
O -1.5433782756 -1.7269914449 0.0165428576
C -0.2369996494 -1.3140265184 0.3624668388
C 0.672704377 -1.9606030387 -0.6882227565
O 1.8453718237 -2.1763502246 -0.536960879
H 1.5838457241 0.38960994 1.7817396994
H 2.1401207319 0.2257968974 0.1276378731
H 1.4196540865 1.7595138365 0.6687381841
H -0.846707962 2.0845896293 0.0239883208
H -3.1525431212 1.2175674328 0.211414234
H -2.635494389 0.4597621146 -1.2882821121
H -2.5917024289 -0.7566681098 1.5262936925
H -3.5148158349 -1.3425700689 0.1253408076
H 0.0583776248 -1.7168430491 1.3470692339
H 0.1317805394 -2.1977693615 -1.6296699246

