# b3lyp 6-31G(2df,p) opt Freq 

 titel

0 1
C 1.3142934234 1.5683906001 -0.0778528434
C 0.930663553 0.0840636282 -0.1315259702
C 1.6399693045 -0.6630915896 -1.2152337947
O 3.1045927095 -0.7041056577 -1.2368669363
C 2.7521018061 -1.503971352 -2.3979583822
C 1.4833183333 -2.1243950395 -1.7515808245
O 0.5961680711 -1.7542722714 -2.8427149741
C 1.5205174757 -0.6221449437 -2.7920558023
C 1.3764903856 0.503662744 -3.7603068386
H 0.8135169869 2.0679886938 0.7561245209
H 2.3938528528 1.682731539 0.0512009653
H 1.0292386308 2.0858271734 -0.999219316
H 1.1574255704 -0.3978116143 0.8274456683
H -0.1465606306 -0.0359653292 -0.2998459523
H 3.5467635962 -1.9449831111 -2.9993584301
H 1.3229485377 -3.0696620936 -1.2338136102
H 2.1603169718 1.2449788207 -3.5779948789
H 1.4691413652 0.1417372481 -4.7889545987
H 0.4013987966 0.9884274746 -3.652148602

