# b3lyp 6-31G(2df,p) opt Freq 

 titel

0 1
C -3.1188456801 -1.7419302358 -1.3862101764
C -1.9958291798 -0.7641771535 -1.0544016575
C -2.3650301595 0.4816504009 -0.1940724804
C -2.6718342913 -0.1910586278 1.1510729514
O -1.712746638 -1.2657402981 1.2226911146
C -0.9721528286 -1.2507539183 -0.0167162541
C -0.0415944688 -0.031012606 0.0982846077
O 1.1459547153 -0.0098451847 0.2735222266
C -0.994255969 1.1762232303 -0.0457525632
H -3.5457364239 -2.1886188262 -0.4849874277
H -3.923364395 -1.2410430206 -1.935144218
H -2.7462285769 -2.5572437779 -2.014097089
H -1.4913849893 -0.4483269919 -1.9755280847
H -3.1681951409 1.1107938232 -0.5796667699
H -2.5276377894 0.4827934285 2.003441354
H -3.6871462246 -0.6018433055 1.2032071283
H -0.4811254843 -2.2129749901 -0.1505980985
H -0.9164686285 1.8491113957 0.8131766395
H -0.7184596873 1.7455047676 -0.9402101928

