# b3lyp 6-31G(2df,p) opt Freq 

 titel

0 1
O 0.1474198567 0.2606357609 0.4320628638
C -1.0813244484 0.9187818912 0.3249893955
C -1.3447988879 2.0401409111 1.3363155956
O -2.7693798331 2.1307781296 1.3955530384
C -3.2539109131 1.3815942269 0.2695119438
C -2.7258701713 2.0473082199 -1.0355888883
C -1.447342568 1.1994422301 -1.1773835273
C -2.0549934517 -0.2321240338 -1.2042681825
C -2.4112458422 0.0842243788 0.2658573644
H 0.2186830924 -0.1066833728 1.3203062831
H -0.954685595 1.7803510166 2.3304681947
H -0.8959999712 2.9976998482 1.0374437702
H -4.3347656291 1.2949438616 0.3721436486
H -3.3908965024 1.9158880455 -1.8941320582
H -2.5647631893 3.1169694874 -0.8814353074
H -0.6804190976 1.5191001186 -1.8823203417
H -2.8651760178 -0.4290578459 -1.9119869212
H -1.2904764128 -1.0067344535 -1.2716545048
H -2.6592007881 -0.6743828302 1.0088650334

