# b3lyp 6-31G(2df,p) opt Freq 

 titel

0 1
C -0.0670479056 1.4119168928 0.04425964
O 0.1075429585 0.0169006744 -0.0513212596
C 0.6882566655 -0.5696372819 1.0972084434
C 1.2268181137 -1.9856127517 0.7229647865
C 1.0550972182 -2.7686821894 2.0318901257
O 0.2694000124 -4.0099011719 2.1171797163
C -0.6210121431 -3.4053460588 3.1080012655
C -0.0647918241 -2.0603893776 2.7171948213
C -0.3459006683 -0.8753562162 2.1938104218
H 0.8903338987 1.9300792351 0.2112172991
H -0.4921238069 1.7504660688 -0.9037092826
H -0.753734023 1.6939493936 0.8566947862
H 1.5021005208 0.0831306729 1.4569648985
H 0.5546295276 -2.3932169065 -0.0377699655
H 2.2445510936 -1.9669536418 0.3256346975
H 1.9958484368 -2.9028868738 2.5814904518
H -1.6797183921 -3.5886560136 2.8973216868
H -0.3788778629 -3.7575329864 4.1193611821
H -1.2159573096 -0.252757418 2.3627516752

