# b3lyp 6-31G(2df,p) opt Freq 

 titel

0 1
O -0.0019510634 1.3360266782 0.3632873689
C 0.0008849033 -0.0099922856 -0.0978446523
C -1.4240114256 -0.5201970461 -0.0340976143
C -1.9689882185 -0.7123557289 1.4382094564
C -1.5692305909 -2.1621792904 1.2672553676
C -0.7020407201 -3.0785034869 1.6803970269
C -0.1513122207 -3.7729513177 0.4412769043
O -0.5150763491 -2.9254276224 -0.669243716
C -1.5634670877 -2.0850288091 -0.2235552875
H 0.9028179357 1.6607133261 0.3389218958
H 0.3671726394 -0.0811261374 -1.1329668903
H 0.6512071893 -0.6432014799 0.5237204875
H -2.0651185453 0.0810556403 -0.6835908379
H -1.4768267357 -0.1428835983 2.2279107846
H -3.048373143 -0.5461319836 1.4921325214
H -0.3053914908 -3.2421126375 2.6743568862
H 0.9425644725 -3.8555340771 0.4744964513
H -0.5547533615 -4.7863092646 0.283784143
H -2.502005388 -2.329701899 -0.7405624756

