# b3lyp 6-31G(2df,p) opt Freq 

 titel

0 1
O 0.1509587394 0.1913787765 0.864768768
C -0.7226130785 1.2589128786 0.6821964771
C -2.0182258561 1.0375141216 -0.1102025008
C -2.4412787236 2.3729765774 0.5640849505
C -1.4748464089 3.368158919 -0.1114092747
C -0.1409997967 2.6527525891 0.2599503689
C 0.2924399283 3.2110180215 1.6188388852
O -0.8173106544 2.8984188776 2.4790114656
C -1.5773522927 1.914596414 1.7985596219
H 0.8687243258 0.469516011 1.4438719276
H -1.9685349426 1.0115291566 -1.2012703185
H -2.5663487025 0.1698019315 0.2642772795
H -3.487830725 2.6553375095 0.6615798257
H -1.6439024522 3.4260075935 -1.1901277435
H -1.5297832307 4.3791134927 0.3017493796
H 0.6353652403 2.6357946549 -0.5055075379
H 1.2151110228 2.7414440093 2.0014278941
H 0.446318053 4.2951234453 1.6131393366
H -2.0771592157 1.2557205005 2.5080975653

