# b3lyp 6-31G(2df,p) opt Freq 

 titel

0 1
C -4.1436295955 0.1562231606 1.8472462549
C -3.3957317476 -1.058240151 1.2680357899
C -1.9867161376 -0.7938081533 0.9978629053
C -0.8262079148 -0.5584148236 0.7751339816
C 0.581084016 -0.2784998088 0.5146277689
C 1.109224923 0.978181543 1.2771137948
O 1.8808592764 1.6620781941 0.3063150832
C 1.2229948959 1.3939818961 -0.9054086571
O 0.8394871638 0.037369453 -0.8637185252
H -3.696206416 0.4738165518 2.7930045812
H -4.1057973696 1.0019000066 1.1553001022
H -5.1929611618 -0.0938744062 2.0292211857
H -3.4776389409 -1.9062204422 1.9600792307
H -3.8828647592 -1.3819418933 0.3392838243
H 1.1854984663 -1.1609375823 0.7548636446
H 0.2667283058 1.591664761 1.6240909032
H 1.7509469277 0.7268819397 2.1232595536
H 0.3367749179 2.0446224653 -1.0209331563
H 1.9188695602 1.5465779695 -1.7346075555

