# b3lyp 6-31G(2df,p) opt Freq 

 titel

0 1
C 0.0292903438 0.5293173114 -0.0250180246
C 1.502997276 0.2096114363 0.1209534644
C 2.03558829 0.2276987542 1.5612846847
O 3.4343826029 0.5274314644 1.4269525123
C 3.7116227202 0.2927128017 0.0728465714
O 3.439328747 -1.0881293269 -0.2282411583
C 2.0973353723 -0.9688533779 -0.7417438915
C 2.2960909922 0.0272360964 -1.9046816965
C 2.5798019524 0.9862397534 -0.725500057
H -0.5789375433 -0.1960951478 0.5278685001
H -0.1955891658 1.5227979064 0.3783314164
H -0.3051813115 0.5071197112 -1.0657746687
H 1.565196456 1.0082024971 2.1702725386
H 1.9005934479 -0.7386147266 2.0635825035
H 4.7548177313 0.5355625795 -0.1240716659
H 1.6382415763 -1.9529376226 -0.8329905055
H 3.1079738973 -0.2012772367 -2.5980828082
H 1.3846177252 0.2794067142 -2.4486626589
H 2.6173907996 2.0719387223 -0.8023857262

