# b3lyp 6-31G(2df,p) opt Freq 

 titel

0 1
O 1.2188737007 0.6827828205 0.2727585559
C 0.1732033435 -0.1776446185 -0.1510555394
C -0.9825049233 0.6107883833 -0.7282709065
C -0.7260540132 1.3560710183 -2.0237271153
C -1.9147621951 2.2382468762 -2.4514972222
C -3.2333439647 1.5195175655 -2.3255886965
C -3.4435414114 0.5949452177 -1.386800832
C -2.3752816667 0.234558854 -0.4215061417
O -1.7207415316 1.3302433498 0.2734446662
H 0.8331861856 1.2768942889 0.927201008
H 0.6072883023 -0.837077733 -0.9103135095
H -0.1909788386 -0.8035891708 0.6769468141
H 0.1826735757 1.9570532855 -1.9219119275
H -0.5251949809 0.6056041115 -2.7997471056
H -1.9390197642 3.139097094 -1.8258385413
H -1.7643465523 2.5830235886 -3.4797963475
H -4.0306057359 1.789556906 -3.0125401496
H -4.3974250595 0.0847937318 -1.2972773211
H -2.5566948204 -0.6279134992 0.2174842116

