# b3lyp 6-31G(2df,p) opt Freq 

 titel

0 1
O 1.77620744 -2.7538758743 5.3130112371
C 1.1605076516 -1.5981233576 4.8270514941
C 1.2782346976 -0.263706038 5.5023365391
C 1.9396942773 -0.4942961017 4.1475222362
C 1.4038061834 0.141639505 2.9252325626
C 2.0266750333 0.17344974 1.5647206511
C 1.5970185481 1.4754179724 2.2188627537
C 0.0781462375 1.5461157111 2.216148579
O -0.0278061517 0.2214181055 2.8086428802
H 2.5469074451 -2.4991566922 5.8298352128
H 0.1984004589 -1.8471992199 4.3944595247
H 0.3973698603 0.367860198 5.5358194792
H 1.9333314365 -0.1802053664 6.3649140053
H 3.0200697537 -0.6101024319 4.1539801999
H 3.1012047216 0.018595084 1.5391153673
H 1.4837611711 -0.2254857583 0.7111983477
H 2.2760147657 2.2928487892 2.4200104966
H -0.3317780623 2.3028764889 2.8942409867
H -0.4306663876 1.6037990161 1.2462447367

