# b3lyp 6-31G(2df,p) opt Freq 

 titel

0 1
O 0.0007638467 -0.9458750017 -0.2411502104
C 0.8013347018 -0.1695682792 0.219088462
C 0.5097570055 1.2198315959 0.7059780847
C -0.8222539993 1.9821662403 0.4349236282
C 0.0233617926 3.2906578326 0.4955842588
C 1.1961009374 2.4198081421 -0.0311987312
O 1.1482320072 2.209980624 -1.4303655653
C -0.1728447113 2.2653094891 -1.9845224683
C -1.2693857457 1.7549594954 -1.0197870399
H 1.873344716 -0.4597516271 0.325475412
H 0.7784446297 1.2597261656 1.7702098406
H -1.6398468975 1.8478597995 1.144998035
H -0.2907273402 4.1471926932 -0.1046212048
H 0.212896772 3.6159328536 1.5212274043
H 2.2268089718 2.6818681961 0.2151817725
H -0.3867738839 3.3027891061 -2.2751848537
H -0.1385828128 1.6715863967 -2.901468734
H -2.1936393995 2.3098641836 -1.2166846991
H -1.4741276103 0.6949714641 -1.1758750413

