# b3lyp 6-31G(2df,p) opt Freq 

 titel

0 1
C 0.9602780313 0.6190360995 -1.1012347907
C 1.0135120887 -0.7674746377 -0.4396432052
C 1.5788724294 -1.8155986308 -1.3730472787
C 2.7064126685 -2.4675966941 -1.0929189477
C 3.4265492112 -2.155354478 0.1984862181
C 2.7207819314 -2.8122513513 1.4004192427
O 1.6142275757 -1.9348687013 1.6142419436
C 1.8582971695 -0.7532619651 0.8499251881
O 3.2318022137 -0.7727210397 0.5305626271
H 0.4793049806 1.3515363948 -0.4441862524
H 1.9710476426 0.970803187 -1.328000991
H 0.3941189559 0.5859370556 -2.0372376836
H -0.0033754752 -1.06192023 -0.1482041357
H 1.0386436822 -2.002553095 -2.2980323671
H 3.1110069595 -3.2342929476 -1.7462364048
H 4.4995536096 -2.3469746421 0.1525973015
H 2.3507653163 -3.8203817627 1.1937544737
H 3.3724043415 -2.8317776919 2.2839306439
H 1.6582731575 0.1278225604 1.4685368782

