# b3lyp 6-31G(2df,p) opt Freq 

 titel

0 1
C -2.672413564 -1.4699918913 1.7208342621
C -1.6216617606 -0.5225579262 1.1556957559
C -2.0441373106 0.4029191381 -0.0318664645
C -1.7431965574 -0.7902716674 -0.9812657616
C -0.6309337749 -1.1162417899 0.0835250367
C 0.2503060796 0.0887259306 -0.1524706638
O 1.4286773218 0.1799413132 -0.3812724756
C -0.7762289821 1.256411729 -0.1818157685
O -0.708192299 1.9633286479 -1.4010906972
H -2.2109524142 -2.1904396319 2.404004461
H -3.42088249 -0.9074827034 2.2892099699
H -3.2002154652 -2.0358285035 0.9489875727
H -1.1305624938 -0.003833199 1.9884963701
H -2.9994451844 0.9270912486 -0.0406478889
H -2.5266498856 -1.5462789765 -1.003021789
H -1.423636376 -0.5515939242 -1.9971150421
H -0.1526899866 -2.0898667223 0.173697475
H -0.6344349233 1.9299837109 0.6781448984
H 0.2293206262 2.067426267 -1.6078633006

