# b3lyp 6-31G(2df,p) opt Freq 

 titel

0 1
C 1.2893736177 0.1380644962 0.233703229
O 1.3553447913 1.500133067 -0.1853419386
C 0.062402951 1.9620380566 -0.574564564
C -0.846169371 0.7811679219 -0.3880745671
C -0.1490556428 -0.2592523462 0.062403752
C -0.769379556 -1.5970346296 0.3191385171
C -2.1430361636 -1.6297210622 -0.3714046948
O -2.896929384 -0.4588746866 -0.1009677933
C -2.3199155843 0.7193768794 -0.6403872646
H 1.9711960344 -0.4738942769 -0.3793257241
H 1.630963305 0.0499705042 1.2782582298
H -0.2309710742 2.8223804869 0.0494204849
H 0.0930355596 2.3181229029 -1.6172489884
H -0.1418017889 -2.4100523647 -0.0691637565
H -0.8783798139 -1.7762063473 1.397408607
H -2.0025708466 -1.7514998044 -1.458055071
H -2.7486414978 -2.4660240195 -0.0122873612
H -2.5290554465 0.7929400433 -1.7239453854
H -2.8412312595 1.5569935491 -0.1607552806

