# b3lyp 6-31G(2df,p) opt Freq 

 titel

0 1
C 0.1687775736 -1.0446223759 -0.5955817251
C 1.2375930101 -0.0510413368 -0.1374365875
C 2.2110379139 -0.6691861324 0.8632161868
C 1.951557199 0.6274190346 -1.331450989
O 1.205449827 1.8203600022 -1.541825496
C 0.8316793499 2.2351828801 -0.2478880219
O 0.5527981949 1.0627414191 0.489187213
C 1.8881821878 3.0396057097 0.3998875048
C 2.7369796993 3.7089902548 0.924962389
H -0.4541474188 -1.3445811138 0.251640334
H -0.4753492448 -0.5862508315 -1.3512455568
H 0.6266796795 -1.943094245 -1.0225488625
H 1.669313049 -1.0880642364 1.7159519932
H 2.7859304929 -1.4759171636 0.3954379361
H 2.9076736623 0.086575313 1.2350247334
H 2.9978127995 0.8605105818 -1.0902641521
H 1.9136354975 0.0401043021 -2.2507488937
H -0.0860956909 2.8262964354 -0.338042217
H 3.4847905483 4.3031243327 1.3900950014

