# b3lyp 6-31G(2df,p) opt Freq 

 titel

0 1
C 1.044910704 1.192860683 0.0204257274
C 1.0138677983 -0.3252922432 0.0908253664
C 1.8327894649 -0.8995904846 1.252735788
C 2.0422092411 -2.3805409007 1.076332542
C 1.8237270023 -2.9852897908 -0.0874553683
C 1.4085702246 -2.2071727411 -1.3099854595
O 1.52202978 -0.8103823426 -1.1530953767
C 2.2736914659 -2.5850822817 -2.5133160066
O 2.4091692769 -3.7123791012 -2.906682226
H 0.6614284532 1.627303614 0.9485214801
H 2.0704839604 1.5443175811 -0.1297438214
H 0.4336020188 1.5517798058 -0.811612329
H -0.0291603949 -0.6673735758 0.2003242659
H 2.8007343165 -0.3824447053 1.3189389524
H 1.3144136748 -0.6992492999 2.1990120822
H 2.3715285996 -2.9546819154 1.9381555754
H 1.9473873515 -4.0538486913 -0.2288444581
H 0.3708931434 -2.4847038875 -1.5829145702
H 2.7665426687 -1.7126248527 -2.9942715241

