# b3lyp 6-31G(2df,p) opt Freq 

 titel

0 1
C 2.4561406855 -2.52907784 0.5049173556
C 3.1315326646 -1.2002286235 0.8585206144
C 4.6482199868 -1.2889226235 0.6402562136
O 2.8444023077 -0.8391408672 2.2129034387
C 2.535738225 -0.0207479117 0.0164915838
C 3.0446566392 1.3175642186 0.5832580442
O 4.0305358723 1.8722873226 0.1770548397
C 1.078948058 0.0037818506 -0.0123625146
C -0.1196359886 0.0934728768 -0.033594447
H 2.8940488569 -3.3375111939 1.1019571892
H 1.385458973 -2.4820975483 0.7109589079
H 2.6001558396 -2.7813748182 -0.5504888563
H 5.0674563553 -2.0585570892 1.2982552451
H 4.8837493042 -1.5714724168 -0.3905671257
H 5.1405816949 -0.3397184789 0.8581316395
H 3.2031627244 -1.5248752693 2.7859264236
H 2.9316467129 -0.1070150013 -1.0011930314
H 2.4249191032 1.7321383103 1.4014474067
H -1.1795579049 0.1564182729 -0.0581407469

