# b3lyp 6-31G(2df,p) opt Freq 

 titel

0 1
C 4.8515766521 1.0689576568 -0.6188197165
C 3.3341713835 1.139617056 -0.7961572068
C 2.6208368614 0.0065261456 -0.0381816517
C 1.1691313217 0.131429318 -0.0514269964
C -0.0264167413 0.2513206892 -0.0500531568
O 2.9560655987 1.003881471 -2.1596703456
C 3.1060349217 2.1526487965 -2.9518556675
C 2.3727308296 1.9174711756 -4.262835362
O 2.4637055951 2.6436761689 -5.2161707734
H 5.1230874578 1.1792729554 0.435626987
H 5.2340391352 0.1087754648 -0.9793668551
H 5.3522247217 1.8667115947 -1.1745438204
H 2.9627559578 2.1040527245 -0.4152522809
H 2.920899305 -0.9465007696 -0.4916124671
H 2.9830842979 -0.0078541236 0.9967661881
H -1.0837602392 0.3476448548 -0.0526171725
H 2.6615559852 3.0403746116 -2.4684661566
H 4.1563387735 2.3958272091 -3.1731889283
H 1.7291056927 1.0109370306 -4.2529086374

