# b3lyp 6-31G(2df,p) opt Freq 

 titel

0 1
C -2.557226513 -2.6231544503 -1.4264791129
C -1.7858940779 -1.3105419278 -1.2749238916
C -2.7000388275 -0.0545037305 -1.0787945909
C -2.1812403488 0.524687919 0.2487999378
C -1.8801126882 -0.729877103 1.0789430538
C -0.8987375246 -1.2642825205 0.01734349
C -0.0197557523 -0.0300418707 -0.1577614831
O 1.1432435524 0.0711016257 -0.4151383505
O -0.8493466771 1.0522947752 -0.0057956825
H -3.1957310506 -2.8230733422 -0.5591987446
H -3.2036957455 -2.5897132577 -2.3096290155
H -1.8743122933 -3.4706533133 -1.5435462842
H -1.1480716904 -1.1853470115 -2.154910889
H -2.60746971 0.6725666047 -1.888010392
H -3.7548884421 -0.3346772225 -0.9921558948
H -2.7737342023 1.317944943 0.7013266912
H -1.4087991534 -0.5015125033 2.0378208459
H -2.7551495303 -1.3626801272 1.2412112738
H -0.3305888553 -2.1685774073 0.2239308792

