# b3lyp 6-31G(2df,p) opt Freq 

 titel

0 1
O 3.6681643775 0.0694128861 -0.3962498735
C 2.6544373809 0.0945930811 0.2491308627
C 1.3202299557 0.5682265078 -0.2990233448
O 0.3616041522 0.4532958213 0.7272332187
C -0.9147160812 0.8740758903 0.3507286435
C -2.0133341202 0.2268976649 1.1275558355
C -3.3582911304 0.8654329695 0.7667599355
C -3.1180812222 0.491622731 -0.7367111947
C -1.7797074557 -0.1444925815 -0.3478634465
H 2.6092745128 -0.2301706627 1.3120217887
H 1.4293403863 1.6099673028 -0.6433034646
H 1.0585129553 -0.0371123977 -1.181052207
H -0.9697881428 1.9316362107 0.0717641253
H -1.781298328 -0.3407002622 2.0202403704
H -4.2094127927 0.3302922406 1.1921758701
H -3.4638247433 1.9299690133 1.0013221119
H -3.848142261 -0.2317866369 -1.1050351283
H -3.0641123517 1.3230463883 -1.4480025718
H -1.3452629716 -1.0465888267 -0.7617907414

