# b3lyp 6-31G(2df,p) opt Freq 

 titel

0 1
C -1.6518787482 2.6585472841 -2.4805223243
C -0.6210472453 2.3592429307 -3.543353609
O -0.6108375527 2.8821059773 -4.6338124187
C 0.4768296511 1.3561083692 -3.1896758896
O 0.1337975262 0.4798222317 -2.0837872118
C 0.1383076766 -0.6612474121 -2.9683696698
C -0.9077512062 -1.7038914632 -2.7528899561
C 1.5147604058 -0.8550896115 -3.5255864566
C 0.5932683023 0.1781590507 -4.1470045325
H -2.2267150108 1.7547137958 -2.2563284542
H -1.1600104693 2.941634192 -1.5434453922
H -2.313454993 3.455477787 -2.8215503053
H 1.3994286945 1.9213438116 -2.9906703023
H -0.7685333305 -2.1910115936 -1.7811309089
H -1.9123672156 -1.2699299492 -2.7753963013
H -0.8433490989 -2.4727953024 -3.5279333596
H 2.3827998335 -0.545020518 -2.9495467576
H 1.6552284054 -1.7496287364 -4.1249638503
H 0.2961126751 0.1899769063 -5.1860939297

