# b3lyp 6-31G(2df,p) opt Freq 

 titel

0 1
C -1.0212675444 1.9697795437 -1.1974349635
C -1.1649961723 1.0879116447 0.0367821337
O -1.2864655325 1.8481395824 1.2265790665
C -2.2564827133 -0.0308628306 -0.0321584209
C -1.1496969003 -1.1019097424 -0.010869426
C -0.9927185172 -2.3502086331 -0.8579420637
C -1.1221752448 -2.4737146226 0.6251794837
C -0.1035801963 -0.0457146662 0.15403129
O 1.079832241 -0.0417578881 0.3624788765
H -0.9781407228 1.3725941478 -2.114081428
H -1.8710333236 2.6560715294 -1.2648934292
H -0.099646422 2.5590322027 -1.1378789997
H -0.4241853 2.2427571164 1.4040181402
H -2.8913401424 -0.0245028183 0.8556792732
H -2.8774626838 -0.0079262215 -0.9304180024
H -1.840308712 -2.6275236126 -1.4759954619
H -0.02016003 -2.5164554872 -1.3090896762
H -2.0572317167 -2.8409600385 1.0344968979
H -0.2371666965 -2.719469296 1.20261877

