# b3lyp 6-31G(2df,p) opt Freq 

 titel

0 1
O 1.1861962923 -0.5491166188 0.0108875921
C 0.0588729283 -0.1294432774 0.0872687089
C -0.4504346548 0.7485290691 1.2051978056
C -1.1271543536 2.0707446225 0.6930535019
C -2.5444356344 2.0063783477 1.3125735343
C -3.3033951997 0.867901745 0.6160065331
O -2.6286504046 -0.3242304581 1.0717361373
C -1.6245810855 0.1092407112 2.0002101283
C -2.2642105451 1.3305924977 2.6711511986
H -0.697991516 -0.3692366995 -0.6909268426
H 0.3923308248 0.9523305542 1.8711431896
H -0.5719393424 2.9446423711 1.0423393704
H -1.1639684789 2.1232186878 -0.400457429
H -3.0802335676 2.9559477883 1.3278746044
H -4.359963465 0.8226910764 0.9100701649
H -3.2494669431 0.9245261677 -0.4779746962
H -1.3478238166 -0.7390818421 2.6261745627
H -3.1658200718 1.0730617918 3.2327848457
H -1.5769477264 1.8922024055 3.3085622

