# b3lyp 6-31G(2df,p) opt Freq 

 titel

0 1
C -2.8540409796 -0.1027909964 1.3143553097
C -2.1385088097 -0.0422717882 -0.0378788427
C -3.1244408118 -0.039957308 -1.2029656372
C -0.9679030235 -1.0848003672 -0.1481462685
C 0.0450933935 0.0583769364 0.0653368508
O 1.2212672504 0.1171069879 0.2745581042
C -1.0710470686 1.0840101044 -0.055661994
C -1.0320772904 2.3567649416 -0.7954745749
O -1.1471644532 2.3203332104 0.6251817779
H -3.4801301723 -0.9988140553 1.3803038378
H -2.1410125677 -0.1251994068 2.1449065889
H -3.4919967001 0.7752020947 1.4536079337
H -3.7295827199 -0.9531209507 -1.2018584316
H -3.812881091 0.8099578665 -1.13632362
H -2.6070944862 0.0188194022 -2.1661847315
H -0.9424141417 -1.8698436235 0.6118889924
H -0.867549458 -1.5473856705 -1.1351478205
H -0.0802799059 2.7209496531 -1.1786892361
H -1.9219514844 2.6828325293 -1.3315544584

