# b3lyp 6-31G(2df,p) opt Freq 

 titel

0 1
C -0.7235288392 1.2139359151 3.162826937
C 0.2033074172 0.3797430014 2.2922434001
O -0.244521378 0.509782034 0.9326126855
C 0.0282734314 -0.6476803003 0.169491684
C 1.4874253512 -1.1408112836 0.383471828
C 0.9409291397 -1.9687109378 1.5608340296
C -0.4734726873 -1.9467239828 0.9484689038
O -1.1127039896 -1.614775996 2.1825906577
C 0.1790711984 -1.1094280327 2.6359081087
H -0.3584186111 1.247781731 4.1943890344
H -0.7740077039 2.2367070382 2.7801953108
H -1.7282796313 0.7849967631 3.150509607
H 1.2355794122 0.7564130139 2.3795776457
H -0.3321035448 -0.4595873715 -0.842372258
H 1.8152561125 -1.7986633492 -0.427017711
H 2.250257228 -0.3774328371 0.555269228
H 1.4417504544 -2.8637564426 1.9292749865
H -0.9587640066 -2.7441275112 0.3833325961
H 0.3612586666 -1.3163634118 3.6935408863

