# b3lyp 6-31G(2df,p) opt Freq 

 titel

0 1
C -1.1832334136 3.1332938929 -2.895548552
C -1.3576596993 2.9308545973 -1.4188763754
C -0.2143409923 3.0447161017 -0.4247379866
C -0.9894956248 1.7686937391 -0.5126508603
C -2.309576518 1.8497150472 0.2410021218
C -2.6834785693 3.0849034368 -0.6494948466
O -0.3724672654 0.5642959346 -0.9061051092
C 0.2007218851 -0.153787583 0.0791190806
O 0.2207081895 0.1305043138 1.2427224436
H -1.9745662587 2.6293259362 -3.4618570432
H -1.2154922175 4.1981548367 -3.1545297886
H -0.2221500084 2.7371358109 -3.2381638088
H 0.7725703463 2.9975622613 -0.8748269702
H -0.2813864946 3.6792461861 0.4565941268
H -2.9566341975 0.9932290648 0.0389763308
H -2.236791208 1.9979620895 1.3210835188
H -3.561712563 2.8987570038 -1.2723943119
H -2.8172809767 4.0365802145 -0.1259731547
H 0.6455477661 -1.0581876041 -0.3644124549

