# b3lyp 6-31G(2df,p) opt Freq 

 titel

0 1
C -2.1463801279 -2.8137959242 -1.7413057842
C -1.721522172 -1.4320764403 -1.2973878381
C -0.8858606993 -1.3045570279 -0.001290209
C 0.019696977 -0.1281598685 0.065952061
O 1.1980045624 -0.1023887097 0.3179825062
C -0.8611946346 1.1056048795 -0.1907866601
O -2.2132753901 0.6789433003 -0.1475077603
C -2.2891296911 -0.739947933 -0.1016463738
C -3.483578993 -1.199888095 0.6838848527
H -2.3923374121 -3.4595724532 -0.8937754684
H -3.028010797 -2.7606896999 -2.3891263629
H -1.3448435124 -3.302604675 -2.3047596355
H -1.4271790845 -0.773968293 -2.1116261343
H -0.6259856561 -2.2071285294 0.5373606061
H -0.6832566827 1.8612625751 0.5821192499
H -0.6102176356 1.5535178011 -1.1630827199
H -3.4199989848 -0.8440309066 1.7162524442
H -4.3990506849 -0.7942150375 0.241040995
H -3.5625402111 -2.288872063 0.6956201314

