# b3lyp 6-31G(2df,p) opt Freq 

 titel

0 1
C -0.0782319862 0.2502104417 -0.7815129674
C 1.2244799144 -0.1677929965 -0.1782308073
O 2.2826819822 -0.08146473 -1.136347455
C 2.1035294269 1.3700621588 -1.2275504546
C 1.9470609181 1.9220602848 -2.6590365183
C 3.2149703276 2.7661072503 -2.8599211025
O 3.5599663853 3.2181886934 -1.555497386
C 3.3512730622 2.1122324878 -0.6975345083
C 0.9003314048 1.2985536478 -0.2855709577
H -0.251768111 0.1030342267 -1.84348181
H -0.9516883215 0.119823808 -0.1494369758
H 1.354201845 -0.837745302 0.6632030084
H 1.8485241117 1.1088417775 -3.3803897547
H 1.0516986286 2.5476026043 -2.7174699925
H 4.0289264058 2.1559951886 -3.2841431277
H 3.0731516258 3.6438756853 -3.4945306537
H 4.1964033267 1.4064112151 -0.7309200617
H 3.2425023362 2.4859653863 0.3237757458
H 0.6545636773 2.0337279822 0.4694123389

