# b3lyp 6-31G(2df,p) opt Freq 

 titel

0 1
C 3.9878523571 1.9729723352 -1.715999837
C 3.3401818198 0.5763521562 -1.7334613927
C 2.3355286652 0.3954408343 -0.6912751107
C 1.4987442934 0.2715384713 0.1657653585
C 0.5323647571 0.0922197439 1.2357270643
O -0.7447795247 0.4456958963 0.751143161
C 0.6395733701 -1.2645580466 2.003217825
O 1.1032715576 -0.6087895108 3.1956943441
C 0.948849124 0.6970566626 2.6147350143
H 4.4863199785 2.1584390059 -0.7607203428
H 4.7305910709 2.0576542164 -2.5147007492
H 3.2345073036 2.7518457052 -1.8606624147
H 2.8772577843 0.3971116313 -2.7122193764
H 4.116891553 -0.1912803238 -1.6231199847
H -1.3760503675 0.3263868846 1.4698368097
H -0.3342264571 -1.7558239156 2.1425258337
H 1.3626042598 -1.9878341996 1.6138719453
H 0.1431752475 1.2772368286 3.0874331032
H 1.8766881772 1.2770725447 2.6324540792

