# b3lyp 6-31G(2df,p) opt Freq 

 titel

0 1
O 1.1995735995 -0.050817102 0.0990836017
C -0.0016935229 -0.0292475731 0.0617846976
C -0.8959288724 1.220899265 0.0883092392
C -2.328496636 0.6507249477 0.1360104283
C -2.1897561355 -0.6543220014 -0.6832444614
C -0.9352228434 -1.2495346597 -0.0209531456
C -1.2974580717 -1.6483209407 1.4264030677
O -1.6943495179 -0.5190566363 2.1913496632
C -2.708721099 0.2631783753 1.5746697105
H -0.6272088944 1.8606176894 0.9331612046
H -0.7230228103 1.7946188689 -0.8297614077
H -3.0786359775 1.3362196972 -0.2672019251
H -3.0658624806 -1.3048304285 -0.5968621977
H -2.0261678067 -0.4457964367 -1.7460448948
H -0.4672193177 -2.0866912434 -0.542175068
H -2.0974323992 -2.4074867764 1.4064084968
H -0.4309105146 -2.0696831287 1.9429077763
H -3.6682826068 -0.28099216 1.5720269059
H -2.8227016031 1.1481260234 2.2083450486

