# b3lyp 6-31G(2df,p) opt Freq 

 titel

0 1
C 0.128834345 -0.3635974858 -0.3698531027
C 1.5873589818 -0.1021328998 -0.0886693428
C 2.2931092564 -1.1727067666 0.7422917789
O 3.5904303252 -0.6998404069 1.106541988
C 4.0899122775 0.217520756 0.1546870392
C 3.9000366539 -0.3056818409 -1.2973511684
C 2.52236192 0.3795468834 -1.2689373373
C 2.9895799201 1.330486125 -0.1527023647
O 1.816513541 1.152415177 0.6381842353
H -0.4337652099 -0.4533776558 0.565006849
H -0.3007354268 0.4569149492 -0.9507020793
H 0.0078463537 -1.2926155014 -0.9372580059
H 1.7464297528 -1.354940492 1.6730296999
H 2.360101962 -2.1214713226 0.1875505017
H 5.0811991577 0.5223850004 0.4912298435
H 4.5679855977 0.2005593788 -2.0006799272
H 3.9729686323 -1.3856261826 -1.4504300499
H 2.0058977645 0.6932429916 -2.1770573074
H 3.3100413952 2.3676635229 -0.2650801998

