# b3lyp 6-31G(2df,p) opt Freq 

 titel

0 1
O 1.8564612309 0.3323715709 0.0583943061
C 0.4307844859 0.3785084958 0.0566752888
C -0.0905109341 1.0265785652 -1.2224840868
C -0.1086633806 0.2219140952 -2.5835862135
C -0.6389424843 1.3078921476 -3.5197362062
C -1.6390753101 1.8613061956 -2.8193974609
C -1.6395534162 1.0700531514 -1.5145835861
C -1.4901106893 -0.3813453613 -2.1474001471
O -1.3827973782 -1.4910761109 -1.2914416179
H 2.1212258104 -0.335550697 -0.5814942552
H -0.0015285982 -0.6088612719 0.2306030422
H 0.1591453454 1.020121096 0.9040449191
H 0.3963606666 2.0012100069 -1.3175573786
H 0.7128343705 -0.4125661277 -2.9182345975
H -0.2839077715 1.5248909946 -4.5170552117
H -2.3257574191 2.6491991041 -3.0951126502
H -2.3803459327 1.3022799665 -0.7483248529
H -2.1858358437 -0.5880055018 -2.9699332368
H -2.2713098517 -1.7742942792 -1.0539264948

