# b3lyp 6-31G(2df,p) opt Freq 

 titel

0 1
C 3.7135070678 0.2195591303 1.1019550472
C 4.1172700439 -0.9906918257 0.1766766662
C 3.1364203064 -0.4028701806 -0.8370321286
O 3.6485151863 0.4023630562 -1.9041333547
C 2.5322832023 -0.4775676373 -2.1561016819
C 1.2013944034 0.2688605392 -2.1891970335
C 1.2828212866 1.5979074505 -1.3995508024
O 1.7864592194 1.5271149339 -0.052051876
C 2.4010056347 0.3159713233 0.2742319901
H 3.6298565568 0.0429162283 2.1753462688
H 4.3572821999 1.0806291353 0.9110256771
H 5.1548815144 -1.0474640746 -0.152891596
H 3.8054399344 -1.9559011006 0.5831105757
H 2.7189312301 -1.2772976847 -2.8693889112
H 0.9102748589 0.5182186976 -3.2161153096
H 0.4161099737 -0.3829524453 -1.7853910614
H 1.9176055221 2.2917406395 -1.9605431232
H 0.278021384 2.0308424521 -1.3363257311
H 1.6689420349 -0.3842406574 0.7145769646

