# b3lyp 6-31G(2df,p) opt Freq 

 titel

0 1
C 1.44558693 -0.2682639074 -0.0122767999
O 0.044805517 -0.0532301922 0.0464130229
C -0.3607319308 0.6634345657 1.1312317787
C -1.71017977 0.7136142306 1.7648884518
C -1.7827126545 2.2384030744 1.6645360644
C -0.2339539497 2.2038415195 1.5762401257
C 0.2063477879 1.6891644915 2.9788312592
O 1.6000523155 1.6123648046 3.1823218796
C -0.4562120888 0.3627448422 2.6190898539
H 1.7959369673 -0.8445951096 0.8563051784
H 1.6444559901 -0.8383227156 -0.9219124428
H 1.9965307017 0.6815961139 -0.0593923554
H -2.5057723663 -0.0136188803 1.6623322374
H -2.2487129735 2.5535156661 0.7272146696
H -2.2162305812 2.8018210403 2.4987362047
H 0.3365552473 2.9932616516 1.0911135627
H -0.187032739 2.2481903448 3.8343663556
H 1.9571470257 0.9923142723 2.5359656442
H -0.3924957987 -0.5863199925 3.1370146692

