# b3lyp 6-31G(2df,p) opt Freq 

 titel

0 1
C -0.3106393635 -0.6163358201 -0.0527165397
C 1.0643829672 -1.2743550058 -0.1030468247
C 1.9747966212 -0.9684062597 1.0804400004
C 2.7282724248 0.2886201573 0.6522966461
O 2.2942005422 0.6404251209 -0.6454983022
C 2.0499064413 -0.6767809457 -1.1532960417
C 1.7243096065 -0.6741198813 -2.6175710761
O 3.2649751674 -1.3805108282 -0.8709268674
C 3.3791461999 -1.0623520239 0.5015534908
H -0.8881086648 -0.9855367925 0.8006850094
H -0.2161804376 0.4685588296 0.0425672084
H -0.8881063825 -0.8331322982 -0.9576862833
H 0.9822890953 -2.3529847613 -0.2704313742
H 1.7323308135 -1.198997249 2.1085722217
H 3.0459979012 1.109465832 1.2777996085
H 1.5833579239 -1.6986530943 -2.9697923712
H 0.8087046115 -0.1074447918 -2.8002419339
H 2.5419056254 -0.2158204852 -3.1780186199
H 4.2692579072 -1.4262679529 0.9929193191

