# b3lyp 6-31G(2df,p) opt Freq 

 titel

0 1
C -3.2654681557 -0.467301713 -2.5396769178
C -2.6395272383 -1.2040938751 -1.3674943271
C -1.151058952 -1.6551503123 -1.4556620256
C -0.9441961076 -1.1761880887 0.0250339328
C -2.2814863798 -0.4102326506 -0.0833351452
O -1.9174108987 0.941735322 -0.3901467792
C -0.6295619143 1.2324171955 0.1165785039
C 0.1060682697 -0.1074429543 0.2522550801
O 1.273060341 -0.2514264757 0.5057282694
H -3.2850240778 -1.1037975558 -3.430836701
H -4.2961001373 -0.1693799354 -2.3187984886
H -2.6980119581 0.4372503107 -2.7718290714
H -3.2592656274 -2.0611837146 -1.0802661069
H -0.9612271462 -2.7141535909 -1.6368205267
H -0.5679250079 -1.0716094867 -2.1733548682
H -0.8701469409 -1.9870078525 0.7490897064
H -2.990835725 -0.4300888138 0.7526364662
H -0.1101228216 1.9123277857 -0.5659498543
H -0.6718960322 1.7130355253 1.1082036931

