# b3lyp 6-31G(2df,p) opt Freq 

 titel

0 1
C 0.6325583554 1.3068235674 1.1669252743
C 0.124862753 0.0793706039 0.4151823231
O 0.9034810255 0.1191382822 -0.7698895671
C 2.1841700157 0.6185697037 -0.4081646454
C 3.2192781748 -0.5274528288 -0.2219876879
C 4.0631254619 -0.4529988641 -1.466579487
C 3.8017320222 0.6356162471 -2.1893501123
C 2.7263777289 1.4884750968 -1.5703787585
O 2.0066252223 1.3455312479 0.8065726935
H 0.1145879568 2.2186488528 0.8366613238
H 0.5523196795 1.224941671 2.2546814184
H 0.3090656525 -0.8427077762 0.9873621038
H -0.9307988189 0.1241895836 0.1383161497
H 3.8100421699 -0.3509109477 0.6847574647
H 2.7071798495 -1.4882810596 -0.0973089015
H 4.8079126511 -1.2020261981 -1.7113283182
H 4.3016564662 0.9094957911 -3.1116090062
H 3.1228645149 2.4289783294 -1.1695617669
H 1.9138867687 1.7404296576 -2.2594262803

