# b3lyp 6-31G(2df,p) opt Freq 

 titel

0 1
C -5.6443270628 1.2339555069 1.0336752256
C -4.3268328977 0.9076263049 0.4023698765
C -4.0045220258 -0.2042919848 -0.3087594784
O -2.7106786403 -0.1560294194 -0.7353511399
C -2.1834854713 1.0216341985 -0.2863699237
C -0.760467338 1.2924210787 -0.6268939635
C 0.2135802909 0.3221677322 0.0479526191
O 1.5218733285 0.6808871778 -0.3668570811
C -3.1283881756 1.7049383955 0.41392238
H -5.5487271806 1.3711447865 2.1169069332
H -6.0651859873 2.1616540093 0.6292341279
H -6.372875453 0.4363852487 0.8628412627
H -4.5594498872 -1.0843208731 -0.5912419957
H -0.605323591 1.2313946029 -1.7109701745
H -0.511966528 2.3134609654 -0.3229571566
H 0.1011477469 0.3927643393 1.1411948634
H -0.0366892134 -0.7080512295 -0.2451292172
H 2.1430334719 0.0633334504 0.0295596478
H -2.995879346 2.6679810497 0.8840113744

