# b3lyp 6-31G(2df,p) opt Freq 

 titel

0 1
C -1.9059452005 3.5421781213 -1.0200486579
C -2.7112555026 2.6477175353 -0.1063510221
O -3.829415345 2.9112637327 0.2677013974
C -2.0621237123 1.3432123817 0.3613152879
O -0.7664543644 1.196668712 -0.1659108396
C -0.127105013 0.0048354314 0.2395288311
C 1.2624807776 -0.0181046883 -0.4057078595
C 2.011747195 -1.2149407873 -0.0494193278
C 2.6051757011 -2.2122359394 0.2621307782
H -1.6264419556 2.997596943 -1.9277534564
H -2.4899029084 4.428293955 -1.2697600954
H -0.9659470059 3.8252506568 -0.5353899558
H -2.0523783396 1.3500245758 1.4637595967
H -2.720030091 0.5130088498 0.0556124533
H -0.0365555602 -0.0363236753 1.3360725976
H -0.706498597 -0.8763614294 -0.07685354
H 1.144641673 0.0487707952 -1.4937296539
H 1.8080534092 0.8806124558 -0.0945688406
H 3.1415402994 -3.0888553961 0.5290277467

