# b3lyp 6-31G(2df,p) opt Freq 

 titel

0 1
O -3.0541742936 2.9048549642 1.9685845025
C -2.4592338539 2.1975548473 0.923915282
C -1.7264424175 2.9334444045 -0.1724513781
C -0.9631004232 2.0904027508 0.835767609
C -0.819960858 0.5609962012 0.6417156243
O 0.4477015464 0.0192995125 0.4507476079
C -1.83820265 0.0508850762 1.7408480493
C -2.8526588933 0.7119400345 0.751178436
C -1.9176567452 0.2004213731 -0.3796281177
H -3.9167989499 3.2093493387 1.6662775672
H -1.7940022308 2.6615647504 -1.219190072
H -1.6492811032 4.0026414859 0.0002101809
H -0.3236773133 2.5834730359 1.561009849
H 1.0450113021 0.3991693654 1.1035621116
H -1.903323228 -1.0393226008 1.7778490706
H -1.7714512161 0.478532345 2.7443693982
H -3.9157025787 0.4734496511 0.7638140454
H -1.994050356 -0.8817910432 -0.5009948638
H -1.925384548 0.6802215874 -1.3584236824

