# b3lyp 6-31G(2df,p) opt Freq 

 titel

0 1
C -2.0995200058 2.0029242491 -1.1016520202
C -0.9556576579 2.1998289881 -0.0952949858
C -1.4297210127 2.0847728516 1.3984078767
C -1.4210697728 3.6346939419 1.4849356944
C -0.6047831229 3.6928735424 0.1652827411
C 0.2166538983 1.3169455666 -0.4463502308
O 1.3092280443 1.7149048522 -0.7844990269
C 0.0471783525 -0.2104338145 -0.3373178179
O -0.9517830705 -0.7655853625 0.0379813765
H -2.4541252666 0.9697874928 -1.1027677226
H -2.9407516255 2.651490475 -0.8371691662
H -1.7807373144 2.2693472827 -2.1152687809
H -2.37766654 1.5672681943 1.5563866859
H -0.675821881 1.6265400817 2.0444767834
H -2.4211768599 4.0625870323 1.3810990703
H -0.9537231268 4.0709057267 2.3700328775
H -0.9338139728 4.4035701539 -0.5966036778
H 0.4663932046 3.8287831342 0.3265276671
H 0.9714460299 -0.7513148586 -0.6347117838

