# b3lyp 6-31G(2df,p) opt Freq 

 titel

0 1
C 2.0702502051 1.5313032017 0.2288072344
C 1.5879612645 0.0766456363 0.1935225968
C 2.0827256581 -0.6807730359 -1.0289579074
C 3.5529519467 -1.2432948184 -1.102886338
C 3.030284862 -2.2093204126 -2.2174917498
C 1.8900553337 -2.2369265879 -1.1268654739
O 0.6917599908 -2.9031531983 -1.1504378577
C 3.0533708677 -2.3214771855 -0.129965303
O 3.3722156384 -2.9300843772 0.8464799447
H 1.6772272885 2.0558541533 1.1047311229
H 3.1632185181 1.5872504053 0.2690888298
H 1.7430064018 2.0787683533 -0.6620266867
H 1.9039670582 -0.4400320325 1.1083372206
H 0.4909830086 0.0517314167 0.1921016449
H 1.7992382963 -0.179160656 -1.9607726482
H 4.4821444736 -0.683853306 -1.1023686102
H 2.744032419 -1.7134141421 -3.1470836059
H 3.5923828507 -3.1281495556 -2.3928983228
H 0.7505059082 -3.6513948985 -0.5449405505

