# b3lyp 6-31G(2df,p) opt Freq 

 titel

0 1
O 1.4093552472 0.1907273044 -0.2575761508
C 0.7326427983 -0.4506584899 0.8075776489
C -0.4285673459 0.3413011986 1.430147053
O -1.2363161427 -0.2359914707 2.1213353123
C -0.4751682393 1.8377689038 1.1686143971
C 0.7346303687 2.60217317 1.7967586877
C 0.1528973479 3.9677559095 2.2406425773
C -1.3299951994 3.6951452352 2.3371793758
C -1.6698187852 2.5426175431 1.7654821181
H 0.8616062963 0.1259765981 -1.0456130486
H 0.3532961803 -1.4453469789 0.5387178847
H 1.4766541211 -0.6000500808 1.5999348882
H -0.4489454609 1.9706763181 0.0759746324
H 1.0845948797 2.0581443231 2.6808497698
H 1.5744630081 2.6818281202 1.1057202627
H 0.5872221205 4.3153739333 3.1846021907
H 0.3560667239 4.755080556 1.5006817244
H -2.0230629236 4.3923381928 2.7950853185
H -2.670757685 2.1363342942 1.6944798377

