# b3lyp 6-31G(2df,p) opt Freq 

 titel

0 1
C -0.0314410346 0.0124720418 0.0856006621
C 1.4776473482 0.0060386753 -0.0405022779
C 2.1894629264 1.3945130028 -0.2156822638
C 3.0095126139 0.8084979234 -1.3803756389
O 4.1621854232 0.0664301404 -0.9166448633
C 3.410129765 -1.1724966493 -0.8583103368
C 3.0926134577 -1.6032037384 0.56558503
O 2.0285944038 -0.7726218915 1.0243436599
C 2.1401914637 -0.4758567629 -1.3706137513
H -0.3289060866 0.4505698376 1.0437306213
H -0.4906705728 0.5980813682 -0.7165823085
H -0.4236545081 -1.0084638145 0.0430156557
H 1.4929915235 2.168167104 -0.5548442967
H 2.7575750527 1.7556594197 0.6435550897
H 3.2400713336 1.4251356472 -2.2509961699
H 3.8798218404 -1.9547926393 -1.4626666809
H 2.7807169018 -2.6584456545 0.587636524
H 3.9623284783 -1.4826876611 1.221527246
H 1.5439638898 -0.8775460288 -2.1863992307

