# b3lyp 6-31G(2df,p) opt Freq 

 titel

0 1
O -4.2596477308 6.3854408037 0.5647081522
C -3.8043321523 5.2666851003 -0.1761575631
C -3.3372532425 5.8133055406 -1.5177194611
O -2.6565737156 5.1960405233 -2.295307117
C -4.906286763 4.2215159405 -0.3886980149
C -5.3029155621 3.4678590784 0.9319787593
C -4.8066138888 2.1576056824 0.31016782
C -5.5390926218 1.8869274054 -0.9731178999
C -4.4208765086 2.8896981953 -0.9787608507
H -4.6743001517 6.0632467101 1.3711041568
H -2.9393924929 4.7811278245 0.3046405399
H -3.7029703867 6.8420161225 -1.7306671767
H -5.7396286884 4.6939550301 -0.9234438377
H -4.6991541641 3.7870582821 1.7878719167
H -6.3586727842 3.4977355718 1.2211559755
H -4.2728702131 1.3781723584 0.8396461243
H -5.3101389665 0.9385883788 -1.4484347416
H -6.5713665049 2.2086816998 -1.0972893654
H -3.5443201519 2.7820345217 -1.6032747868

