# b3lyp 6-31G(2df,p) opt Freq 

 titel

0 1
C -2.1596673219 -2.8512795411 1.456777679
C -2.8355132862 -1.645791956 0.8434902846
C -3.1272405915 -1.6030046174 -0.6510985153
C -2.0887258678 -0.705754968 -0.0666576861
C -2.1738212041 0.8108188689 0.0107601158
C -0.7494883989 1.1833349801 0.4380249483
C 0.0936045714 0.0140947644 -0.0638117595
O 1.279829191 -0.0510994329 -0.1965632155
O -0.7313805034 -1.0312522398 -0.3627117543
H -1.6885515875 -2.5970510395 2.412501531
H -2.8837961679 -3.6511398424 1.6433110776
H -1.379983087 -3.2411720266 0.7980135437
H -3.5794655549 -1.1660658273 1.4760918855
H -2.7701518067 -2.437566871 -1.2455094423
H -4.0538967157 -1.1591952412 -1.0007939404
H -2.3994055082 1.2295388973 -0.9762977248
H -2.9466671388 1.1468024994 0.704677033
H -0.3726387279 2.1226660493 0.0321705773
H -0.642678074 1.2268170037 1.5277910424

