# b3lyp 6-31G(2df,p) opt Freq 

 titel

0 1
C -3.7453538278 0.0334989321 1.036027094
C -3.0053941062 0.1393516568 -0.3167317723
C -2.2840229979 -1.1592852718 -0.7260903642
C -0.9353174475 -1.3693350589 -0.0467080508
O -1.1487591906 -1.7543715817 1.3127388254
C -0.0552815396 -0.108368165 -0.0363614696
O 1.1383690892 -0.213261473 0.1830058188
C -0.7222850111 1.1925473144 -0.1879632743
C -2.0538128756 1.3035443066 -0.2977757414
H -4.5122808981 -0.745737266 0.9847252811
H -3.0468498216 -0.2249883337 1.8334863538
H -4.2396024828 0.9773785086 1.2884200145
H -3.7656287072 0.3535111315 -1.0802342087
H -2.9192180133 -2.0296391501 -0.5308610415
H -2.1012605363 -1.1303392871 -1.8068021817
H -0.3708395425 -2.1516195708 -0.5743276834
H -0.27774967 -1.8160049094 1.7233565388
H -0.0740772402 2.0629568664 -0.1541042346
H -2.5018394508 2.2951166911 -0.3410657641

