# b3lyp 6-31G(2df,p) opt Freq 

 titel

0 1
C -0.8444851325 0.1268475373 -1.0246114486
C 0.3121476917 -0.691428497 -0.4754251242
O 1.2810313587 -0.9463202165 -1.1554191545
C 0.1258733675 -1.2874637402 0.9008954516
C -0.2291679659 -2.7692375668 0.8995302208
C 1.1349929248 -2.3450642734 1.3309655175
C -0.4275424813 -0.4577462898 2.0364214086
C 0.1602423662 0.9323872719 2.212787395
O -1.2132131249 -0.914526976 2.8365380249
H -1.2476301703 0.8367424441 -0.298052867
H -0.5315397716 0.6477887852 -1.9302286854
H -1.6610759694 -0.5612075208 -1.2755251967
H -0.9442266088 -3.0676934163 1.6571045509
H -0.3314911705 -3.247237296 -0.0681817611
H 1.3726859317 -2.3937398347 2.3876378507
H 1.964149246 -2.4889454662 0.6482661232
H -0.4319881557 1.4951375529 2.9353193423
H 1.1815299516 0.8252542059 2.5983853174
H 0.2382726129 1.4849944063 1.2731478646

