# b3lyp 6-31G(2df,p) opt Freq 

 titel

0 1
C 1.4117504421 -0.0512707601 0.0249976104
O -0.0096835938 -0.0772622322 0.0682197974
C -0.559793539 0.5550331111 1.1450155423
C -2.059530195 0.575600474 1.4576802847
C -1.4422781836 1.395341189 2.6119919904
C -0.1582989048 0.5214756509 2.6708711059
O 0.7575456968 1.6504177728 2.5870244077
C -0.3440513015 2.0319910684 1.6976980869
C -0.3089455898 3.3578286464 1.0090615258
H 1.8463558891 -0.5350172946 0.9083902315
H 1.7055234815 -0.6001646318 -0.8718546227
H 1.7969486684 0.9735528601 -0.0303257744
H -2.6964354559 1.1193179274 0.7548527398
H -2.5112032111 -0.3828606837 1.7262327166
H -1.9240374515 1.8780972886 3.4586577041
H 0.0871820916 -0.3086329861 3.3322169907
H -0.2672870128 4.1726122216 1.7388391833
H 0.5652003285 3.4357189274 0.3554974302
H -1.2069210992 3.4873793708 0.3965259793

