# b3lyp 6-31G(2df,p) opt Freq 

 titel

0 1
C 1.8394703887 -0.4290386948 -1.3703081097
C 1.6439767659 0.6182064052 -0.2660221912
O 0.3399269727 1.1887072679 -0.4424136631
C 0.4451883374 -0.0643518893 0.2403960836
C 0.5587456964 -1.1635617285 -0.8389478432
C -0.665452874 -1.3733960791 -1.7419553918
C -1.379686229 -2.5911584006 -1.1040583363
O -0.5516184074 -3.0431701911 -0.0276863365
C 0.7597469866 -2.564023378 -0.2632420372
H 1.8013275036 -0.0429071089 -2.3918852802
H 2.7445714192 -1.030146459 -1.2400734621
H 2.3840663409 1.2256165461 0.2411984987
H 0.0206328008 -0.1329721744 1.2359567277
H -1.2889097677 -0.4780211076 -1.7837812939
H -0.34716954 -1.6000239985 -2.7644009713
H -2.3581784821 -2.3432761685 -0.6817855641
H -1.5219249644 -3.398604039 -1.83620734
H 1.3032892023 -2.5818744246 0.6871125619
H 1.3030897801 -3.2007763874 -0.9836597913

