# b3lyp 6-31G(2df,p) opt Freq 

 titel

0 1
C 2.0428020448 2.1245491553 0.6530873618
C 2.1955689546 1.098066857 -0.4181767154
O 3.2983742432 0.1400674428 -0.3653209261
C 2.6119671221 -0.2497551512 -1.5956151738
C 3.1272504855 -1.3856866415 -2.4133885729
C 2.222192099 1.213122895 -1.9742461622
O 0.8067680249 0.9193735166 -2.1385547366
C 1.1817573743 0.055983918 -1.0176099583
C 0.1635657066 -0.8226230563 -0.3719557786
H 1.9020770921 1.6495061209 1.628984943
H 2.9279835453 2.7657104262 0.706553405
H 1.1704884033 2.749465725 0.4381787543
H 3.1260868237 -2.3138051237 -1.8333536557
H 2.4901109612 -1.5209378874 -3.2928187646
H 4.1503458229 -1.1906255695 -2.7491262232
H 2.6938565012 1.9384111858 -2.6376802038
H 0.6319284303 -1.3873647322 0.4402787327
H -0.6569695051 -0.2288434424 0.0428373246
H -0.25470516 -1.5306218285 -1.0942390301

