# b3lyp 6-31G(2df,p) opt Freq 

 titel

0 1
C 3.339038952 -0.2132505773 0.5548828435
C 1.8847393189 -0.3827175455 0.149270246
C 1.4908263448 -0.2202501179 -1.3655630562
C 0.1920042016 0.5235784545 -0.9100728329
C 0.8520624389 0.7083939863 0.4545531728
C 1.0203322209 1.9402891886 1.2266361491
O 0.172795878 0.8702202637 1.6794527429
C 1.302088043 -1.4931830026 -2.1376703053
O 1.8677597268 -1.7803020779 -3.1610189856
H 3.4422962383 -0.2273939317 1.6451810122
H 3.95663281 -1.0224810047 0.1522083458
H 3.7453890183 0.7345135546 0.1870818806
H 1.4934512005 -1.3397030273 0.5196579251
H 2.1848858945 0.4326773933 -1.8987853855
H -0.0975219619 1.4112165361 -1.4751288187
H -0.6635961701 -0.1578018697 -0.8484584694
H 1.9218622961 2.098930683 1.8163521503
H 0.5010969462 2.8466695709 0.9174370032
H 0.5689472831 -2.1949633064 -1.6693861978

