# b3lyp 6-31G(2df,p) opt Freq 

 titel

0 1
C 0.045574606 0.5135771845 0.2183528449
C 0.6871806677 -0.7804797506 -0.235892873
C 1.3999450938 -1.6582338941 0.8197872062
C 2.6460608846 -1.4028439431 -0.0249548585
O 1.9484883823 -0.5567557453 -0.9331012041
C 4.057494853 -1.054738655 0.5093287262
C 4.6459697305 -1.3747428511 -0.8851095371
C 3.6427485126 -2.4893754114 -0.5070297478
O 4.1869598315 -2.4864604268 0.8718964346
H -0.8816165827 0.3068762808 0.7642300935
H 0.7191433761 1.0724939035 0.8755761781
H -0.1975086424 1.1449123918 -0.641933596
H 0.0013997296 -1.3419616987 -0.8829940572
H 1.4309279906 -1.2287034027 1.8231975221
H 1.0755482287 -2.6973463859 0.8837818793
H 4.3676880214 -0.3163611248 1.2495176334
H 4.3843932267 -0.7132254368 -1.7129580394
H 5.6929713264 -1.6802248256 -0.8808716056
H 3.4594738434 -3.4569295985 -0.9755289499

