# b3lyp 6-31G(2df,p) opt Freq 

 titel

0 1
O 1.653891295 0.6285748534 -0.0704691762
C 0.3099940665 0.2853094908 0.2183081316
C -0.6467787984 1.1040251802 -0.6090728036
O -0.3599748184 0.8731672443 -1.9904529572
C -1.3055467698 1.7182425088 -2.6632281478
C -2.0303812263 2.3251546502 -1.4730569267
C -0.9434751734 2.6221237833 -0.3841938324
C -1.9715752319 2.247614007 0.7073606519
C -2.1903683966 1.1898990872 -0.4000233212
H 1.7268064296 0.6157438495 -1.0322015461
H 0.1178278981 -0.7834277255 0.0308794179
H 0.1548501154 0.4700710762 1.2848859833
H -0.781373261 2.4603906785 -3.2782270605
H -1.9525916982 1.1151087354 -3.3119603663
H -2.8433846813 3.0317721574 -1.6403799633
H -0.2210999369 3.4384877287 -0.3858357741
H -1.5831180109 1.8998825966 1.6675491367
H -2.7886700333 2.957420853 0.856644578
H -2.9061232982 0.3667770449 -0.4227292038

