# b3lyp 6-31G(2df,p) opt Freq 

 titel

0 1
O 0.9741413073 0.3811084042 -0.291752771
C 0.6304974728 0.0309429066 1.0452251947
C -0.8638278831 -0.1257985201 1.2411546586
C -1.4977660461 0.6110967794 2.1660764769
C -2.9696401062 0.5211106428 2.4640113797
O -3.4278496055 -0.8147618108 2.6340451704
C -3.7942399199 -1.4741408495 1.4477617895
C -2.7407934685 -1.6058274927 0.3861348027
C -1.5141578776 -1.0699452689 0.3257807599
H 0.5122994854 1.2005675448 -0.4994753764
H 1.1413703693 -0.9219987627 1.2265761726
H 1.0264788999 0.7596733124 1.767350439
H -0.9187530915 1.3064982418 2.7701532394
H -3.1903609334 1.0366452673 3.4040451166
H -3.5528075275 1.0225391244 1.6734488329
H -4.0992009203 -2.4805182883 1.7653856958
H -4.6950674633 -1.0136559676 0.9987460164
H -3.0441831407 -2.2612029889 -0.4298588044
H -0.8990362411 -1.3361359242 -0.5303666234

