# b3lyp 6-31G(2df,p) opt Freq 

 titel

0 1
C -4.4415334528 -1.7846120012 0.1830138899
C -3.4361683282 -1.0189713995 -0.6635996752
O -3.8657578391 -0.9360282888 -2.0109318672
C -2.8935129115 0.3294473107 -0.1630300577
C -1.8902338664 -0.3563640231 0.8294080338
C -0.7195173128 0.4827760638 0.2793235369
O 0.5998562504 0.0146474215 0.3888856768
C -1.5583175386 0.1673970594 -0.9732861992
C -1.923142264 -1.2745763258 -0.4501992512
H -4.1464725733 -1.825390766 1.2347182058
H -5.4282518499 -1.3156696058 0.1157549048
H -4.5368370262 -2.8189736658 -0.1724005388
H -4.1299123989 -1.8163090725 -2.2980511315
H -3.4320178454 1.2627657263 0.0074041722
H -2.0995476924 -0.6623203306 1.8550215332
H -0.6934574602 1.5316699409 0.5911470893
H 0.6192407831 -0.9037398424 0.0982596155
H -1.401172467 0.4530476155 -2.0115888242
H -1.3611773266 -2.1977819566 -0.6127141232

