# b3lyp 6-31G(2df,p) opt Freq 

 titel

0 1
C -0.7536736227 2.3558481583 0.601295051
C -1.0251308173 0.9974594358 0.0100648147
C -2.0019039513 -0.0269163327 0.6761479017
C -1.1412802077 -1.1623257628 0.0335231863
C -1.5168940372 -1.3087697717 -1.4617356966
C -1.9914478959 0.0580938409 -1.9958329718
O -1.319863297 1.1613638645 -1.3889560135
C 0.0169915231 -0.1503213625 0.0972997694
O 1.199636411 -0.2172842914 0.262418403
H -0.4531425232 2.2657939182 1.6487837728
H 0.0548148998 2.845207673 0.0511899869
H -1.6445226702 2.9880455847 0.5399638649
H -1.9035065283 -0.0026061494 1.7639450886
H -3.0566520664 0.0323683197 0.4035598712
H -1.0274464473 -2.1211669533 0.5412964303
H -0.6486689497 -1.6734220266 -2.0204574895
H -2.3179614651 -2.0460138466 -1.5873757026
H -1.8107093599 0.1506754627 -3.0701926314
H -3.0746182047 0.1573381592 -1.8405276854

