# b3lyp 6-31G(2df,p) opt Freq 

 titel

0 1
O 0.5092359416 0.4899753833 0.9818384704
C -0.847486796 0.9062587229 0.9303513673
C -1.0174782407 1.8617035803 -0.2189078799
C -2.235478256 2.1961370406 -0.6448153185
C -3.4607635383 1.6067818827 0.0157821908
C -3.2452649329 0.1069739866 0.2922058856
C -3.6846149171 -0.4901800075 1.6476404137
O -2.3211141013 -0.8017520578 2.0092407326
C -1.8217832794 -0.2689646425 0.7584023466
H 0.6127096925 -0.0647181987 1.7619701615
H -1.1246711079 1.4123188292 1.8719809339
H -0.1095575163 2.2650529613 -0.655526662
H -2.3670881121 2.9041409443 -1.4571793377
H -3.6483823566 2.1281929592 0.9661235665
H -4.3533427577 1.7637386723 -0.5968361888
H -3.5728765845 -0.4776476896 -0.5692076445
H -4.1432554626 0.2183558901 2.3502720466
H -4.3076705074 -1.3912100234 1.5946315837
H -1.3187834873 -1.0421188232 0.1644368021

