# b3lyp 6-31G(2df,p) opt Freq 

 titel

0 1
C 0.2165811847 -0.4207624176 -0.32552912
C 0.8674551163 0.7054929021 0.4488218705
O 2.2184131626 0.9797947209 -0.0065292573
C 2.7539745938 0.844597347 1.3350108611
C 3.0489691606 2.1525057811 2.0113664023
C 2.092566359 2.4852127557 2.8813063194
C 0.98710602 1.4601647111 2.975537684
C 1.3628010567 0.4231543772 1.8944478761
O 1.1530486482 -0.916802182 2.2605261956
H -0.7984177107 -0.6040586783 0.0415618118
H 0.1568250982 -0.1470548902 -1.3835621129
H 0.792518097 -1.3425582607 -0.228998376
H 0.2543981351 1.6160603501 0.3898377869
H 3.5706602824 0.1137056678 1.3579550374
H 3.9286349577 2.7459026305 1.788841775
H 2.0850774625 3.3925838086 3.4767514256
H 0.9486627553 0.990190647 3.9692784793
H -0.0064540203 1.8954569251 2.8103841714
H 1.587681961 -1.0718679556 3.1057151999

