# b3lyp 6-31G(2df,p) opt Freq 

 titel

0 1
C 1.1953272897 0.2571501724 -0.8362996371
C -0.1243573279 -0.1375547636 -0.145745168
C -0.0536601277 1.2813345313 0.4601602349
C -0.2222379269 1.5133447308 1.9864194547
C -1.5045645454 2.3523468965 1.7200250092
C -1.2233625569 3.849358926 1.5356627032
O -0.8014883036 3.6458183183 0.1657500785
C -1.2153636819 2.2682688018 0.1892929897
O 1.2163933285 1.5286225302 -0.1522413854
H 2.072825883 -0.3522498673 -0.5924220629
H 1.1387934623 0.3807116471 -1.9243809022
H -0.9749677483 -0.3325030697 -0.8025097364
H -0.0380102227 -0.9457264749 0.5831641166
H -0.3701508544 0.5973992015 2.5643740391
H 0.5993018168 2.0812858146 2.4315990803
H -2.4322582585 2.042114849 2.1965622952
H -2.1126347802 4.491906813 1.5832634042
H -0.4304246513 4.284078302 2.156613637
H -1.9326107745 2.031552671 -0.6042460806

