# b3lyp 6-31G(2df,p) opt Freq 

 titel

0 1
C 1.5259352963 1.8924687685 -0.4243486837
C 1.3560578449 0.4000651989 -0.1205877858
C 2.0355344076 -0.4851989583 -1.145724008
C 1.5614729529 -1.8980476645 -1.3860771917
C 1.2957000371 -0.8334806059 -2.4132159102
O -0.0127838111 -0.3378725288 -2.7283000686
C 0.312241571 -0.1904960277 -4.1330037155
C 1.7258772301 -0.7285773943 -3.8421045648
O 2.7173754899 -0.9574801346 -4.4684702718
H 1.0532034325 2.5066270079 0.3479666677
H 2.5842139034 2.1715525082 -0.4714154975
H 1.066816908 2.1449699506 -1.3847996751
H 1.7645611484 0.1692546137 0.8712707045
H 0.2893048115 0.1535234799 -0.0856916935
H 3.1003897233 -0.3077569628 -1.2839156754
H 2.2814617788 -2.669758633 -1.6375177713
H 0.6923228333 -2.2344814006 -0.829405457
H -0.3084560457 -0.8235510845 -4.7768635095
H 0.2645505577 0.8503872573 -4.4718115329

