# b3lyp 6-31G(2df,p) opt Freq 

 titel

0 1
C 0.8846895375 -0.7693361564 -0.3171815933
C 0.5767695641 0.6531484894 0.1772628558
C 1.7110279088 1.6295932306 -0.0914659015
O 1.5907190139 2.6004387113 -0.8081313438
C 2.969722242 1.3297994939 0.5694460057
C 4.0157093776 1.0890530236 1.121658578
C 5.2653726537 0.7781466625 1.7990978559
O 6.2526391642 1.7309164832 1.4754116776
C 7.4803219112 1.4600716767 2.114984802
H 1.781257761 -1.1696531124 0.1644214417
H 0.05017528 -1.4389026327 -0.0917837148
H 1.0460866198 -0.7819324281 -1.3992935806
H -0.3132627513 1.0577629726 -0.3117768033
H 0.3943018366 0.6320814151 1.2593629652
H 5.0886580615 0.7496047545 2.8894031658
H 5.5905230654 -0.2379980779 1.5118817014
H 7.3822675094 1.4773135536 3.2119367383
H 7.8868135639 0.4795763561 1.8206130643
H 8.1795471707 2.2405250241 1.8088954654

