# b3lyp 6-31G(2df,p) opt Freq 

 titel

0 1
C 2.897239898 -1.7904311447 1.71603077
C 3.2835740122 -1.2853230796 0.3101481306
C 2.7707294228 -2.270656759 -0.761314762
C 4.8171365256 -1.1314895585 0.1931176006
O 5.5026061935 -2.3622954894 0.376765839
C 2.6461145846 0.0867397751 0.0763329889
O 3.2899063163 1.0869998204 -0.1622621363
C 1.19063481 0.1487173219 0.1451218312
C -0.0105084486 0.2140001954 0.1983034173
H 3.3093439513 -2.7917178811 1.8752358147
H 3.2812080485 -1.127630569 2.4995950831
H 1.812349876 -1.8562377864 1.83050822
H 3.3059225272 -3.2172961321 -0.6539971181
H 1.6982151472 -2.4536284658 -0.6569169258
H 2.9571091091 -1.8896172225 -1.7707401146
H 5.0732828381 -0.7848140269 -0.8114788082
H 5.1683924597 -0.3654105289 0.8957383107
H 5.5493326115 -2.5421765821 1.3198994272
H -1.0703994328 0.2856451535 0.2415355317

