# b3lyp 6-31G(2df,p) opt Freq 

 titel

0 1
C 0.9885335444 -0.6461997748 4.2136551515
C 0.3306287846 0.3596581957 3.2925725182
O 0.2799424301 1.5425053684 3.5427337769
C -0.2668411926 -0.1616937709 1.9978590043
C -1.3108526154 -1.2065097311 2.1047058331
O 0.0129620909 -1.5348927253 1.6944397218
C -0.2506682954 0.8003771211 0.8484530272
C 0.8948183227 0.7658174523 -0.1344787104
C -0.4827256013 0.3210481362 -0.5580414588
H 1.2615903223 -0.1525507089 5.1467454139
H 0.3401307535 -1.5038809283 4.4135913387
H 1.8851815868 -1.0475315743 3.7287637609
H -1.6104790105 -1.5946995844 3.0767547289
H -2.0690912774 -1.2491406478 1.3254380336
H -0.6253329659 1.7801698466 1.1204022551
H 1.2785278644 1.7104682089 -0.5018997493
H 1.6419815805 -0.0096480364 -0.0065933458
H -1.0561422007 0.9564853841 -1.2233826742
H -0.6252838209 -0.7434470712 -0.7081840756

