# b3lyp 6-31G(2df,p) opt Freq 

 titel

0 1
C 1.4776732928 -0.0422668501 0.0710911129
C 0.0215952384 -0.0318151589 0.0691240487
C -1.1830689499 0.0067063673 0.0540959674
C -2.6565695079 0.0048726793 0.0819055209
O -3.1661990191 0.7269778594 1.1932957319
C -3.1627106761 -1.4319214364 0.108820218
O -2.7655744481 -2.0990083922 1.2806813197
C -3.3191399389 -2.2197078296 -1.1613899455
C -4.5356716911 -1.7572123695 -0.3760565572
H 1.8732483018 -0.0330996505 1.0926359001
H 1.8715360039 -0.9334822678 -0.4296783329
H 1.8796243433 0.8350000902 -0.4473071723
H -3.0416207027 0.5109811745 -0.8107798409
H -3.0395351817 0.1479760182 1.9565190681
H -1.8026348618 -2.1754359528 1.2434674584
H -3.0932749019 -1.7371699939 -2.1065092127
H -3.0703537665 -3.273868706 -1.1149334636
H -5.1432357871 -0.9539911531 -0.7776964473
H -5.0807530976 -2.5075767483 0.1844377263

