# b3lyp 6-31G(2df,p) opt Freq 

 titel

0 1
C 1.4921733613 -0.0332041868 -0.0176994105
O 0.0927153648 -0.0712175351 0.1652989591
C -0.4069840276 0.5282283404 1.3332076641
C 0.0784657545 -0.2029659072 2.5788239294
C -1.9322478407 0.8615806799 1.0861683756
O -1.4934996318 1.9635911032 0.2363220912
C -0.4614154965 2.1234013172 1.2526900338
C -1.2949681566 2.4613935551 2.4925941421
C -2.3089854939 1.597293332 2.3762665811
H 2.0306580295 -0.6770408543 0.6915818979
H 1.6837752771 -0.3972639714 -1.0297897256
H 1.8912018573 0.9877949235 0.0661812715
H -0.1122359013 -1.2749428112 2.4646691164
H 1.1565442811 -0.0702690954 2.7135698266
H -0.4147588312 0.1501425142 3.4829092953
H -2.6134841382 0.1575547922 0.6109264513
H 0.3789742651 2.7512883146 0.9590554522
H -1.0672357609 3.1868986333 3.259740597
H -3.1570831617 1.4088207254 3.0176769015

