# b3lyp 6-31G(2df,p) opt Freq 

 titel

0 1
C -2.8622205959 0.0239915729 1.3858364432
C -2.0385666277 0.110464809 0.1098321738
C -0.9830574218 -1.0160239149 -0.1568404292
C -1.2417064039 -2.0826021936 -1.2140638334
C 0.0377168873 0.0792864563 -0.4811346424
O 1.1098851079 0.100071552 -1.0068224227
C -0.9269217898 1.1935701693 0.0396884579
C -1.1120698871 2.3715690262 -0.8792600135
O -2.0935903672 2.5546098065 -1.5546655427
H -3.5254948896 -0.8472550714 1.3688128823
H -2.2186101635 -0.0646224366 2.2691081486
H -3.4868330164 0.9139807619 1.5129866607
H -2.6923026924 0.2313924894 -0.7591759485
H -0.6850801492 -1.4857950406 0.7917660502
H -2.040028305 -2.7608359028 -0.8968526287
H -1.5394470598 -1.6295147743 -2.1648217786
H -0.3401348776 -2.6759129448 -1.3918747086
H -0.5746084633 1.5477610079 1.0174766745
H -0.2455918449 3.0658144876 -0.9201482429

