# b3lyp 6-31G(2df,p) opt Freq 

 titel

0 1
C 1.0143704364 0.4950415923 -0.5372834
O 0.6682499205 -0.3077928357 0.5794049187
C -0.1615249652 0.3245829433 1.5175026465
C -0.1600104099 -0.463275068 2.8390398351
C -1.5599709624 -0.3029540569 3.4262734463
C -2.1085599276 1.0807743492 3.5168880178
C -2.491715165 0.2012826282 2.3271611544
C -1.661277208 0.3578176885 1.1015773974
O -2.0596016996 0.4111106512 -0.0365485374
H 1.5182515622 1.4209337828 -0.2164819873
H 1.7112114313 -0.0924431181 -1.1399391025
H 0.1374927541 0.7529273563 -1.1380064228
H 0.1708129082 1.3658809369 1.6751874302
H 0.0261736709 -1.5133647607 2.5915662799
H 0.6275544946 -0.1360946795 3.5241888841
H -1.9120494603 -1.0466849898 4.131613843
H -2.9060534048 1.2634744082 4.2282653133
H -1.4586792576 1.9342148908 3.353614453
H -3.5211984278 -0.1137114189 2.2157523403

