# b3lyp 6-31G(2df,p) opt Freq 

 titel

0 1
C 1.4709430223 -0.1128747079 -3.1708802106
C 0.3709828991 0.3397122515 -2.2542249903
C -0.4004391316 1.6326836915 -2.4564330045
O -0.7114341481 2.4694235661 -1.3702537542
C -1.515470338 1.7039169916 -0.4649647634
C -1.3518982697 0.2540651271 -0.9208683664
C -1.1684122834 0.361413715 -2.4563780234
C 0.1574895816 -0.1629216799 -0.8369220287
O 0.9906060735 0.4097859228 0.1471429286
H 2.4426191784 0.2530876032 -2.8208302964
H 1.523739459 -1.2070085245 -3.2230718255
H 1.3223345213 0.2610416018 -4.1893315302
H -0.2104667475 2.1817307331 -3.3717721283
H -1.135243986 1.8609382792 0.5491448575
H -2.5634129306 2.0342427217 -0.5155935625
H -2.0859235346 -0.4412821458 -0.5143938511
H -1.7894404798 -0.0455914467 -3.2428088797
H 0.2363422302 -1.2595195822 -0.827053561
H 0.9248200938 -0.1165094976 0.9499145802

