# b3lyp 6-31G(2df,p) opt Freq 

 titel

0 1
C 1.0093192137 -0.6775938823 -0.9692461362
C 0.8560991911 0.1056907422 0.324802765
C 1.7300725858 1.3992640171 0.4683086733
O 2.8641112488 0.539245764 0.8278410637
C 1.8191548775 -0.2287767576 1.5341758104
C 2.2775630763 -1.5983691078 1.9676794699
O 2.8824164484 -2.3212088476 0.9153546509
C 1.3428814278 0.8023251165 2.5745776661
C 1.2877274414 1.9180188531 1.8443828939
H 0.6531611453 -1.7048741426 -0.8524419097
H 0.4179682128 -0.2053589931 -1.7621319108
H 2.0506149568 -0.7174633448 -1.2935873666
H -0.1956505372 0.2218185028 0.5997815276
H 1.9300611996 2.0892579773 -0.3507924864
H 2.9644419018 -1.4837189284 2.8227725328
H 1.4178180082 -2.1832910233 2.3136469863
H 3.4973677829 -1.7094079482 0.4926618082
H 1.1136706384 0.6186185697 3.6143129631
H 0.9961859807 2.9244839531 2.1061443984

