# b3lyp 6-31G(2df,p) opt Freq 

 titel

0 1
C -0.0696682685 -0.0564674627 0.1771599497
C 1.3730692201 0.0547657485 -0.2143637169
O 1.5627409458 0.2765127781 -1.6086838679
C 2.9902317117 0.161018393 -1.5702592412
C 3.0799649291 -1.343884922 -1.2625808197
C 2.4230836321 -1.1460608248 0.1236282265
C 3.5614769158 -0.3434332319 0.7959764775
C 3.325803977 0.8582479322 -0.1356203183
O 2.0129000234 1.2118230493 0.3158372626
H -0.1582465273 -0.1648374941 1.2607440514
H -0.6078268473 0.8425105841 -0.1339817995
H -0.5242845982 -0.9255905896 -0.3041854856
H 3.4472094755 0.576568841 -2.4656931468
H 2.4900049117 -1.9060764558 -1.987413696
H 4.0841054205 -1.7686497365 -1.1949320194
H 2.0099254461 -2.0102862001 0.6402796726
H 3.3832148281 -0.0502302859 1.831229873
H 4.5307950406 -0.8405493376 0.714750795
H 3.9953566138 1.715472145 -0.1222545472

