# b3lyp 6-31G(2df,p) opt Freq 

 titel

0 1
C -0.9203342085 -2.0822004876 1.836639136
C -0.1695246015 -0.8288344655 1.45310321
O 0.8980373163 -0.8497252645 0.883273596
C -0.8153809405 0.5293396223 1.7948605566
C -1.2741062814 1.1872627915 0.4828745899
O -1.9172142177 0.2841206196 2.6542449954
C 0.2549240907 1.3955475179 2.5212225856
C -0.3040892431 2.6589612163 2.9824343708
C -0.8309331887 3.6714818605 3.3638034791
H -1.0447612675 -2.1212612542 2.9231777649
H -1.9323252559 -2.0628899427 1.420489765
H -0.3737040749 -2.9559708281 1.4810384759
H -2.0667003195 0.5907192944 0.0226448742
H -1.6667896369 2.1885988014 0.6838917442
H -0.4398967276 1.2691093301 -0.218408696
H -2.2380879551 1.1421631585 2.9587239593
H 0.6354272774 0.8317347277 3.3810950075
H 1.0998921098 1.5545446813 1.8452365987
H -1.2570100352 4.5834830709 3.702761357

