# b3lyp 6-31G(2df,p) opt Freq 

 titel

0 1
C -0.3374985106 -0.3105307333 0.1874312066
C 1.1510970594 -0.0614346175 0.2665577493
C 1.8986762709 -0.7456072768 1.3484560644
O 3.0621555667 -0.539627683 1.6157142053
C 1.7994336214 1.2522192395 -0.1957303103
C 0.9448561632 2.2149094994 -1.0154062003
C 0.8977263163 1.5428515778 -2.408227573
O 1.2749470199 0.1659097602 -2.2236661323
C 1.9924290866 0.0515589447 -1.0391297129
H -0.9114655703 0.4038468064 0.7877165138
H -0.6907186014 -0.2577218678 -0.8450768281
H -0.570643419 -1.3142985527 0.5589262106
H 1.3139047966 -1.5130621366 1.9040270055
H 2.601100066 1.620128383 0.4330439131
H -0.0558499062 2.348575487 -0.5941433774
H 1.4129642322 3.2009275794 -1.0639060928
H -0.0948677274 1.5570565445 -2.8658838554
H 1.6056918705 2.0164058026 -3.1016465293
H 2.9180010051 -0.5099558766 -1.1014553568

