# b3lyp 6-31G(2df,p) opt Freq 

 titel

0 1
C -2.1060315758 3.2662802014 -1.6625884814
C -1.7514515491 1.9953533217 -0.9294336927
C -1.2984884023 2.1354427811 0.5117151452
C -0.8336188451 0.802672026 1.1305637657
O 0.469722152 0.4474507376 0.6758720551
C -1.8246233316 -0.309737927 0.8586020942
C -2.5250316608 -0.3529826247 -0.276690845
C -2.3713596008 0.70520281 -1.3032654323
O -1.0089763142 1.0351766729 -1.7040492137
H -2.9131370396 3.7983823787 -1.1482405035
H -1.2397527695 3.9350188469 -1.7101160529
H -2.4257939045 3.0483510683 -2.6846694755
H -0.4673998754 2.8466975331 0.5759953993
H -2.1301712294 2.5488220232 1.0965742206
H -0.727717409 0.9401044055 2.21148049
H 0.3847542877 0.3575784249 -0.28415488
H -1.9077044242 -1.1047785556 1.5932770578
H -3.214834521 -1.1642134789 -0.4889587897
H -3.0619604874 0.685181775 -2.1436839212

