# b3lyp 6-31G(2df,p) opt Freq 

 titel

0 1
C -0.3747890656 1.3587506059 -0.1177437586
O -0.1515787073 -0.0605764344 -0.2379261438
C 1.2660148279 0.0968303519 -0.0226672388
C 1.1555150777 1.6292133072 -0.0929625442
C 1.7327620359 2.2917815954 -1.3420777311
C 1.6025574538 3.7888388332 -1.2430593924
C 1.392638444 4.3849495732 -0.0723375736
C 1.3072896297 3.6099240346 1.211130281
O 1.6613610799 2.2424504364 1.0753635551
H -0.9433229187 1.7619975395 -0.9634250632
H -0.878949288 1.6180400577 0.8225253796
H 1.5839000686 -0.2594022047 0.9646901167
H 1.8596671084 -0.3914218631 -0.8045156288
H 2.788536526 2.0046518303 -1.4495022048
H 1.2199781531 1.9127023212 -2.2341471976
H 1.6794044211 4.3713957062 -2.1567414213
H 1.2701988795 5.4619904855 0.0037691874
H 1.9976112329 4.0235519117 1.9562001009
H 0.2931656113 3.7057705024 1.6396212375

