# b3lyp 6-31G(2df,p) opt Freq 

 titel

0 1
C 1.5652560657 -0.7283422586 -3.1413288574
C 0.6854691799 0.1689688456 -2.3046353607
C 0.8928315892 1.7064362589 -2.3745185917
C -0.6242671279 1.9063841301 -2.1869707399
O -1.0219825408 1.7186602518 -0.7995623134
C -1.0699536066 0.2804985879 -0.977529616
C 0.3622774309 -0.2751610389 -0.8323677928
O 1.1227685172 0.2232768994 0.2297445426
C -0.8712598669 0.40427409 -2.5087457857
H 2.5948867963 -0.7166555282 -2.7642054239
H 1.2153841394 -1.7667172756 -3.1176187229
H 1.5907784598 -0.4063429922 -4.1885286509
H 1.5603109171 2.1709830208 -1.6425033553
H 1.1980354283 2.0084404132 -3.3826472226
H -1.125215614 2.7663731745 -2.6344841509
H -1.903594004 -0.1734045371 -0.4387377393
H 0.36070607 -1.3702036469 -0.773719005
H 0.791652212 1.1198119896 0.3824473181
H -1.5039082654 -0.0057770943 -3.2906404222

