# b3lyp 6-31G(2df,p) opt Freq 

 titel

0 1
C -1.122564288 -2.3816625977 1.0187286509
C -1.0942554143 -1.1679376757 0.1352510893
C -1.9133233329 -1.0389179997 -1.1418722814
C -2.1198591207 -0.0026399869 -0.097458323
C -1.0054630671 1.0529344116 -0.1538472645
C -0.845066351 1.9310229027 -1.3837347015
O -1.0525700483 1.8394123366 1.02987216
C -0.0211300151 -0.1319086479 0.1282028738
O 1.1133943047 -0.1129151463 0.5287847596
H -0.4519719779 -3.158710539 0.6363613573
H -0.8004961951 -2.1342827538 2.0347336023
H -2.1295660648 -2.8072603044 1.0704926615
H -1.4407339367 -0.7996531993 -2.0897170109
H -2.6930989423 -1.7900540685 -1.223872015
H -3.0508403202 0.1431351091 0.4345752629
H -0.8878909739 1.3587295321 -2.3144493232
H -1.6318177556 2.6914388323 -1.4021544758
H 0.1230396519 2.442235138 -1.3499018697
H -0.140710043 2.0571694969 1.2591851975

