# b3lyp 6-31G(2df,p) opt Freq 

 titel

0 1
O 0.1350291865 -1.095590407 -0.1346006488
C 0.3261380803 0.071595146 0.0890649778
C -0.3432924983 0.8617869977 1.1951624684
C -1.0893513715 2.0776457269 0.6722756192
C -0.4037623605 3.2805257171 -0.0686155087
C -1.7564662922 3.944448935 0.282701111
C -1.7127169439 3.1604837926 1.6157395432
O -2.704626902 3.2090590633 -0.5066663653
C -2.2843175634 1.8488216578 -0.2718536517
H 1.0382167093 0.663433882 -0.5318335983
H -1.0115094931 0.1899264954 1.7440258895
H 0.4452101518 1.1967796509 1.8841556556
H 0.4416031809 3.6897665667 0.4882657735
H -0.1625322173 3.1745707475 -1.1290751045
H -1.9568626969 5.0109696432 0.202018843
H -0.9904834817 3.5555779937 2.3327978884
H -2.6672154455 2.9381379537 2.0990795766
H -3.0939543778 1.2728327161 0.1923818587
H -2.0070469849 1.3688373414 -1.2183850276

