# b3lyp 6-31G(2df,p) opt Freq 

 titel

0 1
C 3.0898148382 -5.2285572867 0.5206806954
C 3.2042311218 -3.8267892376 -0.0068960086
O 3.2739540533 -3.6896061446 -1.4511655231
C 2.1733908734 -3.0893990587 -0.7650522811
C 2.3335087596 -1.595833282 -0.4890937419
C 1.0995010003 -1.0011392437 0.1902918234
O 0.0239158401 -1.0667328297 -0.7346796717
C 3.5659417018 -1.5555798106 0.3957436756
C 4.0211901049 -2.7765847856 0.6854367416
H 2.7320141138 -5.2271268863 1.5558377428
H 2.3970369679 -5.8121473563 -0.0901687694
H 4.0635591229 -5.7308220938 0.503238855
H 1.1914918156 -3.4903350989 -0.9999890243
H 2.4962312905 -1.0475488595 -1.4261035211
H 0.8773619962 -1.5696112425 1.1073758059
H 1.3096910159 0.0376694542 0.4897801024
H -0.7750009717 -0.7668795574 -0.2916502019
H 4.0190413531 -0.6226279397 0.7139690821
H 4.8840895421 -3.0065141506 1.2996662888

