# b3lyp 6-31G(2df,p) opt Freq 

 titel

0 1
O -0.7508340366 0.3390236535 -0.0691404636
C -2.065237081 -0.0810308762 0.1278167135
C -2.3527171731 -1.3398382978 0.9320579853
C -3.8392778812 -1.5895147966 0.5940460989
C -3.9110354426 -1.3030116984 -0.9250817254
C -3.042767945 -0.0600054117 -1.0410122634
C -3.2099245271 0.8968961693 0.1210710726
O -4.2883735371 0.7886653404 1.0135970076
C -4.6900463436 -0.5472615937 1.3265455952
H -0.4464560416 0.7588224312 0.7432093039
H -1.7116718078 -2.1563433913 0.580922979
H -2.1864997729 -1.2138793932 2.0087638761
H -4.1816621553 -2.591905704 0.863123558
H -3.4861380885 -2.1288706503 -1.5066535449
H -4.9407347044 -1.146965262 -1.2653251094
H -2.7426961484 0.3299303572 -2.0068664162
H -2.9723313969 1.9407517346 -0.0518826945
H -4.6099224424 -0.683497281 2.4144595936
H -5.7483869945 -0.6593038298 1.0528378937

