# b3lyp 6-31G(2df,p) opt Freq 

 titel

0 1
C 0.8609572746 3.4808964321 -0.6049603973
C 0.8273423126 3.1215404071 0.891198832
C 1.6731350178 4.1116407595 1.6806419158
O 1.2514805447 4.823013037 2.5552504546
C 1.3409162268 1.7211240711 1.1314695582
C 1.611607785 0.9751081386 2.468103528
C 2.2116300517 0.1635682068 1.3002368019
C 0.9155090333 0.3734211903 0.4838861778
O 2.7478387368 1.4212694245 0.7283817634
H 0.2305209462 2.7938374693 -1.1761430817
H 0.4943670155 4.4977311013 -0.7706967208
H 1.8795911985 3.4063122394 -0.9960709701
H -0.1936511737 3.1857900116 1.2834053199
H 2.7423764964 4.1371738889 1.3759008757
H 2.3393409264 1.4492321856 3.1277367687
H 0.755794865 0.557702351 3.004265275
H 2.8791696716 -0.6967497846 1.3250170212
H 1.0374958486 0.3160064688 -0.5981356199
H -0.0028704978 -0.1001519083 0.8399263477

