# b3lyp 6-31G(2df,p) opt Freq 

 titel

0 1
O 1.4898990802 0.9452001315 0.8444435387
C 0.5585791015 -0.1095014439 0.6832817579
C -0.8741496329 0.315686808 0.8009468121
C -1.3271185116 1.5106304848 1.2021169023
C -2.812848104 1.5586579438 1.2557860929
C -3.4473637167 0.5833297461 2.2390840024
O -4.775698712 0.7758289702 2.6221665278
C -3.2657332913 0.1664122356 0.8140819879
C -2.0142946864 -0.6245835467 0.4414231716
H 1.2850910006 1.6089128643 0.1772147311
H 0.7043730521 -0.633308414 -0.2787638987
H 0.8036978033 -0.843806885 1.4625011268
H -0.6929810437 2.332568615 1.5126916063
H -3.3671367588 2.4549486851 0.9994065863
H -2.7931946242 0.1516367135 2.9987785746
H -4.7949130745 1.4753857364 3.2838535635
H -4.1763208024 0.04415694 0.2404351813
H -1.9494534738 -1.5783197277 0.9823873834
H -1.9957090554 -0.8784865272 -0.6280979281

