# b3lyp 6-31G(2df,p) opt Freq 

 titel

0 1
C 0.1113018321 -3.0011226331 -1.2399516797
C -1.0610251051 -2.4030943341 -0.5095322497
O -0.9234666829 -2.218036294 0.9001302731
C -1.0176670463 -1.0550434493 0.0997635334
C -2.0948851065 0.03827903 0.1981633245
C -1.0068002446 1.1232709635 -0.1087508703
C -1.1105019048 1.8802422831 -1.4317002667
C 0.0617603169 0.0039370564 -0.0711960544
O 1.2570556095 -0.01389103 -0.1517110084
H 1.0416954455 -2.5239112185 -0.9256324418
H 0.1751768461 -4.0752405578 -1.0368584134
H -0.0070599504 -2.8697297428 -2.3207370005
H -2.0503840493 -2.7583346337 -0.8056977661
H -2.8993699061 -0.033200722 -0.5375581851
H -2.5287420475 0.1172813453 1.1971945875
H -0.8606249521 1.8262585371 0.7183591425
H -1.2693763099 1.193822642 -2.2704579589
H -1.9460497117 2.5866942528 -1.4132669138
H -0.191460123 2.440822925 -1.6262041623

