# b3lyp 6-31G(2df,p) opt Freq 

 titel

0 1
C -2.181351173 2.8564276606 1.6301533157
C -1.7156289699 1.460842666 1.2822986262
C -2.3877349948 0.6917290892 0.1889578146
C -0.997565617 1.2389095814 -0.042895015
C -0.085189612 0.0571677053 -0.0676266443
O 1.0872193514 0.0160265945 -0.3062659936
O -0.8038534973 -1.0652115039 0.2505484843
C -2.2298199543 -0.8240195161 0.227286046
C -2.8414598015 -1.5300270518 -0.9748656555
H -3.001223267 2.8243265643 2.3556186602
H -1.3690646293 3.4465006596 2.0663381352
H -2.5412080934 3.3869322055 0.7426095516
H -1.3455671811 0.8788193512 2.1239608975
H -3.2545282871 1.1083850475 -0.3112713018
H -0.7590778502 2.0842278678 -0.6741657874
H -2.6271381892 -1.2492863485 1.1562242155
H -2.5918171458 -2.5937645791 -0.9582073192
H -3.9315915433 -1.4282788331 -0.9588367336
H -2.4656177952 -1.1004929504 -1.9087610663

