# b3lyp 6-31G(2df,p) opt Freq 

 titel

0 1
O 0.8808762666 0.0161329674 -0.8683594581
C -0.0923079805 0.007117282 -0.1648294905
C -0.8824902356 -1.2662287349 0.1205794224
C -1.7861298381 -1.2175065452 1.3581511871
C -2.5219530857 0.1036775933 1.3584559214
C -3.8077798439 0.2395723745 0.5788005478
C -3.8249572331 0.2760205261 2.0892301573
C -1.5477743361 1.2511036734 1.3697601027
O -0.5541895119 1.1836405965 0.3285893083
H -1.4962771142 -1.4295428981 -0.7745632728
H -0.1615635357 -2.0859007861 0.1548853031
H -2.4811681131 -2.0633687725 1.3560081235
H -1.1825538156 -1.304187711 2.2714082016
H -3.9915236139 1.1644709047 0.0424930769
H -4.1997444648 -0.644490393 0.086619953
H -4.0230573875 1.2263706613 2.5746180895
H -4.2232746594 -0.5825358785 2.6193937336
H -2.0511711061 2.2113580841 1.2273640847
H -1.0152965814 1.2881432663 2.3301422286

