# b3lyp 6-31G(2df,p) opt Freq 

 titel

0 1
C 2.1301560126 1.5002221043 -0.0503134765
C 1.3481174278 0.1894018389 -0.1654132136
C 1.8325451093 -0.7087583135 -1.2979220722
C 1.1260229189 -2.0616887209 -1.3590272616
C 1.4815455832 -2.7661525511 -2.6361822278
C 1.8714624217 -2.071108691 -3.7065357547
C 1.8589394787 -0.5902498598 -3.717034327
O 1.9619223767 0.0668778797 -4.7207421737
O 1.6478633021 0.0304116866 -2.5254463378
H 1.7368663255 2.1173982985 0.7624874187
H 3.189533805 1.3116453629 0.1560465206
H 2.0648502731 2.0716886038 -0.979026655
H 1.4231613357 -0.3799085138 0.7694780668
H 0.2831421989 0.3978172518 -0.3247596546
H 2.9124575797 -0.8889949946 -1.1866300007
H 1.4204913137 -2.6613430707 -0.4905646887
H 0.0359284216 -1.9317971403 -1.2905382504
H 1.4003625955 -3.8491247603 -2.6760542694
H 2.1278386702 -2.5322033104 -4.6526065522

