# b3lyp 6-31G(2df,p) opt Freq 

 titel

0 1
C -0.1942602805 1.1334915664 0.67526321
O 0.1193666861 -0.2431368211 0.3873797201
C 1.3381137692 0.1234927177 -0.2883264676
C 1.1727885324 1.6064104797 0.1239794051
C 1.1630083455 2.6286414747 -0.9630041162
C 0.6693546348 4.1041687396 -0.9441931638
C 0.9510518394 3.6803252357 -2.4021442587
C 2.2845689984 3.0390266884 -1.9604621719
O 0.2692121457 2.392381617 -2.1359225299
H -1.053517377 1.4891928336 0.0938864744
H -0.3774522624 1.3006523566 1.7426734329
H 2.2092021385 -0.4042291941 0.116126673
H 1.2746864542 -0.0453594198 -1.3701379002
H 1.8703587397 1.9190817856 0.9055887687
H -0.3841911828 4.238500141 -0.6956049428
H 1.3180134243 4.8567815949 -0.4884224154
H 0.7027470211 4.190818394 -3.3318441354
H 2.6496163542 2.2378757827 -2.6044312197
H 3.0800700391 3.6948067574 -1.5970828426

