# b3lyp 6-31G(2df,p) opt Freq 

 titel

0 1
C -1.0935055618 5.2082167435 1.9049986838
C -0.6532751188 4.4406576705 0.6868552947
O -1.6897053826 3.955601341 -0.1805676122
C -0.8914321708 3.0019091945 0.5278057297
C -0.0033370082 2.1275460272 -0.3378113322
O 0.9703735502 1.4788420214 0.483713778
C 0.89949716 0.0630131612 0.3186912024
C -0.2388511568 -0.1626838015 -0.6359213234
C -0.7448429529 1.0043980353 -1.0149408148
H -1.9347113109 4.7106208312 2.3950303716
H -0.2696846788 5.2918433983 2.6218073347
H -1.4069421984 6.2211442904 1.63145922
H 0.1989849104 4.8612381902 0.1493152398
H -1.4121821965 2.4687061592 1.3251533332
H 0.4994406186 2.7781273048 -1.0723701548
H 1.8562005353 -0.3174862989 -0.0734960933
H 0.7372333171 -0.416924335 1.2959547128
H -0.5613640905 -1.1470768571 -0.9506018528
H -1.5660692245 1.1796383339 -1.6970412874

