# b3lyp 6-31G(2df,p) opt Freq 

 titel

0 1
C -2.2468390605 0.2116325281 -0.8016757918
C -1.3312861411 0.5590859698 0.3805481353
C -0.1145292647 1.444832533 0.0721563441
C 1.2626386094 0.7902740482 -0.2060198563
O 1.717308402 2.066279139 -0.7950753805
C 0.3745731906 1.8191075024 -1.3666303208
C 0.7954811701 0.3482506065 -1.6241049365
C -0.3026529058 -0.6873961865 -1.9077338405
O -1.5818937095 -0.0867341252 -2.0187268848
H -2.8937182908 -0.6310964837 -0.5086079807
H -2.9023699803 1.0584671644 -1.0341712694
H -1.9567180202 1.0462749238 1.1361797934
H -0.9786664456 -0.3662177813 0.8513590511
H -0.0224619884 2.2944925065 0.7517203691
H 1.9381792037 0.2873793081 0.4888974343
H -0.0187716809 2.5572147447 -2.0649112836
H 1.6392093676 0.2677147496 -2.3133503585
H -0.1174391067 -1.1392552635 -2.8865417446
H -0.2989146288 -1.5078981838 -1.1740146392

