# b3lyp 6-31G(2df,p) opt Freq 

 titel

0 1
C -4.0611083727 1.1895733141 1.2235933151
C -3.3780946991 -0.0433936163 0.6939490049
O -3.2100384527 -0.1315061398 -0.7354919057
C -2.0522707146 -0.0201048467 0.0700959358
C -1.0437466432 1.1376165436 -0.0309020435
C 0.0520415049 0.0895415667 0.2481301081
O 1.2077406972 0.1573312421 0.5501648264
C -0.9360863723 -1.0866558175 0.1038021049
C -0.9151081807 -2.1802373294 1.1635216872
H -3.9063661249 1.2791755568 2.3044096047
H -3.6766836804 2.0900940499 0.7381191396
H -5.1396238769 1.1371993401 1.0428681266
H -3.698456285 -0.9834222237 1.1470509367
H -0.9769233499 1.5603450408 -1.0392458478
H -1.1180932138 1.9554055533 0.6907901651
H -0.8260749818 -1.5187888561 -0.900876711
H -1.7033239292 -2.9183142909 0.9862121228
H 0.0473154889 -2.6999204806 1.1495375862
H -1.0556036739 -1.7631825166 2.1655880439

