# b3lyp 6-31G(2df,p) opt Freq 

 titel

0 1
C -2.7355350535 3.6250532847 2.2137997194
C -2.0750698777 2.2840273072 2.0853738656
C -2.7390359427 0.9169134293 2.2957336087
C -1.3037602023 0.3418509119 2.3271636432
O -0.9777242943 -0.8528874383 2.932637481
C -0.7645994563 1.8191992949 2.6750790403
C -0.8636739564 2.0489313566 1.1764785129
C -0.78296331 0.5499322088 0.8778563764
O 0.5172285627 0.0713753752 0.641000196
H -3.2572829205 3.7187561335 3.1731845992
H -2.000748075 4.4348698872 2.1534864704
H -3.4717667055 3.7851670133 1.4175503179
H -3.2197880853 0.8687906717 3.2807371012
H -3.4239742098 0.5256629814 1.5330802516
H -1.4066297425 -0.8895174123 3.794146877
H -0.1294809284 2.2455535731 3.4389752315
H -0.4259209843 2.852517712 0.5972117985
H -1.4014535775 0.1388492103 0.0725691259
H 1.0772003393 0.3707118895 1.3675874734

