# b3lyp 6-31G(2df,p) opt Freq 

 titel

0 1
C 1.3752084154 -0.3169542945 1.128317605
C 0.9965804974 0.147303933 -0.2819163699
C 1.6977774901 -0.618628866 -1.3622091061
C 1.7207297367 -0.3779287692 -2.897543599
C 2.7882205769 -1.4288657322 -2.5415905018
O 3.1986098205 -0.6064505121 -1.3947400189
C 1.7724794211 -2.1597510448 -1.5940750396
C 0.6157212816 -2.9508590565 -2.1309834557
O -0.4672458417 -2.4991900405 -2.4176067997
H 1.074983581 -1.3560440038 1.2980914755
H 2.4560598134 -0.2501758087 1.2793551329
H 0.8828130293 0.3000064274 1.8849742183
H -0.0815281484 0.0406265494 -0.4510213581
H 1.2367042277 1.2096695454 -0.4101649226
H 0.8465136847 -0.6800461135 -3.4733607047
H 2.1282228184 0.5890856527 -3.1945304214
H 3.574172736 -1.8736524031 -3.1515547722
H 2.2962061085 -2.7100857888 -0.8070722191
H 0.8242489314 -4.0390930841 -2.2505537329

