# b3lyp 6-31G(2df,p) opt Freq 

 titel

0 1
C 2.9566866322 -0.0038856955 -1.1574053316
C 2.6531982826 -0.2306022075 0.3133912384
O 3.3994560291 -1.3381146353 0.7244792532
C 2.7125405691 1.0580494144 1.1729471201
O 1.2731925352 1.1635358549 1.1798988747
C 1.1093188163 -0.1968341487 0.7011955551
C 0.0376952552 -0.3011706618 -0.3744283841
C 0.8356967639 -1.1135821731 1.8117486481
C 0.6656112447 -1.8771690541 2.7268199214
H 2.638393659 -0.8610873056 -1.7568881154
H 2.4663592689 0.8973984054 -1.5315607978
H 4.0375246015 0.1134792169 -1.2806947197
H 3.0491656901 -1.6373189068 1.5743237958
H 3.1194266184 0.8838045353 2.1780242775
H 3.1846972214 1.9423343286 0.7325364852
H -0.9411958813 -0.0713979796 0.0556526066
H 0.2349602235 0.4052348713 -1.1824439163
H 0.0030669979 -1.3158830481 -0.7815675229
H 0.478763942 -2.5400646805 3.5360690216

