# b3lyp 6-31G(2df,p) opt Freq 

 titel

0 1
O -0.819307755 0.8529173433 0.1478194557
C -1.7762346533 0.4131788988 1.0788790022
C -3.1861299635 0.7261287983 0.6541091545
C -2.6863189938 -0.7085061629 0.6559251295
O -3.1943575557 -1.6675299801 1.5382111096
C -2.8529139147 -1.6048577289 2.8942091012
C -3.4340696585 -0.5468991618 3.8003185401
C -1.9558369733 -0.5362572627 3.4525752805
C -1.3264654476 0.4979828692 2.5289008892
H -0.0709300371 0.24566858 0.182168929
H -3.9030006647 1.0315024854 1.4067176631
H -3.3000244877 1.2062239675 -0.3111345518
H -2.4959761906 -1.1550683992 -0.3149502045
H -2.7620969108 -2.6126961459 3.2869870231
H -4.0763236897 0.2009225598 3.3504165524
H -3.7204889937 -0.8296685504 4.8077459227
H -1.2949688776 -0.8546871818 4.2532198349
H -1.4597620598 1.5157773199 2.9164981336
H -0.2440921128 0.3164298714 2.522412045

