# b3lyp 6-31G(2df,p) opt Freq 

 titel

0 1
C -1.4399574315 3.4254521717 0.7352812008
C -2.2776991326 2.664260812 -0.3154202651
C -1.2165871233 1.9633438078 -1.1892562471
C -0.352072154 1.3900332573 -0.0308493026
C 1.1777433398 1.574803597 0.0293158077
O 1.3812545514 0.1667225471 0.2555640657
C -0.0192102887 -0.1118441526 0.0388058452
C -1.1870098273 1.9559003207 1.1342743215
O -2.54793593 1.6433001887 0.7010734919
H -0.6028667877 4.0474852022 0.4061402872
H -2.064099726 3.9429263565 1.4639333213
H -3.1712151959 3.0727315573 -0.7862960388
H -1.6585992334 1.1774749002 -1.8067879623
H -0.6680319535 2.6524562218 -1.8386009778
H 1.6406746024 1.9128126982 -0.9084882797
H 1.5641553139 2.1877658377 0.8548210096
H -0.1852943605 -0.6639515532 -0.896323925
H -0.4678924484 -0.6725199363 0.8680230348
H -0.9480756247 1.630955106 2.1475348529

