# b3lyp 6-31G(2df,p) opt Freq 

 titel

0 1
C 3.7917814024 0.5047776209 -0.3829325023
O 4.1494879545 -0.4298608499 0.6642530992
C 2.8969069636 -1.1432259948 0.5361704931
C 1.8510014283 -0.7343903237 1.5932280117
C 1.3763651197 0.4180616487 0.6509298623
O 0.0761554293 0.2891452422 0.1050318128
C 0.1400732533 -0.5329560431 -1.0592916873
C 1.5231482658 -0.275101293 -1.6849105281
C 2.3736502799 -0.057969827 -0.453344862
H 3.9014458525 1.5508608805 -0.0693767408
H 4.393585161 0.3377335125 -1.2869314364
H 3.0454276601 -2.2020987496 0.3023117899
H 1.0667678649 -1.4802462066 1.7519233856
H 2.2698392723 -0.4340899348 2.5560081917
H 1.4798619141 1.4339715321 1.0422675429
H 0.0337401522 -1.5968719516 -0.7934125977
H -0.6984236936 -0.2606710831 -1.7053899429
H 1.8611045787 -1.1022122927 -2.3156386975
H 1.503146831 0.6352888831 -2.2957256842

