# b3lyp 6-31G(2df,p) opt Freq 

 titel

0 1
O -0.2218487605 1.4390647889 0.0894845008
C -0.0067919464 0.0542975192 0.0284320991
C 0.2668452449 -0.6399259804 -1.3727663024
C -0.7107235858 -1.7873520926 -0.9293961941
O -0.0156583505 -2.8588528644 -0.2992263154
C -1.9702911282 -2.2334317772 -1.7063110163
C -3.1503167386 -1.8641777821 -0.7488715279
C -2.567373351 -0.7562538573 0.125267319
C -1.2420864262 -0.7996158824 0.0746995082
H 0.628588749 1.8733476809 0.2049865331
H 0.7505681347 -0.2746478333 0.7527762937
H -0.1414223338 -0.0252327378 -2.1780658048
H 1.2994296776 -0.9295971238 -1.589698012
H 0.4694138992 -3.3305111222 -0.9850890955
H -2.0696424525 -1.6714014794 -2.6405628004
H -1.9397523177 -3.2982851738 -1.9547673066
H -4.0285353991 -1.5150893686 -1.3025829621
H -3.4816406025 -2.7269800784 -0.1560780674
H -3.1768617925 -0.0071575353 0.616830861

