# b3lyp 6-31G(2df,p) opt Freq 

 titel

0 1
C -0.1532709252 1.313584527 0.0008265847
O 0.0839307564 -0.1066448611 0.1774870136
C 1.3462402047 -0.0429534467 -0.5528307811
C 2.5115220199 -0.8071377732 0.0734262117
C 3.2515156289 -0.0049958091 1.1563547469
C 3.6415474143 1.4000249116 0.6475188078
C 2.3808304996 2.1859782293 0.3274530333
O 2.0393975126 2.4376636409 -1.0626761705
C 1.3153332567 1.4660569693 -0.3583304009
H -0.8474965682 1.5134269703 -0.827071737
H -0.5171691032 1.7950176489 0.9143438938
H 1.1842799889 -0.3532653965 -1.5947712009
H 2.1324026926 -1.7543451214 0.472561259
H 3.217292192 -1.0626199416 -0.7270831925
H 2.6129413462 0.0996793568 2.0422737264
H 4.1438527844 -0.5535876296 1.4745304524
H 4.2413833745 1.9283436602 1.3944989403
H 4.2521591718 1.3181869487 -0.2591659928
H 2.1170807832 3.0123248462 0.9856476759

