# b3lyp 6-31G(2df,p) opt Freq 

 titel

0 1
O -0.8589001227 0.470951199 0.9025326425
C -1.6964240965 -0.3365724275 0.1111895049
C -2.8530300846 -1.0804288099 0.9371452659
C -3.5711852833 0.2925601208 0.932534734
C -2.9326276686 0.38075786 -0.4753200361
C -3.6064314415 1.2484720412 -1.5507051884
O -4.5803304784 0.1700745227 -1.7599758997
C -3.5973270386 -0.7635551829 -1.2199053927
C -3.7298346111 -1.8347725076 -0.1085813734
H -0.2878105046 -0.1062871078 1.4195666843
H -1.1118930428 -0.9438509916 -0.5945221373
H -2.5982190886 -1.5995002593 1.863628286
H -4.6610376905 0.2961461038 0.9990404612
H -3.1278702637 1.0121996183 1.6194449735
H -4.0860273832 2.1756724641 -1.2260998959
H -3.0135540733 1.4229759814 -2.4579000168
H -3.001713332 -1.1483166133 -2.0604096532
H -4.7459085705 -1.9862684525 0.265319098
H -3.3331974955 -2.8019217687 -0.4298027368

