# b3lyp 6-31G(2df,p) opt Freq 

 titel

0 1
C -1.3767721118 3.457657238 1.2336334479
C -0.3686069325 2.4821536718 0.6712907777
C -0.2446145319 2.2523508914 -0.8037988538
C -0.8193118243 1.1603707239 0.0869552008
C -2.2477048754 0.6530688444 0.0273435506
C -2.035272033 -0.8462537578 -0.2608008408
O -0.7102677988 -1.1668255014 0.1977142144
C 0.043528171 -0.0399968352 0.3243855671
O 1.2136519893 -0.0731091992 0.5875034375
H -1.6606673544 3.1932927335 2.2579597551
H -0.9608280303 4.4703449727 1.2556885788
H -2.2895507077 3.4887003439 0.6301312581
H 0.5645331364 2.4058356772 1.22337638
H -0.945291226 2.7567478653 -1.4624294278
H 0.7417673596 2.0799146013 -1.2194740746
H -2.7536220621 0.7896783521 0.9892010826
H -2.8591308499 1.1287693963 -0.742457764
H -2.7359240559 -1.4964884231 0.2666717694
H -2.0905907721 -1.0673311951 -1.332797719

