# b3lyp 6-31G(2df,p) opt Freq 

 titel

0 1
C 4.8755668144 0.9013207358 -6.0112407665
C 3.5431771451 0.7212240878 -5.3081013178
O 2.484656747 0.8032909398 -5.9019429143
C 3.594111982 0.4090186654 -3.8567546218
C 2.3435715937 0.728439154 -3.0325265239
C 2.5109283757 0.8040189846 -1.5236395819
C 3.2329355664 -0.5221170702 -1.1884987245
O 2.9529167956 -1.4311025257 -2.261010101
C 2.6119305925 -0.6838498049 -3.3850645715
H 5.5011096278 0.0117131852 -5.8752358748
H 4.713395857 1.0807375585 -7.0745866153
H 5.4231128814 1.7445391026 -5.5742533641
H 4.5647904712 0.4454936457 -3.3738253711
H 1.5714487341 1.2944582314 -3.538645755
H 3.0793009743 1.6724470906 -1.1788144969
H 1.5209058684 0.8443267833 -1.0580248223
H 4.3175101018 -0.3686592438 -1.1106212235
H 2.8911098928 -0.9852427524 -0.2593936032
H 2.0687978488 -1.2431745177 -4.1360457707

