# b3lyp 6-31G(2df,p) opt Freq 

 titel

0 1
C -2.1948568009 1.6255965412 0.2445989187
C -1.0121420805 2.0228859419 -0.6432225549
C -0.1994773243 0.7953383385 -1.0855890762
C 0.4222062328 0.046306195 0.0739714802
O 0.2672178443 -1.125948061 0.2997467221
C -1.4550748585 2.9622906379 -1.8186686718
C -0.8519259811 4.1425709725 -1.0432186901
O -0.9232196986 5.3307613355 -1.1538327818
C -0.1791469336 3.2063986212 -0.0282306834
H -1.8604508674 1.1339090577 1.1643142963
H -2.7822741369 2.503880636 0.5325581354
H -2.8618338699 0.9328799883 -0.2795439613
H -0.8204034867 0.0951531639 -1.6535335001
H 0.6225741523 1.1257094914 -1.7375167372
H 1.0639295522 0.6735246071 0.7367242651
H -0.9158562264 2.7810006218 -2.7551611118
H -2.5241369764 3.0211537658 -2.0401739832
H 0.8986810039 3.1343824468 -0.2126779616
H -0.3340644943 3.4432874887 1.0277174756

