# b3lyp 6-31G(2df,p) opt Freq 

 titel

0 1
C -0.0429734579 1.4515766893 0.1245115873
C -0.0277598524 -0.0366879274 -0.0025525842
C -1.028269141 -0.8892676607 -0.2000020865
C -2.5164331784 -0.9324044386 -0.0872282775
O -2.7925905168 -2.2544978454 0.4192905876
C -1.5729910675 -2.8969248323 0.814113542
C -0.5260395284 -2.3041695477 -0.1407907108
O 0.8152146864 -2.2137847899 0.302824584
C 1.241767019 -0.8549348322 0.1593912661
H 0.5119041743 1.9277894244 -0.6939137404
H -1.0621090447 1.8465343949 0.1077323461
H 0.4371217894 1.7733443099 1.0569422447
H -2.9069990534 -0.1676577796 0.5987384029
H -3.0421592731 -0.8256238479 -1.044910049
H -1.2979098536 -2.6574529365 1.8523885207
H -1.7321863645 -3.9738873344 0.7208635745
H -0.5743207799 -2.8233028448 -1.112745857
H 1.9269199257 -0.7556872155 -0.7001472771
H 1.8040030967 -0.5594255856 1.0566144069

