# b3lyp 6-31G(2df,p) opt Freq 

 titel

0 1
O 4.1071899919 -3.9008753891 2.3068639582
C 4.7985119655 -2.8653810585 1.6407021384
C 4.4312772266 -1.5150531301 2.2305848998
C 4.6982192255 -0.2460334166 1.3968217267
C 3.1657377951 -0.0616941135 1.4413574851
C 2.4235789179 -0.0242188337 0.1035579827
C 0.9745016415 -0.0251346587 0.2563557816
C -0.2179044929 -0.0173089133 0.4035259533
O 2.9941338729 -1.3136975097 2.1457394044
H 3.1752038077 -3.6491926285 2.2908190431
H 5.8709091504 -3.0564153182 1.7641257365
H 4.5789798491 -2.8615310195 0.5595987535
H 4.7614379955 -1.460876393 3.2755373116
H 5.2881880889 0.5341625041 1.8778112399
H 5.1008787197 -0.4401255808 0.3986961172
H 2.8333635945 0.7763702259 2.0663029283
H 2.7418868874 0.8777993522 -0.4372663741
H 2.7400956699 -0.8837678008 -0.5002052246
H -1.2723007769 -0.0168892683 0.5280402885

