# b3lyp 6-31G(2df,p) opt Freq 

 titel

0 1
C -1.1444693912 0.7436971207 2.3030288168
C 0.2210149846 0.966557775 1.7250469606
C 0.9198030397 2.2968589434 1.4320793689
C 2.1903012088 1.4539863872 1.170932618
O 1.8614889215 0.7142710366 -0.0338689579
C 0.9372178024 -0.0429496353 0.75348842
C 0.3447504039 -1.2819655953 0.1754473778
C 1.5563377866 0.2931752652 2.0624042185
O 1.985489262 -0.51390203 3.0820476438
H -1.2826196669 1.3107699931 3.2314652828
H -1.9300013359 1.0590143922 1.6064857167
H -1.3147183437 -0.3121367466 2.5382393989
H 0.5736863822 2.9032658359 0.5887835826
H 1.0053053017 2.9107585774 2.3344664178
H 3.1982193476 1.8637263368 1.1739976764
H -0.2899476415 -1.7854973388 0.9090941997
H -0.265588142 -1.0478139559 -0.7033337965
H 1.132191172 -1.9783359399 -0.1286799861
H 1.8831636982 -0.0429303617 3.9174766813

