# b3lyp 6-31G(2df,p) opt Freq 

 titel

0 1
C -0.1993368883 -0.0363009571 -0.3274744216
C 1.2812637493 -0.1711278328 -0.0039346194
C 2.0239951428 -1.0986543321 -0.9726190679
O 2.5447462499 -0.2046984756 -1.9935143462
C 2.7918424651 1.1114472153 -1.4709721093
C 2.2682030497 1.0235600212 -0.0679698176
C 1.6294106711 1.6886552049 1.1705367443
C 1.8309216859 0.1542184538 1.4299093464
O 3.1783022964 0.288953415 0.86920186
H -0.7003243453 0.7554542298 0.2334955769
H -0.3420377503 0.1601261708 -1.3954609315
H -0.7167503654 -0.9745316642 -0.0970605976
H 2.8416170816 -1.6446737446 -0.4962533085
H 1.3627290916 -1.7987603352 -1.4893221568
H 3.8643828584 1.3378961149 -1.4962120127
H 2.2536615585 1.8510915499 -2.0762530057
H 2.3002320919 2.3226368636 1.7498352825
H 0.6240262512 2.1020565252 1.0881062331
H 1.7253612561 -0.3920559727 2.3689659518

