# b3lyp 6-31G(2df,p) opt Freq 

 titel

0 1
O 0.4975106609 -0.1823396421 0.5478712978
C -0.6397529856 0.5841954016 0.8213586448
C -1.9756082357 0.0723818355 0.334158666
O -3.1507875123 0.5361472724 0.9460098867
C -3.1455155137 1.9662329993 0.9191267494
C -2.1784205776 2.3869358184 -0.1934237947
C -2.6373645573 3.2144524007 -1.36616102
C -1.7192747512 3.8129404172 -0.3238654506
C -1.2895642291 1.1925855868 -0.4035824363
H 0.5016835933 -0.9321900973 1.1528309407
H -0.604866828 1.1713976435 1.7400394289
H -2.0623775309 -0.9385954491 -0.0474922618
H -4.1728507951 2.3074209944 0.7544151019
H -2.8107447282 2.3550865789 1.8922176354
H -2.2244652081 2.9910614391 -2.3446521645
H -3.6718442896 3.5425244244 -1.3846362765
H -0.6842876645 3.993766649 -0.5932594408
H -2.1349201169 4.5480659637 0.3590351933
H -0.8044181003 1.0358957334 -1.35968355

