# b3lyp 6-31G(2df,p) opt Freq 

 titel

0 1
C 1.3992284122 0.7174458245 0.4587823879
C -0.0038879282 0.2164343754 0.3511738036
C -1.1172822044 0.918300705 0.1219793878
C -2.3498500304 0.0619840099 0.0229226159
C -2.7230367732 -0.3931729131 -1.4094814484
O -2.0291404209 -1.6526946036 -1.2259389524
C -1.8030642669 -1.3756858955 0.182023057
C -0.2898819486 -1.2758996713 0.4860177294
O 0.4767103792 -2.0793431495 -0.3922098645
H 1.8064823112 0.5314889422 1.4612906545
H 2.0435592431 0.1757396718 -0.2422107185
H 1.47131274 1.7885457628 0.2530168145
H -1.1499429547 1.9948952645 -0.0162142473
H -3.1822812721 0.3808973605 0.6534706467
H -3.7942255156 -0.5580598423 -1.5778194458
H -2.3053437507 0.190990193 -2.2364641056
H -2.3449477005 -2.0838073963 0.815167234
H -0.0583276694 -1.6277533346 1.5005223732
H -0.00859359 -2.0646083435 -1.230806282

