# b3lyp 6-31G(2df,p) opt Freq 

 titel

0 1
C -2.3318200875 2.6785790583 1.5341203674
C -1.1295688741 2.2564101096 0.7226435933
C -1.1405942109 2.3299225112 -0.7702294786
C -1.1829843357 0.9741096516 -0.1016076574
C -2.2535910891 -0.1348370441 -0.1195565603
C -1.1272236433 -1.1926670504 0.1016186243
O -1.1009662723 -2.2641206511 -0.806702991
C -0.1022769826 -0.0582958873 -0.1317723411
O 1.0779140753 -0.0577497044 -0.3603513613
H -2.3678257173 2.1596462545 2.4980432622
H -2.3017726039 3.7547585278 1.7357030036
H -3.2647887381 2.4660192905 1.0029603088
H -0.1672356891 2.4341416469 1.1965522481
H -2.0535629056 2.6591871224 -1.2572864536
H -0.2230565235 2.5810367851 -1.292327044
H -3.0202546439 -0.0944023063 0.6563659908
H -2.7246944691 -0.2656405517 -1.0962947119
H -1.0982755958 -1.5386871653 1.147752965
H -0.1742536235 -2.4858846671 -0.9565613642

