# b3lyp 6-31G(2df,p) opt Freq 

 titel

0 1
O 0.448867096 0.9471648749 0.2850851051
C -0.7825185912 0.7536507328 0.9155446756
C -1.8403444469 0.011282943 0.14694985
O -3.0062100132 -0.1584379035 0.9532449851
C -3.1989385908 1.2825778347 1.0080712933
C -4.5095140414 1.8628619004 0.4347948531
C -4.5085152156 2.8848892118 1.6066315704
C -3.5052380517 1.9630662195 2.3569986774
C -1.9008875543 1.5171869951 0.2435843524
H 0.949263828 0.126981094 0.3540106649
H -0.7614510054 0.6590941282 2.0035007791
H -1.6604539906 -0.6690341221 -0.6776987762
H -4.4924901055 2.2380671668 -0.5913852279
H -5.313294768 1.1281287701 0.5344623531
H -4.0576107567 3.8389736657 1.3223944739
H -5.4642922281 3.0833829268 2.0942350301
H -2.6707043722 2.4207950056 2.8935287247
H -4.0190592525 1.2635798951 3.0225033977
H -1.703429 2.283107801 -0.4939885117

