# b3lyp 6-31G(2df,p) opt Freq 

 titel

0 1
C 1.5071091845 -0.018199028 -0.0008852809
C 0.0521525399 -0.0350962069 0.0149268447
C -1.1524807953 -0.0371802513 0.0255504048
C -2.6042098609 -0.0511060848 0.0416134844
O -3.2054899032 0.4129887416 -1.2017969024
C -3.8371062358 -0.8604614073 -1.4373242497
C -3.3096492594 -1.431182746 -0.105201241
C -4.3495386149 -1.7432677248 0.9593942653
O -3.7830715748 -1.8769444493 2.2524345145
H 1.9103791284 0.4185835534 0.9192860713
H 1.9195345534 -1.0283876786 -0.099926467
H 1.8817660288 0.576153324 -0.8415416851
H -2.9775520037 0.5331961718 0.8922881253
H -4.9286266635 -0.7698318844 -1.5143709197
H -3.4569609398 -1.3459953778 -2.3441362912
H -2.6099596922 -2.2640158983 -0.2171538631
H -5.0634966467 -0.9150041963 1.0348224853
H -4.922440133 -2.6395699351 0.67054104
H -3.1514385719 -2.603224832 2.2276142543

