# b3lyp 6-31G(2df,p) opt Freq 

 titel

0 1
C 2.170060715 1.6062003509 -0.4356132694
C 1.6107817205 0.1841260721 -0.2760927042
C 2.134288492 -0.7426689837 -1.326292786
C 1.6050016721 -0.9321480564 -2.6961914092
C 1.669617855 -2.1592686334 -1.7946712177
C 3.1287784656 -2.5340188102 -1.5778409071
O 3.4922067516 -1.1701690841 -1.2354637119
C 0.4777699054 -2.8744786221 -1.3408894383
O -0.6568551037 -2.4643111481 -1.4601931091
H 1.7915402842 2.2591451163 0.355762205
H 3.2625212054 1.6028401385 -0.3800833612
H 1.8812597084 2.0363913861 -1.3995006387
H 1.8751796551 -0.2122887928 0.7106572467
H 0.5174164438 0.1908605488 -0.34261327
H 0.5881618214 -0.5920310499 -2.8621326587
H 2.2762112318 -0.8783478222 -3.5488737522
H 3.2851429788 -3.197944045 -0.7192744786
H 3.6901822818 -2.9056051656 -2.4425648294
H 0.6864604756 -3.8417142391 -0.8289747001

