# b3lyp 6-31G(2df,p) opt Freq 

 titel

0 1
O 2.1258971517 -1.8833451576 0.026297578
C 2.40409216 -0.6133078049 0.4899649607
C 3.7506559394 0.098964017 0.3704563546
C 3.4636817748 0.8498103861 1.7116396461
C 2.1283678368 0.1126740762 1.8631701837
C 1.3005949126 0.3558792071 0.6451520907
C -0.1780160046 0.0272183136 0.4742341136
C -0.2282058787 1.3856492069 -0.2586993615
O 1.1845784414 1.6110210867 -0.039796476
H 2.7822823166 -2.4909021883 0.3855501711
H 4.5932448255 -0.5927702202 0.4658406579
H 3.8905922707 0.706275595 -0.5283037858
H 4.1840272653 0.602943442 2.4938431847
H 3.3819739815 1.93675162 1.6313107609
H 1.6889972301 -0.2311342401 2.7940397745
H -0.3811310548 -0.8520119176 -0.1380338927
H -0.7560537151 -0.028518732 1.3986093118
H -0.4697740713 1.3394570411 -1.3265420171
H -0.8392355118 2.161298689 0.2164132847

