# b3lyp 6-31G(2df,p) opt Freq 

 titel

0 1
C 1.0850843788 -0.6031890331 -0.8944473219
C 1.1180592141 0.2502732659 0.3782348958
C 1.8358318002 1.5905645667 0.1957259173
O 3.2069075327 1.5006440828 -0.1999718671
C 2.9208303841 1.7185880831 1.1825351983
C 2.9328902691 0.452659769 2.0215227796
O 3.220593791 -0.7332561376 1.2764973555
C 1.8449307696 -0.4304263155 1.5560212322
C 1.1149213745 -1.4304030937 2.4116061476
H 0.5722473842 -1.5545398713 -0.7211298239
H 0.5608353664 -0.0838920571 -1.7026696089
H 2.1060176166 -0.812680236 -1.2207368993
H 0.0920539545 0.4702144168 0.7032362966
H 1.2940156633 2.4406886864 -0.2148009689
H 3.2604965715 2.6612829315 1.6021236528
H 3.297219054 0.4764616556 3.0455100569
H 1.7680594088 -1.7974534821 3.2071807432
H 0.2232921366 -0.9839508383 2.8642498746
H 0.7934339298 -2.2916493433 1.8152706997

