# b3lyp 6-31G(2df,p) opt Freq 

 titel

0 1
C 1.4111855062 -0.9411725467 0.9577537272
C 1.474774069 -0.0513399218 -0.2997764135
C 2.1298798131 1.2724192647 -0.0509428817
C 3.3056304448 1.7517377693 -0.4945125864
C 3.5243597313 3.1474665356 0.0297658465
O 2.3854088691 3.4219304376 0.845606768
C 1.481250468 2.3320893491 0.8037376599
C 4.2780926573 1.0960578172 -1.3628820224
O 5.3175573462 1.6170012345 -1.7118260792
H 0.8466315179 -0.4627093382 1.7631357906
H 0.9221064768 -1.8910218521 0.7245607252
H 2.4156456391 -1.1574647893 1.3331804686
H 1.9936874367 -0.5886947835 -1.0982027171
H 0.4522286941 0.1275069955 -0.6589415569
H 4.4421923252 3.2289613162 0.6277956115
H 3.6004866406 3.8843864051 -0.7826908857
H 1.2749176886 1.9756028746 1.825303713
H 0.5124570923 2.6438645388 0.3757085489
H 4.0171510139 0.0698421633 -1.6985439463

