# b3lyp 6-31G(2df,p) opt Freq 

 titel

0 1
O 0.1079076588 1.043520004 3.5124872149
C -0.2556385335 1.1426556196 2.3625115573
C -1.3711346324 0.2700730181 1.7952975217
C -0.8782372982 -0.8499093432 0.846351335
C 0.0669669119 -0.3480471912 -0.2510170298
C 1.459116801 0.1285391734 0.2197585867
C 0.8446348239 1.5372979406 0.0907154735
C 0.3841493623 2.1576096892 1.4123613714
O -0.2711489327 1.0040808114 -0.6677242582
H -1.9062700533 -0.1729159404 2.6382425174
H -2.0576297523 0.9095846824 1.2320345351
H -0.3668815454 -1.6338826658 1.4179407579
H -1.7589336051 -1.314741661 0.3907286762
H 0.0665911728 -1.0330462099 -1.104942835
H 1.7964182095 -0.1833847061 1.2105984716
H 2.2440311687 -0.0680382059 -0.5116966408
H 1.4041891424 2.271590846 -0.4973155654
H 1.2259721074 2.6229337588 1.933637377
H -0.3532736857 2.9388356499 1.1848224635

