# b3lyp 6-31G(2df,p) opt Freq 

 titel

0 1
O 1.4550178276 0.6794355566 0.1851007671
C 0.3472736587 -0.1097836084 0.5859504393
C -0.8916870015 0.7367240596 0.9064566956
C -2.0750508172 -0.1016975624 1.3168758249
C -2.774327886 -1.032147259 0.317875443
C -4.1858140736 -1.1335165298 0.8584499086
C -4.3636469974 -0.384655635 1.9496952251
C -3.0831089276 0.2838153345 2.3245810179
O -2.0227851987 -0.6515125622 2.6434266512
H 1.7251750247 1.2109128618 0.9407713688
H 0.1413721434 -0.7767677165 -0.2581706047
H 0.5907126451 -0.743877686 1.4513480317
H -0.6510555235 1.4277770544 1.7237560637
H -1.1457029437 1.3423793837 0.0284262984
H -2.7555376192 -0.614656563 -0.6975577278
H -2.2830275588 -2.0112421834 0.2682166184
H -4.9341183129 -1.774582328 0.4061193108
H -5.2800719232 -0.2867462533 2.5178217441
H -3.0509923661 1.2171232263 2.879727094

