# b3lyp 6-31G(2df,p) opt Freq 

 titel

0 1
O 1.3671757872 0.7607349838 0.1350299867
C 0.356189239 -0.1657923234 0.5039431699
C -0.907910707 0.5514373348 0.8885468984
C -2.2790591176 0.0256120881 1.4237383936
C -2.4267984674 1.5839472265 1.4282646187
C -1.7333716616 1.5712515842 0.0285739351
C -1.0113139944 1.5948987045 2.0111876383
C -0.3859717649 1.7866798198 3.3087135331
O -0.1299573736 2.6861825182 2.1908944322
H 1.3366583516 1.4901050047 0.766969603
H 0.1950696768 -0.8194535749 -0.3608028342
H 0.6821846085 -0.8084735616 1.340391517
H -2.8995172877 -0.4998992593 0.6945144917
H -2.2762143466 -0.4795930518 2.3932011889
H -3.2925816354 2.1662992895 1.7399756799
H -2.3155472247 1.1381301931 -0.7888822312
H -1.2181680894 2.4832914693 -0.2755454095
H -0.9467754366 2.2344120056 4.1272090279
H 0.4651902536 1.178928999 3.6114574303

