# b3lyp 6-31G(2df,p) opt Freq 

 titel

0 1
O 0.890786827 0.1173797248 -0.7398687127
C 0.3011188417 -0.2103155588 0.2569807165
C -0.317300952 0.7590740878 1.2439247608
C -0.9404420739 2.0451991264 0.67924025
C -2.2658365834 1.4875946598 1.2544572401
O -1.5955675365 0.2661472709 1.6955933877
C -3.3986260474 1.223719584 0.3135671801
C -4.7759459363 0.9344701381 0.8563725056
C -4.5003508108 2.2498682133 0.1785074244
H 0.1463036733 -1.2780265527 0.5318328637
H 0.385787832 0.9013147158 2.0800726314
H -0.587248417 2.9795821064 1.114686506
H -0.8971805572 2.1105356488 -0.4092299122
H -2.6288927896 2.0460920012 2.12834872
H -3.110846439 0.6953615454 -0.5914809895
H -5.3823886009 0.2015184482 0.3369115584
H -4.9036018195 0.9337500949 1.9337998114
H -4.91371213 2.4239051127 -0.8081909361
H -4.4440610804 3.1391431832 0.7979785445

