# b3lyp 6-31G(2df,p) opt Freq 

 titel

0 1
C -1.0284978844 -1.5071778058 1.5255463143
C -0.7506255047 -1.2373921308 0.0363057285
C 0.211079565 -0.0527417179 -0.1002965764
O 1.3776550494 -0.019535326 0.162971175
O -0.4615155686 1.0402620426 -0.5579859988
C -1.8566435205 0.7488898045 -0.7381641548
C -1.9504585296 -0.769886366 -0.7739731592
C -2.3694146511 -1.4717125613 -2.0405550463
C -3.2731339251 -1.4751401841 -0.8296984968
H -1.688454227 -2.3711536096 1.6431586457
H -0.0916064471 -1.7101943671 2.0506488425
H -1.5088532064 -0.6487231704 2.0061596839
H -0.269449768 -2.1159169239 -0.4018751361
H -2.4128658398 1.1855102382 0.1012709777
H -2.1879632832 1.2282708286 -1.6630379282
H -2.6571982498 -0.8642832344 -2.89269765
H -1.8634134916 -2.3955162089 -2.3014333837
H -4.1742756799 -0.8702386413 -0.8613806214
H -3.3844906577 -2.4009298161 -0.2752277258

