# b3lyp 6-31G(2df,p) opt Freq 

 titel

0 1
C 3.2727106052 4.2729755724 -2.4571309473
C 3.669653267 3.4194062417 -1.2525992007
O 5.0796947288 3.2231329559 -1.1977766839
C 2.9128442914 2.0831958009 -1.2200478016
C 3.2852081495 1.2260769337 0.0039520409
C 2.5736317533 -0.1121661327 -0.0130170547
O 3.1283025678 -1.158391079 -0.2712230217
C 1.1457426586 -0.0717318846 0.2797258282
C -0.0315107663 -0.0304594134 0.5290174373
H 3.4799266135 3.7418533182 -3.3947522983
H 2.2048003403 4.5131809766 -2.4405622049
H 3.8401651604 5.2073073844 -2.4609889315
H 3.4406187167 3.9719492996 -0.3322023699
H 5.3485268102 2.7978373029 -2.0202906099
H 1.8339859622 2.2779337072 -1.2285897674
H 3.1387360108 1.5232655998 -2.1385801518
H 4.360455271 1.0383191459 0.013215848
H 3.0140602124 1.7660395013 0.9196110522
H -1.0719041228 -0.0127184707 0.7467016571

