# b3lyp 6-31G(2df,p) opt Freq 

 titel

0 1
C 1.030109207 -0.4123459047 -0.9582866842
C 0.8439193889 0.2576667767 0.393720596
C 1.4324761395 1.6758489151 0.5259723542
C 1.2459203529 2.1813234197 1.9227103827
C 2.3681777381 1.2139766853 1.6386112119
C 1.8778747921 -0.24165222 1.5048997237
O 2.8748646191 -1.0837734784 1.0045136811
C 1.2584192255 -0.8783026734 2.7261758473
O 1.5560508102 -1.9952460606 3.0843392221
H 0.7297973752 -1.46368169 -0.9238092339
H 0.4133590313 0.0924975043 -1.7098403911
H 2.0734965907 -0.3755528874 -1.2777245216
H -0.2089554503 0.1965929858 0.6986028883
H 1.6401891166 2.333898077 -0.3091962395
H 1.5730428768 3.1998518541 2.1062539117
H 0.3716533757 1.8955818929 2.5019635771
H 3.4081602212 1.4557373381 1.8198886892
H 2.8114856106 -1.8979114859 1.5304508486
H 0.5058617189 -0.2810646086 3.2757073663

