# b3lyp 6-31G(2df,p) opt Freq 

 titel

0 1
C -0.9759371294 2.2514518826 -0.5897556589
C -0.9229491908 0.8047125646 -0.2188949638
C 0.1199783103 -0.0307786373 -0.2039483169
C 1.5526743467 0.2012418282 -0.5575779777
C -0.362576296 -1.400014612 0.2418302107
O -1.7620599982 -1.2814496147 0.4282294958
C -2.1718550609 0.0617456587 0.1783334437
C 0.3007353938 -1.7953294089 1.5614248347
O 1.4250737911 -2.2146870815 1.6524488564
H -1.3750006082 2.8551897427 0.2351298988
H 0.0087513249 2.6460152465 -0.8494579856
H -1.641705839 2.4145731994 -1.4467662201
H 2.2170312482 -0.1430001125 0.2419149635
H 1.8286918665 -0.3679351196 -1.4544618915
H 1.7589569099 1.2562891641 -0.7517845851
H -0.133033109 -2.1814667975 -0.4999770696
H -2.9322912513 0.0756128859 -0.6189723369
H -2.6451137943 0.4828828881 1.0795101612
H -0.3533109943 -1.6270878469 2.4467438612

