# b3lyp 6-31G(2df,p) opt Freq 

 titel

0 1
C 1.3837097474 -0.1735187162 0.1214200873
O -0.005587748 0.0802549285 0.0322275164
C -0.5393638001 0.8047469435 1.0920747216
C -1.9182754771 0.4083683556 1.5174348479
C -0.755449708 0.1776331682 2.4664691184
C -0.5221351311 1.2271488304 3.5323264184
C -0.393524837 2.5568265925 2.7678275643
O -0.4668484477 3.6515205716 3.259462175
C -0.1582896257 2.2637667142 1.2780893882
H 1.6429410809 -0.6823317915 1.0604437603
H 1.6393439079 -0.8223717955 -0.7191020846
H 1.98282271 0.7450421449 0.0454077052
H -2.6496577621 1.1789796868 1.7469529727
H -2.3220472278 -0.4702000327 1.0281490969
H -0.4540895019 -0.8473842813 2.6469631055
H -1.3111425215 1.3079387273 4.2869445387
H 0.4191228466 1.054025946 4.07055539
H -0.7194407427 2.9661490696 0.6554611224
H 0.9070720078 2.425586648 1.0690130653

