# b3lyp 6-31G(2df,p) opt Freq 

 titel

0 1
C -3.856806165 1.0474540767 -1.6184579244
C -2.803446871 -0.0157316248 -1.3577046626
O -2.5282606143 -0.8420434849 -2.1984028568
C -2.0729487052 0.0294087885 -0.0151852592
C -2.9955505967 0.2794328971 1.1802759937
C -1.0786945019 -1.1538275561 0.2025212102
C 0.0252341131 -0.1273507919 0.4507344595
O 1.1178567009 -0.1738425977 0.9345157041
C -0.8510183625 1.032444281 -0.0553559365
H -3.5061463187 2.041127549 -1.3215572059
H -4.1196820531 1.0419565193 -2.6766627361
H -4.755072513 0.8355314378 -1.0279381089
H -3.7403670535 -0.5174576646 1.2794161438
H -2.4141606674 0.3043856029 2.1078948485
H -3.5245177663 1.2332808223 1.0989277544
H -1.2889758914 -1.8572342061 1.0118988905
H -0.9214019119 -1.7077507357 -0.7286107958
H -0.9063387726 1.9175736565 0.5839494445
H -0.5676610495 1.3399387006 -1.0676371429

