# b3lyp 6-31G(2df,p) opt Freq 

 titel

0 1
C 0.3521367135 0.4242109793 1.4311463213
C -0.4698824915 1.3955374246 0.5282355235
C 0.0169767107 0.5782913127 -0.667288203
O 0.2131257902 1.0999668554 -1.9811468422
C -0.2757799711 -0.1233983806 -2.5864105055
C -0.7002150483 -0.6776371741 -1.20046977
O -0.0862356991 -1.8346752376 -0.6865222716
C 1.2244214047 -1.4978750634 -0.2060382588
C 1.1687768926 -0.0230265131 0.1786292054
H 0.9204335466 0.8752832155 2.245571297
H -0.2582165206 -0.389244421 1.8314256505
H -1.5484528697 1.4775040028 0.6857027116
H -0.0336744537 2.3986707176 0.5198048568
H -1.0817332456 0.0738999861 -3.3009108276
H 0.5202406153 -0.6954340916 -3.0778529399
H -1.7785135507 -0.7690419658 -1.0553035361
H 1.4465483528 -2.1746955299 0.6248199663
H 1.9754354966 -1.6625121197 -0.9927709207
H 2.1254621274 0.4926935729 0.0835510931

