# b3lyp 6-31G(2df,p) opt Freq 

 titel

0 1
C -0.2246127001 4.4175460351 -0.1203198495
O 0.8268158764 3.9532099533 0.7558220203
C 1.1148044522 2.8440141442 -0.1274073746
C -0.2022274611 3.0967636341 -0.9136641489
C -1.2034545017 2.0236594011 -0.4235195273
C -0.3713217149 0.9320795236 0.2520303775
O 0.1786164038 -0.0159446736 -0.6980933278
C 1.5301163276 0.3113050239 -0.3148582044
C 1.0476995399 1.4861300763 0.555282959
H -1.1436349101 4.6570479189 0.4276040851
H 0.0918968442 5.2984118437 -0.6948723122
H 2.0566588123 3.0060486544 -0.668614249
H -0.1442444864 3.1770250687 -1.9989120485
H -1.9079589938 2.4511676308 0.2987788003
H -1.7912211203 1.5919498613 -1.2381078983
H -0.9022400128 0.4138489081 1.0586131069
H 2.0067358306 -0.5059637731 0.2415624182
H 2.1562789218 0.5633475553 -1.1806865356
H 1.3966986725 1.5283246038 1.587425509

