# b3lyp 6-31G(2df,p) opt Freq 

 titel

0 1
O 0.0752300724 -1.1774364461 0.2702863678
C 0.2938498193 -0.0257401083 -0.0012868895
C -0.3143809032 0.7237088058 -1.164879373
C -1.0651791395 1.9860951236 -0.7045737415
C -1.5935330558 2.8209898639 -1.8657810385
C -2.2757384766 4.1804124793 -1.5068171442
C -1.3820742591 4.8514600299 -2.5619603619
O -1.380846252 5.9258284747 -3.0863677462
C -0.5439729224 3.5751516427 -2.7476624436
H 0.9856895131 0.5880162803 0.6240595256
H 0.5074416662 1.019133521 -1.8336645771
H -0.9716541391 0.0430686812 -1.7140181508
H -1.9005073574 1.6940167238 -0.0559207328
H -0.3977454087 2.6060405756 -0.0892145266
H -2.2534762316 2.2117233092 -2.4907441213
H -3.3536890666 4.2740282109 -1.6603864431
H -2.0391044856 4.5298974429 -0.4948466611
H -0.3953923674 3.2453262634 -3.7788072552
H 0.4386218143 3.6681359661 -2.2690769471

