# b3lyp 6-31G(2df,p) opt Freq 

 titel

0 1
C 2.1776815255 0.8823448302 0.4437723372
C 1.0548270298 1.280883506 -0.551639508
C 0.466763815 2.5828395632 0.0144800794
O -0.9576869874 2.619242414 -0.1081432899
C -1.4923900197 3.6442795363 0.6891051035
O -1.2500370236 3.4646091269 2.0613168388
C 0.1472222537 3.5084632882 2.3661730396
C 0.8768215948 2.5588367342 1.4708673578
C 1.8012390574 1.6316123147 1.7034138553
H 2.2343517937 -0.2004324444 0.6003959735
H 3.1679993953 1.1910159327 0.0817980466
H 1.4050365172 1.3797022069 -1.5812451789
H 0.2565073177 0.5334226111 -0.536919512
H 0.874960506 3.4785663261 -0.4889843342
H -1.0882255735 4.6234636162 0.3632744707
H -2.5755623609 3.6212676752 0.5556166076
H 0.518728927 4.5389134455 2.2222900488
H 0.249137639 3.2552412796 3.4242189126
H 2.2553962332 1.4253600472 2.6675329116

