# b3lyp 6-31G(2df,p) opt Freq 

 titel

0 1
C 1.4165701472 -0.0583396188 -0.0564973203
O 0.0145227837 0.0329846055 0.0339005176
C -0.4233558415 0.5921388421 1.2522715207
C -1.9295925307 0.6984924339 1.2154625138
C -2.5185303501 1.4262577672 0.0090326572
C -2.1777943933 2.8440363875 -0.0161709733
C -1.8884292547 4.010688306 -0.0152343799
C -2.6850224547 0.641424432 2.4712171096
O -2.6404957559 -0.4845763458 1.5895545835
H 1.8341381767 -0.7074329956 0.7290946101
H 1.6531128362 -0.4886881248 -1.0323204822
H 1.8953683403 0.9303585938 0.0235067051
H -0.1255638435 -0.0378604399 2.1049202676
H 0.0131060749 1.594582809 1.3963132391
H -2.1473824569 0.9375970899 -0.8983867937
H -3.6057252494 1.2947983498 0.0272508207
H -1.639934471 5.0428927017 -0.0261573813
H -2.1616528314 0.513953916 3.4179811488
H -3.645070676 1.1511019006 2.5385960768

