# b3lyp 6-31G(2df,p) opt Freq 

 titel

0 1
C 1.5310314313 -0.1785739563 -0.0390146524
C 0.0782835804 -0.088983789 -0.0277883324
C -1.1233778635 -0.0052186165 -0.0358795231
C -2.5877710985 0.0584558949 0.0019511101
O -3.1760070563 -1.238207641 -0.1208919977
C -3.0745800886 0.7965233503 1.2385710971
C -4.4987282799 1.3251401448 1.2874683919
C -3.3403307157 2.2778966443 1.2003102753
O -2.9815428221 3.1340123479 2.244025092
H 1.9529735665 0.0244035628 0.9513414247
H 1.8640912994 -1.1763228375 -0.3453637596
H 1.9648370973 0.5438023967 -0.7390770581
H -2.9490845992 0.5993651113 -0.8825506612
H -2.7519354457 -1.8064417898 0.5315326884
H -2.6698798699 0.4142508673 2.1734900539
H -5.1320407092 1.1817317088 0.4178794041
H -5.0262385497 1.2493829299 2.2338291925
H -3.1781506766 2.785776866 0.2545439272
H -3.2286524597 2.7233708251 3.0784499674

