# b3lyp 6-31G(2df,p) opt Freq 

 titel

0 1
C -4.0265718995 3.0410301978 1.7414950936
C -3.2775917959 1.727238794 1.5108610429
C -3.4769024262 1.1989150468 0.0765541548
O -4.8342691808 0.9864275908 -0.2022038646
C -2.7073456308 -0.1045296009 -0.1475590647
O -3.3160129411 -1.1225908279 -0.4270912841
C -1.2745584553 -0.0631808466 -0.0236110302
C -0.0718051654 -0.008743152 0.0661033023
C 1.3758982021 0.0360361117 0.1673691125
H -3.9116922027 3.3795475046 2.7755514546
H -3.6475701968 3.83197968 1.0845634808
H -5.0919369237 2.9132868904 1.5353809404
H -2.2055348233 1.8577682842 1.6966520273
H -3.6383679571 0.9618086643 2.2088001223
H -3.0614402971 1.9424838223 -0.6260909459
H -4.9084901785 0.0376669567 -0.3982899695
H 1.7481377599 -0.7854126302 0.7886688671
H 1.832154603 -0.0648937412 -0.8235036684
H 1.7188181891 0.9795512652 0.6037350389

