# b3lyp 6-31G(2df,p) opt Freq 

 titel

0 1
C -1.2785090093 -1.4943935442 1.4943818493
C -1.0056127307 -1.1669645713 0.0238030515
O -0.3659840591 -2.2457416323 -0.6478223288
C -0.1564284476 0.0646323112 -0.1260720983
O 1.2170872405 -0.0345808009 0.3994010154
C 1.1302116189 1.2993594314 -0.1851760032
C 0.2652320513 0.8642720415 -1.4040147947
C -0.781883064 1.9673399905 -1.1374962413
C -0.334299435 1.5642631611 0.2845398028
H -1.8144165905 -2.4439392329 1.5657457444
H -0.3366655745 -1.5778354632 2.0452793891
H -1.8822046917 -0.7129225929 1.9673198387
H -1.9538511262 -1.0050263602 -0.5035799411
H 0.5594631253 -2.2269859817 -0.3727710433
H 2.0063898218 1.9452000397 -0.1397501768
H 0.6232364566 0.4410822286 -2.34150324
H -0.5174297548 2.9774272942 -1.461267546
H -1.8156170064 1.7398412013 -1.4105803668
H -0.6481782049 1.94233203 1.2573624689

