# b3lyp 6-31G(2df,p) opt Freq 

 titel

0 1
O 1.3373795563 0.7135205576 0.0365037867
C 0.32094297 -0.1004316498 0.5980865111
C -0.9164195685 0.7019920467 1.0230229135
C -2.0370863408 -0.1708458825 1.5108686551
C -2.166601557 -0.7284668822 2.9057227899
C -3.2509873054 0.1718033423 2.3687388312
C -4.1567625562 -0.5836566393 1.3469342473
O -3.7244433481 -1.9485501879 1.2382997504
C -3.0026959985 -0.9324333043 0.5298334798
H 1.6431740658 1.3166031102 0.7215126419
H 0.0509143393 -0.8170100438 -0.1853961541
H 0.6947701646 -0.6860949732 1.4522447025
H -0.6338042539 1.4078339188 1.8164994255
H -1.2444818863 1.3087067965 0.168776695
H -2.3650489502 -1.7804601754 3.0669927502
H -1.5177486968 -0.2605839538 3.6401798961
H -3.5088181178 1.1251548945 2.8113596987
H -5.1849087359 -0.3612892768 1.0895205271
H -2.8795802606 -1.0525613775 -0.5403891779

