# b3lyp 6-31G(2df,p) opt Freq 

 titel

0 1
O 0.2210943603 -1.1719236047 -0.2148767932
C 0.2742489498 0.0169675356 -0.0410560174
C -0.3927686943 0.756520763 1.1055495749
C -1.102140717 2.027350124 0.6550329863
C -2.3282390724 1.7979094065 -0.2197461042
C -3.4745763237 1.1456200827 0.5332284932
O -4.1434876195 0.2382065921 0.114104642
C -0.2503951273 3.2486271882 0.3818375709
C -1.1278152029 3.2045878871 1.6063824466
H 0.8516786571 0.6745589135 -0.7319956321
H -1.0674360118 0.0618433 1.6168270703
H 0.4040760529 1.0227140352 1.814294786
H -2.6992384191 2.7682922793 -0.5787180906
H -2.1032466292 1.187049478 -1.1003058875
H -3.6720275942 1.5909524049 1.5361951623
H 0.8221496106 3.1661656885 0.5216716177
H -0.539156288 3.9005378184 -0.4353264937
H -0.6543093447 3.0890530655 2.5751836753
H -2.0127526564 3.8317966122 1.6206055432

