# b3lyp 6-31G(2df,p) opt Freq 

 titel

0 1
C 2.2480980303 -5.8126982465 -0.4036678301
C 3.3968056824 -4.8054403033 -0.2464910278
O 4.3866181962 -5.2744296167 0.6659477796
C 2.8969520214 -3.4783286214 0.1277039307
C 2.46796515 -2.4082128084 0.4807166563
C 1.9922619928 -1.117868597 0.8975173281
O 0.7927159235 -1.0728036535 1.6956253888
C 0.7356327164 -0.5356240147 0.3768775272
C 0.5353832508 0.9513591084 0.2493926421
H 1.6931248224 -5.9096501128 0.5348708923
H 1.5488004835 -5.4892232142 -1.1800986203
H 2.6583175195 -6.7890877343 -0.6738819344
H 3.9265795507 -4.7251453255 -1.2037306919
H 4.0101332507 -5.2199928263 1.5515844524
H 2.7621432295 -0.4215756065 1.2300567167
H 0.1705129777 -1.1535113339 -0.3223125718
H 1.16201976 1.4913448119 0.9642106558
H 0.7838179331 1.2874980317 -0.7627241471
H -0.509784261 1.212975273 0.4447042733

