# b3lyp 6-31G(2df,p) opt Freq 

 titel

0 1
C -0.758456008 2.3684336187 -0.7085792533
C -1.0738518653 1.0317740531 -0.0690320751
C -1.8751941782 -0.0940001475 -0.8093285783
C -1.0413282702 -1.1208474744 0.0204736677
C -1.6652205108 -1.2146021381 1.4374446243
O -2.3539225758 -0.0187059618 1.7603518373
C -1.702174454 1.1703579532 1.3511342691
C 0.0260017426 -0.02676217 0.0773674495
O 1.2237401716 0.0024419699 0.1107077386
H -0.084575857 2.9528193464 -0.0729191689
H -0.2624232211 2.2321545057 -1.6739323168
H -1.6676781144 2.9575307917 -0.869595659
H -2.9549892275 -0.1047597204 -0.6547893871
H -1.6370237162 -0.1316370002 -1.8742015208
H -0.7849123933 -2.1023346261 -0.3808882406
H -2.4137628438 -2.0121641832 1.4772716543
H -0.8820616018 -1.4416192407 2.1777382619
H -2.4739787976 1.9479024085 1.3422047829
H -0.9230481891 1.471126685 2.0698945243

