# b3lyp 6-31G(2df,p) opt Freq 

 titel

0 1
C 1.3577538673 0.1076887894 -0.176897907
O -0.0299814613 0.063137696 0.0838809553
C -0.3856090547 0.6514037803 1.3058170794
C -0.2658504246 -0.260369005 2.5630126981
O -0.8295793048 0.4831108112 3.6459423172
C -1.7211614596 -0.2301671571 2.765344092
C -1.9160475067 0.6229070019 1.5299348448
C -2.9188283512 0.3970335183 0.4401387155
C -2.9410389478 1.6769337773 1.2442996484
H 1.93975947 -0.4481952883 0.5727370369
H 1.516132573 -0.3516784614 -1.1552830811
H 1.7304457369 1.1429478203 -0.202361581
H 0.0981572845 1.6307046743 1.4343321244
H 0.4681998922 -1.0254014153 2.7881161085
H -2.3923149908 -0.9520091828 3.2168434873
H -2.5490141784 0.4298400931 -0.5781356694
H -3.7037649165 -0.3323223676 0.6129714773
H -2.6052724607 2.5885528188 0.7605957275
H -3.7396612068 1.8218802665 1.9644064357

