# b3lyp 6-31G(2df,p) opt Freq 

 titel

0 1
O -3.7615324963 -1.2718844503 -1.8126977767
C -2.4368455096 -1.2020224243 -1.3124579696
C -1.5981193012 -0.3049654889 -2.2474137704
C -0.565467426 0.3548245115 -1.3512086189
C -1.0063054037 0.208967481 0.0717412589
C -2.3250434925 -0.5440354454 0.0897694471
C 0.2186017043 -0.5668668944 -0.415761754
C 1.5404962211 -0.0952342364 0.0437786545
O 2.4908329098 -0.8040399775 0.2676237235
H -4.2424266209 -1.9313881111 -1.3032014242
H -1.9994916238 -2.2098349873 -1.2805621942
H -1.1665633882 -0.865769271 -3.0813331807
H -2.2613811712 0.4590881466 -2.668754105
H -0.062284011 1.250700482 -1.698695858
H -0.8365176957 0.9944977577 0.8004752359
H -2.4017715758 -1.2728888508 0.9037132434
H -3.1505912792 0.1691054287 0.197943058
H 0.1505662701 -1.6417727691 -0.5477437519
H 1.6052562695 1.0125281989 0.1769361122

