# b3lyp 6-31G(2df,p) opt Freq 

 titel

0 1
O 2.8886931355 -1.1306855431 2.2471884764
C 3.1608060963 -1.2427412922 0.8697176562
C 2.571551337 -0.0742698663 0.0444720068
C 2.9234322391 -0.2175554588 -1.4535986226
C 2.4946230165 0.976107317 -2.2701318074
C 3.2992555654 1.4880009077 -3.3850640524
O 3.2909913126 2.1566819815 -2.1223379806
C 1.1282174419 -0.0031149776 0.2670456127
C -0.056245362 0.0009354747 0.4808903893
H 1.9302940951 -1.0739611626 2.3438566121
H 4.2506536872 -1.2348001168 0.7672293708
H 2.78991405 -2.1939587304 0.4544634698
H 3.0268326479 0.8532951131 0.4143073411
H 4.0083408201 -0.340207237 -1.5453154625
H 2.4508371907 -1.1224629477 -1.8550521103
H 1.4214351228 1.169217314 -2.2840847708
H 4.2339897259 0.9917976782 -3.6446114638
H 2.8174961719 2.0228744617 -4.2023662248
H -1.1033315737 0.0341496146 0.65689686

