# b3lyp 6-31G(2df,p) opt Freq 

 titel

0 1
O -0.2399081199 0.0514455136 -1.0295960917
C 0.2020606447 -0.4897438766 0.2122626122
C -0.3972594439 0.4026608626 1.2886682526
C 0.1875381147 1.8258649164 1.2910830451
C -0.3672959426 2.6408161427 2.423656318
C 0.7177825943 1.6420174237 2.7122708229
C 0.1187909831 0.2209452027 2.7585903732
C 1.10041959 -0.8682049614 3.105259039
O 1.2752096847 -1.9027442018 2.5127974778
H 0.1255680864 -0.4901215062 -1.7348753078
H -0.1294641238 -1.5267688628 0.3446514387
H 1.2993114351 -0.4861451093 0.2769473854
H -1.4879826314 0.3680024181 1.1900567685
H 0.6663158956 2.2797364119 0.4331349513
H -0.0586092484 3.6812397524 2.4437651416
H -1.3798485513 2.4697305705 2.7842161138
H 1.6735461274 1.9255659091 3.1381170148
H -0.6789325681 0.1245205877 3.5130509237
H 1.6740122833 -0.6461269833 4.0373217308

