# b3lyp 6-31G(2df,p) opt Freq 

 titel

0 1
C -1.7074519094 -0.5490181607 -2.4309029529
C -2.1220740686 -0.7859101645 -0.9937094423
O -3.1476789359 -1.7451178784 -0.8822417253
C -2.1517984426 0.253046538 0.0823135068
C -1.0060214267 1.2596209113 -0.0650352806
C -0.0347585777 0.0540614029 0.0390793873
O 1.1534280552 -0.0252892056 0.1848030052
C -1.1423647048 -0.9526725067 0.1685226842
C -1.0735741234 -2.1905878106 1.0160554713
H -1.4213529699 -1.4992707833 -2.8909034123
H -2.5431316359 -0.1318243938 -3.0070912076
H -0.8649791966 0.1398771327 -2.5185561887
H -3.9354734334 -1.3780377357 -1.2983975773
H -3.0338438129 0.388841975 0.6955840743
H -0.9736079011 1.881757569 -0.963608485
H -0.8806343478 1.9014337468 0.8126953989
H -0.3188440841 -2.8776433035 0.6183801535
H -0.7864374097 -1.9470753039 2.0439091809
H -2.0340684846 -2.7073758989 1.0275203399

