# b3lyp 6-31G(2df,p) opt Freq 

 titel

0 1
C 1.5371075379 0.087886262 -0.2918545777
O 0.1462367475 0.3173332825 -0.2968714659
C -0.3856926098 0.6048159694 0.9802632744
C -0.0717568616 2.0422782811 1.476365459
C -1.4579020747 2.6297790497 1.7789775433
O -2.3398867715 1.9684897951 0.8797834287
C -1.9386093431 0.6023449511 0.8540890098
C -2.5801550037 -0.1692465788 1.9245739356
C -3.1023332761 -0.7935956419 2.8092914112
H 1.8065886494 -0.7450651282 0.3764768851
H 1.8243797011 -0.1703274448 -1.3137717614
H 2.1065132858 0.9763277264 0.019339317
H -0.0526311084 -0.1567553129 1.6975683114
H 0.5950018503 2.0643194109 2.3412220178
H 0.4006635826 2.5885932907 0.6553185753
H -1.7522756364 2.435676725 2.8215185379
H -1.5354908181 3.7026711289 1.5894800282
H -2.2172997761 0.1962970964 -0.1221021727
H -3.575335235 -1.3485943925 3.5814862931

