# b3lyp 6-31G(2df,p) opt Freq 

 titel

0 1
C 4.7564427201 -0.0850630524 0.2671510605
C 3.2768446715 0.0929712824 0.1668200275
O 2.4131631938 -1.0913163472 0.1363751916
C 1.4659129934 0.0254213741 0.0654918595
C 0.0016813746 -0.2624221644 0.0011112216
C 2.2875051111 0.938644265 1.0288723177
C 2.2993664898 2.1213686153 0.0284179894
C 2.3957474035 0.8868222615 -0.8710965364
O 2.4721829617 0.8965213171 -2.2436141056
H 5.0216182147 -0.6404975483 1.1720989472
H 5.1384505788 -0.6362084639 -0.5983646855
H 5.2541488 0.8892485159 0.2995589419
H -0.3206654998 -0.8397723852 0.8731865545
H -0.5675133166 0.6720924187 -0.0261748304
H -0.2395380528 -0.8368145484 -0.8992749633
H 2.2263105034 0.950004311 2.1149601097
H 1.3807022248 2.7096907144 -0.0439075748
H 3.1741244942 2.7765870039 0.0564396978
H 2.5228965737 -0.0220457694 -2.5373132328

