# b3lyp 6-31G(2df,p) opt Freq 

 titel

0 1
O -1.3304810529 -1.7693332873 -0.1870717008
C -2.1166127086 -0.622314709 0.0526969613
C -1.7973035236 0.3884887788 -1.0502981175
O -2.5315577748 1.5858943475 -0.8842489933
C -2.2310473794 2.2364236579 0.3386173045
C -2.5651288409 1.3602507669 1.547548329
C -1.8182091218 0.0132197489 1.4340424385
C -2.1430702124 -0.9203911747 2.5066668659
C -2.427908338 -1.7274194092 3.3525934977
H -1.4801093725 -2.3795274917 0.544817148
H -3.1919291482 -0.8574747351 0.01023338
H -0.7115129888 0.5834240225 -1.0510463904
H -2.0700306309 -0.0221654279 -2.0254929018
H -1.1636862125 2.517814999 0.3646378607
H -2.8217607342 3.1566108488 0.3489819997
H -2.2886340981 1.8712938288 2.4754866915
H -3.6446604799 1.1776584304 1.581007057
H -0.7362473293 0.2089929211 1.4600161266
H -2.6730512132 -2.4211015155 4.1186452935

