# b3lyp 6-31G(2df,p) opt Freq 

 titel

0 1
C 1.4882209343 0.0166473061 -0.1026535441
O 0.0914919327 -0.1325979069 0.1031303324
C -0.3966915445 0.6113682719 1.1703499806
C -1.900668051 0.424109217 1.4847289151
C -1.600850937 0.9968123515 2.8993806128
C -0.4454857895 -0.0141284468 2.6119069982
C -1.5557169677 -0.9818025577 2.0633516847
C 0.6587580488 -0.3807197425 3.5394871353
O 1.8344781973 -0.3669506793 3.2623777169
H 2.0584057625 -0.2745763162 0.7870533376
H 1.7550919356 -0.6260072247 -0.9444878716
H 1.7403929256 1.0573819928 -0.3571682424
H -0.0356281769 1.6496476433 1.1343175167
H -2.7357529667 0.6826800999 0.8341954485
H -1.3205586888 2.0518335653 2.9659204914
H -2.3012529367 0.7135368829 3.6871249862
H -1.2176190431 -1.7350254169 1.3536954386
H -2.2495214228 -1.3852347729 2.8048027155
H 0.3200682878 -0.6901950668 4.5556400678

