# b3lyp 6-31G(2df,p) opt Freq 

 titel

0 1
C 0.2121700842 0.3052739187 -0.3103612321
C 0.9952678164 -0.573801239 0.6418900746
O 2.4327858233 -0.4064633623 0.4817894281
C 2.6274818417 -1.8267457484 0.3588737423
C 3.1193725209 -2.5127333456 1.6247782423
O 2.4405998553 -2.0538475963 2.799936517
C 2.0130112297 -3.2880969535 2.2200645156
C 0.7528621675 -3.1480498185 1.3816458953
C 1.0995816102 -2.0883412169 0.3189167795
H 0.4133740765 1.3618391799 -0.1075433575
H 0.4864591224 0.0977755131 -1.3495732904
H -0.8636913233 0.1341640511 -0.1906389751
H 0.7082520442 -0.3799002462 1.6820638789
H 3.243537534 -2.0855599722 -0.509604964
H 4.1673358915 -2.7670183966 1.7622896946
H 2.1776533186 -4.1723402334 2.8323012982
H 0.5141038431 -4.1098736628 0.9135003403
H -0.1077898527 -2.8644292055 1.9976602906
H 0.6924817065 -2.3302493657 -0.6643186082

