# b3lyp 6-31G(2df,p) opt Freq 

 titel

0 1
C -3.3735596619 0.6305062585 0.0282314716
C -2.5339936838 1.8583423774 -0.1653787737
C -2.8229097816 3.2379153435 0.4476392466
C -2.2998995488 3.9238512891 -0.8592323108
C -1.9940347821 2.5433573398 -1.4419656474
C -1.0707241038 1.8168176051 -0.5149118077
O -0.6079030495 0.5898826201 -1.0641164401
C 0.1453100696 -0.1757601638 -0.2553830596
O 0.45423935 0.0735007429 0.875724177
H -3.3218314094 0.281683766 1.0667111435
H -4.425067738 0.8326798358 -0.2032927799
H -3.0376824883 -0.1858998155 -0.6164417974
H -3.8899528711 3.4098405408 0.6085910719
H -2.2895850242 3.4689041341 1.3758714726
H -3.094037491 4.4457904373 -1.3967190075
H -1.4462518426 4.6017898881 -0.7545238236
H -2.075975046 2.2374438614 -2.4785157794
H -0.3167804689 2.3194654914 0.0858842032
H 0.4465159614 -1.074970592 -0.8145241593

