# b3lyp 6-31G(2df,p) opt Freq 

 titel

0 1
O 1.5977703963 -0.0956264688 -0.5555305964
C 0.6224233705 0.9246981143 -0.6338752044
C -0.7222617211 0.3589663181 -1.0673968877
C -1.9353579103 1.2358663118 -1.5233821479
C -2.5107253967 -0.0416356473 -2.2079155538
C -0.9911573165 -0.0116961265 -2.5649011643
C -1.1971499435 1.5188557396 -2.8643705516
C -0.2143048741 -0.947555214 -3.4174897818
O 0.9020641125 -1.3375161195 -3.1510282642
H 1.5939911375 -0.5615516382 -1.4060020982
H 0.5281860326 1.3421263771 0.3759081901
H 0.9516565334 1.7489599987 -1.2851707913
H -0.9962278688 -0.4478550695 -0.3787182956
H -2.4898872307 1.9539501302 -0.9192027382
H -2.8338712601 -0.8526012044 -1.5504849852
H -3.2119903393 0.1215104563 -3.0300875609
H -0.3082262631 2.1482257076 -2.8416947081
H -1.8278707207 1.7541084832 -3.7252103013
H -0.7081973278 -1.2688198788 -4.3601582193

