# b3lyp 6-31G(2df,p) opt Freq 

 titel

0 1
C 4.5709146085 -0.4933993603 0.1538798491
C 3.6557092135 -0.1693455506 1.3129569126
C 2.6833388878 0.9454272499 1.3127096034
O 2.1348677535 1.1963613993 0.0316720613
C 1.5171288938 -0.1359062368 -0.0144284133
C 0.0076625266 -0.0267848471 -0.0517974394
C 2.1516533301 -0.5065963474 1.3290425244
C 1.5561581559 -1.275843892 2.4216541978
O 0.5437465909 -1.9345968742 2.3426486299
H 4.7248285957 -1.5722685645 0.0548984343
H 4.1657124358 -0.1080838538 -0.783808417
H 5.5486537137 -0.0258900307 0.3087381455
H 4.0849062368 -0.3401259749 2.3000869454
H 2.6105641272 1.7291994618 2.0595620786
H 1.888562781 -0.7009019748 -0.8775808014
H -0.3623627831 0.5573537502 0.7947885896
H -0.2991807193 0.467009219 -0.9786151695
H -0.4424196731 -1.0210892726 -0.0044150255
H 2.1296520046 -1.2186351205 3.3767868744

