# b3lyp 6-31G(2df,p) opt Freq 

 titel

0 1
C 2.3602948839 2.9554499053 -2.0130741939
C 2.2829723038 1.9779684354 -0.8604113406
O 3.1994153682 1.2539711275 -0.5490965752
C 0.9761890176 1.9745047032 -0.0582370806
C 0.9571857918 3.086540793 0.9588411372
C -0.1646163833 3.5082522347 1.9467099392
C 0.9426485537 4.5864166132 1.9425746007
C 2.0203073466 3.4835152646 2.0200250156
O 0.9860714828 4.4947445936 0.4623662097
H 3.3459095317 2.9102688495 -2.4776614262
H 1.5888519538 2.7247358586 -2.7570762302
H 2.1538883281 3.9650629454 -1.6415037002
H 0.1092579061 2.090066687 -0.7184389272
H 0.9033626144 1.0178406118 0.4665300343
H -1.103863306 3.805111812 1.4782446995
H -0.3026683692 2.9109538561 2.8513989525
H 0.9379266539 5.5843862578 2.378642824
H 2.9981029696 3.7547805001 1.6213822239
H 2.0817117127 2.882620431 2.9303765176

