# b3lyp 6-31G(2df,p) opt Freq 

 titel

0 1
O 1.4481800549 0.3819436534 -0.45811091
C 0.0882926485 0.283802326 -0.0527899032
C -0.7787193725 0.4673938129 -1.2772167741
C -1.012517641 -0.7530376987 -2.158360483
C -2.1269225638 -0.2011906241 -1.3091927645
O -3.1761505435 0.4394747847 -1.9758849208
C -3.1971334534 1.857385447 -1.864229239
C -1.8548689596 2.4894605993 -2.1341876526
C -0.7297525672 1.8217743335 -1.8909946547
H 1.9953806453 0.4095224496 0.3323055451
H -0.1196035541 -0.6973889137 0.403796867
H -0.1572774315 1.0562585226 0.6928859368
H -1.1021480831 -0.5883610322 -3.2254228721
H -0.5424408115 -1.6862786306 -1.8662462816
H -2.4501155171 -0.7690092795 -0.4371176065
H -3.9378851592 2.1940958752 -2.5967171336
H -3.5688732959 2.1629245212 -0.87018248
H -1.8459568263 3.4982120874 -2.5365402474
H 0.2497921509 2.2448781461 -2.089633376

