# b3lyp 6-31G(2df,p) opt Freq 

 titel

0 1
C 2.2799273784 0.2635519122 0.7517384386
C 1.4260020687 1.2783815629 -0.0261064208
O 0.2085182915 0.6689691379 0.5982500224
C 1.0473531591 -0.4630617601 0.1330057971
C 0.7196653573 -1.9189012943 0.07809515
C 1.7572035353 -2.503086913 -0.92274615
O 1.8097212347 -1.8134478834 -2.1637124526
C 2.2572401223 -0.4549861484 -2.0765981995
C 1.2466509629 0.273915956 -1.2025039072
H 3.2824283092 0.0274047247 0.3906185617
H 2.2403374689 0.3718829209 1.8360404947
H 1.472646076 2.367414198 -0.0338694133
H 0.7962390648 -2.4320169201 1.0425749906
H -0.2934809764 -2.0568148017 -0.3141625403
H 2.752688714 -2.5054631373 -0.4490863499
H 1.5017310961 -3.5365782953 -1.1695326661
H 3.2818845772 -0.4153343163 -1.679757578
H 2.27865587 -0.086555436 -3.105346912
H 0.30107132 0.4254029033 -1.7281152654

