# b3lyp 6-31G(2df,p) opt Freq 

 titel

0 1
C 2.2239180099 -0.8952065202 -2.0397026151
C 1.661911851 0.4858948913 -1.6736250135
O 0.2648379106 0.4350179388 -1.9935222351
C 2.318708494 1.5391938532 -2.4621527058
C 2.833451419 2.4196805696 -3.0988495756
C 1.8638538093 0.7684746939 -0.1793265181
C 0.9537188737 0.1330311341 0.8595289726
C 0.9152710643 1.6183153392 0.6125754944
O 1.3479085682 2.5624848891 1.547204296
H 1.6882290681 -1.6606871063 -1.472412293
H 2.0888714068 -1.0839361157 -3.1067729467
H 3.2883125438 -0.9541834354 -1.7990543139
H -0.0324396569 1.3366190364 -2.1542493605
H 3.2911243201 3.1937362435 -3.6643378245
H 2.9122226277 0.8550727772 0.0982552793
H 0.1136082852 -0.4533748517 0.5042810534
H 1.4137245138 -0.2264654647 1.7746745742
H 0.0355148754 1.9970324697 0.1039259187
H 2.182937876 2.266411048 1.9225922931

