# b3lyp 6-31G(2df,p) opt Freq 

 titel

0 1
C -2.2380595063 -1.370689873 -2.8854208345
C -2.9811630215 -1.849715781 -1.6121072842
C -2.6734581494 -0.9961677203 -0.3552210269
C -1.4452584867 -1.9129158865 -0.0301386331
O -0.1448490353 -1.3557014188 0.0061203941
C 0.256813564 -0.786508271 -1.2122838602
O 0.2489849081 -1.6944613975 -2.2825057112
C -1.017045895 -2.2812490102 -2.5185590612
C -1.7675114582 -2.7951579437 -1.2633206209
H -2.7109645662 -1.6860813619 -3.818599938
H -2.0446116893 -0.2962362314 -2.9515150947
H -4.0022468243 -2.2082809846 -1.7347431713
H -2.4604806206 0.061489674 -0.5347863958
H -3.4404353529 -1.0586000595 0.4205253451
H -1.5553630993 -2.434159483 0.9222329397
H -0.3708496129 0.0891437178 -1.449904098
H 1.2928416127 -0.4685080525 -1.0810693075
H -0.8344836687 -3.0542251782 -3.2668959871
H -1.825984918 -3.8731009188 -1.1138239844

