# b3lyp 6-31G(2df,p) opt Freq 

 titel

0 1
C 4.6739424645 -0.8855142907 0.1005844633
C 3.2966758008 -0.3071798254 0.1033739604
C 2.5562167106 0.5633644164 1.1556585463
C 1.5071393344 0.1122704399 0.1023876814
C 0.0163332193 0.2061825028 0.0980090411
O 2.1334747403 -1.2426073426 0.1402903496
C 2.5361413789 0.4726892917 -0.9817813359
C 2.7906776137 1.5564773889 -1.9187341978
O 2.4742225145 0.2053401348 -2.348427697
H 4.8293646462 -1.5144936722 0.9818548976
H 4.8248424493 -1.4944528079 -0.7955865632
H 5.4223251385 -0.086745432 0.1089017478
H 2.4419849404 0.0782833516 2.1258705102
H 2.8052912729 1.6261838343 1.2274975296
H -0.4033257673 -0.2880400145 0.9789398564
H -0.2991653409 1.2543131453 0.1057782358
H -0.3884967296 -0.2724623816 -0.7984904478
H 2.0196451895 2.2966380693 -2.1270762064
H 3.8105179141 1.876881182 -2.1261038613

