# b3lyp 6-31G(2df,p) opt Freq 

 titel

0 1
C 1.4926495722 -0.198076089 -0.2163192211
O 0.1127225225 -0.0018542739 0.0104356264
C -0.1648823326 0.6759014481 1.1893625655
C -0.2157898242 2.259720161 1.1285239345
O -1.4948840964 2.1208720789 0.4314095267
C -1.6821625534 1.0060318841 1.3543903775
C -1.6665492914 1.7011163779 2.7287287847
C -2.5586569331 1.4015415303 3.8813807139
C -0.6536481906 2.5630309658 2.559772646
H 1.9651368798 -0.7473256046 0.612766842
H 1.5888587893 -0.7856165886 -1.1318048176
H 2.0264228781 0.7542890162 -0.3489338546
H 0.3614499344 0.235201652 2.0484808377
H 0.518600504 2.8813712714 0.6185305248
H -2.4760340446 0.3103652901 1.0841192868
H -2.4806208319 0.3499031682 4.1850519427
H -2.3139479418 2.0217160724 4.7481601838
H -3.6113316151 1.5746429648 3.6246391111
H -0.2121719852 3.267583625 3.2500099091

