# b3lyp 6-31G(2df,p) opt Freq 

 titel

0 1
C -1.6610805217 2.8656905361 -1.7987416747
C -1.1653324424 2.0025938304 -0.6175928077
C -2.3745739827 1.5560583364 0.2358797999
C -0.2307458073 2.7755529526 0.2063001644
C 0.5337974217 3.3951851606 0.8968140778
C -0.4166297012 0.7538793798 -1.2064439287
O 0.5377528294 1.1226762827 -2.1569185046
C 0.2456604287 -0.0813273719 -0.122084859
O 1.42751531 -0.3244180417 -0.15635323
H -2.3774867284 2.2989105115 -2.4031921501
H -2.1584678267 3.7640424502 -1.4233859873
H -0.8254062323 3.1598290866 -2.4335818934
H -2.0736976667 1.0071543131 1.1313660703
H -2.9388847573 2.4330375148 0.5633866402
H -3.0442662647 0.9227415945 -0.3555651821
H 1.2131736396 3.9450695912 1.5002403571
H -1.1914510202 0.1194269174 -1.6741842789
H 1.3871948027 0.8050947372 -1.8098268639
H -0.3998497106 -0.4670337413 0.6889331207

