# b3lyp 6-31G(2df,p) opt Freq 

 titel

0 1
O 1.1736210955 -0.3519005456 0.003750625
C 0.4646598635 0.1514164634 0.8395696918
C -0.3379949279 1.4050638607 0.637978599
C -1.8685232914 1.1861556641 0.3612266415
C -1.7783748615 2.2845531297 -0.7390346609
C -0.2296870213 2.1388440001 -0.7183109205
C -2.491120097 2.0425084463 -2.0368535402
C -2.9635050049 3.1391894948 -2.8922614111
O -3.8782617859 2.3929915709 -2.0889001059
H 0.3321479235 -0.3285258149 1.8372143493
H -0.1989387715 2.0643530481 1.501691821
H -2.0627695236 0.1984604812 -0.0686132277
H -2.5600531544 1.3533870779 1.1881935021
H -2.090707176 3.2525374469 -0.3355180986
H 0.1374462545 1.453455398 -1.4876323303
H 0.3620490943 3.055282748 -0.7519229372
H -2.2597201713 1.0903276617 -2.5203099377
H -2.8016000052 4.1705412443 -2.5802270228
H -3.0517979192 2.9892573843 -3.9673956668

