# b3lyp 6-31G(2df,p) opt Freq 

 titel

0 1
C 1.306687858 -0.2493522566 1.1526681513
C 0.7210555819 0.014155307 -0.2378305764
C 1.6072940821 -0.5454943742 -1.3563069467
C 1.4455444849 -2.0848494116 -1.5197254667
O 1.513606181 -2.9855237143 -0.7263746769
C 0.9313848135 -1.9879624797 -2.9145001782
C 1.8856404087 -1.1202597359 -3.7555637338
C 1.033776856 -0.4196993511 -2.7770210337
O 0.1165737299 0.5641368148 -3.0568319115
H 1.4410519065 -1.3213468208 1.3182801645
H 2.2831781835 0.2348113735 1.2666405843
H 0.6476311318 0.1421769088 1.9334941514
H -0.2800315235 -0.4279312519 -0.3123558876
H 0.5921373636 1.0897650831 -0.403961025
H 2.634909326 -0.1767691694 -1.244697349
H 0.2152954533 -2.6432190024 -3.3957329516
H 2.9643614422 -1.1947380989 -3.6353788984
H 1.5651984953 -1.052601018 -4.7934228048
H 0.0917540252 0.7174943278 -4.0062774813

