# b3lyp 6-31G(2df,p) opt Freq 

 titel

0 1
O 5.3200040727 1.1854269656 0.2308701563
C 4.5098080574 1.3598362987 1.3845561359
C 3.3710093831 2.3311861366 1.1171637247
C 2.4162554778 2.7003254944 2.2232431089
C 1.9258178658 1.8889065073 1.0502699644
C 1.5319431722 0.4366689312 1.2599703302
C 2.6436116797 -0.4516372204 1.7800853112
O 3.6194220464 -0.8703451108 0.8178541451
C 4.048528153 -0.0075743947 1.8801172053
H 4.8602237331 0.5322944789 -0.313115661
H 5.171200796 1.7985737929 2.1410130789
H 3.6709017354 3.1274172666 0.4433051035
H 2.5264510356 2.1834441087 3.1733970092
H 2.1028669369 3.73407969 2.3164553181
H 1.3015975297 2.4166191293 0.3358457945
H 0.6855170054 0.3815323872 1.9555671956
H 1.1834753487 0.0008904819 0.3158913609
H 2.3273792793 -1.2591374186 2.4411975387
H 4.7010487918 -0.4965110946 2.6027313894

