# b3lyp 6-31G(2df,p) opt Freq 

 titel

0 1
C 5.8091236372 0.1675471925 3.6900043528
C 5.1107806538 -0.8947326568 2.8375588261
O 4.1321780175 -1.6235888387 3.5622548205
C 4.4408039303 -0.2492749314 1.6158109543
O 5.0953856319 0.4552621682 0.880295629
C 2.9724214612 -0.5379193635 1.3795341629
C 2.4369450363 0.1544643578 0.1172457918
C 1.0242723243 -0.1227416048 -0.1092632294
C -0.1412524794 -0.3651012095 -0.2758821869
H 6.3816104075 -0.302075992 4.4971197181
H 6.4933564894 0.7498736342 3.069360371
H 5.0723575041 0.8424796483 4.1364399441
H 5.87325121 -1.5763878054 2.4240805823
H 4.5524859593 -1.9945027082 4.3437958595
H 2.8344357866 -1.6242761702 1.3301847467
H 2.412009419 -0.2349848406 2.2715766799
H 2.6009356736 1.2348682425 0.1989176465
H 3.0277236411 -0.1640688719 -0.7489935101
H -1.1703853738 -0.5703486704 -0.436115849

