# b3lyp 6-31G(2df,p) opt Freq 

 titel

0 1
C -0.6278611083 -1.4174549854 -2.3775669008
C -1.4310250633 -1.3877291283 -1.0918505584
O -2.6381361009 -1.3138215092 -1.0891129411
C -0.6240807377 -1.3996660338 0.2156262603
C 0.4273056293 -2.514965995 0.253511767
C -1.4995316206 -1.182106676 1.4855805996
C -1.0095899006 0.2932927572 1.6094391784
C -0.0345742376 0.0227305703 0.4628705423
O 0.8756569074 0.6155432552 -0.0390889605
H -0.2354557172 -2.4252343239 -2.5526127015
H -1.273035626 -1.1413464321 -3.2123578063
H 0.2300480352 -0.7406140509 -2.3113786119
H 0.9647850102 -2.4966742324 1.2062596485
H -0.0395169762 -3.4999556357 0.1495473614
H 1.1642033842 -2.3927280093 -0.543858618
H -2.5656692927 -1.2998545869 1.2983319302
H -1.1957162023 -1.8123015939 2.323149708
H -1.7628652259 1.0405145214 1.3389412838
H -0.5419265371 0.6011042687 2.5482804389

