# b3lyp 6-31G(2df,p) opt Freq 

 titel

0 1
C 1.0604837704 -0.8504440795 0.6791104632
C 0.8843352175 0.2361790828 -0.3993068042
C 1.7527804633 1.4457805471 -0.1961806583
C 2.9789094475 1.6833933382 -0.658735103
C 3.4602145574 3.0393401531 -0.2388969724
O 2.3951364685 3.5766238996 0.5504102595
C 1.3070020196 2.6689947009 0.5928663041
C 0.9897582794 2.3365952238 2.0497592701
O -0.0813726001 1.9466464233 2.434850574
H 0.7762893191 -0.4826916178 1.6675524442
H 0.4306205771 -1.715445823 0.450151499
H 2.1002753549 -1.1884275428 0.7237569139
H 1.1094245012 -0.1960825707 -1.3804872424
H -0.1667963349 0.5458406737 -0.4246018849
H 3.5610712878 1.0204745543 -1.2876094679
H 4.3810997339 3.0066711606 0.3622070523
H 3.6574354705 3.699515467 -1.0980747408
H 0.4010455654 3.1155795813 0.1523082126
H 1.8603283116 2.477464288 2.7290328911

