# b3lyp 6-31G(2df,p) opt Freq 

 titel

0 1
O 1.3585304195 0.2760357538 -0.4802276481
C 0.4118165831 0.069260985 0.58317217
C -0.5270621741 1.2434121763 0.7462907725
C -2.0414149514 0.9986239841 0.7602762812
C -2.8640341831 2.0972622277 1.3378364244
C -2.7468255981 3.2244103487 0.6286923929
C -1.8599843863 3.0431100171 -0.5827225176
C -1.3583907366 1.6024379218 -0.4585473886
O -1.169820215 0.8875135342 -1.6375846576
H 1.870319758 1.063846205 -0.2677838268
H -0.1376078017 -0.828945336 0.2915109139
H 0.9350279706 -0.1500204931 1.5234628802
H -0.1639143887 2.0556069851 1.3740231459
H -2.3839192815 -0.0304856624 0.7730643708
H -3.4597359065 1.9780893303 2.2358279958
H -3.222382315 4.1685043036 0.8681323924
H -2.4194146958 3.1552349257 -1.521144326
H -1.039324231 3.7711994963 -0.6191846105
H -0.2207651464 0.7057201767 -1.706640875

