# b3lyp 6-31G(2df,p) opt Freq 

 titel

0 1
O -0.0290801694 1.8406075189 -3.2943630773
C -0.0929730973 0.8080267537 -2.6695983222
C -1.4217640291 0.1100762082 -2.4303925209
C -1.9303525668 0.2646923605 -0.9831610977
C -1.2300811861 -0.6158737488 0.0546858912
C 0.2260429638 -0.3117719065 0.3421707305
O 0.6912741279 1.0378093894 0.1981845463
C 1.2854372949 0.0237931694 -0.6219748421
C 1.1763661895 0.1538293712 -2.12835037
H -2.1384502949 0.5596981709 -3.121973677
H -1.330953686 -0.9571217282 -2.6728221347
H -1.8540332686 1.3144466317 -0.6824343088
H -2.9950464203 0.0094727848 -0.9732790308
H -1.7725432894 -0.5229426547 1.0038519525
H -1.3079402062 -1.6744629599 -0.2312227588
H 0.5789524344 -0.7873056858 1.261059549
H 2.298722509 -0.2415031862 -0.310677907
H 2.0145238713 0.7556756786 -2.4909771741
H 1.2756578732 -0.8491674971 -2.5676939081

