# b3lyp 6-31G(2df,p) opt Freq 

 titel

0 1
O 0.0390525783 -1.0337800613 0.4111092276
C 0.3275768312 0.0805490218 0.056739191
C -0.3683432681 0.8494968095 -1.0401279504
C -1.0887344271 2.0807743042 -0.4682259436
C -2.4499231024 1.7784329822 0.2385605131
C -3.2164800785 2.3142348238 -1.0103860322
C -1.8852181022 2.8631260502 -1.526370569
C -1.5751855106 4.1628768078 -2.1227466418
O -1.5142544027 2.9490105778 -2.8885615063
H 1.1497541877 0.6443188253 0.5593109432
H 0.3810104301 1.1885314702 -1.7675669879
H -1.0679564698 0.182892303 -1.5525911489
H -0.3850210165 2.6845184985 0.1151623723
H -2.6213016304 0.7318883889 0.4970861234
H -2.6075542987 2.3898900655 1.1291701339
H -3.6010219707 1.5161412043 -1.6512704735
H -4.0161851317 3.0370503945 -0.8345123863
H -2.3826400604 4.8422950488 -2.3933599528
H -0.6146773674 4.6374969553 -1.9241142318

