# b3lyp 6-31G(2df,p) opt Freq 

 titel

0 1
C 2.6716219659 1.3748741128 0.3384599228
C 1.798623588 0.1506032064 0.1957030359
C 2.1017792974 -0.9643566947 -0.7784844658
C 1.0564307323 -1.9030585274 -1.3273152863
C 0.3107881397 -2.3585208414 -0.0297628248
O 1.2015926834 -2.1529875006 1.0884255519
C 2.1691178345 -1.2354966977 0.692244589
C 3.6321881664 -1.5938159289 0.4291221584
O 3.5180168683 -1.1727383109 -0.9637021156
H 2.6356092856 1.7665519409 1.3598693804
H 3.7097462683 1.1455715017 0.0878351276
H 2.3362817462 2.1661391624 -0.3401935787
H 0.7318966371 0.3338974789 0.3000149983
H 0.3614503025 -1.4713166108 -2.052834381
H 1.569863062 -2.7439253145 -1.8019639128
H -0.6010002867 -1.7651666657 0.118502901
H 0.0253072052 -3.4143831978 -0.0460764466
H 4.4123898797 -1.0422120613 0.9645346077
H 3.8103221742 -2.6715542214 0.5049404187

