# b3lyp 6-31G(2df,p) opt Freq 

 titel

0 1
O 0.07758533 0.266362142 0.5086177266
C -1.0206971227 1.0661045836 0.131567409
C -1.225925443 2.2086965045 1.1274850581
O -1.9108561147 3.3073436392 0.5611899854
C -2.9847468789 2.9036870496 -0.2714786938
C -2.60768185 1.706998261 -1.1298768773
C -2.2990410442 0.3540500027 -0.4181979766
C -1.467545756 -0.037888253 -1.6713988317
C -1.0843530376 1.4418299887 -1.3785955679
H -0.1205029642 -0.1358562538 1.3612234234
H -1.7547979392 1.8302018857 2.023355646
H -0.248143903 2.5810565202 1.4474051324
H -3.8823479962 2.6697674999 0.3289602452
H -3.2232219692 3.772304251 -0.8941255312
H -3.2438198101 1.6149536682 -2.0147527428
H -3.0026439943 -0.2644465758 0.1446573307
H -0.6847398839 -0.7800879215 -1.527077415
H -2.0383810898 -0.2108254263 -2.5877990819
H -0.383618383 2.0746916742 -1.9238419486

