# b3lyp 6-31G(2df,p) opt Freq 

 titel

0 1
C 1.248544659 -0.5370668326 1.1643973079
C 1.9551875302 -0.2552157329 -0.1442764376
O 2.8580918402 0.5440954363 -0.2349460216
C 1.4976871056 -1.0748682953 -1.3612283814
O 0.1428950615 -1.4142911637 -1.1622430779
C 1.9366978325 -0.4246290639 -2.7212067294
C 2.9535993551 -1.5530734016 -2.9114771179
C 2.241339178 -2.870070368 -2.9549411376
C 2.4957258161 -2.2216439733 -1.6153655089
H 1.2145085593 -1.6122826318 1.3660587425
H 1.7586956491 -0.010224414 1.9713728768
H 0.2072681305 -0.2080081125 1.0958990294
H -0.0655386306 -2.1568310682 -1.7381978233
H 1.1462784687 -0.3584592564 -3.4750078573
H 2.3884832969 0.5534009273 -2.5565677537
H 3.9672027388 -1.428931802 -3.2685772562
H 1.2406136284 -2.9396026198 -3.3800736611
H 2.8538306499 -3.7447531462 -3.1490250413
H 3.0813669008 -2.7184252512 -0.8504845811

