# b3lyp 6-31G(2df,p) opt Freq 

 titel

0 1
C -0.068903149 0.0215200981 0.3265414858
C 1.4037232453 -0.0635709629 0.0167791688
O 2.1167807209 -1.2118516621 0.5071307978
C 1.9861580972 -1.0377821804 -0.9130456516
C 1.2181042132 -2.088634115 -1.717606586
C 2.3067542849 -2.882331801 -2.4887065112
C 3.4713907508 -1.9152423912 -2.5943746847
O 3.0888836452 -0.6100497356 -3.0510896279
C 3.2812387381 -0.8134211472 -1.6423022914
H -0.2218969601 0.2985638467 1.3747479636
H -0.5422706663 0.7889237592 -0.2954246823
H -0.571586989 -0.9312060564 0.1475467207
H 1.9504966232 0.8721562062 0.1557219064
H 0.6227404849 -2.7262237541 -1.0626868227
H 0.542905515 -1.5929913791 -2.420005557
H 2.6297914468 -3.7629749636 -1.9218183245
H 1.9591589992 -3.2272096687 -3.4668074463
H 4.4548338924 -2.2508084904 -2.9129756187
H 4.0889045673 -0.2595174223 -1.1721952689

