# b3lyp 6-31G(2df,p) opt Freq 

 titel

0 1
C -3.5193923487 2.3025472486 -1.8084348261
C -2.8688822076 1.8825688316 -0.5111741815
C -3.0318710717 2.7700892149 0.7464532628
O -3.4486455489 1.6319565504 1.5460670789
C -3.4154571215 0.7524829511 0.3895963472
C -2.1337111383 -0.0732803109 0.1892112237
C -0.9266213454 0.702155919 0.6505239677
O 0.3106377342 0.066617324 0.4888667679
C -1.5474675219 1.0834652129 -0.6541894552
H -3.5533808375 1.4678439416 -2.5170995641
H -4.5444666092 2.6506872324 -1.6436399522
H -2.9593716806 3.1158901575 -2.2852548224
H -2.1359782839 3.2579714479 1.1471352344
H -3.8391113747 3.5094202744 0.6639257482
H -4.367733879 0.2438448197 0.2162935969
H -2.0758894278 -1.1428886492 0.0250455686
H -1.0016538577 1.3413041539 1.527609356
H 0.4076339538 -0.5716851088 1.2033752088
H -0.9576198235 1.0267193391 -1.5615200697

