# b3lyp 6-31G(2df,p) opt Freq 

 titel

0 1
O 0.3173878901 -0.1098678079 0.7752154294
C -0.9875636391 0.3723610402 0.869366222
C -1.9953620644 0.2285477702 -0.3476217933
C -2.5562049805 1.6369743128 0.0213017874
C -2.5963239501 2.940948187 -0.8206963337
C -1.2867234838 3.5567644961 -0.2431817125
C -1.2866628483 3.3130662532 1.3044182162
C -1.21669247 1.8859980955 0.7416923463
O -0.3958911026 2.4065982509 -0.3636169479
H 0.7533951782 0.4096819287 0.0885467064
H -1.4267010388 -0.0402411994 1.7818705443
H -1.4572269521 0.2183127169 -1.2965477214
H -2.6898906493 -0.612461497 -0.3084657595
H -3.4044291904 1.5514304173 0.7046919058
H -2.4951176143 2.7914751242 -1.8984072091
H -3.4913997356 3.54078504 -0.633871916
H -0.8901416231 4.4722673497 -0.6837559616
H -0.3595378608 3.674590581 1.7504307958
H -2.1616711953 3.5905974405 1.8978632914

