# b3lyp 6-31G(2df,p) opt Freq 

 titel

0 1
C 2.7175961442 -0.9024537131 1.1940899762
C 1.809247313 -0.1742902716 0.1997730792
C 2.0360282578 -0.6190549843 -1.2411530748
O 1.7638246195 -2.0438192007 -1.3863278679
C 0.7817686251 -2.0787154925 -2.3840403125
C -0.2288441475 -0.9019043936 -2.2381509278
O -0.3803235134 -0.8178278986 -3.6928709207
C 1.056665082 -1.0177794293 -3.4922844135
C 1.0765361583 -0.0434933051 -2.2743134933
H 2.5188747409 -0.5786720361 2.2198912131
H 2.557932907 -1.9823088316 1.1370955815
H 3.7742983747 -0.706943477 0.9802508086
H 0.7569885924 -0.3422500918 0.4604267946
H 1.9790838869 0.9088676594 0.2543275057
H 3.0850360029 -0.4466008611 -1.5213400262
H 0.455758476 -3.0885981322 -2.6229836565
H -1.1201343012 -0.7972856055 -1.6205982803
H 1.7031622315 -1.0516130033 -4.3688057214
H 1.01850609 1.0313186079 -2.4357294442

