# b3lyp 6-31G(2df,p) opt Freq 

 titel

0 1
C 0.2662185886 2.0636306976 -0.7987287716
C -0.3548637536 1.188853572 0.2904420351
O -1.7860082315 1.2103263395 0.1725224906
C -2.3008078691 -0.1060603838 0.0368296208
C -3.2151488874 -0.4302479254 1.2199794181
O -4.1046380739 -1.23772234 1.1843637898
C -1.0891933684 -1.0014191487 0.0523333416
C 0.0155513619 -0.2771699964 0.2168187823
C 1.4297934553 -0.7497617299 0.3166877919
H 0.0536307847 1.6533740136 -1.7905251968
H -0.1497378948 3.0731718718 -0.7437822075
H 1.3513014286 2.134438853 -0.6709747254
H -0.0802828614 1.6062345215 1.2735253609
H -2.8942465651 -0.1998109805 -0.8844342037
H -2.956461389 0.1441368324 2.1386724998
H -1.1596233906 -2.0777762566 -0.0372745497
H 1.8891717568 -0.4169405299 1.2559319716
H 1.4906147567 -1.8397844268 0.2754373316
H 2.0451938523 -0.3432143435 -0.4944676093

