# b3lyp 6-31G(2df,p) opt Freq 

 titel

0 1
C 1.7628381135 1.5049121587 2.8214076373
C 1.7547781895 1.115573818 1.3715801214
C 2.0004283919 2.0950402811 0.2180706152
O 2.7133643186 1.0790408203 -0.544512033
C 2.5591160711 0.1761301441 0.5328331739
C 1.0611352065 -0.1336999123 0.7776358965
C 0.0474364095 -0.0528423092 -0.3459832815
C 0.9134550676 -1.281687283 1.7069887524
O 1.6413215029 -1.5347246817 2.642927923
H 1.8431117249 0.6272898663 3.4630972011
H 2.611156498 2.1651278512 3.0328687959
H 0.8456957301 2.0448254586 3.0846465061
H 1.1424012704 2.5043403461 -0.3247945726
H 2.6850913662 2.9016412547 0.5005469286
H 3.3402538715 -0.543534412 0.746645066
H -0.280299749 -1.0559626103 -0.6383536932
H -0.8425117238 0.5163200776 -0.0564682905
H 0.486706615 0.416388145 -1.22885303
H 0.0682149557 -1.9597989932 1.4517358634

