# b3lyp 6-31G(2df,p) opt Freq 

 titel

0 1
C -0.211844681 -0.8181699123 0.4509494424
C 0.2328618729 -0.1758034146 1.7742138395
C -0.7678819969 0.9897724941 1.4558293305
C -0.2395286207 0.6893780845 0.024253773
C -0.4718643505 1.1090810561 -1.4067179317
C 0.9121203039 0.7091113846 -2.0239869418
O 1.8680189914 0.5753497918 -0.9483205031
C 1.2349299958 1.0329485773 0.2251233947
O 1.5396769662 0.3528533897 1.4306402754
H 0.500961117 -1.4852545863 -0.0349477338
H -1.2153643051 -1.2479836301 0.4810707785
H 0.2810747296 -0.6895684384 2.7323236652
H -1.8076649802 0.7044791424 1.6248808589
H -0.5561164904 1.9714269747 1.8872557475
H -1.3013739876 0.5988315698 -1.9013591457
H -0.6371597935 2.1883651722 -1.4905375721
H 0.8562255684 -0.2522568171 -2.5455549821
H 1.2691620432 1.461563749 -2.7359360815
H 1.4496955974 2.1038455228 0.3657715363

