# b3lyp 6-31G(2df,p) opt Freq 

 titel

0 1
C -3.4281493032 2.2713055555 -1.8369678975
C -2.6646409623 2.1557806526 -0.5171816734
O -2.0624587084 3.4361353408 -0.3230006384
C -3.5773066907 1.759429617 0.6409030051
C -3.297548967 0.5495594045 1.1306411418
C -2.1074119366 -0.050259136 0.4613850993
C -0.8190378045 0.7374418515 0.6730715171
O 0.4077908504 0.129904673 0.4127579979
C -1.6560125903 0.9964920012 -0.5436646846
H -3.9074015166 1.3219126024 -2.0892204028
H -4.1970069282 3.0456065212 -1.7629944472
H -2.7388614362 2.54876947 -2.6406233244
H -1.4992426888 3.3785238495 0.4562177644
H -4.3510700721 2.4321644935 0.9934203635
H -3.8191666858 0.0632899876 1.9480204475
H -2.0320884165 -1.1133028445 0.2635056782
H -0.8208788976 1.4615357038 1.4913280289
H 0.6395458521 -0.4127919916 1.1739689925
H -1.2129663073 0.7020338981 -1.4875623478

