# b3lyp 6-31G(2df,p) opt Freq 

 titel

0 1
C -1.1751236984 -0.7808985446 0.0297760024
C -0.4027289818 -1.0359099307 -1.2317610089
C 0.7314205489 -1.9835553113 -1.5604262498
C 0.1363319196 -2.3177009273 -2.9271592307
C -1.0439544916 -1.3366204592 -2.5905515775
O -1.2356739059 -0.1963534575 -3.3969780354
C 1.0045783559 -0.4857240041 -1.5077194498
C 1.801876091 0.001375855 -0.360665745
O 1.8686594043 -0.5325483497 0.7248896964
H -1.9190151119 -1.5701860129 0.1867604911
H -0.5160743752 -0.7568532512 0.8992042469
H -1.7103051426 0.173695018 -0.0289002938
H 1.2657875586 -2.6425666279 -0.8876589409
H 0.7452696368 -2.0487402361 -3.7959424224
H -0.1945701818 -3.3544859197 -3.0249181498
H -1.9851761567 -1.886914735 -2.4534120722
H -1.6309619973 -0.4756443187 -4.2289825722
H 1.1603989497 0.057365076 -2.4353322544
H 2.3761044683 0.9318983668 -0.566255784

