# b3lyp 6-31G(2df,p) opt Freq 

 titel

0 1
C -0.8545156679 1.9630882574 1.2396412773
C -1.0307994867 1.1003213288 -0.0032660812
C -1.2319486817 1.8803210608 -1.3174956603
C -2.09131616 0.9280988976 -2.1624303549
O -2.9157148845 0.2243201275 -1.2355052862
C -2.1759605889 0.0219984575 -0.0493408325
C -1.1235165014 -1.1313249842 -0.096763976
C -0.0190562584 -0.0645237229 -0.1228223746
O 1.1761143735 -0.0979685399 -0.1911367815
H -0.8000091464 1.3552678208 2.1488859147
H 0.0718451221 2.5426247542 1.1754334877
H -1.6908709473 2.6616942379 1.3486203789
H -1.7784769851 2.8056798937 -1.1069892823
H -0.2873583476 2.1420524452 -1.8011686227
H -2.7491919839 1.4379735656 -2.8703754556
H -1.4582148158 0.2290918926 -2.7314721565
H -2.8769658676 -0.0178984423 0.7860458553
H -1.0892309668 -1.7567590591 0.8009790061
H -1.1758273657 -1.7845552814 -0.9724732256

