# b3lyp 6-31G(2df,p) opt Freq 

 titel

0 1
O 0.3562439643 0.2475607364 1.0025327056
C 0.3669015401 0.1037125104 -0.1924154419
C -0.5565462812 0.827538381 -1.1651139781
C -1.0006504727 2.2322664842 -0.7054118596
C -0.0373935538 2.7391697377 -1.7944493601
O 0.2666528351 1.3861536268 -2.2261302866
C -1.603978272 -0.1322321388 -1.681214949
C -1.284389024 -1.0472455698 -2.8386545797
C -2.2495977113 0.0959950552 -3.0233672673
H 1.0801465604 -0.582604937 -0.700152074
H -2.0538055852 2.4461571378 -0.8894574962
H -0.7438206335 2.4701716925 0.3266321932
H -0.4852727862 3.3240400464 -2.6043830105
H 0.8603420063 3.2528797439 -1.4325938738
H -2.2342371312 -0.5357276206 -0.8927215728
H -0.3108196419 -0.9390368959 -3.3028108019
H -1.6687336685 -2.0603659155 -2.8125535558
H -1.8994458741 0.9395078231 -3.6068449062
H -3.3067968208 -0.1231113179 -3.1203435053

