# b3lyp 6-31G(2df,p) opt Freq 

 titel

0 1
C 1.2562211322 0.0906217142 -0.224417407
O 0.1352035048 -0.4345976427 0.4630490778
C -0.4026001604 0.4427912344 1.3951001833
C -1.2526988714 1.6411274764 0.8992380349
O -2.3488025561 1.2436738207 1.7652756497
C -1.6514641159 0.0421396136 2.1851137599
C -0.8692231421 0.1237131222 3.514413917
C -0.3034307291 1.4996868018 3.7115544129
C 0.3776948203 0.5823299376 2.7369257404
H 2.0759061786 0.3478017001 0.4611009805
H 1.6006954774 -0.6842538374 -0.9123280827
H 0.9942035045 0.987800146 -0.8040861374
H -0.9035782261 2.6574968801 1.1116235742
H -1.5282150629 1.5531215005 -0.1592497019
H -2.2064465588 -0.8765420951 1.9868971502
H -0.9487100216 -0.5921526832 4.3231539725
H -0.8682419205 2.3642406042 3.3807324951
H 0.2291474372 1.645951595 4.64589646
H 1.40554073 0.2652290418 2.8638278406

