# b3lyp 6-31G(2df,p) opt Freq 

 titel

0 1
C 1.3761355223 0.8067048002 0.2559323736
C 0.0080176115 0.2555476656 0.0227244646
C -1.1336565225 0.8828740018 -0.3251507124
C -2.2850933078 -0.0839258288 -0.5113065071
C -1.7606788365 -1.3801541002 0.1417256651
C -0.2217305338 -1.2486131492 0.120302925
O 0.4503548165 -1.8755592407 1.2011288698
C -1.3060596295 2.3180315677 -0.553725183
O -2.3539648251 2.8202064342 -0.9046254697
H 1.7799860921 0.4164948691 1.1957499747
H 2.0594428575 0.4623101129 -0.5316358968
H 1.4067020469 1.8969212855 0.2801000224
H -3.2128604372 0.2882769863 -0.0687587247
H -2.4919897275 -0.224694184 -1.5796736463
H -2.0815977818 -1.4219659545 1.1904288455
H -2.114255345 -2.2934959703 -0.3410933918
H 0.203712485 -1.729331293 -0.7725188123
H 0.0460614352 -1.5605036458 2.017756571
H -0.4086291704 2.9494830632 -0.3807417177

