# b3lyp 6-31G(2df,p) opt Freq 

 titel

0 1
C -0.0685393354 -2.5516070693 0.0001071882
C -0.6991497779 -1.1838378465 -0.022677919
C -1.8081217728 -0.7358832797 -1.0564112566
C -2.0667814675 0.3989120088 -0.0281769731
C -1.6892676669 -0.636381107 1.0677926794
C -0.7732831966 1.2196670703 -0.1101666862
O -0.6816478581 2.0125541272 -1.2743517334
C 0.2080864554 0.0217673595 -0.1662217535
O 1.3913377588 0.0782422027 -0.3865912065
H 0.5975653393 -2.6593115603 0.8625616216
H -0.8255794312 -3.3399496612 0.0527351315
H 0.5352017093 -2.712185342 -0.8986933956
H -1.4963037092 -0.4515437476 -2.0633972434
H -2.6191324871 -1.4668603665 -1.0945953604
H -3.0037608334 0.9521361029 -0.0008605383
H -1.2716748726 -0.2746056101 2.0128514247
H -2.4945342193 -1.3484167309 1.2621429387
H -0.6137888707 1.8226982617 0.7978490924
H 0.258973926 2.114192038 -1.4672774806

