# b3lyp 6-31G(2df,p) opt Freq 

 titel

0 1
O -0.1012502412 1.1775562272 -1.1863850379
C -0.5981820278 0.4056436244 -0.4080753393
C -0.4486683317 0.4905253666 1.1101528718
C -0.4315597658 1.9355313236 1.6288290683
C -1.9068307609 2.1515801683 1.9250242579
C -2.4847184972 3.437168679 2.4310505073
C -2.7704717934 2.989180236 1.0140943996
C -2.3722004685 0.7912683975 2.4077768013
O -1.5669369619 -0.1661022674 1.7100547948
H -1.2196002834 -0.456204502 -0.7381943998
H 0.4667206182 -0.0596564952 1.3742501848
H 0.1705300677 2.0098379213 2.5406721814
H -0.0224843339 2.6161069145 0.87954695
H -3.2930373117 3.3863441731 3.1539087735
H -1.813390996 4.2768598325 2.5776350298
H -3.770318836 2.633977405 0.7859041986
H -2.2882542457 3.5220194702 0.2015781359
H -2.2146335031 0.6755427286 3.4910580238
H -3.4268696877 0.5899684466 2.1908947682

