# b3lyp 6-31G(2df,p) opt Freq 

 titel

0 1
C -2.0341811497 3.5859423521 -0.7908578904
C -1.4762649969 2.4158424671 0.013766223
C -2.0521637286 1.0219799663 -0.3575371296
C -0.9140465544 0.082569306 -0.0644471621
C 0.2407011545 0.7429644065 0.101372403
C 1.5411018217 0.1487089078 0.3877595597
O 2.5544462782 0.8043075126 0.5487545782
C 0.0569248241 2.240491475 -0.0797681746
O 0.6998459197 3.0287495712 0.901042945
H -1.5615401837 4.5231129596 -0.482096635
H -1.8507976497 3.4522525368 -1.8634209202
H -3.1147348378 3.6907356472 -0.6478121327
H -1.6723735056 2.585322869 1.0792879578
H -2.9658832888 0.7702416149 0.1921167634
H -2.3159001939 0.9695679241 -1.4249614823
H -1.024726993 -0.9972619053 -0.0204569103
H 1.564476052 -0.9597318322 0.4615822608
H 0.4133898873 2.5233844057 -1.0872132841
H 1.6250956645 2.7473821957 0.9064347704

