# b3lyp 6-31G(2df,p) opt Freq 

 titel

0 1
C 1.3664059832 0.0335710696 -0.2095083871
O 0.0229200847 -0.1435451659 0.207298183
C -0.3527825442 0.6161909741 1.3112844696
C -0.5457530219 2.1225398777 1.1585375062
C -1.744200281 1.2047603794 1.2950006324
O -2.5712814371 1.0155583113 0.1920812601
C -2.3492925573 0.9942729895 2.679473966
C -1.2204642869 0.3468932949 3.4584103079
C -0.1425392301 0.1159431398 2.7040369922
H 2.0749086132 -0.3003604168 0.5606528656
H 1.5052628036 -0.5761493084 -1.1051529052
H 1.5786596214 1.0840467091 -0.4483089547
H -0.2462384844 2.7758396835 1.9719432535
H -0.412537532 2.5233805765 0.1585221593
H -2.1175627795 0.3880470684 -0.3865735461
H -2.6835989224 1.9325678061 3.1384051704
H -3.2285022653 0.3414804023 2.612374969
H -1.2978225357 0.1328985768 4.5184162423
H 0.7823729316 -0.339482108 3.0389545358

