# b3lyp 6-31G(2df,p) opt Freq 

 titel

0 1
C -3.3857144593 1.0141042943 0.0325626367
C -2.4145473427 2.1622538081 -0.1845172709
O -2.6825345271 3.0636350225 -0.9514476203
C -1.1339932906 2.1866203687 0.6121434208
C -0.6807192951 0.9505813511 1.3765832305
C -0.039781527 -0.0986155223 0.4829767804
O 0.9291584921 -0.7443291588 0.784615192
C -0.0517591394 3.1080004335 0.0625184296
C -0.847119262 3.5561413668 1.2386421304
H -2.9326201485 0.0502864818 -0.2223544151
H -3.6878703244 0.9568152967 1.0846745794
H -4.2658809121 1.1759055556 -0.5899105448
H 0.0494085187 1.2087817295 2.1488907833
H -1.5257326594 0.4762149715 1.8936196377
H -0.5338534478 -0.2406805764 -0.5067276666
H 0.975655059 2.7973656876 0.2188401121
H -0.2686679847 3.5704888225 -0.8924099978
H -0.3862247964 3.5571341849 2.2201615649
H -1.5975827034 4.3200514926 1.0733429478

