# b3lyp 6-31G(2df,p) opt Freq 

 titel

0 1
C -2.4439735053 -2.9937503395 2.27522481
C -2.4169394703 -2.7777126708 0.7510088527
C -2.0184981678 -4.0721436748 -0.0008741604
O -2.038828889 -3.9216746797 -1.3998161204
C -1.521300788 -1.6921483173 0.3634237326
C -0.7481252468 -0.838291566 -0.0041047272
C 0.1754481125 0.1855481848 -0.4578271575
C 0.278768981 1.4130833302 0.4234697609
O 0.8149469517 0.0496424057 -1.4797544778
H -3.1449297169 -3.7948489838 2.5284755219
H -1.4536049225 -3.2736692039 2.6464631496
H -2.7568594915 -2.085241277 2.7951718909
H -3.4255209333 -2.5084633163 0.4088318622
H -1.034968666 -4.4067671981 0.3653860437
H -2.7471501115 -4.8534039456 0.2383305391
H -1.3971609555 -3.2384016396 -1.6289307726
H 0.591587315 1.125786132 1.4331620076
H 0.9969964123 2.1127041285 -0.0063392191
H -0.7020958782 1.8915716713 0.5173981339

