# b3lyp 6-31G(2df,p) opt Freq 

 titel

0 1
C 1.3907898252 0.7968359633 -0.3098717721
C 0.0324630907 0.2463891952 -0.0158606537
C -1.1403545824 0.8852111761 -0.0345067203
C -2.3017418473 -0.026004413 0.2634481396
O -2.9735960562 -0.2981961655 -0.9729769675
C -1.6039123754 -1.2756880543 0.8571473899
C -0.1597317053 -1.2323232521 0.3113463515
C -0.0007466998 -2.016437504 -0.9866117732
O 0.9957826599 -2.6117763121 -1.307017498
H 2.0396840532 0.7271198636 0.5721635194
H 1.8834823976 0.2193073259 -1.1008049973
H 1.3438386531 1.8437574169 -0.6196983715
H -1.276355611 1.9304338705 -0.2879653521
H -3.0142587237 0.4163268721 0.9741047425
H -3.7938569538 -0.7591045369 -0.7670559497
H -1.5738823992 -1.2024394195 1.9485034633
H -2.1403601543 -2.1951756488 0.6007322316
H 0.5908263338 -1.6023123616 1.0169138246
H -0.8912059551 -1.9573751559 -1.651074927

