# b3lyp 6-31G(2df,p) opt Freq 

 titel

0 1
C 1.5696440365 0.0565743184 0.1266396512
O 0.1849651843 0.2087687771 -0.0754910338
C -0.5687786044 -0.0478842806 1.0868970796
C -2.0251584738 0.1325430468 0.7613824336
O -2.5633790159 1.4580772107 0.8800296104
C -3.0118171748 0.4614994829 1.7937158481
C -4.4707116655 0.0493934856 1.6705815975
C -4.7531976417 -1.1894478615 2.3859265834
C -4.9546473485 -2.2094333005 2.9883231932
H 1.8266926658 -0.9672230624 0.4431906904
H 2.0632953658 0.2667234165 -0.8249722659
H 1.951028313 0.7558569379 0.88740488
H -0.3969811611 -1.0805030908 1.4404312426
H -0.2873097283 0.6366348836 1.9036900486
H -2.3620007451 -0.4070953357 -0.1243599214
H -2.6631368497 0.59525702 2.8188660672
H -5.1004051473 0.8584914433 2.0629141762
H -4.7217838771 -0.0521225942 0.6084826779
H -5.1464802122 -3.1113804572 3.5147272713

