# b3lyp 6-31G(2df,p) opt Freq 

 titel

0 1
O 0.3510116102 0.1872309129 0.9903184559
C -0.9121445723 0.5565261739 0.5240604323
C -1.1736428507 2.0857345433 0.2696444188
C -2.1924825203 2.1081982292 1.4722634021
C -2.2184287836 0.585153492 1.3801771876
C -2.2565114035 -0.7091338275 2.1767103886
C -1.8101153012 -1.6313148356 0.9710356114
C -1.7207200707 -0.5488903323 -0.1513350487
O -2.9220266935 0.2190515709 0.1349050166
H 0.7626104069 0.9413082769 1.4230062825
H -0.2779462838 2.6992467115 0.4066048009
H -1.6177915144 2.32530729 -0.695612716
H -1.7297387018 2.4671356427 2.396635127
H -3.1438453291 2.6221114728 1.3212680236
H -1.5311115725 -0.7140913001 2.9943045262
H -3.2425924677 -0.9695087102 2.5668158596
H -0.8616515224 -2.1388518683 1.1552579437
H -2.573485713 -2.3681996223 0.7144550757
H -1.6226872966 -0.8863146297 -1.1855781578

