# b3lyp 6-31G(2df,p) opt Freq 

 titel

0 1
C -1.0267911545 4.2364765113 1.1615515951
C -1.6728682427 2.9312634679 1.6517875361
C -1.8293575872 2.9248087615 3.1793658055
C -0.8630635667 1.7335257486 1.1820608647
C -1.1214116489 1.1481147619 -0.1560229932
O -0.1283596071 0.125010885 -0.441032283
C -0.6237114484 -0.6541554642 0.6053171078
O -0.3004050785 -1.758895193 0.8934611775
C -1.6133261456 0.388120676 1.0497041708
H -0.0224066454 4.3565387482 1.5832241718
H -0.935557525 4.2543958862 0.0713072209
H -1.6215678913 5.1027285386 1.4673888157
H -2.6746602286 2.8569133596 1.2050207603
H -2.3130019445 2.0082185301 3.5300111139
H -0.8519386523 2.9952195654 3.6699891091
H -2.4314047088 3.7757855118 3.5126563577
H 0.1651468496 1.7008686253 1.5383735738
H -1.651578156 1.5755461629 -0.995381551
H -2.6031933481 0.225316487 1.4499656466

