# b3lyp 6-31G(2df,p) opt Freq 

 titel

0 1
O 0.3349169273 -0.0082823963 0.1514770857
C -0.6651059719 0.7210494599 0.8015339141
C -1.489104598 0.0491177444 1.8576316113
C -2.6141946904 0.9778326648 2.3235633468
C -1.555782152 2.058513031 2.7101076426
C -1.6356374968 3.5406330014 2.2869568559
O -1.5723026817 3.9850775294 3.6580941246
C -1.5280526596 2.6299982939 4.142604565
C -0.4447335629 1.1276604247 2.2347297144
H 0.7284858764 -0.6225473736 0.7804039129
H -1.1245073142 1.4064833049 0.091680736
H -1.4527586228 -1.025995231 1.994362845
H -3.350287501 1.2624912563 1.5628366827
H -3.1473476452 0.6055637134 3.2026757772
H -0.7889677408 3.9085527386 1.6931250544
H -2.5729695848 3.8439015096 1.8015245908
H -0.6153639855 2.4272195452 4.718849491
H -2.402213743 2.3826988211 4.7609462571
H 0.5336418668 1.0265429124 2.6945200025

