# b3lyp 6-31G(2df,p) opt Freq 

 titel

0 1
C 1.2393347248 0.9843179561 0.4630652698
C 0.8113111334 -0.4346139999 0.062455173
C 1.5040262251 -0.9122563243 -1.1755780644
O 2.8767916033 -1.3054822359 -1.0812416917
C 1.9525119394 -2.2489548425 -1.6346148808
C 1.707314185 -1.8491426066 -3.1188241069
O 2.8374193691 -1.3277141194 -3.8312299009
C 2.5117107873 0.0317574476 -3.4356664354
C 1.271503133 -0.4449482392 -2.6447483921
H 0.7172889106 1.3080237203 1.3679641011
H 2.3151999024 1.022799192 0.6564911596
H 1.0134665666 1.7055011887 -0.3295595447
H 1.0318338428 -1.1371772988 0.8737320119
H -0.2727692681 -0.4658240283 -0.1042265369
H 1.9106283519 -3.2259919373 -1.1640307696
H 1.0821216543 -2.5283921075 -3.704041921
H 3.3135115108 0.49091786 -2.8509977912
H 2.2786778253 0.6479947487 -4.3116852057
H 0.2950844431 -0.0245736937 -2.8787685143

