# b3lyp 6-31G(2df,p) opt Freq 

 titel

0 1
C 1.4830211078 -0.3821312006 0.5908233085
O 0.0829714709 -0.3354401083 0.7359609764
C -0.4594136674 0.9233275378 0.4010651084
C -1.96153953 0.8342383928 0.5028156434
C -2.6029688892 1.0375314663 1.8274573887
C -4.1103970835 0.762016018 1.7154802174
C -4.1699049014 1.9257212031 0.6852504062
O -5.0777307483 2.5249676509 0.1837882023
C -2.6890873296 2.1550671538 0.7526425164
H 1.9876394988 0.3414899427 1.2507736184
H 1.8054904615 -1.3902946582 0.8610128305
H 1.7938259927 -0.1741018076 -0.4453384839
H -0.076146725 1.7059294674 1.0792404235
H -0.1631989732 1.2095470612 -0.6223968089
H -2.4033250224 0.1158750711 -0.1849739418
H -2.0382240314 1.0739933983 2.7493209344
H -4.4074516093 -0.2365460658 1.3820672556
H -4.6858059842 1.0304611572 2.6061418397
H -2.1726213868 3.1036986999 0.6660348247

