# b3lyp 6-31G(2df,p) opt Freq 

 titel

0 1
C 0.0698285577 0.1388410063 0.1866154302
C 1.5020098568 -0.2118402247 -0.1223548751
O 2.00555084 -1.1804746533 0.7748665788
C 3.0041996624 -1.9345784145 0.0591018828
C 3.3534098611 -1.0356829072 -1.125647646
C 3.8424179801 0.3267565592 -0.5439440965
C 2.4583401753 0.993456584 -0.4932136193
O 2.0231490228 0.8499128228 -1.8796115448
C 1.9283914745 -0.5548772913 -1.5682489205
H -0.0113004366 0.5606459303 1.1934113906
H -0.2948764753 0.8755313665 -0.5333005126
H -0.563799896 -0.7517934234 0.1414458436
H 3.8517020378 -2.1209014923 0.72634663
H 2.586469802 -2.9044523319 -0.2506695989
H 3.9837006963 -1.4922109099 -1.8874436235
H 4.322505311 0.2227421339 0.4323258793
H 4.5031949837 0.8735457674 -1.219435734
H 2.3511340708 2.0037689661 -0.0972807254
H 1.3515398055 -1.1484007578 -2.2772916087

