# b3lyp 6-31G(2df,p) opt Freq 

 titel

0 1
C -0.8238562322 2.0782032471 1.0702765363
C -1.1830166708 1.0549926896 0.0140942643
C -1.8394084731 1.5269620986 -1.319965413
O -1.0245707317 1.8263248822 -2.4177793947
C -2.7572556748 0.2625011398 -1.3174704834
C -2.2618998573 -0.1029754539 0.1114708704
C -1.1402959797 -1.1752467269 0.1136556387
C -0.1624000442 -0.0608234221 -0.2781851869
O 0.9382481213 -0.0397329463 -0.7598898874
H -0.5127806143 1.6076617513 2.0092314151
H 0.0038304558 2.7045519312 0.7205818627
H -1.6756248831 2.7319069139 1.2858539983
H -2.4355471496 2.4263888831 -1.1307286151
H -0.2769331921 1.2163795677 -2.4243640152
H -3.823863003 0.4753851566 -1.4102135114
H -2.4870083096 -0.4743565647 -2.080084424
H -3.0038024156 -0.1440325057 0.9068178559
H -0.9149536285 -1.5295228506 1.1271304442
H -1.2186002076 -2.0397168611 -0.5517904746

