# b3lyp 6-31G(2df,p) opt Freq 

 titel

0 1
C -0.0411785347 -0.3684912582 0.0723743907
C 1.4041376895 0.0497444365 -0.0932081915
C 2.0355340961 -0.2890434789 -1.4447863647
O 3.4439986952 -0.3991872001 -1.2489720257
C 3.7741062231 -0.2824213268 0.1258261891
C 4.0101979074 1.1765383173 0.6362806649
C 2.5867288727 1.1741771831 1.2277495755
O 1.5848928052 1.4645784972 0.2276418093
C 2.4627588598 -0.3485712328 0.9574746035
H -0.4037662492 -0.105123096 1.0692966494
H -0.6716917697 0.1448357438 -0.6616217087
H -0.1557249824 -1.4478604833 -0.07073819
H 1.6482696895 -1.240953691 -1.8345661414
H 1.8223333242 0.5008954985 -2.1746238098
H 4.5710456325 -0.9951167738 0.3491399636
H 4.77483027 1.2044471833 1.4196985056
H 4.2251248172 1.9330300704 -0.1210122759
H 2.3863855495 1.6826431153 2.1728897263
H 2.2757383742 -1.1380212347 1.6815095699

