# b3lyp 6-31G(2df,p) opt Freq 

 titel

0 1
C 2.2158247694 -1.8991581044 -1.4701310223
C 0.7799684421 -1.4846582123 -1.3360502449
O 0.1027782741 -1.9772143828 -0.0939290502
C -0.8750795246 -0.91417854 -0.4203697876
C -1.5162328672 -1.4504471146 -1.7053230767
C -1.1340495247 -0.8460847547 -3.0349796795
C -0.2436747686 -1.8922937609 -2.4092998964
C 0.3433366562 -0.062857535 -0.8535813011
O 1.1080581582 0.4264272899 0.2124983744
H 2.817482858 -1.4736344902 -0.6629825143
H 2.3057318476 -2.9897977325 -1.4396826029
H 2.6216125733 -1.5486479683 -2.424364002
H -1.5110097512 -0.6363322409 0.4200435294
H -2.3889045334 -2.0874341912 -1.6281271531
H -1.7221310899 -1.1872966309 -3.8819090188
H -0.8254993918 0.1877118073 -3.1261913611
H -0.1417896592 -2.8668134107 -2.8730075413
H 0.234868664 0.7574640379 -1.5616208228
H 1.1642999178 -0.3061145558 0.8422160813

