# b3lyp 6-31G(2df,p) opt Freq 

 titel

0 1
C 1.1925313229 -0.4424501562 0.986205768
C 0.6917994145 -0.3286988061 -0.4553678001
C 1.8115276621 -0.4271354232 -1.486199836
C 1.3383858718 -0.3428160327 -2.9523221767
O 2.1301342809 -1.3158202557 -3.6247427267
C 2.3266074737 -2.3381424581 -2.6767948329
O 2.4741007805 -1.7038270833 -1.4211838999
C 1.2076833177 -3.3023882917 -2.665054694
C 0.3073280064 -4.0983443061 -2.6645332938
H 1.711218879 -1.3929706613 1.1367357136
H 1.8929351977 0.3647977922 1.2280525315
H 0.3626185136 -0.3882608087 1.6968365307
H -0.0401801451 -1.1176512527 -0.6648903875
H 0.1772061251 0.6309376516 -0.6017718302
H 2.5747746901 0.3355641032 -1.2817532483
H 0.2693192799 -0.5841080027 -3.0361162406
H 1.5266459251 0.6261053426 -3.4181182116
H 3.2623968772 -2.8504196147 -2.9239438724
H -0.4863092931 -4.8046353265 -2.6638556833

