# b3lyp 6-31G(2df,p) opt Freq 

 titel

0 1
C 1.3533096967 -0.1373563909 -0.2289907144
O -0.0322304555 0.0627487075 -0.0250490391
C -0.3816365717 0.6871450787 1.1900922036
C 0.0561618784 2.1478974866 1.267564098
C -0.1332036969 -0.1302067056 2.4821421304
C -0.7725839692 -1.4644048674 2.3569167825
C -1.6653237273 -0.282769008 2.7164522525
C -1.9117158588 0.5491458472 1.5015773155
O -2.8718775651 1.1025945867 1.0463850714
H 1.8136099264 -0.6805453212 0.6091184337
H 1.4531760658 -0.7393312738 -1.135097559
H 1.896166948 0.8059215 -0.3758833805
H -0.3150417759 2.6136326422 2.185184207
H 1.1462543096 2.2418500176 1.2642836157
H -0.3504856972 2.6962425843 0.4142112788
H 0.5980336194 0.1127341168 3.2423765561
H -0.858819543 -1.9276115134 1.3801756295
H -0.6155088693 -2.1567081291 3.1772859115
H -2.2317654044 -0.2656805482 3.6390701169

