# b3lyp 6-31G(2df,p) opt Freq 

 titel

0 1
C 0.8851276407 -0.8179485084 0.2695366418
C 0.77962498 0.5402074745 -0.4183573336
C 1.9244646768 1.4706466907 -0.0798353043
O 2.8617147996 1.1654906571 0.613858465
C 1.8415036319 2.9081488264 -0.663681316
O 1.3218083397 2.8194153366 -1.9764133332
C 1.3473928381 4.0434635242 -2.6875332978
C 1.0165853269 3.7354658155 0.2240357374
C 0.3218864985 4.3860949414 0.9588719924
H 0.8864927311 -0.7087628123 1.3573052807
H 0.0442505658 -1.4573340262 -0.0128248971
H 1.8129884599 -1.3251515834 -0.0069035247
H 0.7521221841 0.4458703536 -1.510519639
H -0.1534447002 1.0588709461 -0.1611788931
H 2.8701445208 3.2990239003 -0.6734787431
H 0.7299725913 4.808035147 -2.1986434044
H 2.3736768826 4.4275502709 -2.7851301737
H 0.9473976311 3.8374600686 -3.6823704785
H -0.2819179289 4.9688846475 1.6104728413

