# b3lyp 6-31G(2df,p) opt Freq 

 titel

0 1
O 0.2758719635 0.8871987853 0.3032522876
C -0.9686269412 0.3328010397 0.6804171922
C -1.8940055959 -0.0457257235 -0.4943971535
C -2.9313456164 -1.0092155888 0.0912514351
C -3.9830141033 -0.3576626926 1.0023058171
O -4.6220693047 -1.4062263674 1.7360986623
C -3.3655408464 -0.918539611 2.2152947939
C -2.2624257179 -1.6168196982 1.4053014991
C -0.8773429414 -0.9691956397 1.502773802
H 0.7383493821 0.2343408992 -0.2340934195
H -1.442755967 1.1149418483 1.2834261671
H -2.3366720119 0.8303031244 -0.9783675478
H -1.2982630966 -0.5670044095 -1.2561582058
H -3.3457072976 -1.7070259875 -0.6390937228
H -4.5458762539 0.5572491217 0.8494602002
H -3.3322964304 -0.5450977155 3.2334672399
H -2.2491946829 -2.703026566 1.5149302461
H -0.5497471714 -0.7928224302 2.5319389612
H -0.1312858267 -1.6270059187 1.0362933057

