# b3lyp 6-31G(2df,p) opt Freq 

 titel

0 1
O 0.2719494042 -0.1026841387 0.4714209367
C -0.4680534468 0.9361274152 1.0992755805
C -1.4776019308 0.4046563645 2.1422871888
O -2.7260538368 -0.0142850572 1.5906002038
C -3.279750344 0.8999569664 0.6212946467
C -2.3225540673 0.9669223176 -0.5765979678
C -1.2059654193 1.8255480973 0.0586054773
C -2.0466308753 2.8644116417 0.7946613681
C -3.2345145339 2.344122895 1.1107688819
H -0.3515072083 -0.7782942839 0.1851727073
H 0.2824399164 1.531696519 1.6318740611
H -1.055319031 -0.4772270047 2.6326409235
H -1.6368551195 1.1732685738 2.9092025721
H -4.2759762638 0.5115465865 0.4035167437
H -2.0048048298 -0.02370883 -0.912680417
H -2.7790043916 1.4907696114 -1.4209776296
H -0.4873243636 2.2366975357 -0.6536675666
H -1.6783984041 3.8449957466 1.0739828518
H -4.0106551648 2.8080513138 1.7066308677

