# b3lyp 6-31G(2df,p) opt Freq 

 titel

0 1
C 0.2911780191 3.8817553373 -0.2324994002
C -1.029996307 3.1603686105 -0.0546317192
C -1.0991238693 2.096845563 1.0657094102
C -1.1394261478 1.0863770662 -0.1054156891
C -2.1256910797 -0.1109517494 -0.1575288269
C -0.9502686956 -1.1110957695 0.0603655878
C 0.017497971 0.060475485 -0.1995752072
O 1.1837697872 0.1549545432 -0.4482693129
O -1.2279852268 2.1326709228 -1.0678694489
H 0.4461287361 4.6028232298 0.5778724769
H 1.1177078076 3.1645336826 -0.2352107571
H 0.3029720577 4.4252332056 -1.1821912492
H -1.867781901 3.8674137795 -0.0676115669
H -0.2292866292 2.0399036711 1.7227256202
H -2.0135320007 2.1165101832 1.6614967327
H -2.9198278242 -0.1101479943 0.5910877771
H -2.5682521785 -0.1980230083 -1.1525668708
H -0.8678385494 -1.4949638672 1.08209483
H -0.8656128696 -1.951140821 -0.6325359263

