# b3lyp 6-31G(2df,p) opt Freq 

 titel

0 1
O 0.4168052746 0.3319620979 0.7374768744
C -0.8568584468 0.9143456573 0.6856988129
C -1.6492801308 0.8411739895 -0.6226704983
C -1.1498686552 0.4241071282 -1.968400836
C -1.7848560629 1.794133546 -1.7548250089
O -2.7759467256 0.2223514166 0.0099507639
C -2.0496978957 0.131208705 1.2415292534
C -2.7139607045 0.1467801219 2.5707394395
C -2.0170166524 -1.1133943172 2.0687173659
H 0.3415837851 -0.5610672572 0.3812017485
H -0.7483800097 1.922709985 1.0930271044
H -0.0760968645 0.3697550099 -2.1185314918
H -1.7314712971 -0.3157613506 -2.5074672658
H -1.147875592 2.6726932754 -1.7726990488
H -2.7822090981 1.9452870014 -2.1537649411
H -2.2534380016 0.7124725463 3.3743821544
H -3.7986900457 0.1430106565 2.5785891785
H -1.0731003869 -1.3979866465 2.5231493758
H -2.6463560902 -1.9379057853 1.7519016891

