# b3lyp 6-31G(2df,p) opt Freq 

 titel

0 1
C 1.5167196237 -0.0695363193 0.1212426051
C 0.0620984869 -0.0734637682 0.0685427034
C -1.1418621322 -0.0978782412 0.0261334933
C -2.6060826597 -0.0648399751 -0.0072156657
O -3.1727948685 0.1293396097 1.2879170159
C -3.1169840008 0.9927844571 -0.992464625
C -4.6241241968 0.902562652 -1.3053644481
O -4.3600156959 0.4575161429 -2.6538789703
C -2.9408620415 0.654371947 -2.4879777235
H 1.8741398101 -0.2128338799 1.1467814795
H 1.9352803142 -0.8762412709 -0.490288259
H 1.9292973259 0.8761131417 -0.246717684
H -2.9850195741 -1.0433674032 -0.3307893324
H -2.7013290125 0.8616502296 1.7003319619
H -2.7546183024 1.9783258053 -0.689477561
H -5.187997114 0.164757842 -0.723113641
H -5.1627958193 1.8584043042 -1.2885952375
H -2.365088308 -0.2526313009 -2.7107924436
H -2.563101975 1.4753675073 -3.1104320079

