# b3lyp 6-31G(2df,p) opt Freq 

 titel

0 1
C -0.1551423174 -0.0442796753 -0.0381590707
C 1.3377964797 0.0501053715 0.0594181331
O 2.0139572263 -1.0644021905 0.7002278762
C 3.2163522514 -0.5077984076 0.0880190999
C 3.4048830868 0.7570596325 0.9491115481
C 2.0063930315 1.3512170723 0.636278887
O 2.0908219229 2.2303082275 -0.4830021138
C 2.5552033147 1.4262723497 -1.5852275177
C 2.3500950792 -0.0067841544 -1.1139107857
H -0.59784463 -0.1155061177 0.9611035431
H -0.5531431148 0.8510482084 -0.525353628
H -0.4617284702 -0.9239748358 -0.6110835205
H 4.0331484571 -1.2212362461 -0.0177127646
H 3.5435216562 0.4791449465 1.9958237465
H 4.2061895304 1.4314456396 0.637533235
H 1.4922244116 1.8724084757 1.442803336
H 1.9534800019 1.6667055157 -2.4686342786
H 3.6041783369 1.6595073772 -1.8161560131
H 2.1576598859 -0.7635289493 -1.872668242

