# b3lyp 6-31G(2df,p) opt Freq 

 titel

0 1
C 0.0396732747 -0.1295843601 -0.1713723085
C 1.2997874039 0.3666273616 0.5051896633
C 2.2138336697 1.3010995025 -0.314463616
C 3.1622449995 1.7209316923 0.8193143275
O 3.9954808786 0.5839693825 1.1212050671
C 3.2484448487 -0.524711475 1.5794705054
O 2.097941754 -0.8070408186 0.8091523408
C 2.1702195529 1.9883036028 1.9514720996
C 1.1066230971 1.2033016182 1.7752570324
H -0.5265536665 -0.781498049 0.5007396978
H -0.5950970048 0.7138765348 -0.4592072323
H 0.290173672 -0.7018843519 -1.0689609693
H 2.7290561768 0.7753290121 -1.1206978279
H 1.6586432689 2.1563003554 -0.7101438009
H 3.8478299921 2.5382839167 0.5929806183
H 3.9015225915 -1.3967165393 1.4987975143
H 2.9629546856 -0.370337018 2.6302906688
H 2.3734365956 2.6315356084 2.7989307419
H 0.2656931395 1.0791602346 2.4476856577

