# b3lyp 6-31G(2df,p) opt Freq 

 titel

0 1
C -1.2598921019 -3.4413578729 -1.237013984
C -1.2102001092 -1.9199557629 -1.3129465282
C -2.5967406569 -1.2038431011 -1.2791130259
C -2.2901834892 -0.6815660437 0.1554846964
O -2.2472438449 0.7320317314 0.3356070836
C -0.9944786337 1.2315931342 -0.0882070996
C -0.0191964279 0.0469032879 -0.1283215001
O 1.1701100575 0.1237802374 -0.2921194495
C -0.8472903337 -1.218426421 0.0432163186
H -1.8902709806 -3.7791106186 -0.4063870062
H -1.6729348112 -3.8614198977 -2.1605133447
H -0.2598706853 -3.8631487503 -1.0921502028
H -0.5646050871 -1.6174690146 -2.1427608615
H -2.7068370618 -0.3926476814 -2.0029416756
H -3.4638688787 -1.8638266765 -1.3638792165
H -2.9296727465 -1.0865591615 0.9413172994
H -1.0429492398 1.6864169417 -1.0910759172
H -0.6475821285 2.0009350393 0.6093845519
H -0.4318982208 -1.8548780096 0.8269660219

