# b3lyp 6-31G(2df,p) opt Freq 

 titel

0 1
C 1.0388188691 -0.6336903481 -0.8218222687
C 1.0527180041 0.0985085849 0.5314539611
C 1.7856861575 1.4035709696 0.4756535566
C 2.9065342876 1.785108501 1.1131913722
C 3.3086954835 3.2181698179 0.8569249665
C 2.3821651251 3.6401680168 -0.2955558464
O 1.8486193656 4.933444406 -0.1701562105
C 1.2847872109 2.5682113066 -0.2890509626
O 0.1908211367 2.7300318962 -0.7893990834
H 0.4780690514 -1.5699079765 -0.7471633417
H 0.5658395642 -0.0149978755 -1.5891575175
H 2.0551337077 -0.871526845 -1.1515101378
H 0.0169245047 0.2987820537 0.8324900485
H 1.4942927144 -0.540886785 1.3034338368
H 3.4757345483 1.144741605 1.7807687419
H 3.1092794303 3.8475350114 1.7326969199
H 4.3738865342 3.3189192753 0.625342133
H 2.9277364427 3.5280047255 -1.2498936916
H 0.9650000222 4.8873491401 -0.5637856964

