# b3lyp 6-31G(2df,p) opt Freq 

 titel

0 1
C 0.0133154309 0.0995544076 0.3645612104
C 1.2955250144 -0.5276183836 -0.1508798075
O 2.2151452098 -0.766755746 0.9205132595
C 1.2329369761 -1.6513181485 -1.2125700352
C 1.0874876525 -0.6296984413 -2.3889739393
C 2.2756905123 -1.23717072 -3.172823147
C 2.6961812838 -1.305725375 -1.7045905281
O 3.882971686 -1.8048727745 -1.2312188965
C 2.0259505377 0.0827385084 -1.358051997
H -0.504909661 -0.579627646 1.0538471855
H 0.2295788192 1.0267575653 0.9045016058
H -0.6756953302 0.3254144435 -0.4540019061
H 1.7601848319 -1.2760852472 1.6000441661
H 0.7784870237 -2.6425825203 -1.1554341677
H 0.1528805993 -0.2335450706 -2.7778658741
H 2.0946112083 -2.1907768937 -3.6785226403
H 2.8413360911 -0.5547942144 -3.8150404748
H 3.8562974236 -1.6702348577 -0.2730604056
H 2.4765781608 1.071040334 -1.4610528383

