# b3lyp 6-31G(2df,p) opt Freq 

 titel

0 1
O 2.6286508466 -0.8372188361 -1.6386921694
C 2.0094680302 0.2632930191 -0.9869841034
C 1.1192654556 0.960583867 -1.9796809574
C -0.0992742583 1.7016357882 -1.485146194
C -0.6083057797 2.8421296335 -2.3416524089
C -0.8692234732 2.2294456628 -3.7299911543
O -1.0544413281 2.8519913293 -4.7418604072
C -0.8592554936 0.6953729324 -3.6120261936
C -0.2512710577 0.3966234782 -2.2579616963
H 3.273045138 -1.2189210037 -1.0350921928
H 1.4057252951 -0.0706631239 -0.1263745272
H 2.7619451308 0.9694626578 -0.6010983174
H 1.6557627096 1.3915857474 -2.8238020545
H -0.2822904001 1.7293664593 -0.4166652986
H -1.5612883464 3.2329571946 -1.9618779725
H 0.0720979577 3.6943691009 -2.4334556312
H -1.8982895083 0.3459295969 -3.6723456064
H -0.3260081445 0.2595819169 -4.462361358
H -0.5339765238 -0.5152770806 -1.744912167

