# b3lyp 6-31G(2df,p) opt Freq 

 titel

0 1
C -2.5058166921 -2.4146355862 -1.3692277043
C -2.8508275866 -1.0152668666 -1.0022500732
C -2.1472769246 0.1548995548 -0.9713050253
C -0.7007602808 0.3683110008 -1.3031385438
C 0.1683957786 0.5672480089 -0.059525537
O 1.5004422865 0.788370014 -0.495752028
C -3.0797584131 1.1591754061 -0.5251175917
C -4.260940256 0.5266889349 -0.3257198624
O -4.1423886479 -0.7974397172 -0.6110071756
H -2.6194189141 -3.0952976777 -0.5173768114
H -3.1513667563 -2.7873652774 -2.1725957911
H -1.4701665355 -2.4715599333 -1.7107511044
H -0.3015551049 -0.4811519778 -1.8668749175
H -0.5808202953 1.249999891 -1.943818391
H -0.2111885254 1.4209444914 0.5241511799
H 0.0954109274 -0.324031803 0.5835668048
H 2.0548968248 0.9123247372 0.2798917958
H -2.8814579019 2.21116683 -0.3862367019
H -5.2366789927 0.8512305301 -0.003834712

