# b3lyp 6-31G(2df,p) opt Freq 

 titel

0 1
O 0.2759166884 0.5537639193 0.0266801264
C -0.5843294001 1.0862488226 0.9863544363
C -1.0637191822 0.1607935519 2.1110227155
C -1.894873567 1.1717783578 2.9377795389
C -1.6877602232 2.4285654336 2.0841107524
O -2.3488060218 3.5942638721 2.4697355406
C -1.7555002716 2.0579039534 0.5784195572
C -0.6980584686 3.1497985077 0.2730055963
C -0.1978689408 2.4700567902 1.573566511
H -0.1700715848 -0.186117754 -0.399212721
H -1.6663460487 -0.6702916412 1.7268059415
H -0.2209420053 -0.266373021 2.662521774
H -2.954495191 0.9096521122 3.0111716861
H -1.5124776288 1.3028044438 3.9566458732
H -2.0646006259 3.819737287 3.3619820663
H -2.6581379422 1.8051820092 0.0172271362
H -0.0848950679 2.99276834 -0.6147451214
H -1.0359011054 4.1821295245 0.3672987742
H 0.695623907 2.6937041708 2.1611145462

