# b3lyp 6-31G(2df,p) opt Freq 

 titel

0 1
O 0.1380623792 -1.3576733636 -0.0556642945
C 0.3467274696 -0.1733559134 0.0056110386
C -0.0602262062 0.7219359317 1.1536526726
C -0.9003617981 1.9036386345 0.6703631476
C -1.4755727882 2.961796934 1.6788643021
C -1.5163023905 3.9390393471 0.4611132879
C -0.206694256 3.1895316835 0.1299673677
O 0.678240489 3.5642686664 1.2000642894
C -0.1900176441 3.4499947402 2.3545693651
H 0.8721265553 0.3561808997 -0.8238380768
H -0.5974589483 0.1169506876 1.8907108333
H 0.8601626185 1.1050551252 1.6129478005
H -1.6944610894 1.5729330075 -0.0047083074
H -2.339645311 2.7587560222 2.3101292148
H -2.3311409046 3.7256458968 -0.2317358293
H -1.4365712707 5.0102419189 0.6584142147
H 0.3211995053 3.2563707557 -0.8200067603
H 0.2340358351 2.7430497025 3.0761666846
H -0.302248155 4.4258974034 2.8401955693

