# b3lyp 6-31G(2df,p) opt Freq 

 titel

0 1
C -0.651346521 -2.0885396863 -1.1872938541
C -0.8708037579 -1.1353467651 -0.015552866
C 0.1263171601 0.0598574373 -0.0422161714
O 1.3220531877 0.1057591984 -0.1414565754
C -0.9518718446 1.0903229184 -0.1910589672
C -0.8617453814 2.3738393768 -0.9645014521
C -1.9850023015 0.874708334 0.9278402592
C -1.978291647 -0.0764944726 -0.2128330874
O -3.0116226865 -0.1957641549 -1.119668189
H -1.4603596617 -2.8223011258 -1.2504761278
H -0.6163145702 -1.5481323691 -2.1380686008
H 0.2945049393 -2.6225918949 -1.064089698
H -0.9222047093 -1.6885019685 0.9302320966
H -0.2799302585 2.2355381037 -1.8806361334
H -1.8593864149 2.7264561089 -1.244257202
H -0.3768365031 3.1599103393 -0.3763959083
H -1.6825751661 0.5683279973 1.9261581057
H -2.7714467457 1.6239100751 0.9032990197
H -3.7835127778 -0.5487438019 -0.6634699584

