# b3lyp 6-31G(2df,p) opt Freq 

 titel

0 1
C -0.7203817328 2.413017543 -0.4857042329
C -1.078198901 1.0150696304 -0.0522828788
C -1.6095690157 -0.0927021218 -1.0310712154
C -1.1198418987 -1.0998074226 0.0918074889
O -0.8615472838 -2.4401813083 -0.1067770982
C -2.0712590182 -0.7493179197 1.2473593493
C -2.0372683912 0.8137630304 1.1506485421
C -0.012497368 -0.0530272285 0.2527523474
O 1.1855329328 -0.1057880497 0.2808409186
H -0.2718012708 2.9710202218 0.3432633785
H 0.0034269988 2.3999899653 -1.3062887812
H -1.6051239169 2.9656686808 -0.8195698591
H -2.6841798824 -0.0882454234 -1.2288029376
H -1.0351892122 -0.1683727515 -1.9566691278
H 0.0452077009 -2.5212711036 -0.4275643505
H -3.0679985088 -1.1651612647 1.0783495858
H -1.7006815921 -1.1316231793 2.2017187992
H -3.0225753992 1.2400701271 0.9400525563
H -1.6554484908 1.2844377642 2.0610824254

