# b3lyp 6-31G(2df,p) opt Freq 

 titel

0 1
C -1.0426184899 -0.92476839 0.4578409986
C -0.2953011949 -0.2020841086 1.5791541979
C -0.9563449472 0.8698522632 2.4309288569
O -1.5313910077 1.9218666233 1.6638510289
C -0.6014685079 2.5172342486 0.7684860147
C -0.3278774802 1.5494585367 -0.3806361135
C 1.0891936354 1.3965084732 -0.9821396656
O 1.1648422977 0.0088435787 -0.5596700518
C -0.0651492956 0.1466479754 0.1410434243
H -0.7441842524 -1.9515090636 0.2740707117
H -2.0969201734 -0.7155416891 0.2984578394
H 0.473489357 -0.7854690575 2.0766189642
H -1.7774746318 0.4651189875 3.0321716398
H -0.2048151713 1.2884839028 3.1217973009
H -1.0558447421 3.4524498024 0.4302191406
H 0.3349670624 2.7619042044 1.2974372077
H -1.1177146282 1.5992288674 -1.1341012911
H 1.1742147992 1.4917399394 -2.0689661754
H 1.863894681 2.0068034257 -0.5001906683

