# b3lyp 6-31G(2df,p) opt Freq 

 titel

0 1
O -1.1395401652 -2.5323309494 0.2756668653
C -1.1024645807 -1.2447588029 -0.2574057017
C -2.168049602 -0.1611039249 0.1362469952
C -1.0381861488 0.9278504014 0.1884368846
C -1.0312906155 1.9782828172 1.2607668329
C -0.2171416948 3.2366589607 1.0917407856
C -1.7217203845 3.3037879316 1.0404576327
C -0.0825995198 -0.2697902954 0.3335878974
O 0.8854302453 -0.4831441199 1.0117366698
H -0.4843698177 -2.5607517214 0.9850089556
H -1.0254044052 -1.297159975 -1.3515465155
H -2.9824879387 0.0009540108 -0.569639201
H -2.5699870356 -0.3633935269 1.132127865
H -0.9199432547 1.3843979774 -0.8016997188
H -1.0768091771 1.5765103555 2.2693859977
H 0.2904732907 3.635796868 1.9622532762
H 0.3304234684 3.3644452766 0.1638284447
H -2.2484998808 3.7511596308 1.8758502393
H -2.1911449631 3.4768817357 0.0775157549

