# b3lyp 6-31G(2df,p) opt Freq 

 titel

0 1
O 0.0774585616 -2.4391470434 0.2614579834
C -0.8516353233 -1.4035572984 0.098677138
C -1.6271454697 -1.598552309 -1.2358759899
C -2.8670661756 -0.7576074235 -1.3892737413
C -2.9056611835 0.5751358363 -1.3679556309
C -1.7102102037 1.4775580742 -1.1845927159
C -0.9163607812 1.2330996096 0.1264293941
C -0.1249937209 -0.0565952923 0.1236227393
O 1.0904794469 -0.0577173929 0.1270921039
H 0.9457775287 -2.0031038541 0.2382492734
H -1.5807060852 -1.4186575138 0.923407517
H -0.9232712596 -1.4219943873 -2.0607618957
H -1.8819834871 -2.660193173 -1.2745621276
H -3.8016622927 -1.2973107203 -1.5192729333
H -3.8671367831 1.068285088 -1.4864347872
H -1.019314792 1.3815829736 -2.0333524
H -2.0387530096 2.5204864324 -1.1801549083
H -0.1989849572 2.0427583096 0.2831690201
H -1.6197393628 1.2212809845 0.967010211

