# b3lyp 6-31G(2df,p) opt Freq 

 titel

0 1
C 1.1191885604 -0.5776428021 0.226077485
O -0.109811951 -0.4517531932 0.9002136585
C -0.4732394191 0.89289479 1.1239147537
C -1.8053747793 0.8948441518 1.8579504192
C -2.3063213499 2.2870526077 2.1701191682
O -1.6679670922 3.283980571 1.9299543075
C -3.7211250649 2.417452193 2.7751636048
C -4.1262300935 1.3536218259 3.6805701408
C -4.4508393971 0.4746869399 4.4331581366
H 1.9471545995 -0.1290263223 0.7977015064
H 1.3153930857 -1.645070282 0.0990446138
H 1.0922188603 -0.1001124151 -0.7663931931
H 0.2906785614 1.4150138636 1.7205329301
H -0.55882148 1.440759176 0.1718480351
H -2.5676849367 0.3598921171 1.2766068205
H -1.7253759767 0.3356514146 2.7980458415
H -3.7705184351 3.3976806763 3.2591764441
H -4.4129750037 2.4591072271 1.9206490446
H -4.7402786481 -0.3007584394 5.0985273828

