# b3lyp 6-31G(2df,p) opt Freq 

 titel

0 1
C 1.6554091236 1.3780962922 0.1787107031
C 1.3296083036 -0.0840208954 -0.0810307236
C 1.698763408 -1.1439905817 1.0074321427
C 2.4686754256 -1.9825228105 -0.0426261953
C 3.9420736591 -1.5841982027 -0.2380459271
O 3.6016567075 -0.4655969007 -1.0845159022
C 2.2133854513 -0.8393302928 -1.1042437465
C 2.0576754053 -3.3931263021 -0.2901859757
O 1.1220224494 -3.9412101315 0.2393815115
H 1.0972588027 1.7508912705 1.0437769031
H 2.7237229167 1.5052156255 0.3738681929
H 1.3963700382 2.0028262059 -0.6828572569
H 0.278981706 -0.1963240901 -0.3708071388
H 2.3267741104 -0.7706049945 1.8212147886
H 0.8483526746 -1.6806703692 1.4299905125
H 4.4846821463 -1.2807931403 0.6646737766
H 4.5362384703 -2.3286457689 -0.786779071
H 1.8410291328 -0.9962679452 -2.1210121265
H 2.6762957686 -3.9247324084 -1.0508047774

