# b3lyp 6-31G(2df,p) opt Freq 

 titel

0 1
C -3.1413191157 -1.864424235 2.3145925484
C -1.9618180803 -2.0689912848 1.3749623224
C -2.3044776599 -2.4649856267 0.0364324934
C -2.6130973859 -2.8121482108 -1.0744637491
C -0.6530784452 -2.6307198388 1.9549350852
O -0.5685616666 -2.9219428088 3.3151500947
C -0.7159224341 -1.1901051811 1.5866538513
C 0.1038268121 -0.6466651482 0.4379350277
O 1.4924777802 -0.5915306754 0.7323769509
H -2.7890469927 -1.7015885506 3.3353351768
H -3.7409139308 -1.0030984089 2.0053800776
H -3.7934109797 -2.7437388256 2.3112019619
H -2.8822214836 -3.114851767 -2.0558260151
H -0.0818035862 -3.285245389 1.2981668558
H -0.9183335826 -3.8086360846 3.4557664671
H -0.8157815588 -0.5220758285 2.4403613339
H 0.0083300717 -1.3021609727 -0.4315335015
H -0.2823504525 0.3407132796 0.1403538531
H 1.6109016205 -0.027455983 1.5032420655

