# b3lyp 6-31G(2df,p) opt Freq 

 titel

0 1
C 1.1603133536 0.9354417789 -1.1639154553
O 0.3807907651 -0.1726725306 -0.6639284093
C 0.5843544326 0.2439541456 0.6974421766
C 1.2773557788 1.5649748976 0.2444688544
C 2.6833885696 1.8249605506 0.8285292479
C 3.1572609109 0.5872508291 1.5914231233
C 2.1317062817 0.1289767337 2.6525642308
C 1.555916703 -0.6488197044 1.4528299034
O 2.8516636356 -0.592571704 0.7910306108
H 2.113015466 0.5991912064 -1.588594786
H 0.6066839857 1.5165502211 -1.9111386881
H -0.363886563 0.3367000874 1.2439403565
H 0.6340075597 2.4390698487 0.3538803889
H 3.3876185113 2.0512822387 0.0196372931
H 2.6827901306 2.6907090834 1.5011693852
H 4.2125871642 0.6330340871 1.8728827303
H 2.5725427905 -0.525394135 3.4054797667
H 1.5039524502 0.887213128 3.1285945645
H 1.198157454 -1.6746813222 1.5730697563

