# b3lyp 6-31G(2df,p) opt Freq 

 titel

0 1
O 0.4549069689 -0.2023858885 0.2335395843
C -0.5514173128 0.615832516 0.7570175741
C -1.4794988128 0.143082651 1.8428409822
C -2.872353034 0.7710793889 1.8793977085
C -2.6612682115 2.2271760489 2.3250968115
O -2.7780482147 2.3892861708 3.7594837236
C -1.4179809196 2.8541214175 3.869996138
C -1.1363994701 2.5406671044 2.3869301363
C -0.4310777221 1.2253840289 2.1263546486
H 0.8047589785 -0.7518408787 0.9420896514
H -0.9701518727 1.2208782302 -0.0440406758
H -1.343294617 -0.8668516494 2.2171907788
H -3.3666324255 0.7225348785 0.9018035679
H -3.523712376 0.2727711294 2.6031497933
H -3.3025690167 2.942991886 1.7979581089
H -1.3729513687 3.9200035332 4.1292419693
H -0.8431942222 2.2810814525 4.6079465585
H -0.7619075136 3.3718726422 1.7850312249
H 0.4623963324 0.9917234081 2.6998416159

