# b3lyp 6-31G(2df,p) opt Freq 

 titel

0 1
C 0.3198914529 -0.3242450596 -0.7563865887
C 0.769578105 0.1338052629 0.6199851923
O 1.1659030031 1.5183557412 0.5512522557
C 2.2997376613 1.6763515704 1.3646964958
C 3.5105224012 0.8161441788 1.0461670537
O 3.1083066918 -0.2767560874 0.2248693364
C 2.0182509308 -0.5678603117 1.1754031334
C 1.9288719909 -2.030049028 1.5193178231
C 2.5918011813 0.457981952 2.1887274342
H -0.0846793587 -1.3406320039 -0.7132011244
H -0.4647263146 0.3371603867 -1.1326686013
H 1.1648524191 -0.3011870516 -1.4477988007
H -0.0543029493 0.0336243049 1.3471664953
H 2.431601402 2.6789587616 1.7538467976
H 4.5438698892 1.1413330002 1.0013823759
H 1.14067191 -2.2042391057 2.259398577
H 1.7006636809 -2.6200645653 0.6263862495
H 2.8780507125 -2.384164132 1.9288241163
H 2.7116982307 0.3579401465 3.2591394588

