# b3lyp 6-31G(2df,p) opt Freq 

 titel

0 1
O 1.2959324691 -0.7793458334 0.0305875736
C 0.3017913748 -0.0963006822 -0.0659993697
C 0.2731009572 1.3770914 0.0605778966
C -0.9135238972 1.9763600085 -0.1215082886
C -1.2067096071 3.4468251464 -0.0027297989
O -0.2809779188 4.1583237131 0.7846038732
C 0.9153133156 4.5504290705 0.1313671698
C 1.7183386831 3.3881578229 -0.4764759446
C 1.5838928229 2.0824541995 0.3234411376
H -0.6921649312 -0.5561614994 -0.2674382758
H -1.775190626 1.352372313 -0.3613498222
H -1.3107969068 3.8938969906 -1.0086810071
H -2.1814965715 3.5696699554 0.486201758
H 0.6981114887 5.3057893676 -0.6413930178
H 1.5001602901 5.0394244967 0.9167402372
H 1.4015497696 3.2022843979 -1.5092766397
H 2.7694736318 3.6944756625 -0.529551897
H 2.3844201237 1.3860849959 0.0588754714
H 1.693911052 2.2829230345 1.3963926439

