# b3lyp 6-31G(2df,p) opt Freq 

 titel

0 1
C 1.3794632917 -0.5642845653 5.1308056699
C 2.176148033 0.0856406618 3.9795616091
C 2.9755067406 1.2631233563 4.5166590667
O 4.1680269616 1.2563753586 4.683369031
C 1.2484825673 0.5396630684 2.8869607718
C 0.8216970938 -0.2356032654 1.6784967722
C 1.4220371404 1.1487031501 1.5089677621
C 0.4081231935 2.1818041556 1.9793346926
O 0.2271985602 1.4866843006 3.2467867619
H 0.8145536366 -1.4238364576 4.7590560139
H 2.0525358057 -0.9050297856 5.9220277305
H 0.6677777209 0.1481291679 5.5575928731
H 2.8927289639 -0.6326801218 3.568702515
H 2.3583570963 2.1546476855 4.7661822325
H 1.4776820262 -1.0490424207 1.3842949549
H -0.2368318926 -0.4038448915 1.4971731461
H 2.3126333272 1.3418879842 0.9267482277
H 0.8339593529 3.1770914936 2.1470928007
H -0.5302548793 2.2680512953 1.4194880282

