# b3lyp 6-31G(2df,p) opt Freq 

 titel

0 1
C 0.2631026108 0.2088000309 -0.439225252
C 1.0384583538 -0.424872499 0.6993412816
O 2.4636391584 -0.488738401 0.405009509
C 2.4516250247 -1.9267722054 0.377711821
C 0.9566538878 -1.9590044131 0.829930679
C 1.3857643669 -2.4989686999 2.2266301704
C 2.8331704817 -2.5728865407 1.7104254143
C 3.8394959271 -3.6098688715 1.9547699005
O 3.9940457024 -2.2738803222 2.4511851538
H -0.806561047 0.2407476311 -0.2034573917
H 0.6098693446 1.2330159439 -0.6072512471
H 0.3991353065 -0.354869563 -1.367664374
H 0.8601462208 0.1207654851 1.6358271493
H 2.8721701228 -2.3322333356 -0.5470292912
H 0.1622216119 -2.4799535931 0.2984615015
H 1.2311897316 -1.7963016338 3.0502526333
H 0.9553479933 -3.4647625524 2.5023434577
H 3.6521397068 -4.3722254309 2.7103806885
H 4.5312534649 -3.8961753594 1.1631523963

