# b3lyp 6-31G(2df,p) opt Freq 

 titel

0 1
C -0.0368116923 -0.1732894978 -0.0283285855
C 1.4832745732 -0.0112028687 0.1532286544
C 1.9301492493 1.3746387242 0.0642472406
C 2.2799666751 2.5247242802 -0.0040742328
C 2.7097133301 3.9091978452 -0.1352295366
C 1.8780505342 4.7049181181 -1.1436605977
O 2.5897667452 4.5325763477 1.1835764222
C 3.4711246052 5.5001151428 1.4623258889
O 4.3369048924 5.9132515205 0.7387215264
H -0.5809752343 0.3859968963 0.7373237948
H -0.3534567237 0.1982082083 -1.0066308695
H -0.3187261663 -1.2275013998 0.0481155372
H 1.7848681575 -0.4229326017 1.124797577
H 2.011037791 -0.6080369481 -0.6016741172
H 3.7660602207 3.9586370788 -0.4162008119
H 0.8308108829 4.7330667084 -0.8331897231
H 2.2646906415 5.7237116195 -1.2206958438
H 1.9385486384 4.2301083816 -2.1263839422
H 3.2757934302 5.8661650947 2.4825328086

