# b3lyp 6-31G(2df,p) opt Freq 

 titel

0 1
C 0.7130556882 0.1417796264 -0.9287236844
O 0.0688993999 0.1929915788 0.3449930703
C 1.4943507212 0.318136098 0.3039023996
C 2.2799309661 -0.7879318234 0.923980775
C 1.910106802 -2.3017686413 0.7839108606
C 2.8739410911 -2.3928939325 1.9902716192
C 2.2912914148 -1.0456966162 2.4724116614
O 4.1459871123 -2.0220843415 1.4286153831
C 3.7918497387 -0.8631964247 0.6440405893
H 0.6980521706 -0.8302791478 -1.4189333621
H 0.532559104 0.9952134307 -1.5808309303
H 1.8507509609 1.3249075469 0.5334667533
H 0.8661709884 -2.4938205902 1.0335702854
H 2.2072838053 -2.8265296414 -0.1275933992
H 2.9917788809 -3.2740064328 2.61788851
H 1.2829227936 -1.1193509778 2.8815299938
H 2.9318431107 -0.4198321573 3.0986232453
H 4.3441717131 0.0170159946 0.9955171942
H 4.0278763581 -1.0334936185 -0.4133825344

