# b3lyp 6-31G(2df,p) opt Freq 

 titel

0 1
C -3.2570588606 -1.5338922669 -0.6568287091
C -2.1950726133 -0.7406747077 0.0765024865
C -2.2894800383 0.7859734839 -0.0848620334
C -0.8858038626 1.3166209865 0.2480900089
C 0.0644717233 0.1902658192 -0.1753130251
O 1.209976885 0.3170285399 -0.5233387937
C -0.6995101302 -1.1281375349 -0.0951033015
C -0.8256669282 -1.6574862758 1.352867008
O -2.1451914238 -1.1017960696 1.4921062903
H -4.2521038419 -1.256187435 -0.2932755729
H -3.2181454671 -1.3381985619 -1.7334476866
H -3.1248814753 -2.6072592053 -0.4934637234
H -2.5504915394 1.0240934909 -1.1227428375
H -3.0741869767 1.1917278811 0.5593060746
H -0.6171368556 2.2572386349 -0.2353851496
H -0.7724448698 1.4565881188 1.3305072353
H -0.3939365208 -1.8388570107 -0.8620295062
H -0.8280467432 -2.7525296437 1.4218202026
H -0.1210597915 -1.2563338836 2.0907094428

