# b3lyp 6-31G(2df,p) opt Freq 

 titel

0 1
C 3.9879325137 1.5516979866 0.1945093865
C 2.5268535357 1.4143872878 -0.1856277482
O 1.8449963982 2.3767941994 -0.4733777144
C 1.9873481165 0.0186406571 -0.1887659246
C 0.7584090244 -0.2983857915 -0.9865867937
C 0.6400240927 -0.2917382488 0.518750745
C -0.1601564422 0.7781754222 1.2307667486
C 0.6197868054 -1.6464763817 1.1533662957
O 1.2267976302 -2.60835939 0.7475080997
H 4.165383461 1.1166791254 1.1847154495
H 4.6141473792 0.9937735388 -0.5113799589
H 4.2770274231 2.6029508951 0.1915966708
H 2.7133404467 -0.7801602523 -0.0831665524
H 0.3030137246 0.5371467958 -1.5068001897
H 0.7268646161 -1.2625277404 -1.4806189754
H 0.1701664629 0.8977713784 2.2687078221
H -0.0592837842 1.740083066 0.7287017886
H -1.221515123 0.5068219189 1.2481930852
H -0.0221238613 -1.7172411568 2.0596678556

