# b3lyp 6-31G(2df,p) opt Freq 

 titel

0 1
O 1.6338636687 -1.6352752034 -3.2179805181
C 0.448043903 -1.1938331498 -2.6284320031
C -0.8507808813 -1.8950226472 -3.0943258442
C -1.3532684876 -1.8892813625 -1.6167179131
C 0.1035315025 -1.6648312739 -1.2032433565
C 0.9538554493 -2.582337058 -0.4258127707
C 0.7111598396 -1.1606980095 0.1047419901
C 1.8207145202 -0.196184981 0.0122105107
O 2.6272143624 -0.1480736268 -0.8971763526
H 2.3432171403 -1.1823095583 -2.7389185158
H 0.3420988899 -0.1007060796 -2.6995966582
H -1.4591285412 -1.3847608051 -3.8427603766
H -0.6219681694 -2.9075568421 -3.4345662085
H -1.9938145379 -1.0298852871 -1.3983552764
H -1.8384361982 -2.7953326273 -1.2473607695
H 0.493050593 -3.3869172495 0.1378290678
H 1.9503720379 -2.7828725124 -0.8061334718
H 0.0589205411 -1.0523319386 0.9652447961
H 1.8928832176 0.5288955321 0.8505937904

