# b3lyp 6-31G(2df,p) opt Freq 

 titel

0 1
C 0.2447857214 0.6365550027 0.3663038261
C 1.5588684949 0.0340054332 -0.0387577538
O 1.7402974264 -0.3279604073 -1.4180773182
C 2.5979096715 0.6817746164 -0.8565242867
C 3.9847514314 0.154235679 -0.5339695363
C 3.7535575192 -0.9315034972 0.5422536051
C 3.8588989444 -0.4811316583 2.0183004821
O 2.4268171246 -0.5370427465 2.2009509915
C 2.2329573091 -0.9994915042 0.8452258063
H 0.3205911594 1.0407513901 1.3798058608
H -0.048401034 1.4355377094 -0.3191055444
H -0.5440346925 -0.1237804866 0.3626815162
H 2.46734436 1.6773271355 -1.275386001
H 4.4545554237 -0.2517605509 -1.4353274371
H 4.6314544966 0.9582122628 -0.1641796223
H 4.2515255969 -1.8742014453 0.3195585778
H 4.3762030777 -1.1801710188 2.6864361488
H 4.2561420608 0.5288249324 2.1831228089
H 1.7309047786 -1.9735241765 0.8132768963

