# b3lyp 6-31G(2df,p) opt Freq 

 titel

0 1
C -0.0047164737 1.4514901867 0.0132661528
C 1.3393182204 0.7330287059 -0.0269353441
O 2.1306002034 0.5074857922 -1.1561158186
C 2.3758878429 -0.9121925929 -1.2427673434
C 1.090712555 -1.7597992379 -0.9776065429
C 0.7775275435 -2.0470481171 0.5302829594
O -0.1064801927 -0.9899386354 0.9881996498
C 0.0580790333 -0.0387541811 -0.0353894664
C -0.0863092962 -0.8315095808 -1.3220380804
H -0.2122763773 1.9546244168 0.9513457869
H -0.3986500958 1.9498728525 -0.8663385426
H 1.8863667205 0.7576358185 0.9165497441
H 2.738230728 -1.0814360334 -2.2610634175
H 3.1773271548 -1.192592575 -0.5419299427
H 1.1508377893 -2.6906914903 -1.5467237031
H 0.2545211425 -2.9990790436 0.6620777255
H 1.6890392531 -2.0593556243 1.142019341
H 0.0669734414 -0.2561879798 -2.2339954379
H -1.0505340924 -1.344486211 -1.3569303299

