# b3lyp 6-31G(2df,p) opt Freq 

 titel

0 1
C 0.8955154102 -1.0831321486 -3.5078823864
C 0.5785630623 -1.3413495807 -2.0622323413
C 0.793814035 -2.6786313409 -1.4012697424
C -0.5896951907 -2.088994948 -1.4089194723
C -0.6842984228 -1.0372385277 -0.2956643455
O -1.8944850005 -0.3414007984 -0.1808109947
C 0.4882512435 -0.2267604349 -0.9942803031
C 1.7141211563 0.1230710922 -0.198002954
O 2.0701875456 1.2486525034 0.0508627945
H 0.7039013705 -1.9733445834 -4.115884072
H 0.2901171478 -0.2634541015 -3.9111635254
H 1.9494438193 -0.8119388997 -3.641585922
H 0.9509582025 -3.5034568031 -2.0893232251
H 1.3405907289 -2.7813803028 -0.4671098055
H -1.4391736841 -2.5928267803 -1.8562341525
H -0.4625263771 -1.4076676914 0.7105356135
H -2.1486861897 -0.0261164961 -1.055498984
H 0.069750034 0.6983499354 -1.4017254417
H 2.298453179 -0.7495909737 0.1741749398

