# b3lyp 6-31G(2df,p) opt Freq 

 titel

0 1
C -1.2893102189 3.4704527529 2.9460681142
C -1.6089874616 2.9664640519 1.5771102761
C -2.9405490903 3.053327066 0.808887
C -2.5224257624 1.766144484 0.0172764092
C -1.2145907134 1.7525257557 0.827107557
C -0.3289579163 0.5877286291 1.1608753019
C 0.4903705926 0.1376128565 -0.0384766693
O 0.5628937903 -0.9998312018 -0.4241878269
O -0.5740660144 3.0196239052 0.5770430704
H -2.0549088145 3.1584835204 3.6635792013
H -0.3183900792 3.0959202326 3.2817859557
H -1.2479742019 4.5655971294 2.9530022332
H -3.8168413285 2.8916712503 1.4415012583
H -3.0734957469 3.9679127404 0.2263808936
H -3.170421998 0.9122585313 0.2294848395
H -2.3973019635 1.8688944453 -1.0631787494
H 0.3793225188 0.8987310757 1.940792678
H -0.9070295541 -0.2644461302 1.5298186583
H 1.0394342821 0.9603997952 -0.546657761

