# b3lyp 6-31G(2df,p) opt Freq 

 titel

0 1
C -2.9177801041 2.6093095453 0.5935238559
C -2.5104616722 1.2203970632 0.9592044831
C -3.1582196916 0.1679648694 1.8479344389
C -3.0988536061 -0.8954422977 0.7537470276
C -1.9641757153 -0.0324753933 0.1417762351
C -0.7985571959 -0.1405292878 1.1757745413
O 0.3812656291 0.5444876473 0.8211186404
C -1.7162296127 0.6470322593 2.1076460826
O -1.360350073 1.3417921593 3.2460206503
H -3.1802505514 3.1765403498 1.4927441473
H -2.1099755942 3.1497239006 0.0858890275
H -3.7876447834 2.6150043697 -0.073209565
H -3.9176433715 0.337633604 2.6028433403
H -2.8490831084 -1.9272120705 1.0296863667
H -4.0030144774 -0.8940919033 0.1378395932
H -1.7236237122 -0.0485329627 -0.9192980386
H -0.4920696949 -1.1561914742 1.4551015423
H 0.2163771583 1.4889021344 0.9207020532
H -1.3438640431 0.729379787 3.9904354079

