# b3lyp 6-31G(2df,p) opt Freq 

 titel

0 1
C -1.1717560527 -2.418455575 -0.0950028184
C -1.2025602579 -0.9169638631 -0.0947699629
C -2.1570952774 0.0432398737 0.7083472219
C -1.2501320434 1.0409946407 -0.0855342978
C -1.440990999 0.0678889162 -1.3068349871
C -0.4674515041 0.10140362 -2.4734585293
O -0.7200222555 1.189955684 -3.3501176799
C -0.1145190542 0.0915535574 0.3239506001
O 0.9987762266 0.111033462 0.7520371534
H -0.9827631377 -2.8006877663 0.913280959
H -2.1209093899 -2.8381053773 -0.4439358998
H -0.3758413452 -2.7942916574 -0.7459330418
H -3.1987088538 0.0190073213 0.3790240397
H -2.0733585637 0.0414391739 1.7970023596
H -1.2953726689 2.1279293435 -0.0751374328
H -2.4756759653 0.0515527132 -1.6646075949
H 0.5727708269 0.1080358613 -2.1123757748
H -0.5924932163 -0.8003826473 -3.0831418586
H -0.5344479288 2.0030023391 -2.8693884956

