# b3lyp 6-31G(2df,p) opt Freq 

 titel

0 1
C -0.1694921285 0.0333128369 -0.0391426389
C 1.3361920509 0.1568489683 0.0291519871
C 2.2232452921 -0.7780043113 -0.752721458
O 3.4864019536 -0.2771383687 -1.1417426867
C 4.313780182 -0.1522471297 0.0028142114
C 5.1647874773 -1.3879433267 0.3738745337
O 4.3594265625 -1.6441508709 1.5475872856
C 3.5008109811 -0.5149704764 1.2692569699
C 2.1428228761 -0.9186284766 0.7394900867
H -0.6411591647 0.3906463153 0.8827902604
H -0.576259572 0.6145508808 -0.8734413456
H -0.473579849 -1.0092914157 -0.1806516836
H 1.7160332074 1.1732466509 0.1136687876
H 1.8113705153 -1.495001241 -1.4545626872
H 4.8394578431 0.80301489 -0.038149406
H 5.1183012213 -2.2013743657 -0.35891945
H 6.2094056567 -1.1852406044 0.6381038171
H 3.4739226104 0.1869396478 2.1101396202
H 1.6321691944 -1.7442636829 1.222672856

