# b3lyp 6-31G(2df,p) opt Freq 

 titel

0 1
O 0.3757840763 0.1214072536 0.9713963932
C 0.0667296995 -0.2364331666 -0.1372826453
C -0.681256948 0.6040732004 -1.1453594731
C -1.0659172343 2.0094965142 -0.6677807776
C -1.7443172946 2.8364690564 -1.7895547425
O -3.1499633679 2.6158087271 -1.676326742
C -3.4271562963 2.3248992444 -0.3288048243
C -2.883528273 3.2433548661 0.7334705421
C -2.16240045 1.9500289582 0.390954349
H 0.3374387963 -1.2541432304 -0.5029037196
H -0.0438040631 0.6526055689 -2.0414629899
H -1.5689577047 0.0373134351 -1.4629200248
H -0.1674715147 2.5173788709 -0.304508508
H -1.5149251644 3.9041517198 -1.6719405832
H -1.440085341 2.5384862658 -2.7974309571
H -4.3796496867 1.8226336649 -0.210925224
H -2.4504427047 4.194983501 0.4442723358
H -3.4094018644 3.2673493467 1.6818013101
H -2.1193991044 1.1624890436 1.1316196012

