# b3lyp 6-31G(2df,p) opt Freq 

 titel

0 1
C 1.5623786409 -0.2265398164 0.1692898079
O 0.1694667259 -0.0150724817 0.0027091338
C -0.3982515713 0.7270569409 1.0140354575
C -0.7373580454 0.1405003112 2.3583779981
C -1.8496014833 0.6778826234 1.4805022222
C -1.8695316149 2.1948902957 1.5732254588
O -2.3265443827 2.8218694538 0.3629233823
C -0.979022805 2.9356648212 -0.148731022
C -0.3761613305 2.252811003 1.0927223636
H 1.7768789947 -0.7591753151 1.1059590747
H 1.8957457128 -0.8332701562 -0.6752602282
H 2.1205802433 0.7202794217 0.1692570744
H -0.6875096932 -0.9430589783 2.3923569797
H -0.4669634305 0.635568807 3.288837579
H -2.6643408785 0.059095473 1.1261778112
H -2.2686224681 2.6735621122 2.4720859794
H -0.8422191544 2.4059391568 -1.0984002691
H -0.6924946137 3.9869389717 -0.272887015
H 0.4393668837 2.756107856 1.6139569719

