# b3lyp 6-31G(2df,p) opt Freq 

 titel

0 1
C 1.8163582137 1.6784659188 0.3620230999
C 1.2510184145 1.035023629 -0.9103627296
C 2.1040688653 -0.0979026028 -1.4387268487
C 1.9456629783 -1.5015110057 -0.8697465929
C 1.5472009221 -1.2103901566 -2.2876154817
O 2.4778717566 -1.5750609861 -3.288084118
C 3.6135178298 -0.8169639428 -3.193497684
O 4.5512013177 -0.9821578859 -3.9143306851
C 3.4569696698 0.2014443001 -2.0580684669
H 1.9148140791 0.9410597908 1.1653853027
H 2.8068947977 2.1101121334 0.1841867623
H 1.163814932 2.480967323 0.7183410853
H 0.240620254 0.6574049648 -0.7098564142
H 1.1424864541 1.798099575 -1.6926617928
H 2.8251972946 -2.1183054396 -0.7123155398
H 1.1495824763 -1.6515159082 -0.1479695208
H 0.5227274238 -1.2658113256 -2.6341027791
H 4.3091096967 0.1096060612 -1.3789866702
H 3.4954882339 1.2077654073 -2.4900385464

