# b3lyp 6-31G(2df,p) opt Freq 

 titel

0 1
O 0.2135427894 0.1058802475 0.1901370869
C -0.9793539838 0.8326194584 0.3312622734
C -0.831877916 2.3551873832 0.5647922177
C -2.0217629663 2.5880859961 -0.4155265332
C -1.7873094093 1.1555727876 -0.9394577737
C -2.7193002387 0.1599387659 -1.6639169365
C -2.5693333702 0.964292005 -2.9742054793
C -1.17786928 0.8072745432 -2.3210624632
O -1.5029361665 -0.6211677119 -2.0423946171
H -0.0126826437 -0.6476882235 -0.3715515745
H -1.6347416083 0.3876117513 1.0984623674
H -0.9323618974 2.7249438577 1.586426002
H 0.1134427077 2.7055497893 0.1431488778
H -2.9777844572 2.6868624469 0.1070826382
H -1.9311373689 3.4097462927 -1.1294028823
H -3.5720518001 -0.4034132105 -1.2829120819
H -2.7175478374 0.3924228976 -3.8910329615
H -3.0086546418 1.963473081 -3.014112978
H -0.1878879316 1.0236691026 -2.7215235923

