# b3lyp 6-31G(2df,p) opt Freq 

 titel

0 1
C -3.5038358652 1.5291873687 -1.2753326626
C -3.2702795496 0.1662801946 -0.6508345051
C -3.8502984182 -1.0030536885 -1.4242413311
C -3.2601320055 0.0771433607 0.87868796
C -1.9973314837 -0.0537059586 0.0993259226
C -0.9447743151 -1.1503982787 0.0372400427
C 0.0293268061 0.0291432774 0.1156344511
O 1.2025824216 0.2117590703 0.1336628591
O -0.9688582919 0.9741818388 0.1718856383
H -3.0168457266 2.3225834739 -0.7039789429
H -3.1050640557 1.5627608558 -2.295440963
H -4.5757923618 1.7491054298 -1.3281597329
H -3.6385047603 -1.9598207525 -0.9369100147
H -4.9388268334 -0.9075520691 -1.5068306023
H -3.4427734322 -1.0452900846 -2.4408799857
H -3.401987443 0.997750132 1.4352478287
H -3.6665809468 -0.809854596 1.3550623866
H -0.8925962582 -1.8277598532 0.8917682463
H -0.8841652503 -1.7206787909 -0.8918153052

