# b3lyp 6-31G(2df,p) opt Freq 

 titel

0 1
C 1.3910119349 0.4520511598 -0.4669281972
C -0.0089884378 0.1946463602 0.0107106431
C -1.0869485819 0.7988973653 -0.4932269588
C -2.4627716893 0.5325349622 0.0747833669
O -3.4914765232 1.0219005217 -0.7376377074
C -2.6084798958 -0.9765097844 0.2812425191
O -3.6111145526 -1.5393496263 -0.1005786404
C -1.4326076476 -1.6934798988 0.9162609228
C -0.2071316007 -0.7881733258 1.1504166119
H 2.0257103336 0.8190475287 0.3503120709
H 1.8605500239 -0.469876717 -0.8336897193
H 1.4132171244 1.1912438996 -1.2716795185
H -1.0355499631 1.5157320315 -1.3065637706
H -2.5284653989 0.9880587535 1.0847234939
H -4.0989893385 0.2725788935 -0.8516149889
H -1.7762548207 -2.1593832358 1.8467753145
H -1.1767243937 -2.5188173009 0.2425802881
H -0.3315103989 -0.232204012 2.0908683445
H 0.682853876 -1.409930265 1.2875381855

