# b3lyp 6-31G(2df,p) opt Freq 

 titel

0 1
C -3.0023971851 3.4632949403 0.037281491
C -2.0256869406 3.4108275584 -1.1195122601
O -0.8295949921 4.1985785895 -0.8839086823
C 0.0303153725 3.053988806 -1.0341889477
C -1.1789020949 2.1283699515 -1.3029945157
O -1.4549897808 1.1438292238 -0.3407281759
C -0.6401882901 -0.0080188639 -0.4799233823
C -1.0048543337 -0.9967905452 0.525043
C -1.2842995991 -1.8292792013 1.3437075556
H -3.8878633762 2.8578524386 -0.1806098818
H -2.5445229201 3.0874772482 0.9540102341
H -3.3205804746 4.4982321317 0.1955406367
H -2.5140568195 3.734735904 -2.0485622237
H 0.7414101438 3.1759815593 -1.8606945114
H 0.5782496089 2.8215911198 -0.1118048459
H -1.2094248353 1.6961482371 -2.3130762946
H -0.7592642208 -0.4385716991 -1.4888990932
H 0.4253700834 0.2527366409 -0.370811595
H -1.5372339957 -2.5613895895 2.070301462

