# b3lyp 6-31G(2df,p) opt Freq 

 titel

0 1
C -1.271645757 -1.1315134728 -0.223970546
C -0.2554485355 -1.1947166191 -1.3370268311
C -0.2445317048 -0.233460362 -2.5805401019
C 0.6971095715 -1.3313582157 -3.1225821224
C -0.1926609299 -2.3569387158 -2.3881191828
O 1.8554138518 -1.2338547508 -2.2661249979
C 1.2536469901 -1.1463782359 -0.9643815141
C 1.6865363218 0.1224030794 -0.2529973624
O 1.424151796 0.3585324399 0.898995272
H -1.1622002831 -1.9855750427 0.4536604357
H -1.1531676449 -0.2230813971 0.3734333406
H -2.2890403881 -1.149922804 -0.6271678432
H -1.2132510643 -0.2087924918 -3.0827673392
H 0.1588476749 0.7761873344 -2.4728302878
H 1.0169932364 -1.4165741043 -4.158977144
H -1.1578373643 -2.5247301808 -2.8703583999
H 0.2690111405 -3.3024844101 -2.0930048205
H 1.5391406635 -2.0042906913 -0.3408214323
H 2.2673302453 0.8276492006 -0.8877320225

