# b3lyp 6-31G(2df,p) opt Freq 

 titel

0 1
O -0.1077297968 2.4862819181 0.1898715404
C -0.9126364689 1.3648073548 0.1114639296
C -2.0927635452 1.1781360544 1.114679196
C -2.8196475852 0.4148200635 -0.027707421
C -1.976039951 1.2444568169 -1.0306857857
C -2.3897434577 -1.0590631968 -0.0707801077
C -0.8641864633 -1.2169983529 0.1627648131
C -0.0873132228 0.0910629819 0.0885015705
O 1.1228112362 0.1484002579 0.0381716242
H 0.8045507578 2.1535911942 0.1452754656
H -1.9031634167 0.664613907 2.0619251049
H -2.5517679194 2.1496097132 1.3121196386
H -3.9048612368 0.5124015728 -0.0859374492
H -1.682371427 0.7843263528 -1.9791340521
H -2.4050852348 2.2314769994 -1.2188188494
H -2.9403636033 -1.6314984924 0.6828514004
H -2.6643396916 -1.4805434669 -1.0439934401
H -0.6665760218 -1.6124957213 1.1669142844
H -0.4009789818 -1.9297754565 -0.5249730123

