# b3lyp 6-31G(2df,p) opt Freq 

 titel

0 1
C -0.0676796104 0.0491699766 0.0355783292
C 1.4337707839 0.2024892219 -0.0958879167
C 1.978101477 0.0944022483 -1.5396993592
C 3.0120082548 1.1983106456 -1.6568665847
O 2.4307474831 2.5081688595 -1.5543136392
C 3.096092929 1.9707024903 -0.4070164675
C 2.1317753354 1.4111733418 0.6090477953
C 2.7158521669 0.3476824324 1.5546495522
O 2.1414510158 -0.7242392993 0.7841027127
H -0.3810026087 0.1453107159 1.0792089807
H -0.5830666914 0.8120344155 -0.5570467972
H -0.3817121797 -0.9365126865 -0.324171241
H 2.424569958 -0.895031094 -1.6775321767
H 1.1935812437 0.2253106542 -2.292107939
H 3.8433495747 1.117173222 -2.3527955393
H 3.9960181057 2.4966239868 -0.0937284134
H 1.493110271 2.174226802 1.0579533745
H 3.8108452876 0.2859244717 1.5973967696
H 2.3234125439 0.3736241754 2.5790793997

