# b3lyp 6-31G(2df,p) opt Freq 

 titel

0 1
O 1.2559605896 -0.0245212901 -0.5844382398
C 0.0862698923 0.0163917386 -0.3361116265
O -0.6562364215 -1.1092016161 -0.142297447
C -2.0173350543 -0.7814656793 0.1810375952
C -2.2193491023 0.6714140639 -0.2788783616
C -0.8021464506 1.2553447942 -0.1634123119
C -0.5105885937 1.9267966659 1.1691303891
C 0.7070593595 2.7970739879 1.3209343137
C -0.6666670272 3.4215872472 1.3108378281
H -2.6635836297 -1.4978789885 -0.3304374921
H -2.1569160843 -0.8985588984 1.2621981061
H -2.5574236834 0.6901099009 -1.3189395583
H -2.9557182331 1.2025013547 0.3279029434
H -0.5668164227 1.9547235999 -0.9697609592
H -0.7853532948 1.3329575405 2.0378472468
H 1.2503342902 2.7586909542 2.2580764258
H 1.3382120875 2.9280482774 0.4492918442
H -1.0652125707 3.8105872029 2.2411809798
H -0.963531261 3.984641234 0.4318167942

