# b3lyp 6-31G(2df,p) opt Freq 

 titel

0 1
C 1.4765662918 0.8200223161 0.0866691158
C 0.0789939332 0.3106522219 0.2234886326
C -1.0700828066 0.9128846107 -0.0716139512
C -2.2335218387 0.0091171776 0.2321155229
O -1.6419302001 -1.1795365702 0.7648382536
C -0.2219956467 -1.0726123497 0.7436717532
C -3.2038408416 0.5818022193 1.2482286364
C -4.6362276852 0.2761857699 1.1971833998
O -4.1367573785 1.535266459 0.7366306582
H 1.9943423397 0.8197760822 1.054028765
H 2.0667575957 0.1820316901 -0.5831921755
H 1.4956914355 1.8381612215 -0.3093479817
H -1.1982393216 1.9102439602 -0.4728267268
H -2.8081517031 -0.233556352 -0.6775049948
H 0.1790880959 -1.2370271157 1.756322483
H 0.2075160849 -1.8562600818 0.0976072758
H -2.7559704846 0.8450663905 2.2073984031
H -5.0131107483 -0.388560983 0.4209474178
H -5.2301906317 0.3147222332 2.1087037027

