# b3lyp 6-31G(2df,p) opt Freq 

 titel

0 1
C 2.304330581 -0.9424525402 -1.1551034611
C 1.7768275472 -0.1034303501 0.0028483719
C 2.5476428562 1.2471382786 0.2301806289
C 3.0367641814 0.7269931803 1.5849708878
C 1.7921247093 0.4489044399 2.4578703491
C 2.051487201 0.0122098213 3.8316793196
O 2.9218487636 -0.7837358099 4.1486167721
C 2.2765654647 -0.5527565222 1.3789042097
O 2.5567808251 -1.8573408112 1.6571595171
H 1.8683247575 -1.9453299936 -1.1421022354
H 2.0570502725 -0.4711764599 -2.1120098392
H 3.3921260466 -1.0535437221 -1.0993433547
H 0.6877577719 -0.0079907856 -0.0680716216
H 3.3610942385 1.3716889458 -0.4887163284
H 1.9492866001 2.1634801734 0.2518347259
H 3.9880122718 0.9200678582 2.0662256139
H 0.9027424183 1.0588119281 2.3119509514
H 1.3820713587 0.4373844077 4.6074279052
H 2.9437095347 -1.8736491585 2.5511019481

