# b3lyp 6-31G(2df,p) opt Freq 

 titel

0 1
O 0.7035050826 0.2812284902 -0.2461926344
C -0.6456796768 0.4352366059 0.0911432284
C -1.5536510993 -0.7837226979 0.4528193082
O -2.6999735902 0.0646644361 0.0467064503
C -1.6935527934 0.2400151729 -1.026942304
C -1.4658115684 -1.2953434758 -1.0036609821
C -2.4955778956 -2.2500298393 -1.6417692021
C -1.3853959943 -2.7285685458 -2.6219909044
C -0.3187178888 -2.0457906227 -1.7195831779
H 1.229366589 0.3877439809 0.5522109688
H -0.8449956426 1.3131010285 0.7155419624
H -1.6498999459 -1.3437752818 1.3850715776
H -1.9522416538 0.8978101261 -1.8581701456
H -2.8058498183 -3.0382982302 -0.9486424375
H -3.3934126078 -1.7981278873 -2.0680549324
H -1.2903654411 -3.8058190152 -2.7745996253
H -1.4644750535 -2.2488539979 -3.6013536082
H 0.1805339908 -2.7553516593 -1.0525483886
H 0.4466585973 -1.4388545476 -2.2031465532

