# b3lyp 6-31G(2df,p) opt Freq 

 titel

0 1
C -0.097340127 -0.4782145439 1.070018938
C 1.2385897361 -0.2384354455 0.4067326872
C 1.2897430579 0.580358712 -0.9024887775
O 2.3294099527 1.4472452922 -0.3889793451
C 2.3512836915 0.7604024946 0.8741266621
C 3.4034477137 -0.3768056477 0.9108477736
C 2.3093285423 -1.3426854258 0.4250992255
C 2.1536630082 -2.7746052247 0.6851299581
O 2.4739709258 -2.2815116707 -0.6238308042
H 0.0226206933 -0.88665329 2.0788657446
H -0.6719195274 0.4508192023 1.146688108
H -0.6976816985 -1.1914922907 0.4923765073
H 1.5988223131 0.0341381549 -1.8005850695
H 0.3721902351 1.1440014674 -1.114621509
H 2.2739930201 1.4366341022 1.7290747656
H 4.2376084292 -0.2262998511 0.2223371071
H 3.7869712035 -0.6103161639 1.9085153476
H 2.9527697584 -3.3196475299 1.1871199299
H 1.1600113919 -3.2088948018 0.7888687608

