# b3lyp 6-31G(2df,p) opt Freq 

 titel

0 1
C -1.6780176107 2.9214635812 4.0153070269
C -1.8367460196 2.053993168 2.8005891966
C -2.9337807001 2.2199988624 1.7791275896
C -2.8037672421 0.9112186271 2.5270008566
C -1.6437214929 0.0032539645 2.0378418258
C -0.8246310037 0.5972130804 0.898355905
O 0.2517077524 -0.1913911245 0.4884524621
C -0.67237497 1.1507234963 2.2845443751
O 0.610958673 1.1784200213 2.8162092733
H -1.1859251315 2.3869509155 4.8367965536
H -1.0756893691 3.8113108738 3.7979099867
H -2.6542483021 3.2584414445 4.377973417
H -3.7580812259 2.8417831986 2.1194408524
H -2.748425594 2.3113853247 0.715549595
H -3.5972605176 0.5432023588 3.166633479
H -1.5549875513 -1.0531445584 2.2567789038
H -1.2723121734 1.1389242628 0.0703359807
H 0.990181802 0.0336021649 1.0709969843
H 0.6053830665 0.7382190382 3.6727161964

