# b3lyp 6-31G(2df,p) opt Freq 

 titel

0 1
O 0.8011615606 -0.6469467347 0.4290513427
C -0.2438334778 -0.1439778488 0.1048151952
C -0.4670275134 0.6343219886 -1.1735300106
C -1.0382007046 2.0513167957 -0.8734141723
C -2.5669810462 1.864830173 -0.8115572415
C -2.8547151171 0.7972756885 -1.8590580442
O -2.7508950945 1.3039347953 -3.2120881435
C -1.6287262456 0.4453029221 -3.501368483
C -1.5577068365 -0.0417894435 -2.0400160972
H -1.1421859814 -0.2313424295 0.761839872
H 0.4950683881 0.6757401337 -1.6920311491
H -0.6207136487 2.4886416877 0.0380966879
H -0.7779420403 2.7186947842 -1.6998305277
H -2.8800551207 1.4971642495 0.1732719266
H -3.119198894 2.7873261935 -1.0110116088
H -3.7983192683 0.2621664336 -1.706956484
H -1.8889349232 -0.3333047931 -4.2295138039
H -0.76202588 1.0060988184 -3.8728487733
H -1.6170170963 -1.1223142042 -1.9008157453

