# b3lyp 6-31G(2df,p) opt Freq 

 titel

0 1
O 0.6584848537 2.9416476845 -1.6325594503
C 2.0339611308 3.2674680843 -1.6821125269
C 2.9048873875 2.0236489675 -1.6160299131
O 4.3117248293 2.3000534753 -1.8079958885
C 4.6668207545 1.4898529412 -0.6695189426
C 3.1919844597 1.3910941429 -0.2319512052
C 2.5938705114 0.0194539269 0.0936767765
C 1.1520400554 0.0988531301 0.3081928967
C -0.0334944171 0.2150622366 0.4793637109
H 0.5059470722 2.3769940457 -0.863843889
H 2.2047422537 3.7747123457 -2.6377754063
H 2.3298520293 3.9652889298 -0.8817497253
H 2.5373463067 1.2914786199 -2.351190501
H 5.1094581221 0.5298921697 -0.9735908257
H 5.359363189 2.0042206123 0.0050989661
H 2.9627710188 2.0917049855 0.5766802592
H 2.8083661414 -0.6818602469 -0.7229785912
H 3.0746894415 -0.3926582652 0.9903496363
H -1.0825543299 0.2770477043 0.6357545192

