# b3lyp 6-31G(2df,p) opt Freq 

 titel

0 1
C 1.7142787175 -0.618663577 -0.6974658039
C 2.7172638106 0.1023892139 -1.6155112158
C 3.0012590626 1.0760065738 -0.4151595209
C 1.4728834425 0.870866162 -0.2669217614
O 0.5842196119 1.2647253655 0.7212077342
C -0.6947294548 1.492736864 0.0680600248
C -0.5084223157 1.2795992772 -1.4671910737
C 1.0000810348 1.4983091092 -1.5756406289
O 1.8438288986 0.8320563601 -2.519678291
H 0.9129115652 -1.1784800677 -1.1826015012
H 2.1805393402 -1.2012691852 0.0988406718
H 3.5056922197 -0.3943213863 -2.1751506203
H 3.6060700678 0.5981572154 0.3568808435
H 3.3653637057 2.0808392605 -0.6405883025
H -1.4362928467 0.8071993573 0.4902656449
H -1.0064923019 2.5170975031 0.2996449031
H -0.7832563182 0.2647894996 -1.7639104859
H -1.1104837621 1.9818540473 -2.0471783599
H 1.2113167322 2.5759143775 -1.598374227

