# b3lyp 6-31G(2df,p) opt Freq 

 titel

0 1
O -1.1702711885 -2.3749912148 -0.5289028099
C -1.0822124783 -1.2137221465 0.2351335637
C -2.1522086876 -0.049604711 0.1205392092
C -0.9836962737 0.9890282694 0.2495856001
C -0.0563148439 -0.1569643607 -0.1705031086
O 0.919789571 -0.2406171544 -0.8640608729
C -2.866277054 -0.0032827763 -1.2049565644
C -4.190086723 -0.6981392196 -1.3789152171
C -4.1291358684 0.8094801578 -1.3596681367
H -0.5475945769 -2.2824349029 -1.2607103356
H -0.96643686 -1.4763323132 1.2958557408
H -2.870293874 -0.0347707193 0.9434630746
H -1.0002577162 1.8607419186 -0.406966773
H -0.8088451776 1.3114899082 1.2798225234
H -2.2074405903 -0.0197178452 -2.0706420851
H -4.3892705811 -1.1967207774 -2.320568782
H -4.612963876 -1.2005543135 -0.515378512
H -4.2862337454 1.3449297359 -2.2893665975
H -4.5118802363 1.3226978251 -0.4833444769

