# b3lyp 6-31G(2df,p) opt Freq 

 titel

0 1
C 2.7497014106 2.596685055 -2.8245637191
C 1.4976889876 2.4794499709 -1.9872580408
C 0.1496723693 2.9200510024 -2.6016991314
O -0.4857635262 1.6661835478 -2.2451388692
C 0.7296904885 1.1552497502 -1.6874216051
C 0.8513996329 1.4329425861 -0.1462537906
C 1.5926569718 2.7604558475 -0.4598284653
C 1.6582185666 0.3833318109 0.5678368684
O 2.8226884675 0.4849457652 0.8661941639
H 3.5815013034 2.050642062 -2.3681196697
H 2.5949825656 2.2010283628 -3.8342463683
H 3.0564129412 3.6454066888 -2.9196427064
H -0.3432986717 3.7838703103 -2.1385873843
H 0.1656273743 3.0552632701 -3.6906813306
H 0.9843095517 0.1590400421 -2.0621599836
H -0.1386915468 1.5044196261 0.3133995982
H 1.1063876 3.675422307 -0.1135674689
H 2.6174219379 2.7325525497 -0.0826703555
H 1.0982707759 -0.5570641949 0.7758325582

