# b3lyp 6-31G(2df,p) opt Freq 

 titel

0 1
O 1.5211281638 0.816547061 -0.1180780735
C 0.1968142922 0.4378977299 0.2200095939
C -0.7502047232 1.1656525123 -0.7278079187
C -2.2132188266 0.8561005355 -0.4553960303
C -3.2922121106 1.6460257301 -1.224844574
O -3.9421922083 2.0506140588 -0.0004874092
C -2.8754535458 1.4926660791 0.8056747083
C -3.3356225973 0.6069754666 1.8600498581
C -3.6981884415 -0.1391530982 2.7303129419
H 2.1247484086 0.3743921648 0.4858053289
H 0.0526982478 -0.6507786004 0.122788755
H -0.0414147539 0.7019244952 1.2633133374
H -0.5711994848 2.2448331266 -0.6446553735
H -0.4965253259 0.8845909354 -1.7572887987
H -2.3966601159 -0.2210237227 -0.4879077001
H -2.9078242195 2.5087869665 -1.7856559631
H -3.9619266492 1.0680504425 -1.8705823926
H -2.2616639973 2.2964725402 1.2393950343
H -4.0261598026 -0.7919254433 3.501309316

