# b3lyp 6-31G(2df,p) opt Freq 

 titel

0 1
C 1.2898400806 0.0570487785 -0.0562284501
O -0.0138569273 -0.1771137637 0.440817795
C -0.3959933911 0.6273861159 1.5390546344
C 0.4105469276 0.3306990207 2.7857428438
C -1.884165265 0.837692903 1.4167993425
C -2.5333315929 1.807812715 2.4493281487
O -1.5587726484 2.3009501247 3.3810842452
C -1.6192835929 2.8815331976 2.0701305664
C -0.9159045639 1.9652380618 1.0252949643
H 2.0701569509 -0.2608250576 0.64773911
H 1.3851496509 -0.5340623883 -0.9703194914
H 1.4507701002 1.117171349 -0.2989369225
H 0.4298440433 -0.7540574632 2.9369157665
H 1.4441196229 0.6744092428 2.6716523059
H -0.0123081919 0.8140425356 3.6602109878
H -2.4649191813 0.2157017101 0.7486380987
H -3.5701625919 1.8134934887 2.7634989206
H -1.7462476232 3.9558826688 2.0081488023
H -0.6816643667 2.2985483806 0.0226192719

