# b3lyp 6-31G(2df,p) opt Freq 

 titel

0 1
O 1.4217771879 -0.2405211747 -0.229950424
C 0.2329483754 -0.0492745524 -0.2237434574
C -0.5303474799 0.7282342702 -1.2731011699
C -1.1988998044 1.9709583607 -0.6144132044
C -2.5312656636 2.3870123402 -1.2881602496
C -3.1876408575 1.151359495 -1.9138559755
C -2.3254554471 0.5881393781 -3.0603634628
C -1.6433333626 -0.1500664333 -1.8954404612
O -2.8563258552 -0.0204204688 -1.1031952545
H -0.412446099 -0.4527986423 0.5917990817
H 0.1834172929 1.0135188034 -2.0525894826
H -1.4210799758 1.7140346315 0.4261102626
H -0.4922048055 2.8038837921 -0.5841144188
H -3.1900424477 2.8369998645 -0.5389382156
H -2.3727115989 3.14232497 -2.066610864
H -4.2649364749 1.2535534744 -2.063663334
H -2.8825373267 -0.0922482056 -3.7062010434
H -1.7316156429 1.284142263 -3.6569499036
H -1.3471630547 -1.1944025759 -2.0273624032

