# b3lyp 6-31G(2df,p) opt Freq 

 titel

0 1
C 1.9972972471 1.909197006 -0.5531715009
C 1.2533704685 0.5796517179 -0.4063293781
C 1.8790888167 -0.5963786823 -1.191847497
O 3.2352664904 -0.7977983598 -0.7904703954
C 1.0138061742 -1.8764790809 -1.0878765911
C 0.3889890419 -2.0671529589 -2.4783474939
O -0.4826998824 -2.8507735206 -2.7691998903
C 1.0727504405 -1.1081766361 -3.3814393688
C 1.9070717122 -0.3310597778 -2.6862976181
H 1.57879794 2.6630096094 0.1196966794
H 3.0577532956 1.7875212272 -0.3168357838
H 1.9234385097 2.3005303996 -1.5725495121
H 1.2265007138 0.2851779523 0.6528942852
H 0.2074727107 0.690082309 -0.715826793
H 3.2464374989 -0.9058580835 0.1670544491
H 1.6628436742 -2.7336844018 -0.8825418697
H 0.240546398 -1.8429833755 -0.3161251409
H 0.8885841821 -1.0820976171 -4.4480957571
H 2.5550505279 0.4357801329 -3.0947919435

