# b3lyp 6-31G(2df,p) opt Freq 

 titel

0 1
C -0.5164427432 3.3885703282 0.7679530367
C -1.3050396901 2.1141323971 0.657287045
C -0.8344668928 0.7147532425 0.1921929558
O 0.1584646199 0.0564615191 0.9355527225
C -2.3193330937 0.4860901236 0.542135302
C -2.7270602543 1.9017496712 0.0161194064
C -3.4648924544 2.2769214781 1.3244687604
C -2.2238304817 1.4790251326 1.7594277754
O -1.7393228503 1.194446341 3.0329119857
H 0.351780651 3.2451889697 1.4198047178
H -0.1479602091 3.7092225632 -0.2124794833
H -1.1190020711 4.2029083406 1.1850174307
H -0.5573837196 0.6168727279 -0.86258857
H -0.0675310783 0.1602302733 1.8690403271
H -2.9275074983 -0.4184831197 0.4873507393
H -3.0042348211 2.138097463 -1.0084392989
H -3.4954770955 3.3376984979 1.5917215236
H -4.4412198319 1.8073956102 1.4852804984
H -2.3914488158 0.6605008808 3.5008369153

