# b3lyp 6-31G(2df,p) opt Freq 

 titel

0 1
C -0.1581183638 2.4590949988 -0.5045704709
C -1.0017968111 1.2722939046 -0.0508775152
C -1.9913327349 0.6793935556 -1.0771088462
C -2.2860783294 -0.7487748697 -0.5640847763
C -0.955442447 -1.1902411956 0.0162407107
C -0.217052053 -2.4145113583 -0.3491693073
O -0.8769895487 -2.3016297315 0.9046954778
C -0.1754902317 0.0615818361 0.3876573151
O 0.9083183506 0.0768735636 0.9133460798
H 0.5826987012 2.7092519499 0.2592502577
H 0.3815864932 2.2229589386 -1.4278716471
H -0.7798636551 3.3393998797 -0.6918590327
H -1.5745951495 1.5588104159 0.8462896542
H -2.8964605284 1.2809377307 -1.1878436973
H -1.5091131252 0.6315421426 -2.0612796173
H -3.0322775218 -0.7204471476 0.2389898186
H -2.6631122204 -1.4178244032 -1.3407975922
H -0.6688108805 -3.1026647881 -1.0629134058
H 0.8703382256 -2.405021572 -0.3022400458

