# b3lyp 6-31G(2df,p) opt Freq 

 titel

0 1
C -0.1593487937 -0.0025449877 0.1592741032
C 1.3524252239 0.0861192861 0.009797759
C 2.2498142496 -0.5266020722 1.1214333254
C 3.6401393265 -0.2386488459 0.4399620678
O 3.4613301865 1.1192693352 -0.1140880132
C 2.1869210408 1.3602149709 0.4446889955
C 1.391191013 2.5450093329 0.9723400972
O 1.0309779659 1.6953143565 2.1173506188
C 2.1935053683 0.8336196702 1.8697106598
H -0.4986776562 0.2289358339 1.1682197465
H -0.6584756939 0.6820253269 -0.5363143355
H -0.4910301415 -1.0154581338 -0.0961565855
H 1.6365684591 -0.2189979991 -1.0023806453
H 2.1264130073 -1.5254098569 1.546175105
H 4.4846142911 -0.2282286557 1.1378624393
H 3.8441891589 -0.9388605999 -0.3743585947
H 1.9929750048 3.4039806065 1.2929137171
H 0.5097383599 2.8758872442 0.4159436527
H 2.9900114794 1.0627735778 2.5836327669

