# b3lyp 6-31G(2df,p) opt Freq 

 titel

0 1
C 1.0591488854 1.0814153179 0.1588678859
C 1.1022020301 -0.4455331447 0.0145170101
C 1.893294039 -0.9686116331 -1.194445591
C 1.6156572491 -2.4479360848 -1.6522272332
C 1.0875574911 -1.9058852305 -2.9817386078
O 0.0079909127 -1.0007129169 -2.6898091991
C 1.3436761685 -0.515710635 -2.5901117266
C 3.3756990606 -0.6688269501 -1.1021522994
O 4.2603821036 -1.4111811866 -1.4502562891
H 0.4143609158 1.3639824429 0.9962760338
H 2.0440344108 1.5191176932 0.347566093
H 0.6509085742 1.5501306027 -0.7425937293
H 1.5026156106 -0.9003974751 0.9296509406
H 0.0789639947 -0.8167429643 -0.0953666488
H 2.5486784128 -3.0032835883 -1.7577551779
H 0.8953237841 -3.0098352835 -1.0536671504
H 1.0864177889 -2.3691063379 -3.9608210947
H 1.6077475751 0.360564141 -3.1713433433
H 3.6201789031 0.3364980331 -0.6951984529

