# b3lyp 6-31G(2df,p) opt Freq 

 titel

0 1
C 3.8282449089 3.0448271077 -3.2548624027
O 3.4317124959 1.6665811646 -3.5373932749
C 2.5042729569 1.6786286983 -2.428913256
C 1.1136225906 2.2705740527 -2.7548335865
O 1.5548054002 3.598236732 -2.3281940481
C 2.877094497 3.09181972 -2.0396117195
C 3.3948017446 3.0837684257 -0.6101484746
C 3.823894128 1.5947720207 -0.4239798535
C 2.8155405589 0.7520390959 -1.2656561146
H 4.9009636952 3.1136798357 -3.0367579887
H 3.5661187439 3.7308610644 -4.0669123313
H 0.843805421 2.2450808261 -3.8152617333
H 0.2763508372 1.9135455326 -2.1437170157
H 4.2134669317 3.7819466003 -0.413667257
H 2.5670013536 3.3358347172 0.0603986247
H 4.8338043251 1.4523710225 -0.8244794907
H 3.8529778932 1.2960365144 0.6272058602
H 3.2302075242 -0.2083722693 -1.581828043
H 1.905953154 0.5531290284 -0.6883459848

