# b3lyp 6-31G(2df,p) opt Freq 

 titel

0 1
O -0.5188288069 -0.2042351629 -2.2423483814
C -0.8239570359 -0.2254768403 -0.883960525
C -2.0881391654 0.4729772481 -0.4469928934
C -1.9335012498 -1.0277063363 -0.2641249185
O -1.5460454265 -1.5321602798 0.9857814202
C -0.363419124 -0.8369662063 1.3979828415
C 0.2940732456 -0.2867226294 0.1330458413
C 1.6793614703 -0.6994767118 -0.2949150487
C 1.415635849 0.7076659563 0.1926017806
H -0.1643279635 -1.0689325992 -2.4794114598
H -2.0703466849 1.1345639878 0.412468907
H -2.7496513271 0.7786289191 -1.25025045
H -2.5672669881 -1.7116546151 -0.816219465
H -0.6332542448 -0.0200997684 2.0834079655
H 0.2696103199 -1.541935693 1.9454327372
H 2.2314609607 -1.3760776116 0.3492507203
H 1.8749715849 -0.8251279838 -1.3547822596
H 1.7979086804 0.9944801687 1.1676148148
H 1.4222946061 1.5029568978 -0.5453053772

