# b3lyp 6-31G(2df,p) opt Freq 

 titel

0 1
O 1.1512028647 -0.5209922201 0.2178900655
C 0.052153406 -0.0922366544 -0.020845843
C -0.2798090037 0.8823625361 -1.1258142131
C -1.0006361127 2.1329806848 -0.589655988
C -1.5398860355 2.9942554691 -1.6944182921
C -2.4666321434 4.2384706964 -1.6206405906
C -2.3536219147 3.7743177282 -3.0893357256
C -0.8257820782 3.6212786595 -2.9265212851
O -2.5194683496 2.3735641484 -2.6335696539
H -0.8282958764 -0.4029555561 0.5911759949
H 0.6410099181 1.1410226783 -1.6553508415
H -0.9535035158 0.3782142338 -1.8320820145
H -1.8387386986 1.8356572347 0.0535200557
H -0.320192446 2.7319455349 0.0271848111
H -3.4361556582 4.0635129833 -1.15230228
H -2.0205857088 5.1971739535 -1.3437649746
H -2.9287327955 4.0858365859 -3.9603227684
H -0.3574912781 2.9098119894 -3.6075642492
H -0.2284221635 4.5231929445 -2.7698818375

