# b3lyp 6-31G(2df,p) opt Freq 

 titel

0 1
C -3.8356660955 -1.1963310522 1.4793554385
C -3.2906228628 0.0270315986 0.7767309557
C -3.321310954 0.1399544139 -0.7475018548
C -2.0352235871 -0.0348782252 -0.018197902
O -1.0576137046 1.0394108483 0.0379033938
C -0.0201002228 0.1458222877 -0.0865184736
O 1.1430432137 0.3848763619 -0.1399502777
C -0.9338086931 -1.086997909 -0.1355641134
C -0.8459813114 -1.9438896452 -1.3925765647
H -3.3927448716 -1.3151501855 2.4740492985
H -4.9215145353 -1.1266682955 1.602260409
H -3.6266160545 -2.1083755109 0.9101284713
H -3.4410491021 0.967955681 1.2999808122
H -3.7029145613 -0.7021422553 -1.3176369428
H -3.5240157516 1.1131141656 -1.1808283516
H -0.8226853309 -1.6973900786 0.7662584345
H -1.6190558636 -2.7185459948 -1.3928267228
H -0.9704290119 -1.337228475 -2.2940163496
H 0.1285565706 -2.4373062097 -1.4448871005

