# b3lyp 6-31G(2df,p) opt Freq 

 titel

0 1
C 1.2093926245 1.3116074834 0.0091681436
C 0.9474748633 -0.1739189691 0.1499748952
O 1.2953244424 -0.8786148592 -1.0863964043
C 2.3494234223 -1.5598146539 -0.4127394123
C 1.8042056302 -2.4842278721 0.6588615665
C 0.4957138854 -3.1679580753 0.535086918
O 0.2396663801 -4.2182727619 1.0774258154
C 2.0083388807 -0.9756339687 0.9232493713
C 2.8339410334 -0.4882609693 2.0778092858
H 0.9875596453 1.8346286519 0.9456308203
H 2.2509934493 1.5037491992 -0.2640901014
H 0.5667683252 1.7244941736 -0.7736752267
H -0.0981581485 -0.3544588392 0.425209147
H 3.2773942119 -1.7320426635 -0.9467999847
H 2.5562030927 -3.0855136858 1.1630530931
H -0.2470645401 -2.6632381684 -0.1145500033
H 2.252664229 -0.482613821 3.0067673997
H 3.7016300962 -1.1351905614 2.2375367821
H 3.2028529868 0.5278017106 1.9044921446

