# b3lyp 6-31G(2df,p) opt Freq 

 titel

0 1
C -2.9318040951 -1.2103635759 -1.3219712356
C -2.3579694358 -0.8156497212 0.0437958965
C -0.8999740601 -1.303385754 0.2434149189
C -0.0104788059 -0.1099128719 -0.1249155032
O 1.1278187973 -0.1492290749 -0.517658875
C -0.8390857759 1.1475263676 0.0287824849
C -0.347315594 2.4668245294 -0.4813865664
O -1.5073120786 1.1157439396 1.3167652217
C -2.2400320787 0.6995202715 0.1683923854
H -3.0175889994 -2.2974540572 -1.4079917736
H -3.928210166 -0.7819858554 -1.4734867351
H -2.2894474948 -0.8607723037 -2.1384857923
H -3.0124787383 -1.1992129616 0.834210184
H -0.702504088 -1.5678291315 1.2869571202
H -0.6413721402 -2.1686212197 -0.3708652289
H 0.606187292 2.7230615011 -0.0103022227
H -0.1793931932 2.4202820919 -1.5615406264
H -1.0708007061 3.2566038129 -0.2666533556
H -3.068882059 1.343804433 -0.1197646368

