# b3lyp 6-31G(2df,p) opt Freq 

 titel

0 1
C 2.5847463862 0.5962172947 -4.2887576389
C 1.3234898218 0.6664918772 -3.4447414944
O 0.5257730514 -0.2428921674 -3.4040941407
C 1.1334781469 1.9412496705 -2.6474258444
C 1.9595193439 1.9221617532 -1.2988970456
C 0.6498432866 2.022261344 -0.5183185945
C -0.1454050975 3.2243412221 -0.9440052671
O -1.3037915627 3.54788261 -0.2305483405
C -0.1581933338 2.0208846626 -1.8374617764
H 3.4625368036 0.919702778 -3.7195431026
H 2.729958903 -0.4191086137 -4.6594065614
H 2.4894892549 1.2789008606 -5.1416047533
H 1.3467363702 2.8056532076 -3.2892658904
H 2.4714909251 0.9679528748 -1.1488414845
H 2.6808334868 2.7343804902 -1.1600457204
H 0.4350444973 1.5219298427 0.41908738
H 0.3548742791 4.1418789342 -1.2496587438
H -1.8040468462 2.7404545892 -0.0708763207
H -1.0688555865 1.4909479597 -2.0894636905

