# b3lyp 6-31G(2df,p) opt Freq 

 titel

0 1
C -2.6789896184 1.199362829 -1.9238375459
C -1.3470921779 0.637999249 -1.4570062269
O -1.4411766002 -0.8010683595 -1.2366915226
C -0.9444295255 -0.9797869419 0.1068192116
C -0.9074413076 -2.4230942284 0.5047069694
C -1.6611501194 0.1708179387 0.8796220474
C -0.8247061019 1.0902052136 -0.0750918317
C 0.2589634563 0.0017394887 0.1153458283
O 1.4317896343 -0.0395929859 0.3293873356
H -3.4513456502 1.1194105108 -1.154469468
H -2.5704401365 2.2530927029 -2.2011227462
H -3.0200597499 0.6469950458 -2.8047477131
H -0.5885805783 0.8229340597 -2.2297588897
H -0.5073931499 -2.5284011834 1.5166872052
H -1.9102976371 -2.8595965193 0.4749363452
H -0.2676808376 -2.9862447156 -0.1805185716
H -2.7467480525 0.1974853738 0.7767223846
H -1.3591450544 0.2525594646 1.9256654689
H -0.6484995035 2.1492482274 0.0957014495

