# b3lyp 6-31G(2df,p) opt Freq 

 titel

0 1
C 5.1300800305 2.2771272439 -1.928224687
C 4.3592961423 1.0486610378 -1.5214519876
O 3.1113709326 0.816978899 -2.1889809744
C 3.0835732913 1.1157318329 -0.7948169463
C 2.6318157496 0.0032623804 0.1395511289
C 3.1774695616 0.2314379121 1.5726049499
O 2.778874421 -0.7793500752 2.4686120424
C 1.174061079 -0.1034082914 0.1835373102
C -0.0225455221 -0.1708403005 0.2875997771
H 5.9072783086 2.5056304987 -1.1910302589
H 5.6189736184 2.1214979389 -2.8953931673
H 4.4648491351 3.1401072751 -2.0162733801
H 4.9553625018 0.1425201493 -1.3934239975
H 2.6792695787 2.1012774492 -0.5577470385
H 3.0446471603 -0.9420704787 -0.2330094719
H 4.2710658317 0.2106307267 1.544072124
H 2.8677270293 1.2304770171 1.9185540803
H 1.8147427005 -0.8186312322 2.4408055808
H -1.0813775603 -0.2392912032 0.3384595458

