# b3lyp 6-31G(2df,p) opt Freq 

 titel

0 1
C 1.4217712224 -0.0540281689 -0.0195954638
O 0.0288792596 0.2069258128 0.0322780729
C -0.3827155351 0.8346235045 1.196457044
C -0.0737119926 2.3219309034 1.397801249
O -1.1550071382 2.8244876509 2.1879197735
C -1.8271749927 1.6955837929 2.7331545623
C -0.8874999235 0.8418604067 3.6516055978
C -0.5945996382 -0.0353453586 2.4339387323
C -1.7736560429 0.5727486355 1.6719657738
H 1.7503851067 -0.6631759675 0.833483491
H 1.6060873985 -0.6031625585 -0.945498668
H 2.0123846538 0.8726420862 -0.035717148
H 0.8823157592 2.5036741178 1.9077143748
H -0.0574592725 2.8395699065 0.4313366431
H -2.7802316316 2.0263079043 3.1421395402
H -0.0650934629 1.3792227662 4.1353062159
H -1.458434067 0.2952068981 4.4075898168
H -0.2684048416 -1.0688081729 2.432756693
H -2.5580324914 0.1258818106 1.0773818096

