# b3lyp 6-31G(2df,p) opt Freq 

 titel

0 1
C 0.0874670982 0.3917452492 -0.0309540756
C 1.0370642579 -0.7767791311 -0.021270453
O 2.2066788626 -0.6675763491 0.8154734401
C 2.3837409204 -0.7141366598 -0.5903802341
C 3.2470671279 -1.7785651261 -1.2896595548
C 3.8623649401 -0.6598630189 -2.1760329568
C 3.0109309665 -0.2295345598 -3.3852394151
O 2.2667482695 0.7318395624 -2.5965415758
C 3.0268854536 0.4119946942 -1.4126544385
H -0.5220143567 0.399480904 0.8787551881
H 0.6313678301 1.3369705157 -0.0914877112
H -0.584649305 0.3259859343 -0.8923240171
H 0.5692279934 -1.7623807563 0.0261276926
H 3.9726965901 -2.2172037931 -0.5991968768
H 2.7221741114 -2.5847009463 -1.8105186846
H 4.9447747435 -0.6322823557 -2.283453912
H 3.5673050803 0.2691748375 -4.1880218416
H 2.3650223341 -1.0010049563 -3.8239236532
H 3.4090752721 1.291853265 -0.8891693005

