# b3lyp 6-31G(2df,p) opt Freq 

 titel

0 1
C 5.3402743221 0.4033136064 -2.8679486327
C 4.5537981986 -0.3133008426 -1.7931196399
C 3.2832661496 -1.062618505 -2.1166757718
O 3.112058116 -2.3068281814 -1.4995906764
C 3.2269806579 0.2127162281 -1.3011855803
O 2.7645555553 1.3721594915 -1.9320732755
C 2.8720168435 0.1165980698 0.1783322968
C 1.4210185838 0.0852179786 0.3564399532
C 0.219824697 0.0647018098 0.4257272129
H 5.9934164746 1.1671098891 -2.4331427213
H 5.9682863189 -0.3017478666 -3.4226219788
H 4.6731373203 0.9039943797 -3.5724981783
H 5.1516593589 -0.7972728479 -1.0243313443
H 2.9200703943 -0.9854392535 -3.1424810933
H 2.1735259454 -2.4147401288 -1.3073097634
H 1.8016777094 1.3722042558 -1.8594977561
H 3.3161242372 -0.7893085476 0.6019397971
H 3.296185724 0.9757851318 0.7115453817
H -0.8372194767 0.0444042328 0.5274497906

