# b3lyp 6-31G(2df,p) opt Freq 

 titel

0 1
O 1.1816233471 0.0037960787 -0.1293123078
C -0.0160873197 -0.0066094661 -0.0331394487
C -0.9726603897 -1.1921431134 0.0251177311
C -1.9885947833 -0.6658680532 1.0440223183
O -2.0127746574 0.7707954656 0.8854404217
C -0.9849975462 1.1713797092 -0.0213965059
C -1.5398498588 1.2830354035 -1.4606622678
C -2.3202891007 0.0001531823 -1.8086040861
C -1.5718387211 -1.2891701761 -1.408946552
H -0.4837589133 -2.1201495216 0.3231958251
H -3.0020167433 -1.0512413562 0.8837180616
H -1.6856017754 -0.9101052484 2.07055963
H -0.5322466502 2.1007186824 0.330430829
H -2.1913597647 2.1591149841 -1.5414937361
H -0.6980647961 1.4380037606 -2.1473985498
H -3.2803234323 0.0342892532 -1.2838937475
H -2.5521982748 -0.0232774154 -2.8780574146
H -2.2504337775 -2.1478391463 -1.4622094385
H -0.7523491126 -1.4882114828 -2.109701952

