# b3lyp 6-31G(2df,p) opt Freq 

 titel

0 1
O 0.1879938093 0.1813455016 0.6201798823
C -0.6041321812 1.3391619865 0.856924398
C -2.0110426937 1.0501963754 0.2802071926
O -2.9352045139 1.6230321964 1.1863301827
C -2.4056355879 1.372581051 2.4829938358
C -0.9012030585 1.6583413578 2.3694041846
C -0.4904994992 3.1387221908 2.586005486
C 0.1123669687 3.5565914761 1.2685660101
C 0.0380338036 2.6021002376 0.3440167087
H 1.0997294246 0.4059302387 0.8347357489
H -2.1816289696 1.4906589654 -0.7049488761
H -2.1339253162 -0.0423452801 0.2130579255
H -2.9338194895 2.0170172118 3.1909620429
H -2.5783338132 0.3228448114 2.7715097751
H -0.3204151 0.988212321 3.007069487
H -1.3597128113 3.7635153924 2.8287683295
H 0.2133481291 3.2639188731 3.4182610721
H 0.5295499295 4.5460082487 1.1113127581
H 0.3807406993 2.6789487144 -0.6826868638

