# b3lyp 6-31G(2df,p) opt Freq 

 titel

0 1
O 0.5554458306 0.6608054265 0.5336767015
C -0.8103016132 0.5485180823 0.8425893214
C -1.7593229311 0.8958875311 -0.3248298072
C -2.7534885238 1.3946277283 0.7608523792
C -1.5105256864 1.6847178393 1.657144467
C -3.4955985802 0.2128889719 1.3738380605
O -3.5492845532 -0.9997148899 0.6135159242
C -2.6571045102 -0.9393861968 1.7350835377
C -1.1672039445 -0.8264797201 1.438420583
H 1.0684282083 0.3698878921 1.2957739629
H -1.3544239685 1.7323723618 -0.8987792063
H -2.0835905994 0.0937228427 -0.9867762139
H -3.4187298539 2.2207522799 0.5075589726
H -1.0547618845 2.6497712393 1.4249091261
H -1.6163271943 1.5693453748 2.7406928542
H -4.3985329251 0.4301868025 1.9426992365
H -2.945448816 -1.5915789116 2.55814316
H -0.6178914794 -0.9627647348 2.3808917498
H -0.8462661453 -1.6223087993 0.7558740807

