# b3lyp 6-31G(2df,p) opt Freq 

 titel

0 1
O 1.1052757462 -0.3427668857 -0.8578797171
C 0.3083685255 0.0141273856 -0.0295604168
C 0.3099795843 1.3600861018 0.6607036464
C -0.9592123421 2.1538546063 0.2904614138
O -0.9132547652 3.4580368213 0.8368238909
C -0.8200209464 3.5068680054 2.2341040166
C 0.5455834385 3.7520725199 2.8188466857
C -0.1095405763 2.3952313477 2.9640759092
C 0.3547933311 1.1697317402 2.1942357503
H -0.5233449869 -0.6593523218 0.2908244933
H 1.1805196225 1.9159328608 0.3000345832
H -1.0328870135 2.2889357027 -0.7919686091
H -1.8557770542 1.6107324389 0.6323603465
H -1.6873528723 3.9744861568 2.6945738428
H 1.3518395395 3.8589399598 2.1011483306
H 0.6376919295 4.3731686828 3.7029777305
H -0.4899129243 2.1697941464 3.9560505125
H 1.3612587995 0.8691560589 2.5060727837
H -0.3126855254 0.3356371221 2.4526417871

