# b3lyp 6-31G(2df,p) opt Freq 

 titel

0 1
C -2.1254015857 0.4208046543 -0.6073223101
C -1.4865663912 -0.8643968695 -1.1101342641
O -2.0478946189 -1.9342160643 -1.0050433764
C -0.1272817417 -0.7055445297 -1.7110045903
C 1.1260870559 -1.3863941386 -1.1508897855
O 0.8544863458 -2.6617084462 -0.6094171142
C 0.4376136223 -3.1354774805 -1.9245783667
C 0.6434669032 -1.738685649 -2.5291285294
C 1.1743080109 -1.4569458167 -3.9041250748
H -1.4645197119 0.9241463776 0.1072814596
H -2.2845200932 1.1164433175 -1.439770569
H -3.0810269299 0.1954235827 -0.1329122418
H 0.1058722769 0.3105069107 -2.0243001615
H 1.972954761 -0.8294729669 -0.763726063
H 1.1692797105 -3.8560216472 -2.3075633806
H -0.5683083769 -3.552035898 -1.9141798425
H 0.4076246818 -1.6321086499 -4.6677955069
H 1.500381905 -0.4162924305 -3.9978998879
H 2.0313284661 -2.0990215857 -4.1355950246

