# b3lyp 6-31G(2df,p) opt Freq 

 titel

0 1
C -4.0753299942 1.3745986292 1.5777251329
C -2.8555014673 0.6743021821 0.9652530183
C -2.4792941014 -0.5602641412 1.8222544952
O -1.2129828839 -1.119999248 1.5564065943
C -0.8630485881 -1.2553075728 0.1956877735
C -0.1411537964 -0.0126778813 -0.3452149061
O 0.745250857 -0.1290685956 -1.1668111862
C -0.5227433109 1.3142209563 0.1952541992
C -1.6959771448 1.6199764995 0.7636627667
H -3.8317840214 1.797871338 2.558540235
H -4.4239126875 2.189190878 0.93620175
H -4.9061429706 0.6747413536 1.7109563938
H -3.1519919873 0.302125746 -0.0246434038
H -2.4547013878 -0.2805337176 2.8808842518
H -3.2715551272 -1.3159910097 1.6921958738
H -0.1633539963 -2.0911246588 0.1133306447
H -1.7317676331 -1.4905682819 -0.4398496732
H 0.2220221982 2.0869656685 0.0268735078
H -1.8589384071 2.6502877656 1.0753560221

