# b3lyp 6-31G(2df,p) opt Freq 

 titel

0 1
C -1.0180799055 1.9054763244 -1.2944435542
C -1.0548033912 1.0400137598 -0.0322240561
C -2.0607464622 -0.1393334025 -0.0610946472
O -0.9536217076 -1.1001124313 -0.0915343397
C -0.0207478961 -0.0998511911 -0.0522667958
O 1.1649783305 -0.2096723809 -0.0434817414
C -1.056110376 1.8824626947 1.2275776072
C 0.2349386263 2.3662453196 1.8398258108
C -0.6042890907 1.340406891 2.5613419045
H -1.0335301082 1.2963639286 -2.203462551
H -1.8807752895 2.5796926016 -1.319793336
H -0.1101997304 2.5144476029 -1.3066596987
H -2.6602996075 -0.27684155 0.8405265499
H -2.6751610481 -0.2347229106 -0.958958388
H -1.8881300534 2.5827219491 1.2600595896
H 1.1591680607 2.0186198528 1.3923878289
H 0.2680955221 3.3771754249 2.2298215183
H -0.2233684865 0.3256015095 2.607369112
H -1.1541821167 1.6464885976 3.444194297

