# b3lyp 6-31G(2df,p) opt Freq 

 titel

0 1
C 1.4699118358 0.0562086382 -0.0482500274
O 0.0529673611 -0.0515633295 0.0111448752
C -0.4969004867 0.5460734529 1.117526105
C -0.4885188515 -0.0451252976 2.5363583185
C -1.948327447 0.4954773971 2.716025398
C -1.8997194633 1.0474421273 1.2861894941
C -0.7445101134 2.0567067439 1.1948755826
C -0.6543554458 2.8111637517 -0.0733010286
O -0.2630832422 3.9517698326 -0.1575915528
H 1.9454091473 -0.410822046 0.8245360889
H 1.7885400718 -0.4674568161 -0.9512709317
H 1.7871411649 1.1060708931 -0.1048997895
H -0.4564895228 -1.1367871699 2.5146510048
H 0.2755553098 0.326316613 3.2246847361
H -2.6771057873 -0.307861305 2.8389698967
H -2.1005974595 1.2377787233 3.5042780017
H -2.7153207454 1.0811126786 0.5741579081
H -0.4529816534 2.6221207281 2.0772632455
H -0.9808130622 2.2462406942 -0.9743099453

