# b3lyp 6-31G(2df,p) opt Freq 

 titel

0 1
C 5.4067492048 1.1997573205 -2.6789770462
C 4.5697703412 2.0413718031 -1.7399513715
O 3.1741442599 2.1240359486 -2.1443004712
C 2.7154540487 1.7015138708 -0.8477600196
C 1.8010270949 0.474781336 -0.9289772856
C 1.5045199411 -0.0466147412 0.4003384993
C 1.3180160269 -0.4482694032 1.5192212376
C 4.1688919184 1.4565391405 -0.3636397083
O 4.5574609535 0.1130901954 -0.2114120572
H 5.0426715289 0.1717063435 -2.7143092156
H 5.3683260645 1.6278003034 -3.6854028038
H 6.4506966982 1.1860623104 -2.3497106136
H 4.990671556 3.0521551057 -1.6524375429
H 2.2043302855 2.5152891932 -0.3163204567
H 0.8775989993 0.7496402818 -1.4516468134
H 2.3003149785 -0.2922579528 -1.528931023
H 1.1181846367 -0.8130243159 2.4964896374
H 4.4709154022 2.0613417275 0.4998855143
H 4.0666904508 -0.2522692273 0.5346346698

