# b3lyp 6-31G(2df,p) opt Freq 

 titel

0 1
C 2.08415738 1.2980507024 -0.6605775267
C 2.3323349074 1.8595898419 0.7693863154
C 3.3397653212 0.9322367819 1.452145284
O 3.1036840541 -0.4243457493 1.0687775604
C 1.7317730261 -0.7057216804 0.8956301908
O 1.0292026397 -0.687890186 2.1249994098
C 0.5754241489 0.6463177718 2.3954405474
C 0.8598273037 1.4322103008 1.1221632629
C 1.0487202493 0.3707437638 0.0112889034
H 1.6018975329 2.0286202675 -1.3143535792
H 2.9299884231 0.8368801031 -1.175867937
H 2.6074876458 2.9090281654 0.8957834081
H 4.359748539 1.167826991 1.1308058498
H 3.3000491173 1.0317362628 2.5465372496
H 1.6872181171 -1.7254323011 0.5099516117
H -0.4986917142 0.6106349673 2.6153510934
H 1.089859187 1.0435346177 3.2803030363
H 0.1353406358 2.2201585619 0.9121057235
H 0.195772426 -0.0236202526 -0.5436343037

