# b3lyp 6-31G(2df,p) opt Freq 

 titel

0 1
O 0.6791389474 0.2557815742 0.9220786513
C -0.7222796943 0.427394205 0.9573835477
C -1.3382671501 0.3913126484 2.3893105804
C -1.8467481971 1.8040900811 2.7077856981
C -0.7710098081 2.8918283945 3.0477324002
C -0.9063752188 3.4700641153 1.6250386213
O -0.0683453687 2.7834623165 0.6604890569
C -1.1162673347 1.8086120416 0.37214901
C -2.0911167245 2.5140472059 1.3353278196
H 1.0482552533 1.1485633282 0.9920772022
H -1.1506397879 -0.3758792918 0.3479447502
H -2.1797014419 -0.3107104708 2.407342664
H -0.5971838257 0.0278631194 3.1066619192
H -2.6880142002 1.8004273908 3.4024922076
H -1.1229644837 3.5937459949 3.8095452031
H 0.2287750119 2.5441357461 3.3222458385
H -0.8864155485 4.5508186671 1.4736236598
H -1.3370232006 1.7926693623 -0.6984965122
H -3.0858197776 2.8089368814 1.0097483021

