# b3lyp 6-31G(2df,p) opt Freq 

 titel

0 1
C 2.2867041001 -1.4482818214 0.5717741233
C 1.7585153823 -0.0906278609 0.1521807204
C 2.7990154407 0.9382364334 -0.2797209412
C 2.2391820938 2.3404251628 -0.6638001036
C 0.7199668785 2.4489175774 -0.5835500351
C 1.3321690303 1.6833925986 -1.6993652431
O 1.0508661913 1.9659801009 -3.0187624907
C 1.9111461503 0.2833623051 -1.3003482158
O 2.2990426983 -0.5867699454 -2.3104220986
H 2.5977623934 -1.4370902114 1.6214790101
H 1.5173914051 -2.2207670162 0.4612191582
H 3.144535045 -1.7457239949 -0.0373860709
H 0.8814381406 0.2276642997 0.7084654208
H 3.852069446 0.7604784305 -0.1010565778
H 2.8598781859 3.2249681559 -0.7279057609
H 0.1233504235 2.0045023592 0.2073013244
H 0.3605871803 3.4251286473 -0.8985516005
H 1.7313069923 1.5274024874 -3.5454654554
H 1.5436617723 -1.1441204781 -2.5333510436

