# b3lyp 6-31G(2df,p) opt Freq 

 titel

0 1
C 1.6601926708 -0.906210906 2.7791496138
C 0.2876188863 -0.9201875415 2.0965274477
C -0.5794469657 -2.0791867289 2.6030154797
C 0.4648435844 -0.9746650826 0.5540917452
O 1.3344629471 0.0409169304 0.06500944
C -0.822862316 -0.9439744564 -0.1434149591
C -1.8905901919 -0.8784834276 -0.7068913965
C -3.1477287731 -0.7837249717 -1.4035056641
O -4.0643618731 -1.561688255 -1.270770612
H 1.5472668256 -0.7771891332 3.8597670608
H 2.187067097 -1.8530021773 2.6099850138
H 2.2874454676 -0.1003711971 2.3936071177
H -0.2275149661 0.0250160682 2.3212937465
H -0.6961921155 -2.0186816113 3.6891330224
H -1.5752690014 -2.0724921167 2.1530910423
H -0.1118404147 -3.0442931505 2.3747892993
H 0.9694404532 -1.9180147687 0.3048649816
H 0.8773596466 0.8851133552 0.1526104836
H -3.218032851 0.0820632307 -2.0931042225

