# b3lyp 6-31G(2df,p) opt Freq 

 titel

0 1
C -1.8880133342 -2.4662814457 2.7754473322
C -1.8640442152 -2.1607393352 1.2888768183
O -1.7328511542 -3.0112821373 0.4452486772
C -2.0383973856 -0.6719209863 0.9062170676
O -1.5343100227 -0.413354024 -0.3887792285
C -2.6129836862 -0.2167231721 -1.2965440706
C -3.8462631141 -0.0880910113 -0.4364740866
C -5.1857768098 0.2422562136 -1.0074964347
C -3.5084108561 -0.3266949101 0.8289207508
H -1.9492166116 -3.5434854706 2.9340753482
H -0.9715327763 -2.0838814099 3.2407346504
H -2.7271453174 -1.9657128908 3.2710131776
H -1.4921563168 -0.0540318318 1.6363741441
H -2.4181314262 0.6858132814 -1.8945481479
H -2.6931934981 -1.0652362568 -1.9941657576
H -5.9553261662 0.283497125 -0.2328840655
H -5.1682968035 1.2090146049 -1.525728408
H -5.4898467553 -0.5055404208 -1.7505743989
H -4.1692941205 -0.3252364423 1.6862614418

