# b3lyp 6-31G(2df,p) opt Freq 

 titel

0 1
C 0.0091419114 0.6980095919 -0.2117662474
C 1.4012939925 0.149155928 -0.0216547584
C 2.3251209059 0.6051386981 1.1457613279
C 3.4613272636 0.1535941212 0.2122685566
O 4.7839973113 0.5463087272 0.3211998299
C 3.1017552529 -1.2820609524 -0.3891686341
C 1.6225998296 -1.3843319301 0.0105481602
O 2.9974405787 -0.7024282728 -1.724049836
C 2.6182569294 0.486959855 -1.0279445562
H -0.6532086608 0.3967921259 0.6082612849
H 0.0113293176 1.7927444488 -0.2491368736
H -0.4312583733 0.3307172822 -1.1454930864
H 2.3501064506 1.6928462678 1.263737878
H 2.1892878579 0.1254808702 2.1203181995
H 5.1824594529 0.085714813 1.0676907719
H 3.7679573509 -2.1428093048 -0.3317559484
H 1.0558470625 -1.9379671823 -0.7422498752
H 1.4397019797 -1.8126922147 1.000353996
H 2.6253597766 1.4114505577 -1.603733649

