# b3lyp 6-31G(2df,p) opt Freq 

 titel

0 1
O -0.3589607528 -0.6162011265 -0.6172865729
C 0.4836010166 -0.0541222399 0.038371835
C 0.4217113314 1.3790133363 0.479710864
C -0.8171202452 2.196005487 0.0418399123
C -1.2391469871 2.3904528878 1.5258263484
C -0.9629514317 3.7628863753 2.1570823011
C 0.5432684023 3.707430108 2.4614026382
O 0.8123966736 2.3450103484 2.792374565
C -0.0169936165 1.5373052573 1.9950045319
H 1.3779674211 -0.6060926991 0.4093546126
H 1.3980201227 1.8454334332 0.3140797181
H -0.5988754786 3.1165571036 -0.5053036954
H -1.5132619192 1.5924623016 -0.5429401582
H -2.227691702 2.0043396957 1.7764529357
H -1.228229422 4.597059774 1.5015878354
H -1.5272657187 3.8685652809 3.088549934
H 1.1349619471 4.0169614179 1.5857302325
H 0.8500285936 4.3209186115 3.3116981968
H -0.1948745245 0.6010217069 2.5284955656

