# b3lyp 6-31G(2df,p) opt Freq 

 titel

0 1
C -1.1773402076 2.6023801488 -2.4857294648
C -0.3580209449 1.5180465927 -1.7863421284
O 0.371748254 0.7544848028 -2.7678943396
C 0.6994445942 2.0650433482 -0.7990893696
C 0.7723180348 1.0430298791 0.365075997
C 1.8903576875 0.0239296226 0.1610784529
O 2.641453233 -0.3479971254 1.0245840172
C -0.5650537051 0.3366555573 0.256243039
C -1.1738260354 0.5935436718 -0.8998506538
H -1.7282059619 3.2120025154 -1.7627534092
H -0.5216775025 3.2544706772 -3.0703607467
H -1.9066326613 2.154949558 -3.1713912318
H -0.26462679 0.2529153684 -3.2894609192
H 1.6538647997 2.2158159538 -1.3104712117
H 0.3740577902 3.0297579606 -0.4014414379
H 0.9297822127 1.508558635 1.3423313529
H 1.9431845626 -0.3677810588 -0.8783481461
H -0.922914801 -0.3345736686 1.028947436
H -2.1242469989 0.1770351711 -1.2193288763

