# b3lyp 6-31G(2df,p) opt Freq 

 titel

0 1
C 0.3690995759 1.0857234816 -0.2776056137
C 0.6520558978 -0.3878709969 -0.001292251
C 1.2609261592 -1.1454037004 -1.2061063714
O 2.541545312 -0.4551000615 -1.3542279393
C 2.8835425564 -1.1398554106 -0.1278027076
C 2.0171046644 -2.3485290265 -0.5414431001
C 1.4449950965 -2.9325637128 0.7422806021
O 1.5822153227 -1.8710706382 1.7064973752
C 1.8483370686 -0.689523097 0.9558161375
H 0.0707603427 1.6018656203 0.6407024756
H 1.2555131248 1.580431641 -0.6812013401
H -0.4440321447 1.2014240159 -1.0029473439
H -0.2447261947 -0.8796463077 0.3887908827
H 0.693059775 -1.2287243888 -2.1334084718
H 3.9450446418 -1.1668476388 0.1120819505
H 2.4627278466 -3.0405062943 -1.2535162359
H 0.3930989619 -3.2364715881 0.649987222
H 2.0176395899 -3.7980605246 1.0938444394
H 2.1333088731 0.1028754874 1.6468413498

