# b3lyp 6-31G(2df,p) opt Freq 

 titel

0 1
O 1.2668733546 0.8278415848 -0.1275996871
C 0.3899578409 -0.1218681345 0.4716778416
C -0.8552873845 0.5243229282 0.9971499447
C -1.9961730956 0.9560886978 0.1040715322
C -2.295287501 0.0266468804 1.2407902074
C -2.392703598 0.8385417572 2.5446448467
C -0.9393459698 1.2888228005 2.2965987564
C 0.1136116797 1.5305684383 3.2811382795
O -0.4163707655 2.6010594021 2.4782835285
H 1.2036435217 1.6437557937 0.3805494076
H 0.1450714545 -0.8558899416 -0.3043899367
H 0.9027752435 -0.6641082594 1.2828120674
H -2.3597460386 1.9804403254 0.1250781334
H -1.9769 0.5094646121 -0.885069263
H -2.6836103086 -0.9732161604 1.0963513015
H -3.1478679394 1.6301171733 2.5533180283
H -2.4966241559 0.2315935585 3.4472138954
H -0.1391469458 1.5724119137 4.3400966719
H 1.1457063878 1.2557242698 3.0662227841

