# b3lyp 6-31G(2df,p) opt Freq 

 titel

0 1
C 0.8671155766 -0.5158252831 -0.8919581054
C 1.0121062758 0.199346017 0.4431230419
C 2.151971991 -0.3428414887 1.3563919986
O 3.0922998639 0.5490732647 0.6737131058
C 1.9619234155 1.4197258782 0.4038186376
C 1.7755042195 2.3396976476 1.6214718132
O 0.5383186004 3.0255746571 1.4337762376
C 1.7824184594 1.4892944786 2.880598808
C 1.9526835543 0.1728546655 2.764815244
H 0.4051221181 -1.5005955708 -0.7625541309
H 0.2351714476 0.0607706524 -1.5760304379
H 1.8438540057 -0.6562513725 -1.3646017293
H 0.0478831061 0.3569520895 0.9292482397
H 2.4496821219 -1.391772042 1.2876481582
H 2.0654748924 1.9827686522 -0.5280610606
H 2.6088798765 3.0600716103 1.6505128351
H 0.3988475796 3.6105997766 2.185022598
H 1.6427191564 1.98420174 3.8388406926
H 1.9461973194 -0.5064744125 3.6108858338

