# b3lyp 6-31G(2df,p) opt Freq 

 titel

0 1
C -0.5535812793 3.0863488547 -1.3175829843
C -0.8586259921 2.5348577698 0.0550432406
O -0.642080709 3.1448827575 1.0760244176
C -1.4393170321 1.114194241 0.0881323893
C -2.0564882266 0.6927054489 1.4276317998
C -1.7586933066 -0.8165571984 1.5586965838
C -0.3685182798 -0.9757696896 0.9300377993
C -0.3264040128 0.0628766024 -0.1871061204
O 0.4241331625 0.0713406007 -1.1281141891
H 0.0598495015 2.3645129199 -1.867384041
H -1.4856450827 3.210399561 -1.8818276211
H -0.0458154377 4.047772452 -1.2339406186
H -2.1444080137 1.0128879193 -0.7471654388
H -1.5597150439 1.2568269831 2.2229454773
H -3.123865451 0.9174545334 1.4867453015
H -1.8011982886 -1.1616270413 2.5943126677
H -2.4920241111 -1.4007360146 0.99056056
H 0.4173079248 -0.7008257965 1.6477125226
H -0.1262058218 -1.9695293134 0.5479266836

