# b3lyp 6-31G(2df,p) opt Freq 

 titel

0 1
O -4.3996094143 3.5280697303 -1.6345734929
C -3.8825508901 2.6159744389 -1.0454797536
C -2.5049098223 2.6370121175 -0.4263529817
C -2.5364827965 2.2969668684 1.0872313396
C -1.2393452298 1.4901453081 1.3807026049
C -0.4712101041 1.400052806 0.0367211841
C -1.5798733074 1.556087507 -1.0259482043
C 0.2785426745 0.096698849 -0.1067265753
O 1.4598871883 -0.0136245097 -0.3032366786
H -4.41422271 1.6415109549 -0.9108985185
H -2.0759613741 3.6288176788 -0.5950797649
H -2.6091131746 3.2045793953 1.6903179472
H -3.4208058912 1.6931692413 1.3209812504
H -0.6244165316 1.9533867426 2.1553274149
H -1.4904334019 0.4847700464 1.737963665
H 0.2513933408 2.2158788615 -0.056212096
H -1.1932981773 1.8235291925 -2.0121656151
H -2.1309224085 0.6099285448 -1.1303289899
H -0.3767900802 -0.8044630336 -0.0131533855

