# b3lyp 6-31G(2df,p) opt Freq 

 titel

0 1
C -0.4665375984 -1.3347967895 2.4821660542
C -1.2758435351 -0.1574512176 2.0118128267
C -2.188035642 0.6538013049 2.9817534652
C -3.0045234924 0.9904704241 1.7383132128
O -4.2994118405 1.4626812633 1.6854435977
C -2.0144281559 1.219379487 0.5829231857
C -2.4834354109 -0.1831694802 0.9692021375
C -0.61611071 0.9528793904 1.1254554465
O 0.2982463786 0.4681607645 0.1649103637
H 0.2345081822 -1.0304429547 3.2683451173
H -1.105281801 -2.1245584012 2.8907971889
H 0.1227755053 -1.7544412366 1.6610250525
H -2.7487989235 -0.0011211288 3.6557977941
H -1.7201027053 1.4654527806 3.5534092377
H -4.2795112452 2.4200349807 1.794959996
H -2.3064339067 1.7994162269 -0.2844438145
H -2.9920591583 -0.960471111 0.417806653
H -0.0877490495 1.7532557524 1.6561742784
H -0.1910796813 -0.1138177551 -0.4294238936

