# b3lyp 6-31G(2df,p) opt Freq 

 titel

0 1
O 1.3969106684 0.5694842309 -0.1149473661
C 0.1826460468 -0.1538669353 -0.2775241201
C -0.9457504156 0.7282291407 -0.7424811276
C -1.5076197316 1.9883500077 -0.0377612316
C -2.3551618256 1.8540699884 -1.3142980406
C -2.3808122849 0.2887341021 -1.2277900571
C -1.9233531064 0.1695865098 -2.6966318818
O -1.1339552515 -0.9315626728 -3.0881333671
C -1.1338487075 1.370807964 -2.1700659506
H 1.2441310588 1.2449878843 0.5536819014
H 0.3795639644 -0.9232051618 -1.0275014599
H -0.1058490483 -0.6601666269 0.6594203724
H -2.0234151332 1.8324694625 0.9163287728
H -0.8461154507 2.8600514208 0.0193550125
H -3.169958639 2.4861747644 -1.6686389205
H -3.0973706842 -0.3130269344 -0.6646491704
H -2.6922733341 0.3990258669 -3.4494620563
H -1.7186581212 -1.672698895 -3.274843196
H -0.4145760844 2.0036221939 -2.6901047535

