# b3lyp 6-31G(2df,p) opt Freq 

 titel

0 1
C 0.2042671268 -0.0640518327 -0.4772114326
C 1.6745846724 -0.0367268775 -0.0215170471
C 2.1608037506 1.3087734633 0.2675611859
C 2.5409933724 2.4276452195 0.5013133879
C 3.0055173496 3.7765094197 0.7938128549
C 4.0382305796 4.3641600154 -0.1736256481
O 4.5830998532 5.4180245693 0.070728075
C 4.36591887 3.6274021384 -1.4582938811
O 5.2874250244 4.337380906 -2.2285944647
H -0.4496006135 0.3524362965 0.2936580694
H 0.0686835632 0.5238216492 -1.3889680381
H -0.111467766 -1.0916536883 -0.6791434072
H 1.7950757364 -0.6636035487 0.8712039692
H 2.3075732887 -0.4908921449 -0.7945298344
H 2.1630214396 4.4821334498 0.8006665081
H 3.443712289 3.8394684551 1.7973593173
H 4.740400767 2.6265805224 -1.1873527077
H 3.4240334262 3.4527652496 -2.0040112405
H 5.4926606705 5.1323519478 -1.7108435264

