# b3lyp 6-31G(2df,p) opt Freq 

 titel

0 1
C -0.0046659256 0.0745091418 -0.055889841
C 1.4755166563 -0.0192682224 0.1847102281
C 2.131131093 -1.2473394241 0.7646282736
C 2.4773518507 -0.7871918887 -0.6419978544
C 3.6388639279 0.1628322161 -0.8835603722
O 4.1395672906 0.2303153627 -2.1828439227
C 4.4915807009 0.6149343101 0.2844413185
C 3.2721109253 1.4138947533 -0.1444070982
O 2.0552380223 1.2317412892 0.5307784113
H -0.5202806702 0.4221201104 0.8456225168
H -0.2238752864 0.777395303 -0.8658239591
H -0.4130516439 -0.9043163846 -0.3228219899
H 2.85297347 -1.1356052678 1.5647691682
H 1.5181632604 -2.1398615473 0.8436547537
H 2.1829131239 -1.3899314529 -1.4929580494
H 4.8120761606 -0.4533402353 -2.2762907421
H 4.4870191283 0.0730437575 1.2224108757
H 5.4448141139 1.0603421688 0.0169623147
H 3.4036639721 2.4103371901 -0.5518211415

