# b3lyp 6-31G(2df,p) opt Freq 

 titel

0 1
C -0.0103089195 0.1860934711 0.1623388819
C 1.505576831 0.0343502881 0.1889070105
O 1.837440193 -1.3546390294 0.3532489733
C 2.7394632786 -1.5730855132 1.4530482886
C 2.0085265601 -1.1044367595 2.7229394593
O 1.6923078231 0.2822416925 2.582846041
C 2.1854320601 0.8157776375 1.3380291584
C 3.6727193826 0.5790641885 1.2331870758
C 3.9742028826 -0.7182146733 1.2948872185
H -0.4362123882 -0.0401484311 1.1426774115
H -0.2861835612 1.2105767367 -0.1103188901
H -0.4406270468 -0.4944546467 -0.5770159934
H 1.9278961441 0.3792823514 -0.7668362628
H 2.9401926206 -2.6449520208 1.476550416
H 1.0748597385 -1.6695111687 2.8365581824
H 2.6282980069 -1.2533795553 3.6173267198
H 1.9018212281 1.8689643702 1.3272722825
H 4.3827937266 1.3891382582 1.1148811485
H 4.9721455199 -1.1391031064 1.2586411183

