# b3lyp 6-31G(2df,p) opt Freq 

 titel

0 1
C 0.4695262317 -0.4326663687 -0.4873734341
C 0.7797640274 0.6770659736 0.5015840392
O 1.9470976767 1.4674004058 0.1036989493
C 2.8089976945 0.8612743624 1.1011843118
C 3.063212263 1.7641469294 2.3356391084
C 1.761724842 1.2049264634 2.9780536952
C 1.8499356342 -0.1545765754 3.7211063876
O 1.4373319009 -0.8976299518 2.533456684
C 1.5271497713 0.2802424277 1.7632692089
H -0.3866311549 -1.0208740649 -0.1410203443
H 0.225165022 -0.0045249927 -1.464031237
H 1.3237179434 -1.1053498748 -0.6071251007
H -0.0940304425 1.3248525355 0.6484160689
H 3.63124757 0.2936675156 0.6576188068
H 3.9827377382 1.541674897 2.8860669447
H 3.0363612789 2.8305091085 2.1008453185
H 1.0101921021 1.9006671895 3.3512120978
H 2.8530435071 -0.4485309035 4.0532163631
H 1.137121564 -0.3003969366 4.5383877119

