# b3lyp 6-31G(2df,p) opt Freq 

 titel

0 1
C 1.1997820406 -0.0469311076 -0.262959179
O -0.189459295 -0.2777154083 -0.1084368638
C -0.7082699848 0.2150943458 1.1089295855
C -2.248131942 -0.0108117938 1.2484820455
C -2.4687192475 0.6453956783 2.5991082704
C -1.751619068 1.7795258702 2.5248120054
C -1.1466063189 1.7340500324 1.1371035019
C -2.4295210507 1.2644128649 0.3116372664
O -2.320089097 1.1040422494 -1.0620750752
H 1.7669782207 -0.5079830435 0.5580077774
H 1.5012395978 -0.5058453377 -1.2068702217
H 1.4362496911 1.0253627358 -0.2927528175
H -0.0844862154 -0.1186524288 1.9493190646
H -2.7091900919 -0.9720521952 1.0243613647
H -3.0903272857 0.2712640232 3.4000000582
H -1.6332465856 2.5690391311 3.2535110775
H -0.50006295 2.5430940934 0.7980848799
H -3.3316702683 1.8494516405 0.5043791787
H -1.5436740794 0.5471839597 -1.218523369

