# b3lyp 6-31G(2df,p) opt Freq 

 titel

0 1
C 1.178032862 1.4292706464 0.0993046221
C 2.0040922698 0.1549596483 0.1566727015
C 1.8107929469 -1.0483806851 -0.8101524929
O 2.5642382132 -1.8876317996 0.1575246879
C 1.598112236 -1.1061739665 0.9721339837
C 0.5245970732 -1.482680783 -0.0730372775
C -0.0553020641 -2.8959811806 -0.1880090246
O -1.3938377931 -2.3631666398 -0.3303901764
C -0.9304680007 -1.0050130073 -0.2314711509
H 1.3067978192 2.0054441307 1.0217958278
H 1.5157919961 2.0620792718 -0.7283724346
H 0.1090290884 1.253936791 -0.0340801908
H 3.0679310308 0.3691422853 0.2905920819
H 2.0679664644 -1.1475349536 -1.8662717741
H 1.6002237727 -1.2743557069 2.0505897324
H 0.2556578734 -3.4703809556 -1.0688634801
H 0.0443398246 -3.5278886258 0.7026523879
H -1.1503529555 -0.4271215962 -1.1389883904
H -1.3622951973 -0.4838752734 0.6332844971

