# b3lyp 6-31G(2df,p) opt Freq 

 titel

0 1
C 0.0283995683 -0.0911081851 -0.0387196741
C 1.5596017326 -0.037932076 0.0111930399
O 1.9878686405 1.3148694298 0.2145589498
C 2.1414802834 -0.9834012283 1.05530139
C 2.9336908373 -1.9152368616 0.5226843058
C 3.0572389138 -1.7516199037 -0.9538999091
C 3.6883837568 -0.4342675518 -1.4079989449
C 2.2038687823 -0.5454047734 -1.2974768063
O 1.4916130067 -0.4367342055 -2.4906572992
H -0.3931063891 0.2185468909 0.9243481126
H -0.3453949647 0.5813795329 -0.8147044222
H -0.3321289147 -1.1069563738 -0.2361542733
H 1.60819177 1.621341947 1.0452752577
H 1.9297721979 -0.8580105005 2.1124728251
H 3.4662954425 -2.6793560153 1.0788615253
H 3.1219631117 -2.6082509796 -1.6152497813
H 4.2263278659 0.1618542126 -0.6810262211
H 4.0695409153 -0.407692595 -2.4230037872
H 0.7503733036 -1.0510787536 -2.4575719974

