# b3lyp 6-31G(2df,p) opt Freq 

 titel

0 1
O 1.3674194864 -0.2723121508 0.2461409561
C 0.21874627 -0.0626616077 -0.0485253637
C -0.2391146342 0.8032656253 -1.1976797388
C -1.1708243144 1.9349735703 -0.7182264693
C -1.7229502311 2.7750308781 -1.8543604397
C -1.9780037521 4.2666137955 -1.6376638967
C -0.8467767131 3.8405649237 -2.5075860151
C -2.6996772314 2.1157136833 -2.754797542
O -3.0910262247 0.9792106311 -2.637196805
H -0.6137933627 -0.5144139198 0.5416047958
H 0.6419893189 1.1965885348 -1.712608249
H -0.8014071183 0.1664995141 -1.8917945857
H -2.0102620117 1.5004068818 -0.1628611839
H -0.6282925799 2.5846241388 -0.0220709099
H -2.8543051509 4.7035548223 -2.1050026325
H -1.7624760762 4.6476687511 -0.645900369
H -0.9346368492 3.9847700041 -3.5793807455
H 0.164494933 3.9239402595 -2.1254311431
H -3.0722934987 2.7685946346 -3.5792936132

