# b3lyp 6-31G(2df,p) opt Freq 

 titel

0 1
C -2.0300881773 1.1265142148 -1.3341437133
C -2.0041997384 -0.3675751982 -0.9867027836
O -3.0493245453 -0.6961555794 -0.0687263967
C -0.6704971132 -0.8136487542 -0.4801082643
C 0.254372576 -1.7158676042 -0.8969299424
C 1.3239185586 -1.6755946903 0.0585553869
C 0.9746204358 -0.7559000262 0.996976755
C 1.6249987728 -0.2535922389 2.2352206892
O -0.2411726076 -0.2173568722 0.6773236929
H -1.7732038609 1.7278891745 -0.4560834316
H -1.3089917341 1.3577322229 -2.1244207955
H -3.0308060111 1.4090147867 -1.6712388506
H -2.2214614118 -0.9527687839 -1.8862030607
H -2.8076052137 -0.3118946232 0.7813839718
H 0.1836342401 -2.3379103089 -1.7757377086
H 2.231727341 -2.2587899167 0.0495484493
H 2.5860943536 -0.752852075 2.3761541296
H 1.8040935223 0.8267904723 2.1880320363
H 1.0082197532 -0.4437502397 3.1212937964

