# b3lyp 6-31G(2df,p) opt Freq 

 titel

0 1
O 1.6917070003 0.4295050048 -0.0774145582
C 0.4158300603 0.1149636337 0.4648451697
C -0.4852018631 1.3202341237 0.5669327544
C -0.4352997842 2.1543784482 1.8279144098
C -1.6754819758 1.350429069 1.5155479454
C -2.7899753179 2.0848606699 0.8041218539
O -2.5008812188 3.4588661537 0.5052147592
C -2.3326072227 2.4861679456 -0.5364564169
C -0.9012905276 2.0109996436 -0.7432472367
H 2.0723978966 1.1227209488 0.4726573606
H -0.0108655027 -0.6284989888 -0.2186726514
H 0.505812307 -0.3630466768 1.4542153305
H 0.1938142261 1.7911111372 2.635566144
H -0.5134934821 3.2316457576 1.7506993528
H -1.935020025 0.497863084 2.1327508126
H -3.8265700304 1.8709446264 1.0486862123
H -2.9958914139 2.6120792064 -1.3894937218
H -0.8774641994 1.284144732 -1.5635264287
H -0.2367634766 2.833649791 -1.0253875515

