# b3lyp 6-31G(2df,p) opt Freq 

 titel

0 1
O 1.4622853111 0.5692544413 0.306059283
C 0.1393832827 0.0592563692 0.2045162293
C -0.6708314753 0.3016291367 1.449979096
C -0.8957628644 1.7320189698 1.9545560607
C -2.2211091971 1.657663856 2.7635372616
C -2.37300146 0.1640129644 3.0207421773
O -1.1801276692 -0.2866066666 3.755853873
C -0.6424508323 -0.7772347876 2.5304028038
C -1.8913217517 -0.5577271522 1.7417809605
H 1.8570365159 0.189606721 1.0983001027
H -0.3069860328 0.5820271533 -0.6493746902
H 0.1403133574 -1.0165197509 -0.0398648795
H -0.0652529198 2.0676274911 2.5807002367
H -0.9659327629 2.4270572626 1.112485309
H -2.184528591 2.2263917078 3.69673392
H -3.0717344696 2.0223308438 2.1756045547
H -3.2890339615 -0.1701169424 3.5103708059
H 0.0623842553 -1.6014022649 2.573694565
H -2.4467561749 -1.1759671425 1.0498920307

