# b3lyp 6-31G(2df,p) opt Freq 

 titel

0 1
C -0.3311918599 0.4017285629 -0.1438771048
C 0.2384073849 1.4255830718 -1.1336739217
C 0.6759315385 0.7811361507 -2.4411128378
C 1.5730232585 1.4911077864 -3.4983000617
O 1.8702891766 0.1528038161 -4.0708457563
C 1.9970638816 -0.0348769948 -2.6028662036
C 2.78541629 1.2845801028 -2.5753069358
C 3.6140889945 2.054073379 -1.6576748722
O 4.1300631005 1.4779746012 -2.8814147515
H -0.6739468815 0.8879277112 0.7742708683
H -1.1825937368 -0.1348512228 -0.5760721939
H 0.4214626059 -0.343716501 0.134313507
H -0.5270474497 2.1791172879 -1.3593111139
H 1.0708794841 1.9640518778 -0.6698848569
H -0.1434362671 0.2572771398 -2.9413162215
H 1.3396248588 2.2988181482 -4.1913340763
H 2.2656489398 -1.0270450413 -2.2420806503
H 3.5563038324 3.1414333499 -1.6473929307
H 3.9854326888 1.5991470142 -0.7406257465

