# b3lyp 6-31G(2df,p) opt Freq 

 titel

0 1
O 1.7143609182 0.6910274091 0.0684061069
C 0.311950568 0.5369640007 -0.1071184166
C 0.0852090323 0.1217878104 -1.5517117827
C 0.3426603158 1.2546186218 -2.5824056029
C -1.184847154 1.5170551319 -2.6534818123
C -1.4373835561 0.1429853095 -1.9696841509
O -2.3971214606 0.2273317614 -0.9269449982
C -1.7684677268 -0.9280924811 -2.9027588111
C -2.0435259667 -1.8361873984 -3.6422067807
H 1.869490189 1.0044938927 0.9640870977
H -0.0954954764 -0.2306173547 0.5683880536
H -0.224358098 1.4723585493 0.1102769627
H 0.6056029676 -0.8204328133 -1.7380929193
H 0.9734875578 2.0738340112 -2.2344720832
H 0.7457115242 0.8762080109 -3.523913723
H -1.5086215574 2.3130932642 -1.9789102881
H -1.6422803333 1.6686495073 -3.631947585
H -2.6844163353 -0.6663825016 -0.7112172421
H -2.2887936582 -2.6292769813 -4.3047998548

