# b3lyp 6-31G(2df,p) opt Freq 

 titel

0 1
O 0.7671350301 2.6977543616 2.5382581304
C -0.1680733597 1.6349706963 2.3002887798
C -1.5077369562 1.9707624265 2.7834954072
C -2.613208099 2.2834437078 3.1386590435
C -0.1538078359 1.2606208311 0.8209370756
C -0.7378595878 -0.0821209711 0.3052970523
C 0.4633297084 -0.1614228363 -0.6827492452
C 1.2131493079 0.8259222205 0.2327555244
O 2.013425148 1.7825790227 -0.4097750524
H 0.3367340468 3.5192762987 2.2754961214
H 0.2215577174 0.7891222982 2.8815673392
H -3.5873929451 2.5471342275 3.4699317792
H -0.5446373985 2.0956267886 0.228267148
H -0.6916005283 -0.8658956308 1.0678293973
H -1.7442407018 -0.0645670557 -0.1143724579
H 0.9198308563 -1.1345748757 -0.8727396974
H 0.2285216744 0.3194554704 -1.6362175579
H 1.7833088235 0.2765756889 0.9993747246
H 2.3200251193 2.3887710009 0.2742902079

