# b3lyp 6-31G(2df,p) opt Freq 

 titel

0 1
O 0.4840387372 -0.1142779466 0.6365950939
C -0.7426599508 0.5552538619 0.8354176547
C -1.4398741511 0.2528078064 2.2079327753
C -2.9838875413 0.1574119467 2.1904912739
C -3.5270585758 1.5965575116 2.4230018848
C -2.3134862656 2.5197003289 2.3782541828
O -1.8417346086 2.7603310555 1.0205150787
C -0.6136406738 2.040225592 1.252071225
C -1.056692676 1.6895085321 2.6983698191
H 1.0279492763 0.0038701336 1.4233015971
H -1.3397447048 0.3805995346 -0.0638359461
H -0.9674050636 -0.5882038157 2.7208202813
H -3.3319886416 -0.261341143 1.2415918193
H -3.3382250941 -0.5160301657 2.9762132865
H -4.2671908877 1.9011916108 1.6775090702
H -4.005129118 1.6774665821 3.4059581547
H -2.456263854 3.4686603237 2.9060328907
H 0.2779953827 2.5942931583 0.9447459822
H -0.4879995194 1.847950423 3.612002166

