# b3lyp 6-31G(2df,p) opt Freq 

 titel

0 1
O -3.0988163075 -1.4154398704 -0.0404194756
C -2.1954042976 -0.8383642901 0.8964234156
C -0.7330914587 -1.2222807331 0.617518799
C -0.1810736074 -0.1050894067 -0.2743621212
O 0.821634514 -0.1548216095 -0.9367848165
C -1.1366589893 1.097434937 -0.1861659867
C -2.1755858552 0.694604708 0.8512236683
C -2.3288148883 1.4722071847 2.1378355524
C -3.4308853469 1.4754402761 1.1072449863
H -2.9010721583 -1.0692010545 -0.9173384399
H -2.541052315 -1.2042853636 1.8664844446
H -0.1494538735 -1.2097061507 1.5475158863
H -0.6164318945 -2.2089451693 0.1647466925
H -0.5808674454 2.0073360141 0.0571289301
H -1.570165227 1.257483546 -1.1831916767
H -2.4891661991 0.919082603 3.0578149257
H -1.737294899 2.3741776479 2.258222061
H -4.3344420807 0.9129379756 1.316754005
H -3.5927801506 2.3838292954 0.5361699898

