# b3lyp 6-31G(2df,p) opt Freq 

 titel

0 1
C -4.7979765191 -1.174847012 -2.6816353787
C -4.2111861616 -0.6472150359 -1.3984603702
O -4.0442663632 0.773728369 -1.3023271987
C -2.8713834917 -0.0473747832 -1.3214781297
C -2.0357850143 -0.0609762352 -0.0740927864
C -0.8632023504 -1.0948205889 -0.0293735645
C 0.0639148225 0.0546792346 0.4032427826
O 1.166646078 0.0990385207 0.8626542157
C -1.0130138016 1.109658748 0.1052961928
H -4.643022829 -2.2563126661 -2.760478161
H -5.8759305921 -0.9862559925 -2.7176302335
H -4.3378186702 -0.6904618037 -3.5470856107
H -4.6031834307 -1.0999183563 -0.4851081426
H -2.300915267 0.0228824757 -2.2525085268
H -2.6863575945 -0.1513241145 0.7988861991
H -0.9459181876 -1.9397661113 0.6582116015
H -0.5886691657 -1.4794884298 -1.0190190689
H -1.2049852639 1.8447916017 0.8900876494
H -0.8058499979 1.6464863196 -0.8277954994

