# b3lyp 6-31G(2df,p) opt Freq 

 titel

0 1
O -0.109053026 1.3466907917 -2.907611936
C -0.0713654302 1.6424830981 -1.5106079846
C -1.2439807703 0.9845283471 -0.7300363431
C -0.7197970091 -0.0760226319 0.2428554989
C 0.2158045208 -1.069057548 -0.4833733633
C 1.4901477001 -0.2407634653 -0.577223116
C 1.3470770721 0.7792487512 0.5219303747
O 0.1303819376 0.5820899006 1.1969544128
C 1.264716124 1.2366251576 -0.9137276601
H 0.2713995728 0.4697637844 -3.0254548665
H -0.1752415311 2.7309995091 -1.4652065531
H -1.7883064496 1.7384576298 -0.1533882794
H -1.9411739419 0.5502918268 -1.4534109033
H -1.5270673558 -0.5536383551 0.8014303861
H 0.39237694 -1.9655210036 0.1195015794
H -0.2001746174 -1.3828663665 -1.4460269073
H 2.435644169 -0.713836595 -0.8116989538
H 2.1440638832 1.0999565514 1.1807291425
H 2.125625202 1.7707537976 -1.3038979277

