# b3lyp 6-31G(2df,p) opt Freq 

 titel

0 1
O 1.1094891556 -0.1465140728 -0.0514587718
C 0.0426503486 0.7838177828 0.117547536
C -1.2158971105 0.3219474609 -0.5521265347
C -1.8876514424 1.0067777976 -1.4816789331
C -3.146030432 0.407840251 -2.0746104187
C -3.4030634262 -0.9573713157 -1.4175055383
C -3.300941382 -0.890238403 0.1230498642
C -1.7968727144 -1.0408354447 -0.2029382777
O -2.1609312655 -1.7191534778 -1.4464706802
H 1.205885266 -0.2991909309 -0.9978443376
H -0.0957590475 0.85654161 1.2038922211
H 0.315086303 1.7874556118 -0.2437687541
H -1.5533670887 1.9816746786 -1.8289216766
H -4.0069650167 1.0739636723 -1.9255119116
H -3.035457548 0.2836971323 -3.159985589
H -4.2344771989 -1.5012995717 -1.8735056359
H -3.633420275 0.0108334629 0.6421717566
H -3.7144745368 -1.7862190879 0.5888752088
H -1.1455696286 -1.6473661755 0.4274954524

