# b3lyp 6-31G(2df,p) opt Freq 

 titel

0 1
O 1.1842753945 0.0062042836 -0.0884289595
C 0.0837944178 0.9104749704 0.0013710936
C -1.1207894227 0.4075581724 -0.7166978319
C -1.8568123995 0.9340284808 -1.7010029849
C -2.9331186691 -0.1421810072 -1.9535212642
O -3.8615903168 0.0282413867 -2.9743506791
C -2.0539555529 -1.4276929253 -1.9389365029
C -1.8066226443 -0.9486316507 -0.4663960466
C -3.3120805094 -0.5129017972 -0.4699391828
H 1.3587655628 -0.1340075258 -1.0252423161
H -0.115026957 1.0016122666 1.0764581409
H 0.3507809429 1.9127143756 -0.3674856197
H -1.7625484649 1.8777736608 -2.2225685848
H -4.3220277988 0.8621431826 -2.832167493
H -2.6446209948 -2.345981188 -2.004489378
H -1.1966463842 -1.458148514 -2.6152231867
H -1.3906710522 -1.6063874251 0.293110297
H -4.0113820798 -1.3522013821 -0.4079780764
H -3.6043098215 0.2993581461 0.2005598951

