# b3lyp 6-31G(2df,p) opt Freq 

 titel

0 1
C 0.1370298203 -0.4208467645 0.3089832714
C 1.5833552742 -0.1131043766 -0.0194062839
C 2.0420073869 -0.6316006325 -1.3989080391
C 3.5463244156 -0.5987002627 -1.5020591791
C 4.2998865402 -0.2396624024 -0.4645499904
C 3.6180888474 0.1260519614 0.8334153198
C 3.0037734799 1.5372895554 0.7657712099
O 1.8040970348 1.3090586852 0.0297174618
O 2.4250578077 -0.6518346679 0.9839110366
H -0.1122705049 -0.0019960435 1.2861065575
H -0.5200975305 0.0210098488 -0.4445878208
H -0.0265298932 -1.5013941263 0.3300179215
H 1.6679783753 -1.6507756495 -1.5670462403
H 1.5904855239 0.000148592 -2.173261765
H 3.9942736382 -0.8840520614 -2.4501090247
H 5.3821135983 -0.1840139334 -0.5239450409
H 4.2471646344 -0.0409624508 1.7095047966
H 2.7740207316 1.919937364 1.7695104624
H 3.6276877698 2.2613264446 0.2332957068

