# b3lyp 6-31G(2df,p) opt Freq 

 titel

0 1
O 1.0854391882 0.6120545959 -1.998087352
C 2.235365711 0.7503933974 -1.1933846999
C 3.373417874 -0.1375390158 -1.7508220215
C 3.7096504841 0.276625779 -3.1886492611
C 3.8924716811 1.764945861 -3.3129077272
C 3.4441223633 2.6294499552 -2.4054416026
C 2.6935430106 2.2281755559 -1.1625165228
C 1.9099152282 0.2969168474 0.2170853864
O 0.8221575247 -0.1279455468 0.5234756533
H 0.4056058464 0.2345440636 -1.4175192739
H 4.260712898 -0.028890856 -1.1146200662
H 3.0636640423 -1.1870505647 -1.7161329506
H 4.6151495286 -0.2454051697 -3.5199008418
H 2.903433298 -0.0521452757 -3.857217033
H 4.4047456192 2.1306899669 -4.199074443
H 3.6060184951 3.6958339577 -2.5418717638
H 3.3181684677 2.4145221971 -0.2755594117
H 1.798002001 2.8489133007 -1.0430526987
H 2.7351892685 0.3676620111 0.95601714

