# b3lyp 6-31G(2df,p) opt Freq 

 titel

0 1
C -2.5514528829 4.4951307186 -0.3290593288
C -3.014458129 3.2552069098 0.4173503407
C -2.2270044924 2.5940576567 1.5858683893
O -3.0435392518 1.3744571516 1.3833481241
C -2.6167657296 1.8011167861 0.0296831411
C -1.1786826348 2.0273405778 0.5866053491
C -0.3525785159 0.8198693313 1.0213973315
C 0.2598158219 0.0968295149 -0.1553740628
O 1.4315587282 -0.1495561139 -0.2838278363
H -2.7401658782 5.3898969273 0.273491976
H -1.4888173088 4.4847121532 -0.5823020593
H -3.1141976574 4.6064182855 -1.26191316
H -4.07948009 3.3045849606 0.6578779967
H -2.0835240441 2.9349493168 2.6124866835
H -2.9506551151 1.1939956532 -0.8132039086
H -0.5702103107 2.7655637316 0.0593490461
H 0.4525351307 1.1146638355 1.7013655825
H -1.0220987722 0.1236640424 1.5420968999
H -0.4749657779 -0.2110661191 -0.9368611947

