# b3lyp 6-31G(2df,p) opt Freq 

 titel

0 1
C 1.2934004529 1.1636511623 0.1882013017
C 0.9956953833 -0.321392884 -0.0245502084
C 1.8633330709 -0.9541357357 -1.1087657636
O 3.2419009676 -0.9340960353 -0.7296281037
C 3.8276184152 -2.1888669839 -0.9698686666
C 3.8359943675 -2.6867776314 -2.3719962748
C 2.7789913567 -3.1985046458 -1.3777598293
C 1.5024641591 -2.4325720276 -1.36017924
O 0.3788476908 -2.8596312441 -1.454255566
H 0.6657558542 1.5775411468 0.9829401662
H 2.3400371057 1.3138622411 0.4673107504
H 1.1024489679 1.7401678922 -0.7238470986
H 1.1507623866 -0.8764669566 0.9081479846
H -0.0480508583 -0.4782798866 -0.3180639585
H 1.7314490473 -0.3979473926 -2.0513315888
H 4.6329205492 -2.4133583613 -0.2807062103
H 3.5251305779 -2.0209900852 -3.1697248995
H 4.590794195 -3.4127703522 -2.6522332187
H 2.7708974405 -4.2422860201 -1.0941123061

