# b3lyp 6-31G(2df,p) opt Freq 

 titel

0 1
C -0.0275333741 -0.0529727023 0.3471195316
C 1.4331086196 -0.024641412 -0.0726001576
O 2.2236963994 -0.6581371845 0.9237311589
C 2.0908525626 1.2913665365 -0.6884981162
C 3.1756670211 0.3415425487 -1.2973974941
C 1.9145811005 -0.5863675842 -1.4732800504
O 1.9698745278 -1.947108529 -1.7246614677
C 1.0802957778 0.2634623405 -2.422467612
C 1.192708037 1.4942721463 -1.9089912752
H -0.1561727132 0.4762713861 1.3009287881
H -0.6806914229 0.4182013601 -0.3861010922
H -0.3503262899 -1.0892166318 0.4917592537
H 1.8568504223 -0.443756978 1.7865118598
H 2.3514031047 2.1455121815 -0.0652140636
H 3.658394623 0.679447254 -2.2156641731
H 3.8971094466 -0.0281765461 -0.568215498
H 2.3791381848 -2.3533516023 -0.951064323
H 0.5168967838 -0.1092157624 -3.2656910039
H 0.7353247991 2.4203503189 -2.2274626153

