# b3lyp 6-31G(2df,p) opt Freq 

 titel

0 1
O 0.4838459666 0.6781051972 0.5934597593
C -0.8429444537 0.7310452337 1.0345581827
C -1.8461519754 -0.187787232 0.3134674625
C -3.1624041688 0.1289177386 1.1042946861
C -3.0867785962 1.6704671111 0.9149247093
C -2.6418142833 2.9416763714 1.7257601159
C -1.6495982415 3.2577660306 0.5262388346
C -1.7292355017 1.7525570291 0.270650074
O -1.7802145173 0.7727410695 -0.8290301549
H 0.4380818556 0.673893485 -0.3723598399
H -0.8261357897 0.7349565585 2.1270154884
H -1.6211706069 -1.211778222 0.016552136
H -4.0568797199 -0.3009575205 0.6502227131
H -3.0855781859 -0.2394030356 2.131515379
H -3.8453164606 1.9968753369 0.1980634917
H -3.4129874969 3.6859482459 1.9274493823
H -2.1037533354 2.720714576 2.6492847412
H -2.1474633798 3.8579930522 -0.2394564935
H -0.6677839391 3.6791874244 0.7509555022

