# b3lyp 6-31G(2df,p) opt Freq 

 titel

0 1
O 0.4270420507 0.6185200853 0.5657440811
C -0.9673810211 0.6020751551 0.7354307383
C -1.8021799915 0.8885495677 -0.5360148354
C -2.8710653092 1.4807397694 0.435381959
C -1.6951007369 1.7997242549 1.4048275401
C -3.7713853036 0.3676498844 1.0032227188
C -2.9445768339 -0.824688029 1.4633327624
O -2.108393792 -0.6543663441 2.6197459225
C -1.4859231044 -0.7096214667 1.3307721279
H 0.8381152046 0.4954922319 1.4289465624
H -1.3295695534 1.6680630784 -1.137998865
H -2.0787799444 0.0424571771 -1.1720871366
H -3.4645032179 2.3214709175 0.0722384224
H -1.1957535224 2.7322573361 1.131037835
H -1.8756706618 1.7556689663 2.4788214951
H -4.3840860908 0.7435300472 1.8316163307
H -4.4644807404 0.0227512742 0.2256766838
H -3.4163124654 -1.8048132714 1.4106811181
H -0.864019916 -1.5852883741 1.1471152494

