# b3lyp 6-31G(2df,p) opt Freq 

 titel

0 1
C -0.5282058181 3.9030631985 -0.8772689533
C 0.2134340583 2.6250885874 -1.2756081304
C -0.6758628038 1.3494735937 -1.1473703164
C -0.0056610851 0.2823199416 -0.2943403393
C 0.8047981713 0.7421030001 0.9028004174
O 1.0994569966 2.1236808803 0.9237899732
C 1.4686267407 2.4159555531 -0.4202227857
O 2.1783199246 1.2775995812 -0.8951439472
C 1.5094510301 0.1888306368 -0.2989565781
H -0.8315783376 3.8562601649 0.1731354198
H 0.1028886365 4.7893801593 -1.008334652
H -1.4260613021 4.0397499179 -1.4880943384
H 0.5645571967 2.7211366856 -2.3091650444
H -1.6379538495 1.6138389661 -0.6933714201
H -0.9019580723 0.9420630476 -2.1380549122
H -0.5415546684 -0.6552580146 -0.1780790368
H 0.7554075424 0.2995182891 1.8885532428
H 2.1398028699 3.2789359611 -0.4214369425
H 2.0640359597 -0.7381738897 -0.3537587964

