# b3lyp 6-31G(2df,p) opt Freq 

 titel

0 1
O -4.5538471308 1.5019561251 2.7193133812
C -3.706416588 1.7602399173 1.6424672423
C -2.3032258069 1.2515743175 1.7640907259
C -1.1425695148 2.0754590809 1.2081930072
C -0.6490410086 1.5846408685 -0.1651470545
O 0.2074884577 0.4411266125 -0.0506713315
C -1.7940130633 1.285763782 -1.1096491034
C -2.9635369703 0.8074576408 -0.6760643676
C -3.2528991098 0.6064579698 0.76309119
H -5.4479804545 1.3929021379 2.3780846439
H -3.840533484 2.7285215803 1.1567246053
H -2.1148291279 0.6804232067 2.6666335637
H -1.4433561323 3.1253050282 1.1080923229
H -0.2940858269 2.0522830017 1.8979106519
H -0.0054433918 2.3587083909 -0.5961367
H -0.3619227251 -0.3199916539 0.1052612838
H -1.6054699688 1.3995896816 -2.1731678012
H -3.7442109128 0.5438043419 -1.3870219484
H -3.6801664513 -0.3530545699 1.0437101484

