# b3lyp 6-31G(2df,p) opt Freq 

 titel

0 1
C -0.4234212616 -2.031982982 -1.2831521251
C -0.9361670542 -1.2681058186 -0.0490431651
C -0.0635645364 -0.0256436852 0.1866994392
O 1.0653928184 0.0013139645 0.5972673627
C -0.9128141472 1.1839842181 -0.219626863
O -2.0780338306 0.6495545702 -0.8220477401
C -2.2996760593 -0.6264620417 -0.2419012339
C -3.5498679236 -1.3214072969 -0.6480812076
C -3.4215584954 -0.7522502003 0.7571984511
H -1.0191189098 -2.9331529463 -1.4535420865
H -0.4887692206 -1.4093195273 -2.1805282278
H 0.6200049209 -2.3251084826 -1.1393793481
H -0.8908055334 -1.9112006253 0.8339155902
H -1.1432636448 1.7765608957 0.6807547626
H -0.3917933875 1.8281214431 -0.9331276639
H -4.1968043097 -0.7958947993 -1.3415578865
H -3.5241879315 -2.3980288344 -0.7770524661
H -3.9862067933 0.1465119503 0.9778954459
H -3.3108806103 -1.4431343319 1.586632512

