# b3lyp 6-31G(2df,p) opt Freq 

 titel

0 1
C -4.0658223447 0.0884327594 -1.2583734605
C -3.417093643 -1.2728636769 -1.4916821905
O -4.3660165272 -2.3269994922 -1.6008941608
C -2.4007754099 -1.6074471286 -0.4050006479
O -1.2704987224 -0.7106359589 -0.4033051798
C -0.3347205255 -1.8047410089 -0.4647630718
C -1.4813085619 -2.8389841283 -0.6473607878
C -1.5538870882 -3.9455442963 0.2807092279
C -1.6111622626 -4.8497329378 1.0713138821
H -4.6203730402 0.0959364033 -0.3112555655
H -3.3025860787 0.8700876634 -1.2070997913
H -4.7632475419 0.32274632 -2.0668857241
H -2.8906105351 -1.2638383833 -2.4537835749
H -4.9053277263 -2.3256974492 -0.8019069942
H -2.892825352 -1.6311198871 0.5796438122
H 0.3637724757 -1.7043142515 -1.3021257477
H 0.2243088301 -1.9221573512 0.4702402442
H -1.5639372566 -3.1965085713 -1.6773672894
H -1.6624108296 -5.6555346348 1.7608889001

