# b3lyp 6-31G(2df,p) opt Freq 

 titel

0 1
O 1.1159069573 -0.4915700874 -0.3142314933
C -0.0435895684 -0.2682992851 -0.1130391373
C -1.2892247567 -1.1408592215 0.1001075867
C -2.1494078658 0.1481711301 -0.0794300509
C -0.8600549605 1.0330778278 -0.0526611894
C -0.6339108386 2.1002637508 -1.1455821344
C -0.680636825 3.4473523586 -0.3769191504
O -1.1548869348 3.1438236367 0.9287153783
C -0.649785322 1.8600410624 1.235943529
H -1.4275306998 -1.9531718769 -0.6179251189
H -1.3227186008 -1.5656897686 1.1089315087
H -2.6620957832 0.1798675641 -1.0434129531
H -2.8747757224 0.3533782329 0.7100065171
H 0.3349653384 1.9511607269 -1.630161126
H -1.4072288183 2.0387947413 -1.915015214
H 0.3232341057 3.895020599 -0.3233713401
H -1.3612368457 4.1806322666 -0.8166220199
H 0.425645404 1.9025315819 1.4774265506
H -1.1929492533 1.4751911607 2.1028723873

