# b3lyp 6-31G(2df,p) opt Freq 

 titel

0 1
C -1.010557528 2.0357703323 1.1696485815
C -1.0101174632 1.020929626 0.0361953407
C -1.1172199941 1.6480772921 -1.3748095993
O -1.775870018 0.6960325499 -2.1949575347
C -2.7637305671 0.0767405827 -1.3778452529
C -2.0799135868 -0.1390645524 -0.0290871403
C -0.943501353 -1.2077028373 -0.0301048094
C 0.074140572 -0.0708019554 0.1225218896
O 1.2560737109 -0.0260301762 0.3093852633
H -0.9996488104 1.5449486297 2.1475715876
H -0.1214638505 2.6723324207 1.112735569
H -1.8952642835 2.6797169201 1.1209656367
H -1.7026884296 2.5807855859 -1.3089128066
H -0.1484829528 1.8756426268 -1.8275158711
H -3.6443359234 0.7310204017 -1.2663953345
H -3.0763311122 -0.8455933379 -1.8752713887
H -2.7717299579 -0.2052726332 0.811061235
H -0.9448218151 -1.9242065209 0.7960429145
H -0.8351282573 -1.7579721643 -0.9706264405

