# b3lyp 6-31G(2df,p) opt Freq 

 titel

0 1
C 4.425223992 -3.8548604397 0.8347359473
C 4.1886905283 -2.465712484 0.2388527041
C 3.0923742966 -2.4912346229 -0.8495018501
O 3.410017083 -3.40230786 -1.8691565267
C 2.8924906559 -1.1042503739 -1.450017442
O 3.1192911314 -0.9170620463 -2.6247950148
C 2.4610347666 0.0662052235 -0.5558470295
C 1.5403811628 -0.2654521315 0.5216990139
C 0.7732117428 -0.5346913097 1.4063903162
H 3.5258217246 -4.2243837765 1.3394739862
H 4.688444022 -4.5661498627 0.0486397736
H 5.2364215255 -3.8306495376 1.5684191616
H 3.8971157936 -1.7634539806 1.0280034311
H 5.1149734093 -2.0907292625 -0.2144724828
H 2.1434947711 -2.7842058932 -0.3727111494
H 3.5129501193 -2.8669857616 -2.6719613667
H 3.3838949257 0.4943226896 -0.1380435447
H 2.0406018775 0.8296541668 -1.2178631619
H 0.093336572 -0.772442557 2.1870558046

