# b3lyp 6-31G(2df,p) opt Freq 

 titel

0 1
C 1.416517999 -0.1055267692 -0.1077998565
O 0.0157769276 -0.0379619594 0.0218485133
C -0.4016126783 0.7003267824 1.1464847773
C -1.9157263322 0.6811290644 1.1919559011
C -2.550591679 1.1769961772 2.5061062124
O -3.0167311084 -0.1466562512 2.8407046443
C -2.5446654423 -0.6899289031 1.5776937793
C -3.6163345041 -1.1863556444 0.7308651296
C -4.5016831114 -1.5893194154 0.0247399945
H 1.8845509853 -0.5934798271 0.7617027736
H 1.6334150677 -0.6938579228 -1.0023333368
H 1.8643396007 0.8942707545 -0.2217503146
H 0.0108151714 0.2640738711 2.0739504708
H -0.037424103 1.7414370989 1.0904135362
H -2.3267527495 1.1137761073 0.2793060422
H -1.8525109314 1.5667265876 3.2579728224
H -3.379071805 1.8853095616 2.3881241885
H -1.8039581552 -1.4817008003 1.745504685
H -5.2829018619 -1.9524939221 -0.5963302825

