# b3lyp 6-31G(2df,p) opt Freq 

 titel

0 1
O 1.3632498098 2.8990657994 1.2883291099
C 0.4518263407 1.8672387054 1.5339194524
C -0.6391647606 1.7303593351 0.4563133788
C -0.5663246085 0.1804890531 0.5374114379
C -1.257167519 -0.3820305599 1.8050486067
C -0.0627151447 0.0683240555 2.6844294409
C -0.0498392878 1.5990227783 2.9712533393
C 0.7683937199 0.3236627723 1.3821698712
O 2.0149089493 -0.2209168032 1.1545429181
H 1.9406100895 2.9821567657 2.0549181359
H -1.6044800621 2.2107285105 0.6437520319
H -0.240713321 2.0891917548 -0.4974805846
H -0.6658912236 -0.3778580312 -0.3931923789
H -2.2463400926 0.0142405053 2.0574365196
H -1.315770389 -1.4734992472 1.7661401324
H 0.2601931022 -0.5916308439 3.4886552433
H -0.9802733102 2.0774968834 3.2934732241
H 0.7376947874 1.8373924382 3.6970396934
H 2.4682796102 0.3448697585 0.5175830278

