# b3lyp 6-31G(2df,p) opt Freq 

 titel

0 1
C -2.7980954778 2.4892483332 2.0388311328
C -2.4136970037 1.098530248 1.6379992251
C -3.3092685647 -0.0372592737 1.2512955641
C -3.0269220498 -1.229412974 2.1558332424
O -1.8181815343 -0.8938272603 2.8519631205
C -1.2505806151 0.2137788891 2.1702135012
C -0.8738610592 -0.1318038204 0.6886161234
O 0.1356894235 0.7094813994 0.1623360914
C -2.2286711734 0.4242125856 0.2787414257
H -3.0998472943 2.5300944488 3.0920875244
H -1.9664703252 3.1884354895 1.9000236178
H -3.6395695063 2.8513057911 1.4386105358
H -4.3323510987 0.1731542403 0.9603950647
H -3.8267229998 -1.3765226233 2.8918337653
H -2.8960256898 -2.1687765487 1.6017682971
H -0.463320516 0.6541340892 2.7832969232
H -0.6580097543 -1.192027185 0.489220362
H 0.9797289358 0.4109970119 0.5171254977
H -2.4736174469 0.7984676291 -0.7088283246

