# b3lyp 6-31G(2df,p) opt Freq 

 titel

0 1
C -0.3590328331 -0.5770302947 3.7798891929
C -1.1881543286 -0.8430595938 2.5627019563
O -1.1507364044 -2.2364859789 2.1044408638
C -2.4548112207 -2.0090407114 1.5722034962
C -2.4733761653 -0.609612487 0.9286961536
C -2.7603068841 -0.8229151004 2.4122015464
C -1.0866867447 -0.0352612806 1.2231813845
C 0.068293729 -0.3180759852 0.2745589467
O 1.304514576 0.2010021128 0.7586563895
H -0.6898088361 -1.1965347994 4.6184459988
H 0.694469634 -0.8050003818 3.5855705691
H -0.4292243749 0.4758674903 4.0679018938
H -3.0485566398 -2.8533826879 1.2489380029
H -3.171886516 -0.3347890498 0.1485075569
H -3.5808549298 -0.5395387299 3.0562131496
H -1.1517106979 1.0358950506 1.440846013
H 0.131806588 -1.3966477915 0.0852728754
H -0.1165752067 0.1785369183 -0.6853570929
H 1.6540157752 -0.4280797497 1.3958255733

