# b3lyp 6-31G(2df,p) opt Freq 

 titel

0 1
C -5.3581027131 -1.5260925563 0.0485525686
O -4.0039064372 -1.1749839166 -0.1274124911
C -3.1361058436 -1.6809247102 0.8825953351
C -2.7976602656 -3.1657016158 0.6663247084
C -1.9224059684 -0.8644744987 0.885097671
C -0.9016580789 -0.2255164682 0.8937204351
C 0.3032139955 0.5565851696 0.9291758444
C 0.9187485108 1.0863801702 -0.3043137675
O 1.4940131726 -0.0246562145 0.3687400189
H -5.7359808492 -1.2071494051 1.0328306112
H -5.9225956944 -1.0066083629 -0.7293558925
H -5.5367093719 -2.6061674692 -0.0558119889
H -3.6281783579 -1.569943443 1.8645125258
H -2.1152263689 -3.5154682357 1.4454804563
H -3.7027360643 -3.7780223619 0.7030652603
H -2.3180073558 -3.298293297 -0.3063337437
H 0.4804712326 1.1042762245 1.8541996919
H 0.4487970365 0.8664135877 -1.260779461
H 1.4841838913 2.0162466632 -0.2552663525

