# b3lyp 6-31G(2df,p) opt Freq 

 titel

0 1
C 1.497894357 -0.0551007806 0.1170603106
O 0.0899835972 -0.0346984338 0.0901912865
C -0.468263112 0.6570394445 1.1857726153
C -1.977298573 0.5766179513 1.0800444347
C -2.5573845798 -0.8154637282 0.9984407581
O -2.6586303928 1.4890858339 1.9440576091
C -2.7393904817 1.7220904266 0.5235159321
C -2.1233138956 2.9135088153 0.0056660934
C -1.6425042725 3.9152525795 -0.4534219819
H 1.8806808347 -0.5517344103 1.022773438
H 1.8331200041 -0.6123085023 -0.7608624025
H 1.9211903954 0.9604885099 0.0778406984
H -0.1529133434 0.1963201164 2.138587468
H -0.1495277191 1.708594008 1.2010153066
H -2.3000089183 -1.3813590422 1.9006360879
H -3.6462346113 -0.7808112785 0.9155756708
H -2.1428968207 -1.3444912017 0.1371512732
H -3.7190884775 1.4991360911 0.1010032314
H -1.2125100708 4.7994301212 -0.8551667797

