# b3lyp 6-31G(2df,p) opt Freq 

 titel

0 1
O 1.5094697704 0.2482745455 -0.6527305276
C 0.2335896636 0.1340570869 -0.017626501
C -0.8029616386 0.4276939272 -1.0902032521
O -0.6011561679 -0.4328377696 -2.1878210534
C -2.2756416194 0.572160333 -0.6838078822
C -2.0732390414 2.0412896306 -0.1654499392
C -3.2474408506 2.5748524111 -1.0082439627
C -2.5817361753 1.51391497 -1.9042795878
C -1.1397690986 1.9044150951 -1.4198326067
H 2.1727966969 -0.1534461961 -0.0853383572
H 0.0776384961 -0.88610753 0.3629966968
H 0.1463647932 0.8358910027 0.8225625765
H 0.3560058156 -0.4752011876 -2.3112739636
H -2.9467372378 -0.1794875503 -0.2636697343
H -1.7674381324 2.3334770924 0.8400004769
H -4.256147326 2.3528055556 -0.6442675443
H -3.1807522646 3.6156774851 -1.3416172917
H -2.8499303476 1.185644672 -2.9065682554
H -0.5046856357 2.6844443366 -1.8422592311

