# b3lyp 6-31G(2df,p) opt Freq 

 titel

0 1
C 4.4548926362 -1.3770556046 -0.1087090109
C 3.8462597746 0.0344638919 0.0235667268
C 2.3848943962 -0.0064390578 0.061045468
C 1.1817649633 -0.0609073988 0.1099780236
C -0.2798095631 -0.0697370786 0.1708569525
O -0.8805004352 1.0763114969 -0.4171776031
C 4.3905874871 0.7368895099 1.2606265223
C 4.7187837171 2.1647876386 1.2638309007
O 5.746372098 1.1707146141 1.180685003
H 4.166182696 -2.0038691113 0.7404379943
H 4.1073671168 -1.8633653453 -1.0233094269
H 5.5453764161 -1.3052522799 -0.1362152947
H 4.1623344573 0.6256117533 -0.8463683452
H -0.6750918685 -0.9284572301 -0.3832222149
H -0.5989907837 -0.196060423 1.218062523
H -0.4611636724 1.8511442835 -0.0288309809
H 4.1219383997 0.2645618075 2.2070338089
H 4.5642548102 2.7513895436 0.3591129851
H 4.6888977943 2.7289180502 2.1945564186

