# b3lyp 6-31G(2df,p) opt Freq 

 titel

0 1
C 2.2277915053 -3.7650613379 1.3580359572
C 0.8341534672 -3.3780249501 1.7386147259
C -0.4332702281 -4.2376219322 1.4655886969
C -1.2105880337 -2.9391566546 1.6731659686
C -0.4027020044 -2.1852770557 2.7428357274
O 0.6757709964 -3.018548494 3.1519225529
C 0.0077976419 -2.0896485131 1.309886546
C 0.2557298159 -0.9646037757 0.3655726486
O 1.4682704219 -0.2745447899 0.6443881842
H 2.5584511776 -4.618555711 1.9598486877
H 2.2716342123 -4.0501207412 0.3025963499
H 2.9158387261 -2.931666862 1.5204933209
H -0.4789956032 -4.5706779424 0.4253343562
H -0.6056154194 -5.0760304567 2.1479676577
H -2.2528157427 -2.7259860382 1.470694094
H -0.8149346816 -1.4674811858 3.4409587012
H 0.3598375474 -1.3303890069 -0.6625224097
H -0.6125295695 -0.2843660256 0.375615363
H 1.4470824707 -0.026408127 1.5748797212

