# b3lyp 6-31G(2df,p) opt Freq 

 titel

0 1
O -2.3166001544 1.4081286949 -0.2265441646
C -1.1022591528 1.7534737704 -0.8561234052
C -0.2905021595 0.4851877126 -1.0487138704
C 0.2796487096 0.0014004395 0.2686218397
O 1.4516324922 -0.1971709552 0.4681943268
C -1.1945002959 2.8794177271 -1.8532994446
C 0.1396974971 3.1701221704 -2.5454841633
C 0.8185720545 3.3566562151 -1.1468657601
C -0.5291984013 3.087485013 -0.4666702846
H -2.743284588 2.2112297512 0.0902270549
H -0.9672635556 -0.2836733446 -1.4442728107
H 0.5305438307 0.6222003892 -1.7533081521
H -0.4758067354 -0.1453517756 1.0705718094
H -2.1723237784 3.1929127405 -2.2035574341
H 0.5355524664 2.3840702895 -3.1964923289
H 0.1177845458 4.1026571474 -3.1132720387
H 1.6298138593 2.6696503314 -0.8888200158
H 1.1697592079 4.3789743454 -0.9944771894
H -0.9010717322 3.6071358877 0.4114027016

