# b3lyp 6-31G(2df,p) opt Freq 

 titel

0 1
C 4.7158938212 1.4371034131 -0.4645136019
C 3.1811882872 1.3405868668 -0.3945012175
C 2.742572142 -0.0710759092 0.077078376
O 3.3267179515 -0.4023699551 1.3330796808
C 1.2819217037 -0.1919606732 0.1198737005
C 0.0828815927 -0.2513882758 0.1863051504
C 2.5695112509 1.7670574609 -1.7358779949
C 2.5642574731 0.7608781218 -2.874530338
O 2.1367229169 2.8865859441 -1.8797231083
H 5.1468267522 1.1493422752 0.4965375581
H 5.1271377144 0.7687200487 -1.2289163546
H 5.0250586546 2.4583174626 -0.7018979227
H 2.8117586117 2.0678183522 0.3368974257
H 3.1448214194 -0.8189194463 -0.6170724318
H 2.8581519528 0.0973640654 2.0113909029
H -0.976462712 -0.3148939443 0.2374186821
H 1.8183102307 -0.0156934623 -2.67042324
H 2.30210799 1.2689369522 -3.8031546072
H 3.532681587 0.2621538133 -2.9818695698

