# b3lyp 6-31G(2df,p) opt Freq 

 titel

0 1
C 6.5932203393 -1.0169385683 -0.8399510982
C 5.4699502891 -1.2176742927 -0.4663226193
C 4.1158059515 -1.4945879594 -0.0058978636
O 3.3077609154 -0.3435163928 -0.1544170203
C 1.9763899583 -0.5570419574 0.2655098364
C 1.2203023493 0.7452872602 0.0764932962
C 0.8226064601 1.1411436944 -1.3607003396
C -0.6232269451 1.0179422943 -0.838290507
O -0.1629271864 0.5987427203 0.4670049072
H 7.5853016636 -0.833019036 -1.1711887923
H 3.6944769359 -2.3380643916 -0.5795686175
H 4.1400324885 -1.8141009207 1.0500842115
H 1.4971611667 -1.3577576737 -0.3226953261
H 1.9338590037 -0.8557845539 1.3263718662
H 1.720427615 1.5396253907 0.6454914098
H 1.1311312223 2.1369259377 -1.6795066723
H 1.1094054625 0.4158500512 -2.1243048987
H -1.1868390644 1.9574677978 -0.7861176683
H -1.2515969254 0.2552260199 -1.3130426341

