# b3lyp 6-31G(2df,p) opt Freq 

 titel

0 1
O 0.2259166475 0.6143372845 0.0678214498
C -0.299477841 1.2761220423 1.1866377368
C -1.8440313187 1.1987804572 1.192453566
O -2.2470002873 2.2477219 2.0893614772
C -1.0230446173 2.8639851427 2.5556646721
C -0.1483291426 2.8143823215 1.2988380957
C -0.3748483048 1.8611637583 3.5126659829
C 1.0995896919 1.5629497469 3.4130662649
C 0.1267741954 0.7733095418 2.5724834073
H 1.1834488172 0.5831034433 0.1637385372
H -2.2470146804 1.3831540212 0.1888419113
H -2.2116290577 0.2300407945 1.550225038
H -1.2802291052 3.8394455924 2.9686072216
H -0.6127921394 3.3344011252 0.4592368725
H 0.8760011365 3.1675416965 1.4193653887
H -0.9090799291 1.6213569118 4.4243077051
H 1.7891847883 2.2742993379 2.9731509047
H 1.5205360033 1.0248426714 4.2560428592
H -0.0289672866 -0.2790698393 2.7846846089

