# b3lyp 6-31G(2df,p) opt Freq 

 titel

0 1
C 1.5477411446 -0.0079342913 0.0809183316
O 0.1397604981 0.0806622414 0.0443618367
C -0.4036562798 0.7270184922 1.1635880283
C -0.3110465454 2.2930360363 1.1272528595
C -1.8327726737 2.3651266756 0.9933435905
C -2.5095897345 1.6247073956 2.1296380827
C -1.9250048577 0.8090123727 1.0353009057
C -2.573275076 3.2552733628 0.096160736
O -2.0764085766 4.1502689508 -0.5469163801
H 1.8937420497 -0.5605658032 0.9682975313
H 1.8604839149 -0.5456305986 -0.816738351
H 2.0246124562 0.9831624106 0.0835047849
H -0.0419643348 0.2543967198 2.0917141116
H 0.1254796263 2.7995327391 1.9930211056
H 0.1846649842 2.6305011777 0.2154103739
H -2.047733281 1.6546197634 3.1137168916
H -3.5938563227 1.6840858928 2.1427674384
H -2.5148407658 0.1643016937 0.3958120519
H -3.665144606 3.0333567788 0.033084511

