# b3lyp 6-31G(2df,p) opt Freq 

 titel

0 1
O 1.3465669299 2.0619800368 -1.3595722889
C 2.3878848502 1.6884608069 -0.4793110857
C 3.6528857633 1.2628150774 -1.2649224464
C 4.4288166335 2.4886768169 -1.7541532791
C 4.9168712421 3.320318389 -0.5628931764
C 3.8173913134 3.5408249118 0.4405191626
C 2.6899109518 2.8313778844 0.4713824945
C 1.9260294891 0.4934504282 0.3455705856
O 0.8403139736 -0.0117796141 0.1949704865
H 0.641124795 1.4088991655 -1.2212476851
H 4.3025802652 0.6532998538 -0.6212101732
H 3.3299852778 0.63443281 -2.0999128158
H 5.2731799376 2.1794762465 -2.378119324
H 3.7653385788 3.0964841743 -2.3793576305
H 5.7681338396 2.822737992 -0.0732460769
H 5.3012203185 4.2897673187 -0.9018601648
H 3.9551191515 4.3471387643 1.1576349887
H 1.9032244731 3.0748082999 1.1810203184
H 2.6507849861 0.1129654279 1.0934184606

