# b3lyp 6-31G(2df,p) opt Freq 

 titel

0 1
C -1.8057687585 -1.0396746835 -0.820411572
C -1.9629567394 -0.0303842497 0.2754974462
C -0.8203097177 0.8358621768 0.8213352492
O 0.2932127002 0.9797905703 -0.0091799088
C -2.0556729785 1.4845952622 0.2832662954
O -3.08311777 1.4961040193 1.2783357779
C -3.0905357343 0.0551682157 1.2784649052
C -3.4031392451 -0.7324719537 2.5062266282
C -4.3724226501 -0.7047925839 1.3284090191
H -1.5854972382 -2.037199885 -0.4191663263
H -2.7141819843 -1.117947181 -1.4265130968
H -0.9826974994 -0.7558068509 -1.481858291
H -0.6291695649 0.8783502784 1.8954035921
H 0.8218855204 0.1767105534 0.0520853367
H -2.0727830328 2.2327918067 -0.5004894729
H -2.8447494454 -1.6427974877 2.6998768298
H -3.6825713774 -0.1729804907 3.3922474988
H -4.4727184556 -1.5964068676 0.7179355105
H -5.2817196789 -0.1246617792 1.4423905988

