# b3lyp 6-31G(2df,p) opt Freq 

 titel

0 1
O 1.6708983704 0.5902210293 -0.4318714932
C 0.4080668871 0.0038814643 -0.1584788939
C -0.6703897337 1.0511330464 -0.4289745675
C -0.6803851427 1.5207984389 -1.9074626468
C -1.9648114095 0.8941993461 -2.4964327424
O -2.398041774 -0.0868076028 -1.5542295589
C -2.0782879435 0.4192677851 -0.2626282063
C -3.0752854243 1.3843864583 0.2177937732
C -3.8897389922 2.1811318564 0.6014045401
H 2.3443803802 -0.0909925899 -0.3491710779
H 0.2255308956 -0.87530992 -0.7967371796
H 0.3447446684 -0.3259343351 0.8909911477
H -0.5260794153 1.8865261869 0.2591799243
H -0.6988471769 2.6098181103 -1.9841908663
H 0.2221187406 1.1742229479 -2.4144923971
H -2.7462084597 1.6541967232 -2.6337172077
H -1.8107993287 0.3805063616 -3.4483893123
H -2.062767009 -0.4438073801 0.4127241609
H -4.6147107727 2.8765363233 0.9462094837

