# b3lyp 6-31G(2df,p) opt Freq 

 titel

0 1
C 0.2979664176 1.7951996733 0.3123711748
O 0.2585318765 0.3990712802 0.5932170657
C 0.8253838912 -0.3525473988 -0.4717231759
C 1.5240389896 0.67948669 -1.3626631587
C 0.6118072133 1.9075516611 -1.1948505762
C -0.6473044655 1.8256530799 -2.0184272073
C -1.2393881144 0.7123042165 -2.4478502768
C -0.7670134308 -0.7182157174 -2.3131535893
O -0.1516442841 -1.1392813018 -1.1037651577
H -0.6645665574 2.2404657952 0.5836006386
H 1.0857833042 2.2744472163 0.9126010495
H 1.510873567 -1.07828779 -0.022309378
H 2.5177412323 0.8893584816 -0.9550460661
H 1.6444515415 0.3475242155 -2.3950065433
H 1.1355457354 2.8427064563 -1.4121572269
H -1.1334392463 2.7766850653 -2.2260487947
H -2.1618209028 0.8110115785 -3.0166660584
H -1.6333435529 -1.3791120015 -2.4158370414
H -0.1064314044 -0.9527565202 -3.1660269878

