# b3lyp 6-31G(2df,p) opt Freq 

 titel

0 1
C -4.048499356 -1.7573971661 -0.0764140722
C -2.9838185862 -1.1774171107 0.858615164
C -1.8535595215 -0.4691269659 0.102482367
C -0.8074897734 0.1061943006 1.0500408978
O 0.211040654 0.8429311637 0.3345944567
C 1.2368298393 0.1219430048 -0.1467382785
O 1.3711020115 -1.0712083814 -0.0264549097
C 2.1814736145 0.9751450957 -0.8368302604
C 2.9986557723 1.6327289651 -1.4225577148
H -4.840136457 -2.2606085351 0.4869433812
H -4.5157920665 -0.9714492516 -0.6797545921
H -3.6123183399 -2.4884109221 -0.7656363889
H -3.4542527237 -0.4728073573 1.5573220022
H -2.5602155757 -1.9810639182 1.474657093
H -1.3632510101 -1.1736438714 -0.5783605249
H -2.2629354544 0.3427433191 -0.5111290596
H -1.2471546915 0.84185404 1.7281578329
H -0.3281906431 -0.6843344153 1.6329303599
H 3.7213018976 2.2150197961 -1.9405206835

