# b3lyp 6-31G(2df,p) opt Freq 

 titel

0 1
C 0.0256939615 -0.3846827235 -0.5083741867
C 1.1271245579 0.0981257598 0.419533766
O 1.4446418634 1.4345813425 0.0734987529
C 2.3728963506 2.0507857958 0.9360583158
C 2.5607448637 3.4993387973 0.5193466942
C 3.8433056027 3.8173113692 0.347848754
C 4.7057719865 2.6107985181 0.5606236645
O 4.4320715661 1.5566159367 -0.3887264364
C 3.8086293006 1.4972861217 0.8949166654
H -0.2442659775 -1.4188611319 -0.2743762646
H -0.8655845829 0.2406301493 -0.4045031978
H 0.3575084895 -0.3388044409 -1.5492635062
H 0.7984329481 0.0494028053 1.4721461704
H 2.0160501811 -0.5448344848 0.3256902406
H 2.0078518099 1.9885230064 1.9789780517
H 1.7069060163 4.1432903138 0.346498708
H 4.2296599297 4.7849249704 0.0524007874
H 5.7352715391 2.6771755656 0.8988334393
H 4.1043474635 0.6635549892 1.5255404715

