# b3lyp 6-31G(2df,p) opt Freq 

 titel

0 1
O -0.6397148261 -1.9770433629 -2.4607853245
C -0.366622004 -1.0250443578 -1.4305720756
C -1.2863208435 0.1473486974 -1.6522825684
C -0.881630248 1.3226332697 -2.1323797553
C 0.5375204713 1.6192002396 -2.5328361396
C 1.3877648721 0.3445760569 -2.6261499954
C 1.1259872349 -0.6108266967 -1.4403911117
C 1.5298659114 0.017201987 -0.1206176288
O 2.5074216942 -0.3009506763 0.5094136443
H -0.2162815471 -2.8070908686 -2.2153241597
H -0.6044984933 -1.4727361711 -0.4517169021
H -2.3326795807 -0.0188653251 -1.4129721656
H -1.6026493166 2.1284545086 -2.2503987662
H 0.542990432 2.1394767285 -3.4984025956
H 0.9767937009 2.3334261895 -1.8206840572
H 1.1214842462 -0.2013131063 -3.5371432752
H 2.451949641 0.5908390877 -2.6875522678
H 1.7431070772 -1.5088342101 -1.5535917836
H 0.850245648 0.8163980201 0.2530157281

