# b3lyp 6-31G(2df,p) opt Freq 

 titel

0 1
O -1.9870604339 2.3885614519 3.0396969241
C -2.1357797999 2.5663948195 1.6755681987
C -2.9987864189 3.6411387926 1.0820418889
C -3.3230919771 2.1868714801 0.8046255299
C -2.3779915688 1.6560856353 -0.2794332549
C -1.1494951184 2.0071411338 0.6321549097
C -0.3763758474 0.7788355508 1.1303639711
C 0.4588546839 0.19176658 0.0191499324
O 0.2634537919 -0.8772051484 -0.5012412738
H -1.5829830511 3.1810964831 3.4097551168
H -3.6605939292 4.1198062727 1.7973073378
H -2.637048742 4.2916744523 0.2875847804
H -4.2767517522 1.7590264638 1.0864912273
H -2.4630443334 0.581049841 -0.4527779022
H -2.4264401925 2.1728398267 -1.2431212428
H -0.4503331407 2.7452578448 0.2174786926
H 0.2870771353 1.0835821345 1.9505572063
H -1.0608361155 0.0146979279 1.5092658244
H 1.2915816398 0.8496366176 -0.3271030368

