# b3lyp 6-31G(2df,p) opt Freq 

 titel

0 1
O 0.2357253448 -0.1165382881 0.3358291242
C -0.8979047836 0.569526371 0.7498838074
C -1.6238826896 1.5343552882 -0.1969322712
C -2.7754489486 1.3728320197 0.8398158172
C -2.1640906036 2.0862000795 2.0674358394
C -0.876867069 1.2268756641 2.1574177708
O -1.0858425971 0.1222147405 3.0470128746
C -2.1829610408 -0.624734204 2.4793440156
C -2.2798346931 -0.1067278622 1.0468405228
H 0.5955065653 -0.5696524677 1.1080591689
H -1.2073026268 2.5335651341 -0.3548072243
H -1.8449351997 1.0614007037 -1.1566033231
H -3.808319702 1.5941967201 0.5765143635
H -1.9683189075 3.1439398569 1.8689514262
H -2.7501268943 2.0092668234 2.9868530834
H 0.0422818171 1.7311126985 2.4566979338
H -1.9374361735 -1.691678328 2.5259824541
H -3.0982819382 -0.461864462 3.064396011
H -2.6295169898 -0.8100008077 0.2921821958

