# b3lyp 6-31G(2df,p) opt Freq 

 titel

0 1
C 1.0942723 0.831549104 0.0953426599
C -0.2200178452 0.1073051115 0.0922138229
C -0.2978550664 -1.2363689225 0.085847533
C -1.5719775957 -1.9798662381 0.1185755987
O -1.6034631649 -3.1948520974 0.0867880336
C -2.843492786 -1.1423993599 0.2258686546
C -2.7001025434 0.2317747674 -0.4382944078
O -2.6589181415 0.1305894888 -1.8560860343
C -1.4643681646 0.965124793 0.1064056259
H 1.1592442958 1.5086594418 0.9566010938
H 1.9416510197 0.1432582507 0.13129133
H 1.1913573373 1.4611958675 -0.7980136778
H 0.5975632533 -1.8515656059 0.0666743151
H -3.6737477276 -1.7054275603 -0.2063370583
H -3.0558387503 -1.0101263251 1.2962800773
H -3.5917902682 0.8326048683 -0.2339590395
H -1.8917771535 -0.401438508 -2.0966200236
H -1.3002913725 1.8720185832 -0.4862946292
H -1.6516553364 1.3025723809 1.1367330655

