# b3lyp 6-31G(2df,p) opt Freq 

 titel

0 1
C 1.5363303546 -0.0749360414 -0.0938989841
O 0.1347306467 0.0934626269 -0.1667023857
C -0.4177629384 0.6580823788 0.9829228472
C -0.2626095141 2.264293617 1.156883053
C -1.6899679053 2.2903448088 0.6053770884
C -2.0104942656 1.9783322955 -0.8871470982
C -3.0800030396 1.3686229757 0.0120453033
O -3.1206148939 2.6846363175 0.7911691961
C -1.9878182868 0.8694014966 1.0136901376
H 1.8184338432 -0.7111508429 0.7586804772
H 1.8497807283 -0.5606072882 -1.0204227783
H 2.0625979481 0.8856309386 0.0008640348
H -0.0771883021 0.1112819661 1.8734632096
H -0.1878088681 2.521136898 2.2160882186
H 0.5181773878 2.7759680692 0.5875603787
H -2.3343743533 2.842733804 -1.466841278
H -1.3411952123 1.3073243034 -1.4219046941
H -4.0643606507 0.9558758808 -0.2223749583
H -2.3590251384 0.7664419555 2.0340910521

