# b3lyp 6-31G(2df,p) opt Freq 

 titel

0 1
C -2.2522250439 2.8590033084 2.2749892822
C -0.8032236233 2.7253234566 1.7770512187
C -0.5627953769 3.6831358602 0.6206544644
O 0.2498123397 4.5695872669 0.6153729869
C -0.4978921272 1.308962466 1.3111791679
C 0.8954787882 0.7808078225 1.2827485759
C -0.0726449626 0.2671839777 2.3420714079
C -0.6034569563 -1.1070396376 2.2050311731
O -0.8864416218 -1.8340897744 3.1237416551
H -2.4450284913 2.1443201467 3.0799533197
H -2.4486621067 3.8661342931 2.6535118979
H -2.9662682411 2.6550024623 1.4690469991
H -0.1029286195 3.0070584454 2.5704880192
H -1.2203566597 3.4989628803 -0.2630886182
H -1.1642650775 0.9399568039 0.533222224
H 1.1758328626 0.0992945449 0.4864024322
H 1.6990164379 1.4179633309 1.6347985355
H 0.070102932 0.6003090277 3.3644262
H -0.7315003427 -1.4372602517 1.1452260085

