# b3lyp 6-31G(2df,p) opt Freq 

 titel

0 1
C 0.817149192 -0.6020631297 -0.7529494473
C 0.9149759458 0.2699758451 0.4778936229
C 1.9697560033 1.3516162911 0.5936409993
O 1.588756381 2.5619461998 1.1878836738
C 2.0889056066 2.7745225623 2.4999592231
C 1.9297803466 1.5774203556 3.4070089037
C 1.8848646468 0.3418312284 2.9120823733
C 2.0648220448 0.1179598174 1.4555399584
O 2.9979591304 -0.8760888294 1.1154718218
H 0.3054067801 -1.5437214689 -0.5281508156
H 0.2539716719 -0.0921494309 -1.5419672824
H 1.8074820357 -0.8511344257 -1.1391117905
H -0.0281336139 0.543616816 0.9425990382
H 2.6846338791 1.453452469 -0.2224187948
H 3.1503724685 3.080525379 2.4703438068
H 1.5266034814 3.6278727252 2.8928948881
H 1.8523941013 1.7683069958 4.4736791957
H 1.762486535 -0.5333856873 3.5445216904
H 3.8550216935 -0.6027095428 1.4618204953

