# b3lyp 6-31G(2df,p) opt Freq 

 titel

0 1
O 1.7999770419 0.256630985 -0.0780584671
C 0.4243636539 0.6186850749 0.0088154386
C -0.3362601192 0.3187988838 -1.2475265515
C -1.3546040634 -0.5347545441 -1.4019680234
C -1.8854665591 -0.5687230382 -2.8199517166
C -0.925668793 0.3478938263 -3.5776871854
C 0.5394509655 -0.0020296576 -3.6057703459
O 1.3339614643 0.572590313 -4.6016650491
C 0.0328550647 0.9525803111 -2.5520499671
H 2.1679669399 0.6904233714 -0.8551167678
H 0.0147405472 0.0491265691 0.8481093451
H 0.3213925803 1.6888898465 0.2585570762
H -1.7634471104 -1.1557285091 -0.6120998515
H -1.9004439018 -1.5878525604 -3.2291349734
H -2.9201219981 -0.2028059142 -2.8724753938
H -1.2875838651 0.9560249199 -4.3985634483
H 0.8493384683 -0.9933560729 -3.2712649661
H 1.1172458459 0.1483160449 -5.4388852729
H 0.3621895681 1.9855269105 -2.6077306402

