# b3lyp 6-31G(2df,p) opt Freq 

 titel

0 1
C 1.6172591936 0.1507218091 0.0553262362
O 0.2217466094 -0.1121095259 0.1030602719
C -0.4260416232 0.5611698824 1.110349844
C -0.7845816691 2.0259817831 1.0664298287
C -1.8807779366 0.9764057625 1.1527843962
C -2.9771471211 0.7967693635 0.1452781149
C -1.9551559464 0.4001085295 2.6115130059
O -0.9751069605 1.029146122 3.4545424717
C -0.5601423631 -0.0175501035 2.5667160081
H 2.1174937685 -0.1477649748 0.9870599691
H 2.0230788429 -0.4370177062 -0.7708623996
H 1.8161707993 1.2161156066 -0.1214752359
H -0.5733751093 2.6931347613 1.8929223874
H -0.6892713711 2.4587613055 0.0744569067
H -3.3729300508 -0.2252524325 0.1635166236
H -3.8118611734 1.4819127309 0.3354950723
H -2.6078064251 0.9887372816 -0.8664218965
H -2.8234438851 -0.0379790554 3.0901565225
H -0.0486837089 -0.8784461898 2.9812437228

