# b3lyp 6-31G(2df,p) opt Freq 

 titel

0 1
C 1.3276172831 1.6460780499 -2.1652516911
C 1.6648985429 0.6569913987 -1.041672355
C 2.0327353204 -0.7120934537 -1.5556459535
C 3.289719077 -0.9414729178 -2.3736542422
C 3.5578279509 -2.4544873255 -2.2829486922
O 4.3696103292 -3.0554564273 -2.9327396775
C 2.6399145787 -3.072180841 -1.2119469926
C 1.6564614449 -1.975910617 -0.8882067577
O 0.9411130084 -1.5177223626 -2.0446926605
H 1.0225981635 2.6122115955 -1.7534583738
H 2.1874880678 1.8203730495 -2.8200689622
H 0.5074749037 1.2628828148 -2.7795000177
H 2.4953869139 1.04355275 -0.4371513544
H 0.8042086296 0.5526830361 -0.3719079763
H 3.1879617638 -0.6430764444 -3.4205493858
H 4.1508412297 -0.4014538853 -1.959683208
H 2.1696608228 -3.982207632 -1.5950051689
H 3.2429600011 -3.3536191089 -0.339428055
H 1.0871307887 -1.989606879 0.0381855544

