# b3lyp 6-31G(2df,p) opt Freq 

 titel

0 1
C -3.9799621086 3.5177030821 -0.969783445
C -2.6909686094 3.4066760665 -0.1656079025
C -2.343131724 1.9514554949 0.3217491827
C -1.0846539102 2.0004012907 -0.5636131325
C -0.3407175691 0.8686009955 -1.2092350945
C 0.464425373 0.0691847989 -0.1966877081
O 0.4333006733 -1.1294732452 -0.0975384789
O -0.3117538933 3.1270332046 -0.1102219228
C -1.4027248266 3.3697561276 -1.0077790788
H -4.8531237566 3.3401875581 -0.333924985
H -4.0855173284 4.5132750023 -1.4144397133
H -4.0057411813 2.7843270887 -1.7840823517
H -2.6554008708 4.1649790366 0.6220051158
H -2.1560391442 1.8124289332 1.3891248044
H -3.0798220264 1.2188763083 -0.0193491805
H -1.017544692 0.1884448497 -1.7342770156
H 0.369188323 1.290824327 -1.9331615102
H 1.1096403871 0.6906787439 0.4625573088
H -1.1762087754 3.8877604665 -1.9344989521

