# b3lyp 6-31G(2df,p) opt Freq 

 titel

0 1
C -1.9573024839 -2.7433091332 -0.088124143
C -2.677737233 -2.8905604598 1.2431884316
O -3.1200011216 -3.962389838 1.6065633688
C -2.8411822899 -1.6871793806 2.0903887275
C -2.0131547621 -0.4246524672 1.9896312087
C -3.470869761 -0.3137146704 1.7014901019
C -4.2888462903 -0.3164278021 3.0045535824
O -5.6853988318 -0.3341320697 2.841647527
C -3.6344812238 -1.6793073724 3.403135227
H -0.8821440219 -2.6145184864 0.0804488638
H -2.1157284434 -3.6465903251 -0.6781607635
H -2.3056119047 -1.8693125304 -0.647849658
H -1.6010231335 -0.0059330765 2.9052378121
H -1.3537298027 -0.3468237601 1.1321046003
H -3.8500741715 -0.0034221008 0.7340817953
H -4.0832377364 0.5279774178 3.6697734455
H -5.9186515626 -1.1122749442 2.3225176981
H -3.0456450219 -1.708704202 4.3249186925
H -4.3769711438 -2.4794899087 3.4346208621

