# b3lyp 6-31G(2df,p) opt Freq 

 titel

0 1
C 1.0916902112 1.3085930294 -0.2143686245
C 1.3919363442 -0.1622711413 -0.035103215
O 1.6252028755 -1.0488067821 -1.0842776965
C 0.8771527769 -2.277411429 -0.929857333
O -0.0327821467 -2.3145130739 0.1328340763
C -1.1312505441 -1.3852882348 0.1762164754
C -0.8155462623 -0.2961423727 1.2598583265
C -0.0090886419 0.3404200693 0.1206134609
C -0.9925575866 -0.2682213814 -0.8821343686
H 1.5049464916 1.9812019746 0.5307330416
H 1.0532258245 1.7190189002 -1.2184889271
H 1.916266738 -0.4093563555 0.888744055
H 0.3916845452 -2.4586179825 -1.8991980365
H 1.582482425 -3.0879967196 -0.7159310088
H -2.0603720612 -1.95682637 0.2515804725
H -1.7201969905 0.2524267657 1.542352142
H -0.2767334862 -0.6302890999 2.1488319123
H -1.9174755969 0.3124952242 -0.949899402
H -0.6449204757 -0.5176991908 -1.8843305505

