# b3lyp 6-31G(2df,p) opt Freq 

 titel

0 1
C 1.4213287989 -0.1508929101 -0.1942580293
O 0.0615522973 -0.2925776092 0.1746658124
C -0.3588315336 0.5857956224 1.2071252016
C -1.8641762667 0.6613699748 1.1825632175
C -2.4197295932 0.0281567153 2.2150741661
C -1.3991081398 -0.5652133096 3.1527044297
C -0.0952107612 0.038946554 2.6289357852
C 0.9124255231 0.6300564878 3.5190041439
O 1.1323206432 -0.6355094062 2.8850358117
H 2.0972807785 -0.414895217 0.6258869406
H 1.5917793304 -0.828500218 -1.0348229631
H 1.641178425 0.8777656778 -0.5228554297
H 0.1218823599 1.5667907208 1.0626123138
H -2.3951212229 1.1350571037 0.3658631726
H -3.4865067888 -0.0749924401 2.3806617822
H -1.5821603919 -0.3142900689 4.2034699338
H -1.3773454976 -1.6607784924 3.0870850759
H 1.5412275789 1.4459723004 3.1632285623
H 0.7698142605 0.5908706445 4.5983342726

