# b3lyp 6-31G(2df,p) opt Freq 

 titel

0 1
C -3.9589310476 -1.5141177383 -0.1620012537
C -2.6805126683 -0.8994945451 0.3808460183
O -1.5780628591 -1.6370861579 -0.1348627338
C -0.3275282974 -1.1773544302 0.3137169985
C -0.1132634725 0.3007371267 0.1004567045
C 1.3039061464 0.7878683076 0.1205849377
C -1.1761584662 1.1001324568 -0.0791657388
C -2.5517592371 0.5923277883 0.033897508
O -3.5273706801 1.3100672069 -0.0712542148
H -4.8156419031 -0.9215930287 0.1624321839
H -3.936187963 -1.5202656265 -1.2553120171
H -4.0669213808 -2.5421417207 0.1915039229
H -2.6780144515 -0.9616201827 1.4868220289
H -0.1788953744 -1.4079433257 1.387489121
H 0.4277478864 -1.7499186454 -0.2370613133
H 1.8032118444 0.496878662 1.0535552264
H 1.8824447245 0.3364062621 -0.6951028602
H 1.3581845153 1.8744765716 0.0264298489
H -1.0717252657 2.166745889 -0.2570940776

