# b3lyp 6-31G(2df,p) opt Freq 

 titel

0 1
C 0.3036772027 -0.382184447 -0.7530207263
C 0.9371794071 0.0907876194 0.5434104119
O 1.3422284683 1.4705762551 0.4014457863
C 2.4529183416 1.6537703183 1.2503436476
C 3.7593969516 0.9128738858 0.9311878961
C 3.4227233597 -0.2916872957 0.0553758573
C 2.2209477057 -0.6065432671 1.0102038484
C 2.8108919674 0.43291498 2.0187784001
O 3.0258273214 0.2875338493 3.3721594592
H -0.0756136794 -1.4025856949 -0.6379084886
H -0.5356310389 0.2659599756 -1.0205918666
H 1.0207042638 -0.3677637143 -1.5778895211
H 0.1874872463 0.024539418 1.3529770631
H 2.5260348075 2.6420029802 1.6890791749
H 4.7185737452 1.4089772701 1.0258900581
H 3.1843072383 -0.0936354919 -0.9933477587
H 4.1936536211 -1.0634146966 0.1110621617
H 2.0987410691 -1.6374855078 1.3402832512
H 2.2262700615 0.5519629635 3.8407482255

