# b3lyp 6-31G(2df,p) opt Freq 

 titel

0 1
O -1.116599489 -3.5100247041 0.3341328478
C -1.7413415449 -2.354665793 0.8399705114
C -1.6145843202 -1.0827558149 -0.0662358342
C -0.8078767743 -0.3892147582 1.0430101095
C -1.6334047582 -0.3270318685 2.2972218845
C -0.9647947542 -1.6272843185 1.946245438
C 0.3901519693 0.4507450617 0.8202581912
C 0.5759185725 1.25700162 -0.3945288134
O 1.2824165804 0.0266790288 -0.2223727401
H -0.2085971549 -3.2780650374 0.105710757
H -2.7594900671 -2.6615942896 1.099418795
H -1.0068538953 -1.310964084 -0.9453771594
H -2.5377696542 -0.5862781798 -0.3832333578
H -1.1884195471 0.2090127779 3.1306489163
H -2.7145312971 -0.2229246048 2.2312755972
H -0.2414512726 -2.0983496344 2.6026511282
H 0.8995354611 0.7798825373 1.7279697432
H -0.1941236648 1.2479385806 -1.164691182
H 1.1865315607 2.1583328509 -0.3594644623

