# b3lyp 6-31G(2df,p) opt Freq 

 titel

0 1
O -2.2622732409 -3.0351850688 -0.9578808067
C -2.0398329483 -1.6822331496 -0.7228967763
C -2.3885379246 -1.1669522776 0.6241317623
C -3.0053255466 0.2239561697 0.7865516998
C -1.9585986339 1.3426868657 0.9028004342
C -0.8800249124 1.2232093919 -0.1898541773
C -0.0965199222 -0.0725701735 -0.0197854845
O 1.1161966945 -0.1056631568 -0.0469390749
C -0.907948757 -1.29255379 0.2346652509
H -1.5809139924 -3.3536484211 -1.5601159342
H -2.2190166392 -1.0251533514 -1.5751909613
H -2.7272500643 -1.9324498572 1.3143524205
H -3.6633651033 0.4320280469 -0.0666227861
H -3.6453118866 0.2301086602 1.6741456351
H -2.4476352209 2.3207122821 0.8445757288
H -1.4732681647 1.2927702277 1.8853609537
H -1.3587312509 1.2327782692 -1.1797341631
H -0.1665986028 2.0499921933 -0.1626374656
H -0.3491704737 -2.1305423106 0.6361151648

