# b3lyp 6-31G(2df,p) opt Freq 

 titel

0 1
O -0.5784592085 -0.9520601974 0.4693442385
C -0.0595485808 -0.0600243877 -0.1565050833
C 0.3394380861 1.2759053034 0.4099839403
C -0.8451259048 2.2984702661 0.2376289054
C -1.2153663558 2.0427353993 1.7220632843
C 0.1839627335 1.4215489998 1.9434159662
C 1.2340544027 2.2233643065 2.7430391668
O 1.3408077925 1.1856032339 3.7317354103
C 0.4677176987 0.316085287 2.9735505984
H 0.1177889512 -0.16328657 -1.2520020167
H 1.2942574895 1.5846238256 -0.0296974195
H -0.4711517944 3.3084617086 0.05690236
H -1.5980181746 2.0635984912 -0.5186254285
H -1.4759757204 2.9116461808 2.3314738593
H -2.0025797822 1.2904856948 1.8197199577
H 2.1863850366 2.3928460102 2.2190266645
H 0.8911980722 3.1742617299 3.172139057
H 0.9978787875 -0.5610896563 2.587540382
H -0.3955157389 -0.0195699457 3.5598831674

