# b3lyp 6-31G(2df,p) opt Freq 

 titel

0 1
O 1.5030141935 0.7025548422 0.2511399927
C 0.3516467871 -0.1171613259 0.3609962988
C -0.8710883739 0.6659979942 0.7993012209
C -1.8307855388 0.0087785858 1.7784157682
C -3.2635460823 0.5257977266 1.8674084544
C -3.0998500814 1.9672873643 2.311186552
C -1.8215159637 2.2891413508 2.5214669291
C -0.911146502 1.1436189406 2.2260847294
O 0.2651654727 0.9790955911 2.9661167035
H 1.6716078002 1.0380618646 1.1396069043
H 0.1842304463 -0.5468981781 -0.632519397
H 0.5260522192 -0.9522501171 1.0549539564
H -1.2803621324 1.3417179784 0.0522196948
H -1.6119768117 -1.0155447072 2.0583658586
H -3.7864464941 0.4603624836 0.9040782459
H -3.8662260272 -0.0502410804 2.5823749096
H -3.9403928011 2.6467658207 2.3953116816
H -1.4433702938 3.2568275089 2.8308736918
H 0.0311009635 0.8196394567 3.8870126753

