# b3lyp 6-31G(2df,p) opt Freq 

 titel

0 1
C -0.0984716878 -0.1995474337 0.087367175
C 1.408976748 -0.010703869 0.0878228863
O 2.0418187649 -0.6361107284 -1.0645872901
C 3.1245580119 -1.366542663 -0.4617087441
C 3.6706040368 -0.4107983043 0.6219408203
C 2.2415693701 -0.6582925433 1.205379418
C 2.4270960378 -2.1455970467 0.6873037852
C 1.2892182469 -3.0743681267 0.362903364
O 0.8951965096 -3.9347248815 1.1135439635
H -0.549985088 0.4205714287 0.868800556
H -0.5096414926 0.1173822245 -0.8757464035
H -0.40041386 -1.2346597029 0.2607713486
H 1.6196742854 1.0673348265 0.0498653124
H 3.7286609526 -1.8352073063 -1.2368278656
H 4.4671715146 -0.8470532265 1.2254328717
H 3.9238794621 0.6051830806 0.3103264597
H 1.9728128 -0.4436729219 2.238294409
H 3.1245992539 -2.6656021778 1.3473123898
H 0.8460087838 -2.9447099684 -0.6465388062

