# b3lyp 6-31G(2df,p) opt Freq 

 titel

0 1
C -0.0819266493 -0.1450923266 0.0077942138
C 1.4545531701 -0.1183759355 -0.0874892939
C 2.0112554342 1.2276942233 -0.0061600537
C 2.4558938627 2.3444563367 0.0861747507
C 2.9796762733 3.7187535533 0.1579225104
C 4.4606875018 3.7685771542 -0.2609659815
O 2.8356805944 4.2811182052 1.4406601301
C 2.1377992582 4.5289079752 -0.8407741028
O 1.4326361211 5.4373449175 -0.4831472405
H -0.4192633377 0.2854077528 0.9542039268
H -0.5325373559 0.4310217909 -0.804815622
H -0.4479740821 -1.1740146589 -0.0543715018
H 1.88439623 -0.7320859302 0.7144181633
H 1.7748966253 -0.5851783969 -1.0277317553
H 5.048050903 3.1807986284 0.447609604
H 4.6029183043 3.3522525339 -1.2622450585
H 4.8144899472 4.8030601484 -0.2393678775
H 2.1167576743 4.9288831962 1.3603636274
H 2.2100781451 4.2114019319 -1.8991707592

