# b3lyp 6-31G(2df,p) opt Freq 

 titel

0 1
C -3.2715595763 -3.4436815693 1.2589795578
O -2.7501196326 -2.1401361888 1.1654639814
C -3.1888233558 -1.4593800204 0.0168912236
C -2.5533738733 -0.0854993379 -0.0186310875
C -3.3038112944 1.017812601 -0.6552933443
O -3.2374323439 0.9175938029 0.7600493087
C -1.1119178496 -0.0429636972 0.0146641551
C 0.09170246 -0.0226418939 0.0270752186
C 1.5457893666 0.0056308253 0.0576516649
H -2.87067158 -3.8895784492 2.1720696863
H -4.3717026961 -3.4416620272 1.3176843147
H -2.9754758067 -4.0651732583 0.3985100116
H -2.9090839514 -2.0133151518 -0.8961864214
H -4.284509731 -1.3413022464 0.0206881831
H -2.7460235773 1.8394797577 -1.1003609793
H -4.2786079538 0.8157971319 -1.0997285782
H 1.9079704328 0.7914649639 0.7295171894
H 1.9528409033 -0.9476660742 0.4117453733
H 1.9637837493 0.1996738518 -0.9363626978

