# b3lyp 6-31G(2df,p) opt Freq 

 titel

0 1
C 1.4376947521 1.0041349115 0.2792353942
C 1.082180181 -0.434518807 -0.1161251993
C 1.8103779877 -0.9021242852 -1.3491676462
O 1.1993783935 -1.9995071059 -2.0820287421
C 1.3525834184 -0.7447257826 -2.7431552554
C 2.5785695315 -0.6604318794 -3.6567000876
O 2.6451374041 0.5718042691 -4.3630775765
C 3.7293030423 -0.8675271408 -2.6895843344
C 3.308771128 -0.9597970531 -1.4249232448
H 0.903941755 1.3016144584 1.1863020784
H 2.5098494975 1.113330745 0.4726796892
H 1.170374402 1.7089600689 -0.5149960525
H 1.3154587473 -1.1153929641 0.7129600054
H 0.0071872459 -0.5279607555 -0.2997105859
H 0.4395339784 -0.2290997373 -3.0336415999
H 2.5463859217 -1.4397387603 -4.4260333826
H 2.8465597559 1.2598205336 -3.7187538833
H 4.7556730417 -0.9430940224 -3.0303446288
H 3.9375600261 -1.1057455531 -0.553909658

