# b3lyp 6-31G(2df,p) opt Freq 

 titel

0 1
C -0.5516459493 1.2761598941 -0.7361097998
C -0.0069702043 0.2917892791 0.328128377
C 1.4819086077 0.0748598863 -0.0979919868
O 1.6221622677 0.7629563092 -1.3538879542
C 0.7397644924 1.8488746478 -1.3163013166
O 1.1798466934 2.8712977419 -0.4323448573
C 2.5741788988 2.8972599934 -0.1484040198
C 2.9992894755 1.8333137627 0.841973804
C 2.4963406466 0.6007894539 0.8883596458
H -1.0999046495 0.7485088743 -1.5215334264
H -1.1927060338 2.0539832651 -0.3191767572
H -0.0581534351 0.7224472974 1.3292800939
H -0.5622916305 -0.6483318841 0.3357276559
H 1.6883825686 -0.9803950832 -0.3025976907
H 0.6722497803 2.2379708221 -2.3397716559
H 3.1677969621 2.8259914022 -1.0714965248
H 2.75827941 3.8871477017 0.2810488285
H 3.7528551426 2.1308578846 1.5673073166
H 2.8235954068 -0.0925297984 1.6596573678

