# b3lyp 6-31G(2df,p) opt Freq 

 titel

0 1
O 0.4687069832 0.3850126274 0.6479243655
C -0.8885260052 0.6320528591 0.903717829
C -1.8598830377 -0.0857114006 -0.1057636598
C -2.7431265098 1.1759068243 -0.0070663028
C -3.57531916 2.2852969567 -0.7102422909
C -3.4734697874 2.8801664206 0.7507631396
C -3.6386310633 1.4346629467 1.250799192
O -2.0638432572 3.1274163197 1.0148168864
C -1.510459242 1.9732388765 0.3723464674
H 0.9919914713 0.8533619364 1.3066471743
H -1.1582232424 0.415028502 1.9437039911
H -1.3591580976 -0.1964712714 -1.0712038789
H -2.2925052716 -1.0407031159 0.1955852455
H -3.0970303944 2.8339962302 -1.5248869785
H -4.6065027156 2.0278682299 -0.9612832992
H -4.0673930371 3.7260547951 1.0925290014
H -3.2542537079 1.217253072 2.248856608
H -4.6446908811 1.028627355 1.1226065782
H -0.9019457442 2.2798987764 -0.4888196384

