# b3lyp 6-31G(2df,p) opt Freq 

 titel

0 1
C -3.8318774339 1.4632482584 -1.2364214332
C -3.3389884921 0.1370521058 -0.7014102916
C -3.9192791752 -1.0933267213 -1.3627758207
O -3.2533498271 0.0627555043 0.7425675375
C -2.0488386997 0.058398631 -0.0023962545
C -1.0298502328 -1.095403656 0.0634365554
C 0.0740149972 -0.0203654092 0.1230526274
O 1.2684470518 -0.0602201334 0.1033301923
C -0.9538486095 1.1280018795 0.1733296519
H -3.3941354798 2.2979653904 -0.6850539507
H -3.5796536699 1.5719606647 -2.2969431507
H -4.9214580653 1.5280108991 -1.1448455155
H -3.5412660389 -2.0061643249 -0.897791488
H -5.0110413132 -1.0924219599 -1.2743388716
H -3.6714944685 -1.1139782763 -2.4296954972
H -1.100268974 -1.6885757906 0.9814855711
H -0.9749651288 -1.7755032898 -0.7915552861
H -0.9867885453 1.6312740484 1.1455736057
H -0.8498855851 1.8836838996 -0.6106951714

