# b3lyp 6-31G(2df,p) opt Freq 

 titel

0 1
C -2.9066676864 -1.4228964946 1.2312479315
C -1.9796088152 -0.5538027359 2.0348807869
O -1.9595722768 0.8707715938 1.6585146268
C -0.7406668873 0.8907096596 2.4706901104
C -1.290931694 0.5422135764 3.8644342876
C -2.134685649 -0.4474691147 3.5697311927
C -0.4074281386 -0.5267792102 1.9036042447
C 0.1658719251 -0.5554090552 0.4956494996
O 1.513684041 -0.0992158615 0.4621932553
H -2.8455581165 -2.4621203885 1.5704049851
H -3.9402687265 -1.0841188225 1.3533719195
H -2.6609253746 -1.3907481786 0.1666676704
H -0.1055107494 1.7612146157 2.3184585938
H -1.0238560201 0.9925961672 4.8089921609
H -2.7735757754 -1.0524389909 4.1969964923
H 0.14186116 -1.1992954319 2.5722462077
H 0.0794790068 -1.5702946865 0.0745152733
H -0.3992379699 0.1229922889 -0.1473528317
H 2.045306327 -0.7124735905 0.9798857933

