# b3lyp 6-31G(2df,p) opt Freq 

 titel

0 1
C -2.5329324889 2.3622391264 -0.6446949594
C -1.7593114227 1.9869772792 0.6272293925
C -1.6556376511 3.1954219148 1.5827878915
O -1.0598755654 2.8667777304 2.8203070634
C -0.3887532307 1.4381373569 0.3307173783
C 0.2130119407 0.3743101976 0.9349461344
O 1.4682756018 0.1767645373 0.4483362798
C 1.6802031083 1.140833721 -0.4840993631
C 0.5912876825 1.9418899041 -0.6003954889
H -2.6227070544 1.5059259325 -1.318718648
H -3.5412766047 2.708480957 -0.396312656
H -2.0321185047 3.1675901515 -1.1926627041
H -2.3203410187 1.2140657779 1.1669561308
H -1.1145995234 4.0125526023 1.0759484118
H -2.6608304522 3.5628602205 1.8160179275
H -0.2097457338 2.4553076562 2.6228762969
H -0.1191749355 -0.330085901 1.6802563607
H 2.6426969363 1.1197505007 -0.9682383395
H 0.4880901066 2.7830531348 -1.2679578086

