# b3lyp 6-31G(2df,p) opt Freq 

 titel

0 1
C -0.0606485756 0.0625002187 0.4593798325
O -1.3034089887 0.7380906053 0.6183066449
C -2.3679641985 -0.0822738877 1.0688177201
C -3.1531661141 -0.6642454903 -0.1239789166
C -2.3342098048 -1.4236711234 -1.1315084865
C -1.055649268 -1.7623451909 -0.9787959598
C -0.2604104768 -1.450371275 0.2716809498
C -0.9593270013 -1.9634985077 1.5437174227
O -1.9488121568 -1.0411967371 2.0059555403
H 0.4369298227 0.5078052952 -0.4082322788
H 0.5718590206 0.2368100767 1.3435661731
H -3.0346209927 0.579181376 1.6313127619
H -3.9671461031 -1.2896513647 0.2698401875
H -3.6421446994 0.1795798983 -0.6289208306
H -2.8484640965 -1.6916275122 -2.0519811827
H -0.5422785675 -2.2951489403 -1.7744052907
H 0.7247210602 -1.9228395807 0.2049917625
H -1.4166904676 -2.9457606482 1.3682016078
H -0.2323871623 -2.063840102 2.3587587928

