# b3lyp 6-31G(2df,p) opt Freq 

 titel

0 1
O 1.1618671281 0.6898242049 -0.6026438786
C 0.0380803836 0.1641270679 0.0884692439
C -1.2086473651 0.2468155506 -0.7387899831
O -1.3265040849 -0.7417725003 -1.7922895026
C -2.3334790612 -0.6884660534 -0.7662339802
C -3.5161021959 0.2691950982 -1.0386815412
C -3.1460917051 1.4187212312 -0.0344511955
C -1.934609694 1.585490609 -1.0204038529
C -2.941450181 1.2034816839 -2.1396805426
H 1.2550950769 0.1761107541 -1.412778305
H 0.203751165 -0.8791152503 0.395180169
H -0.0706311948 0.7712896765 0.9939157861
H -2.4323628004 -1.5742741814 -0.1466711684
H -4.5159628196 -0.1595650686 -1.0968902051
H -3.845398431 2.258292177 -0.0602449142
H -2.9288611509 1.1405559314 1.001883063
H -1.3246380803 2.4865897342 -1.0582574955
H -3.6243737754 2.0243626307 -2.3650493304
H -2.5551446439 0.7514878045 -3.0509448269

