# b3lyp 6-31G(2df,p) opt Freq 

 titel

0 1
C 0.0868071787 0.200409073 -0.1712742215
C 1.5258905467 0.0044554969 0.2309829611
C 2.0598166296 0.6742442598 1.5501687239
C 3.3188500055 1.0818677845 0.7845685534
C 3.7986651983 -0.106804412 -0.0677490947
C 3.2740146033 -1.4959972816 0.274792649
O 1.8470353893 -1.3859890548 0.2063125313
C 2.6698809997 0.7277052653 -0.5473253993
O 2.6282708833 1.3285100233 -1.7859245495
H -0.5801389166 -0.3157411536 0.5256017771
H -0.1761812537 1.2629785118 -0.1711188104
H -0.0834359079 -0.2022469154 -1.1739174713
H 1.4607549133 1.5405436288 1.8467354527
H 2.1650712397 -0.0010518654 2.4051968321
H 4.0003709678 1.8877692675 1.0303553029
H 4.7658350397 0.0112452623 -0.5414741012
H 3.6026928909 -2.2478890173 -0.4521580862
H 3.5822189444 -1.8319206997 1.2748553735
H 2.078143658 2.1173224967 -1.7251866129

