# b3lyp 6-31G(2df,p) opt Freq 

 titel

0 1
C 1.5096182868 -0.185880444 0.1436749279
O 0.1079070603 0.0062765907 0.0282123028
C -0.4309869977 0.7503831721 1.0509885286
C -0.693380018 0.1783065849 2.4158183599
C -1.8518062662 0.6867778164 1.5819127122
C -1.9126866245 2.2245036589 1.6758028116
C -0.4505743572 2.2830838258 1.0865981189
C -2.9176986164 2.8464207937 0.7446222804
O -3.728206247 3.6795710958 1.0586586984
H 1.7667844771 -0.7000205816 1.0797985618
H 1.8162864303 -0.8027579196 -0.7034505827
H 2.0549103684 0.7674200801 0.1054408054
H -0.6270945904 -0.9041780386 2.4585262379
H -0.3959201599 0.6926976877 3.3269678496
H -2.6726441811 0.0409503133 1.2956871159
H -2.0470298562 2.6368279631 2.6790654692
H -0.4399284664 2.7110270962 0.0799267452
H 0.2976930128 2.7907477234 1.7016882166
H -2.8546467647 2.4701804716 -0.3045393097

