# b3lyp 6-31G(2df,p) opt Freq 

 titel

0 1
C 1.3165679998 -0.6779430591 0.9998924554
C 0.9846104563 0.066631366 -0.300396354
C 1.6413479589 -0.548048038 -1.4919788774
O 3.0857741631 -0.5694544031 -1.5548001513
C 2.9344936164 -0.9157238444 -2.9647741116
C 1.4529450572 -0.4206065777 -2.9663293696
C 1.1442162558 -1.7629606159 -2.2882729239
C 2.418191774 -2.3795761377 -2.8784841945
O 3.1753634297 -3.2844392939 -2.1345850525
H 0.9705336334 -1.715511485 0.9582954631
H 2.3968184409 -0.6900059388 1.1706507426
H 0.8425160156 -0.1939378604 1.8583931703
H -0.0983430519 0.0732706409 -0.4722864466
H 1.2986855287 1.1143846593 -0.2218621732
H 3.7718552995 -0.6006626309 -3.5832394212
H 0.8688398638 0.2306332434 -3.599953607
H 0.1798872979 -2.2243911125 -2.1169504698
H 2.2370061662 -2.8080554549 -3.8672224736
H 3.4808117145 -2.7845036172 -1.3648723853

