# b3lyp 6-31G(2df,p) opt Freq 

 titel

0 1
C 1.3699751104 -0.0866869783 -0.1494909017
O -0.034665545 0.1000153354 -0.0449979165
C -0.4623700169 0.7320391805 1.1184481326
C -0.1035745231 2.1968234743 1.242688077
C -1.7959237443 0.2435648723 1.6008141746
C -0.5372575675 -0.1491223882 2.3765686288
O -0.0570550871 -1.4547565946 2.2044359716
C -0.3046124075 0.4169375931 3.6790780517
C -0.1151137952 0.8552328252 4.7841107592
H 1.7636331098 -0.6332962795 0.7140028509
H 1.533531165 -0.6773882635 -1.0536755536
H 1.9066166463 0.8659018666 -0.2545679163
H -0.5279361913 2.6263535017 2.1518989151
H 0.9796419902 2.3464428576 1.2833008648
H -0.4959554673 2.7427737037 0.3787572257
H -2.4855318479 0.9479009622 2.051802999
H -2.2374408765 -0.5600013442 1.0224407793
H -0.5611869211 -2.031525067 2.7893405096
H 0.0633157089 1.2478830326 5.7544398083

