# b3lyp 6-31G(2df,p) opt Freq 

 titel

0 1
C -4.239308513 0.7720679767 1.1880282279
C -2.7683841641 0.3884906418 1.2838290093
C -1.754533444 1.5907023644 1.3690024584
O -2.3028915386 2.8748814633 1.1560016842
C -1.074087777 1.1069853445 0.0617526448
C -2.1090553858 -0.0734418461 -0.0507069061
C -0.9652649989 -1.1149419843 0.0979103502
C 0.02106759 0.0546097448 0.2949003953
O 1.1929336057 0.1212364492 0.5272540232
H -4.6105397618 1.1828767776 2.133951605
H -4.3996693887 1.524590609 0.4116195177
H -4.848092402 -0.1062759465 0.9493772344
H -2.6261819086 -0.3335584662 2.0959507803
H -1.1057788146 1.5891309932 2.2553277726
H -2.7538282872 3.1474823347 1.9621293146
H -0.8924980136 1.8806816557 -0.6845432173
H -2.7735997089 -0.1931234789 -0.9057575138
H -1.0319929301 -1.8464297932 0.9090400653
H -0.7424800488 -1.6521372796 -0.831101926

