# b3lyp 6-31G(2df,p) opt Freq 

 titel

0 1
O 1.3296262631 -0.2264259372 0.5510975607
C 0.1627405772 -0.0327458052 0.3299107812
C -0.3862164479 1.2761249825 -0.2299149621
C -1.8454332499 1.1971464808 -0.6833689327
C -2.0245250277 0.412763927 -1.9661935822
C -3.2134578587 0.6698890461 -2.8536432954
C -1.8348156523 1.0926076829 -3.301195148
C -0.1306306388 2.3657594764 0.8174175502
O -0.9605219471 3.1511397971 1.1882170462
H -0.6092053804 -0.7997695801 0.5652958265
H 0.2772726155 1.5374147297 -1.0684101686
H -2.4461800935 0.7531894546 0.121858061
H -2.2271529068 2.2151522325 -0.807605789
H -1.6916000838 -0.6220169782 -1.9182917249
H -3.6802293748 -0.1735930281 -3.3497722136
H -3.9077204263 1.4479995065 -2.5537003087
H -1.3604696613 0.5392864406 -4.1038868662
H -1.6101190542 2.1546512061 -3.3016249836
H 0.9083902578 2.3726027961 1.2076009591

