# b3lyp 6-31G(2df,p) opt Freq 

 titel

0 1
C 1.3301132027 -0.0758198844 -0.1173533083
O -0.0751905132 -0.0813180811 0.0786508361
C -0.5477237938 0.6327292181 1.1636819507
C -0.1695516706 2.1163660307 1.5272637429
C -0.9050137904 1.7260492564 2.8525573318
C -2.3068750882 1.4081535038 2.3448052359
C -2.0719803723 0.6907797975 1.2416204417
C -0.248443571 0.2933489767 2.6831137694
O 1.1267431819 0.1986939405 2.9691831971
H 1.8617763935 -0.5268841115 0.7260534518
H 1.5161221172 -0.6586804389 -1.0225323925
H 1.7119394799 0.9428860291 -0.2700933051
H 0.9006188962 2.27174391 1.674187113
H -0.6174277992 2.9061297037 0.9207697379
H -0.7787614459 2.30065931 3.7686129291
H -3.2436696789 1.6692083993 2.8162468821
H -2.7378060222 0.2016112714 0.5456746423
H -0.8159766313 -0.5447296568 3.1066702484
H 1.2292905857 0.0539004657 3.9150498656

