# b3lyp 6-31G(2df,p) opt Freq 

 titel

0 1
C 1.4660533941 -0.0371241517 -0.0008426527
O 0.0574759847 -0.0396046849 0.1271204995
C -0.4111735118 0.6921211247 1.2323158997
C -1.9440058429 0.489533258 1.3617677152
C -2.3523200742 1.3629236818 2.5782705201
C -1.5424136879 0.3710881445 3.4108958772
C -1.6616690267 -0.7121445767 2.3533126628
C -0.3264789271 -0.0619801441 2.5657068628
O 0.7815844516 -0.6583163084 3.1377392097
H 1.9545975917 -0.535337957 0.8450400895
H 1.7039809885 -0.5744742931 -0.9222841857
H 1.8592329134 0.9892895427 -0.0816968101
H -0.0362887967 1.7296044602 1.190486951
H -2.534093669 0.4413949357 0.4502432529
H -2.0556786531 2.4186658315 2.5655800475
H -3.4223431995 1.2880588361 2.7928462572
H -1.5179880062 0.2351157899 4.4857681533
H -1.9850147988 -1.7405375941 2.3987951108
H 1.23212653 -0.0042658252 3.6840727895

