# b3lyp 6-31G(2df,p) opt Freq 

 titel

0 1
C 1.517427481 0.0844233487 -0.0829554643
O 0.1157600843 0.0549469026 0.0845846304
C -0.3225200798 0.7679515687 1.2161863512
C -1.8308962775 0.6562795702 1.3519166079
C -2.0771477057 0.6605646068 2.8710370207
O -0.818987032 0.8564074566 3.5262103204
C -0.27234796 -0.0590033037 2.540069166
C -1.7137952021 -0.6167759936 2.1995920232
C -2.3163175144 -1.9774302346 2.0960765419
H 2.0502906438 -0.3868569232 0.7561747614
H 1.7438085475 -0.4700337983 -0.9966667722
H 1.889986519 1.1145616758 -0.1898132854
H 0.1422674938 1.7647365208 1.2616419566
H -2.589316274 0.9194339844 0.6254494022
H -2.983248728 1.012937401 3.3471944845
H 0.6091191377 -0.6034694973 2.8741101938
H -2.1968425655 -2.5422227487 3.0274394575
H -3.3885396786 -1.9068796721 1.883436879
H -1.8549802198 -2.5517012342 1.2855840952

