# b3lyp 6-31G(2df,p) opt Freq 

 titel

0 1
C -1.2061843444 0.5089370176 -1.3525210457
C -1.0460386556 -0.2280733628 -0.0204785322
O -1.2127653759 0.7760470745 0.9818408592
C -2.0480479956 -1.4124949423 0.1340848508
C -1.2389915089 -2.7019099181 -0.1479400526
C 0.1878609342 -2.2609933358 0.0232955391
C 0.3045199111 -0.9282065162 0.0891286331
C 1.575433284 -0.1939819321 0.239704
O 2.6651882925 -0.7185528313 0.3208352706
H -1.1513243517 -0.1912034937 -2.1908818838
H -2.1745198204 1.0173595349 -1.3785105586
H -0.4231481812 1.2622165676 -1.4781665315
H -1.0854862029 0.3590091334 1.8412299232
H -2.4108383229 -1.4192594453 1.1674579495
H -2.9228733805 -1.3024960415 -0.5111406287
H -1.5048039123 -3.5345564307 0.5129649527
H -1.3987305504 -3.06952956 -1.171324587
H 1.0304150553 -2.9429147738 0.0620019718
H 1.4693544558 0.9102602657 0.2887410701

