# b3lyp 6-31G(2df,p) opt Freq 

 titel

0 1
O 1.3111828505 -0.1559519496 0.8578289176
C 0.3254618245 0.2552044176 -0.0810816978
C -0.7701088491 1.084456408 0.5713062383
C -1.9161521714 0.3965415506 1.3643542153
C -2.7858772267 1.6860048187 1.1639155664
C -4.2234958871 1.2230885588 0.9843432529
O -4.0271635694 0.0485834536 0.1781095904
C -2.6218869673 0.0157026591 0.0262521236
C -2.0591916049 1.4516928328 -0.2071777012
H 0.8733620531 -0.7028637572 1.5179414552
H 0.8609289269 0.8666031252 -0.8162431639
H -0.0894478535 -0.6078370982 -0.6227285545
H -0.3137040385 1.9264225699 1.1031861823
H -1.8543466889 -0.2042184247 2.2741684356
H -2.5756843355 2.5826492473 1.7470097671
H -4.7170710136 0.9546434252 1.9266539628
H -4.8518627129 1.9464682667 0.4501010462
H -2.3321525253 -0.8409156354 -0.577693538
H -2.154918351 2.0617645216 -1.1067417883

