# b3lyp 6-31G(2df,p) opt Freq 

 titel

0 1
C 3.0676438323 0.3720427933 3.359173223
O 1.6733207934 0.4680285368 3.6662930188
C 1.054838213 1.247663054 2.6796905655
C 0.6937374144 0.6085672884 1.3592533952
C 0.7834431274 -0.8768500114 1.0585129459
O 1.9968301258 -1.4965293387 1.451158676
C 3.148638202 -0.7635604096 1.0816951355
C 3.2030874324 0.5718533275 1.8309725751
C 1.9691422031 1.4258289756 1.5032245267
H 3.6222816029 1.1498846478 3.9046734171
H 3.4157926481 -0.6089718244 3.6947638426
H 0.4372932167 2.0505251495 3.071583627
H -0.1204932676 1.0976253681 0.8292394874
H -0.0099199703 -1.4293679716 1.5720576592
H 0.6377532969 -1.0117423689 -0.0277667267
H 4.0022593426 -1.397100043 1.3442309046
H 3.174397109 -0.5897753044 -0.0078958354
H 4.1268612853 1.0993115107 1.5759828888
H 2.0899100125 2.3690849204 0.9847274237

