# b3lyp 6-31G(2df,p) opt Freq 

 titel

0 1
O -3.2024569409 2.1717942465 -2.303982093
C -1.9772213475 1.4991311915 -2.5202681065
C -1.0753476185 1.5999946375 -1.3095905513
C 0.4195301724 1.4649556145 -1.4319066264
C -0.2131093124 2.8064562815 -1.1136489953
O -1.6963065729 1.1389764892 -0.129062271
C -1.7427268258 -0.2817358821 -0.0049371277
C -2.3421737857 -0.634414848 1.27410906
C -2.8367659354 -0.9510835424 2.3213597782
H -3.4563304487 1.9777931859 -1.3933830091
H -2.1474457796 0.4403470443 -2.7807603715
H -1.4917952202 1.9652993186 -3.38395009
H 0.9441977774 0.965008462 -0.6253435811
H 0.8474256835 1.3056534301 -2.4161102627
H -0.1128143323 3.1698416614 -0.0978779046
H -0.2291500467 3.5742713818 -1.8787894726
H -2.3287977411 -0.7308083908 -0.8204567058
H -0.727677983 -0.6999478225 -0.0737093772
H -3.2739949125 -1.2264974392 3.2491867875

