# b3lyp 6-31G(2df,p) opt Freq 

 titel

0 1
O 1.2135280631 -0.0597304048 -0.6092719267
C 0.0800619749 -0.0349594117 -0.2001412775
C -0.7486278436 -1.2717539853 0.153213273
C -2.1999794144 -0.8227317835 0.4052720016
C -2.7187750102 -0.0666425992 -0.8360858756
C -1.9012425376 1.2481835741 -0.9971363947
C -0.7445925786 1.2352856361 0.0167784512
O -1.2467390856 1.2046213863 1.3560648235
C -2.1904668443 0.1502769958 1.5880866799
H -0.6720228421 -1.9940494683 -0.6665466967
H -0.3127639134 -1.7484809535 1.0397326117
H -2.8405942384 -1.678840667 0.636800755
H -2.6205894326 -0.7011607384 -1.7230565315
H -3.7844267311 0.1533719988 -0.7210043617
H -1.5077075051 1.3604782927 -2.011955643
H -2.5193088933 2.1270801028 -0.7898807506
H -0.1110998795 2.1201342636 -0.0576846329
H -1.8959708148 -0.3559989416 2.5161891288
H -3.1898915834 0.5821031031 1.7441055663

