# b3lyp 6-31G(2df,p) opt Freq 

 titel

0 1
C 0.0746706796 0.4092933523 -0.0206215703
C 0.9929441052 -0.7823192601 -0.0822192921
O 2.1328993672 -0.7782516128 0.7938962706
C 2.3646235063 -0.7578051296 -0.6143983
C 3.0289045059 0.4828800581 -1.226728147
C 3.6294458968 -0.0300425218 -2.517874355
O 2.6932126292 -0.7555717837 -3.3281329146
C 3.6188642875 -1.4999937424 -2.5223606039
C 3.0182464165 -2.0039997943 -1.2296975381
H -0.5827549138 0.3355746212 0.8519294166
H 0.6359260785 1.3427328211 0.0593434473
H -0.5564725944 0.4521608465 -0.9149202563
H 0.4805511819 -1.7466249144 -0.1181707479
H 2.3279489907 1.3052056818 -1.3916663314
H 3.8203760657 0.8478845559 -0.5608666569
H 4.3628250747 0.5579032482 -3.0633602486
H 4.3446857652 -2.0934729042 -3.0718819734
H 2.3056816825 -2.8204729832 -1.3783290664
H 3.8118870447 -2.3688309384 -0.5659083125

