# b3lyp 6-31G(2df,p) opt Freq 

 titel

0 1
C 2.1450968041 -0.1460282226 1.3282184376
C 1.3631123381 -0.0377682122 0.0041989501
C -0.0632123926 -0.607407387 0.1437885236
C 2.0790427492 -0.6953492577 -1.0889966984
C 2.661592749 -1.2561717231 -1.9811021784
C 3.3923773144 -1.8960933357 -3.0580307929
O 2.6793605607 -3.0934682319 -3.4667717209
C 3.2570537357 -3.7769274418 -4.4618258332
O 4.2800300524 -3.4847235776 -5.0186719212
H 2.2495422285 -1.1929458525 1.6290436796
H 3.1468536289 0.2804507722 1.2308085776
H 1.6169762353 0.3893248944 2.1235732111
H 1.2746561328 1.0280096164 -0.2490092845
H -0.6036224626 -0.0779873305 0.9346919133
H -0.6227291834 -0.5025491395 -0.789176679
H -0.0296596602 -1.6701787304 0.4019496389
H 3.4952464882 -1.2375416881 -3.9271784889
H 4.4041290745 -2.180827893 -2.7498768837
H 2.6379521269 -4.6583578596 -4.6899999807

