# b3lyp 6-31G(2df,p) opt Freq 

 titel

0 1
O 0.3263725918 -0.0752145324 0.5906458706
C -0.3914240455 0.9534945981 1.2572005781
C -1.4365375755 0.3738806092 2.1902519676
C -2.7280628652 0.6973639418 2.1072957361
C -3.2073826619 1.6893208755 1.0671613299
C -3.1683713517 1.0463802903 -0.333246379
O -1.7827247203 1.0637138378 -0.7088136636
C -1.0534292634 1.8868758342 0.2256066611
C -2.1178294616 2.766609389 0.879698192
H -0.2742323916 -0.3848541735 -0.1018614907
H 0.3605529536 1.5123933629 1.8307285639
H -1.0790950397 -0.350978207 2.9164686924
H -3.4631797679 0.2405903682 2.7642200458
H -4.1929184087 2.0932051043 1.3072161473
H -3.526775444 0.0124912874 -0.3450966782
H -3.7527975977 1.6309519589 -1.057780663
H -0.2908327923 2.4269016501 -0.341731059
H -1.7903255982 3.2089505804 1.8226400227
H -2.4425858402 3.5633483848 0.2031479863

