# b3lyp 6-31G(2df,p) opt Freq 

 titel

0 1
C 2.0980658737 -0.8459203134 -1.2213112625
C 1.5218333906 -0.237307211 0.0568888784
C 1.8196682396 1.2799000263 0.2132277035
C 0.9377118991 1.9035012732 1.3245121965
C 1.882867756 1.2378644194 2.3459583443
O 1.605894668 -0.1633636465 2.4722709742
C 2.2360020452 -0.743928411 1.3331072112
O 3.5036334156 -0.1109199412 1.2655126132
C 3.0082766809 1.2097584397 1.2506892208
H 1.9273224041 -1.9275282694 -1.2570745322
H 1.6291172044 -0.4050419844 -2.1068264574
H 3.1760043387 -0.6723435063 -1.2831144974
H 0.4485671176 -0.4385501475 0.1249677305
H 1.9476157718 1.807542399 -0.7323209073
H 1.0217299122 2.9945745648 1.3559954224
H -0.1151756152 1.6149617385 1.3667823976
H 2.0300025837 1.6626582313 3.3392197843
H 2.3385092508 -1.819362215 1.4747438181
H 3.8030171432 1.9503318334 1.2472960918

