# b3lyp 6-31G(2df,p) opt Freq 

 titel

0 1
C -1.0559168714 0.8914667274 -0.9929401544
C -0.971711525 -0.2746371648 0.0077412276
C -2.0955468427 -1.2811848833 -0.2866949866
O -1.9669761937 -2.4727184249 0.4648536713
C -0.8102181511 -3.2020086898 0.1149684434
C 0.4090666886 -2.3468037639 -0.0135958039
C 0.3585017703 -1.0073987907 -0.0283135874
C 1.6386339599 -0.2525046854 -0.0414203169
O 2.7344962234 -0.7529843919 -0.1625375977
H -0.8400934165 0.551326408 -2.0115063757
H -2.0630487761 1.3220678974 -0.9882277446
H -0.3581717016 1.6972990563 -0.7530329002
H -1.1296968172 0.127121991 1.0187750104
H -3.070009302 -0.8576061946 -0.0274019777
H -2.1024013958 -1.5084160699 -1.3669140243
H -0.6632012613 -3.9507851686 0.9028822789
H -0.9664003036 -3.764591315 -0.8255881868
H 1.3764389748 -2.8387159325 -0.0752002966
H 1.5401313808 0.8464280854 0.0907241612

