# b3lyp 6-31G(2df,p) opt Freq 

 titel

0 1
C 1.5728581927 0.2589315485 -0.2927546998
O 0.2257957803 -0.0542341035 0.0161803216
C -0.2583416491 0.5750883479 1.1908115383
C -1.7927474332 0.482384554 1.1171951967
C -2.452889329 1.007103081 2.3045052851
C -2.9740190927 1.4358943505 3.298699331
C 0.3409821609 -0.1105859766 2.4386909256
C -0.0080860426 -1.570425487 2.6478889899
O 1.0846703607 0.4973614822 3.1715310399
H 2.2674946399 -0.0651090824 0.4939035614
H 1.8137375474 -0.2664605292 -1.2193977072
H 1.7055384266 1.3395815052 -0.4456890857
H 0.0545801164 1.6275135948 1.2320508287
H -2.11661712 1.0255286235 0.2223469262
H -2.0705395294 -0.5661116592 0.9578334911
H -3.4380651363 1.8195327972 4.1734162758
H 0.6841267652 -2.0150703092 3.3637290222
H -1.0253298152 -1.6426337553 3.05081344
H 0.0126694573 -2.1145921821 1.699710399

