# b3lyp 6-31G(2df,p) opt Freq 

 titel

0 1
O -3.0799235675 1.4749710549 -1.3217980657
C -1.815342609 0.8510727232 -1.2476125744
C -1.8586960674 -0.7204491121 -1.2508931921
C -1.009750935 -1.1312568721 -0.0246139594
C -1.7965777081 -0.7732663998 1.2572017354
C -1.7799227888 0.799492798 1.2801790589
C -0.9757358124 1.1841584112 0.01871112
C 0.0165925722 0.0140534978 -0.0334123133
O 1.2141126922 -0.0024068186 -0.081374121
H -3.6612476428 1.0742678949 -0.6676515579
H -1.2806476165 1.2154457037 -2.1291518336
H -2.8919902203 -1.0757867428 -1.1692911474
H -1.4503748657 -1.1231398665 -2.1815378673
H -0.5942642301 -2.1370050599 -0.0545064313
H -2.812035018 -1.1799097331 1.2298972201
H -1.3059831828 -1.1817728408 2.1446334157
H -2.7821633829 1.2371206597 1.2686034566
H -1.2857588051 1.1754669195 2.1792324047
H -0.5392094819 2.1808425528 0.023744842

