# b3lyp 6-31G(2df,p) opt Freq 

 titel

0 1
O -1.7260649249 2.0191823642 -2.0613667765
C -0.9135775994 2.1421565606 -0.9296542063
C -1.2324427329 3.1992913642 0.1525050689
C -0.790807327 2.1678641423 1.2243014541
C -0.9484123024 1.0271386254 0.1885903342
C -2.1359272366 0.0205253825 0.1923633917
C -1.1546463898 -1.1526451932 -0.1211722548
C 0.0013502222 -0.1598723497 0.0822441977
O 1.1926754426 -0.2618336708 0.172738802
H -2.6435304426 2.1213211623 -1.7872051716
H 0.111841581 2.2418857599 -1.297868288
H -0.713345206 4.1588205489 0.0980615459
H -2.3110211753 3.3883335934 0.2034762313
H 0.2576180111 2.2840165377 1.5118565254
H -1.3996468884 2.0898559513 2.1274835024
H -2.6216075594 -0.0686189451 1.1668938606
H -2.8981781521 0.1925630993 -0.5708148618
H -1.1621934345 -2.0125623282 0.5536545729
H -1.2113816455 -1.5182206751 -1.1514181479

