# b3lyp 6-31G(2df,p) opt Freq 

 titel

0 1
C 1.9076531053 1.4709924735 -0.1296753046
C 1.1544474262 0.1569601625 -0.3442367596
C 1.6073403934 -0.6641167974 -1.5688710757
C 0.8559834516 -2.0000124162 -1.6399162201
O 3.0173845547 -0.9506353675 -1.4448361528
C 3.7109435336 -0.4621032827 -2.5240624846
O 4.8961202075 -0.5922584258 -2.6455189079
C 2.7281131552 0.2019703737 -3.4168768488
C 1.5201872351 0.0957353327 -2.86995376
H 1.5506280962 1.9679221904 0.7768672553
H 2.9797071062 1.2914736401 -0.0148437837
H 1.7685026965 2.1621913523 -0.9663364678
H 1.2697442241 -0.4838905508 0.5372890575
H 0.0795043819 0.3473255393 -0.4522640283
H 1.0207011322 -2.5692259718 -0.7211382567
H -0.2188961558 -1.8306080658 -1.7556506599
H 1.2090918868 -2.593720054 -2.4866446417
H 3.0201923226 0.6704014691 -4.3452259421
H 0.5801824365 0.4671366182 -3.2594625786

