# b3lyp 6-31G(2df,p) opt Freq 

 titel

0 1
C 0.9764409779 -0.61557497 -0.8818264336
C 1.1386135952 0.291332175 0.3419307194
C 2.0047399153 1.5166184564 0.1090735246
C 2.8691037911 1.7385214639 1.0976631624
C 2.7167653826 0.7289261708 2.2171701057
O 3.9078692229 0.2140589453 2.7654429682
C 1.8597630053 -0.3547477601 1.530872441
C 1.4939289591 -1.5982826692 2.20301572
O 2.5891126169 -1.5669898729 1.2704015967
H 0.3639586319 -1.4928318481 -0.6513823593
H 0.4838658364 -0.0696080077 -1.6926035807
H 1.9470232731 -0.9677045846 -1.2380633666
H 0.1380147719 0.6108467102 0.6719865264
H 1.887371526 2.132956917 -0.7762840043
H 3.5761373445 2.5571051727 1.1621892728
H 2.1622949673 1.1797437798 3.0535016343
H 4.1297000582 -0.5580821694 2.2254241702
H 1.7831717332 -1.7449950844 3.2424606594
H 0.6281089211 -2.1689931147 1.8709783333

