# b3lyp 6-31G(2df,p) opt Freq 

 titel

0 1
C 0.9212587859 1.0044808262 -1.1786172067
C 0.1452324305 1.2807628784 0.1406357293
C 1.2973096021 1.6162454823 1.1011931574
C 2.236114626 0.4012238604 0.7915956334
O 2.3154496556 -0.499977173 1.8998096696
C 1.2367571016 -1.4044938057 1.945307686
O 0.0092384566 -0.8150626713 1.5844482603
C 0.0638421276 -0.2717734328 0.2785499802
C 1.4662828561 -0.2155828439 -0.396714362
H 0.2774309385 0.7060656329 -2.0095736158
H 1.6356479416 1.7613401003 -1.512574444
H -0.7465626888 1.9055833905 0.1681156529
H 1.7600253057 2.5791618509 0.8667554942
H 1.0083254313 1.6076893912 2.1528225313
H 3.2637180938 0.6903630514 0.5628721727
H 1.4389397237 -2.2673137299 1.2881670567
H 1.1422959681 -1.7455417962 2.9788239947
H -0.7144298786 -0.7202213693 -0.3463739518
H 1.9160632827 -1.0739121824 -0.8946101684

