# b3lyp 6-31G(2df,p) opt Freq 

 titel

0 1
O 0.8112728599 0.0523374806 1.1242373735
C -0.5629935884 0.3276085158 0.9848872605
C -1.3982687046 0.1385283075 2.3251941491
C -1.2622723513 1.6830109291 2.6152482584
C -2.2070570587 2.8639348464 2.2599631982
C -2.4691267112 2.1672622139 0.9014110774
C -0.9608667042 1.800438638 1.1085661923
O -0.2847892314 3.0249502967 0.8819716245
C -1.1001947601 3.8625470944 1.7744967874
H 1.2264570913 0.7978879657 1.5711757617
H -0.9095210246 -0.2171028603 0.101794415
H -2.4045201325 -0.2599878991 2.1883055145
H -0.8664823987 -0.4756846355 3.0532058599
H -0.4669421862 1.8949497044 3.3341774819
H -2.9862301271 3.2899245753 2.8952437485
H -3.1636577363 1.3315706441 0.9516759099
H -2.6818796524 2.7951198641 0.0335839629
H -0.4699358693 4.2471976085 2.5836961601
H -1.5152356942 4.6988057205 1.2040520343

