# b3lyp 6-31G(2df,p) opt Freq 

 titel

0 1
C 1.0887668148 -0.5308946779 -1.0894828239
C 0.9408125175 0.1218168287 0.2802738911
C 1.8370536195 -0.4982742663 1.3958943091
C 2.9566461582 0.5766232935 1.0689181576
C 2.1217629345 1.5107847603 1.951135056
C 1.4820331026 0.3239743752 2.6692479505
O 2.1543866946 -0.0741714199 3.842684778
C 1.8134419915 1.3659128581 0.466905491
O 1.8510087217 2.4944363775 -0.3243557295
H 0.6040338771 -1.5119749635 -1.1130850203
H 0.6268785702 0.0816336252 -1.8723886841
H 2.1451610689 -0.672932615 -1.3471170241
H -0.1213770149 0.2276213317 0.5386859115
H 1.9821627048 -1.5754051262 1.460965093
H 4.0146166873 0.5391815963 0.8554143001
H 2.407376355 2.4743674945 2.3550407512
H 0.4224169648 0.380060334 2.9409363603
H 3.1011386439 -0.0217432758 3.6628503703
H 2.1421997779 2.2350775895 -1.2056016978

