# b3lyp 6-31G(2df,p) opt Freq 

 titel

0 1
C 1.3134687768 0.9929933089 0.4336453896
C 0.8247065309 -0.4159865697 0.06794167
C 1.4638123844 -0.9296139949 -1.1838279077
O 2.8389611498 -1.3302503854 -1.1295677212
C 1.8934547063 -2.2711007202 -1.6445510707
C 1.636301745 -1.9159570487 -3.1296285188
C 2.7570250995 -1.1355157646 -3.8565120191
O 2.2471461107 0.1350904717 -3.3702724032
C 1.1782978028 -0.5146630043 -2.6696062006
H 0.8292339718 1.3479556408 1.3478758615
H 2.3951972939 0.9946412817 0.5937266832
H 1.0931817711 1.7085957444 -0.3650397293
H 1.0432546827 -1.1147753295 0.8834039293
H -0.264344374 -0.4131204821 -0.0672085974
H 1.8468636276 -3.240762446 -1.160419886
H 0.9971058587 -2.589010309 -3.6973036627
H 3.7784039999 -1.3245586018 -3.515254389
H 2.7051912665 -1.1838372214 -4.9501352381
H 0.1906912754 -0.0874962698 -2.8658425901

