# b3lyp 6-31G(2df,p) opt Freq 

 titel

0 1
C -2.8247376275 0.028470397 -1.3299033096
C -2.0069386187 -0.0641580577 -0.0530178068
C -0.8917241797 -1.1396106519 -0.0404311672
C 0.0515127738 0.0580427114 -0.0488044879
O 1.2226466863 0.262562919 -0.0545263656
O -0.9570007983 0.9877022633 -0.0506429969
C -2.856816248 0.0245271463 1.1922947654
C -3.2540456059 1.3626402643 1.7596557556
C -2.2916611622 0.4767134081 2.5134076247
H -3.5368412625 -0.8015057219 -1.3831115277
H -3.3890707713 0.9647265589 -1.353882351
H -2.1796651825 -0.0116180476 -2.2120678325
H -0.8292468321 -1.7475694533 0.863406919
H -0.8194144056 -1.7759943239 -0.9242363631
H -3.6087355798 -0.7596280374 1.2338041408
H -2.8364345549 2.2446172819 1.2873683396
H -4.2625044262 1.4824960194 2.1386972123
H -1.2556533166 0.7933039967 2.5449184233
H -2.6390403583 -0.0228828227 3.4106472776

