# b3lyp 6-31G(2df,p) opt Freq 

 titel

0 1
C -3.1305471358 -0.2167953859 -1.1975624843
C -2.1646548733 -0.1878259907 -0.018140552
C -0.9217471253 -1.140176016 -0.1370662563
C -0.0094898792 0.092154437 -0.0115770635
O 1.1781257091 0.2676785405 0.0088151432
C -1.1909071213 1.0100177248 0.0946447502
C -1.2395360331 2.2340404737 0.9964447063
C -1.2452390356 2.4022040192 -0.4882630787
O -2.4254530234 2.7596633364 -1.1413736795
H -3.631789932 -1.1892741037 -1.2528161978
H -3.8900077378 0.5627578548 -1.1089425657
H -2.6023935387 -0.0526756657 -2.1425791286
H -2.7098409926 -0.3516170518 0.9163208302
H -0.7942875616 -1.8751216896 0.6625498713
H -0.8306759756 -1.6543971382 -1.0993013418
H -2.1792518976 2.4061890409 1.5120010436
H -0.3390955734 2.4736358635 1.5531898085
H -0.3257867229 2.74362068 -0.9647297049
H -2.5913056298 3.6917122109 -0.9638252103

