# b3lyp 6-31G(2df,p) opt Freq 

 titel

0 1
C -0.2907161711 -2.1439074849 1.2115203519
C -0.8314764887 -1.3431775953 0.0165315894
C -2.3291255871 -1.0530163959 0.1460034426
C -2.8048415081 0.0060872288 -0.8671866207
C -2.3490409579 0.9686435205 0.2486674892
C -0.8577835826 1.2757676246 0.1504218197
C -0.0637088087 -0.0117183526 -0.119307748
O 1.1064144842 0.0131883864 -0.4144421813
O -2.5144786276 -0.0956786844 1.2304216145
H -0.7413915306 -3.1410740963 1.241072767
H 0.7933437349 -2.2536194001 1.1342964815
H -0.5293867556 -1.6328945103 2.1485798656
H -0.6392000349 -1.9066490783 -0.9059489908
H -2.9263082488 -1.9579172405 0.2901017946
H -2.3062252623 0.0599547252 -1.8384786808
H -3.8879025258 0.0023404862 -0.9953029157
H -2.9606107249 1.8441135673 0.4797919709
H -0.6230956734 2.0034022175 -0.6342520331
H -0.502219941 1.6974018122 1.0981128636

