# b3lyp 6-31G(2df,p) opt Freq 

 titel

0 1
C 0.8914830995 1.7701665176 0.2496139538
O 0.8590456245 0.3839659293 0.5589258145
C 0.6934692189 -0.3440127455 -0.647628259
C -0.721361577 -0.9111114772 -0.7537495832
C -1.8606346737 0.075642369 -0.7890581164
C -1.8781488331 1.3542875265 -1.1698866715
C -0.7566056784 2.2192190976 -1.6890746665
C 0.6660773827 1.8396898644 -1.2753693693
O 1.0227904656 0.5278357855 -1.7054158832
H 0.1093418729 2.295668956 0.8089762033
H 1.8677611026 2.1832332118 0.5320291645
H 1.4205219837 -1.1661363133 -0.6625273703
H -0.7638956171 -1.545904688 -1.6513895844
H -0.8600816246 -1.5893133944 0.0972748835
H -2.8145118467 -0.3529723192 -0.486350095
H -2.8441482605 1.855708387 -1.1476213335
H -0.7995005791 2.2340597047 -2.7879453052
H -0.9301094159 3.2581252455 -1.3768938754
H 1.367992446 2.5301614927 -1.7527264165

