# b3lyp 6-31G(2df,p) opt Freq 

 titel

0 1
C 3.8435864887 -2.7201970214 0.9721282657
C 2.4582079327 -3.1720440563 0.6101038728
C 1.3833729502 -2.5115650031 -0.2954757206
C 0.7920125251 -1.1752455159 0.1229729019
O -0.349158952 -0.817726461 -0.6442231671
C 0.6878765461 -3.8133680713 0.1773234444
C 2.0262709874 -4.606784666 0.1519769753
O 1.8924475657 -5.1309439655 1.5060603388
C 1.3734330699 -3.7695447923 1.5782810883
H 4.3164191523 -3.4616239322 1.6246282602
H 4.4679478485 -2.6002949491 0.0802263317
H 3.8285540317 -1.7610680234 1.5007373999
H 1.6313329644 -2.4924604806 -1.3634337886
H 0.5616145797 -1.1810040605 1.2015153034
H 1.5183925083 -0.3722700005 -0.0450504755
H -1.0124696759 -1.503889435 -0.5182975841
H -0.3008577952 -4.2131594359 -0.0505520635
H 2.4442123042 -5.2479984263 -0.6243091613
H 1.0055853184 -3.4094376436 2.5386237582

