# b3lyp 6-31G(2df,p) opt Freq 

 titel

0 1
C -3.0541046895 -0.9231221016 0.9627016633
C -2.3811092678 -0.8315497769 -0.4050176033
C -0.9309481699 -1.3425323443 -0.4105050614
C -0.1153194664 -0.0666118275 -0.1950163976
O 1.0458354276 0.0250087053 0.1173819358
C -1.0604025958 1.0640099178 -0.4405020204
C -0.5883796029 2.3700111653 -1.0100620963
C -0.9852253303 2.2992285473 0.4395228585
O -2.29417454 0.5422889696 -0.848087617
H -2.4483103598 -0.4373535863 1.7350150878
H -4.0317228748 -0.4348135701 0.9354493033
H -3.1962789396 -1.9701774033 1.2504150725
H -2.9960922562 -1.3402040729 -1.1522236189
H -0.7070593152 -2.0914575434 0.3514530686
H -0.6548121498 -1.7588127943 -1.3860591576
H 0.4664549922 2.441697625 -1.2521643307
H -1.2684639932 2.8585563709 -1.6985801662
H -0.2033884923 2.3241541982 1.1909003086
H -1.9377098062 2.7317933912 0.7235001512

