# b3lyp 6-31G(2df,p) opt Freq 

 titel

0 1
C -0.0353192558 -0.2289910655 0.0066734464
C 1.4676950537 -0.170413333 0.0862120632
C 2.17298449 0.3666058216 1.3250384391
C 2.2490648487 1.1392165229 0.0466194539
O 1.6586254158 2.3944858451 -0.0142669313
C 3.28830659 0.7554375441 -1.0253205737
C 3.7819902577 -0.658767706 -0.6584423816
C 2.2963185838 -0.920552625 -0.9801972659
O 2.4150859997 0.1163490985 -2.0337656499
H -0.4829395361 0.6344194591 0.5087348762
H -0.3654925659 -0.2153207652 -1.0381999083
H -0.4368182309 -1.1347972459 0.4748935968
H 1.5019190426 0.7990258709 2.0619258366
H 3.0407574039 -0.1145212816 1.7610205311
H 1.2736912499 2.4856650773 -0.8949969941
H 3.9260595657 1.5449328212 -1.4228988288
H 4.4245527724 -1.0567973688 -1.4433757327
H 4.1925549735 -0.8744901059 0.3279589114
H 1.9184162614 -1.8733025336 -1.3519803983

