# b3lyp 6-31G(2df,p) opt Freq 

 titel

0 1
C 1.3974421465 0.9326388461 0.3034783661
C 0.0463992323 0.31301654 0.2145076583
C -1.1785921674 0.8419596413 0.085776155
C -2.0540385727 -0.3968625155 0.0087834022
O -1.4768653588 -1.2654131942 1.048698824
C -0.2654985017 -1.1908479555 0.1986983503
C 0.7750104019 -2.2336155464 0.4820505837
C -1.2646235879 -1.2666957071 -1.0322999481
O -1.7798269832 -2.5298694318 -1.2974922668
H 1.9040878321 0.6602243497 1.2377030838
H 2.048411903 0.5963623629 -0.5136280759
H 1.3367707118 2.0233387705 0.2567105183
H -1.4892696648 1.8737408841 0.0055275354
H -3.140660893 -0.3263050643 0.0306710595
H 1.0590910459 -2.2184189286 1.5389059771
H 0.3938949102 -3.2291044226 0.2377415974
H 1.6725364305 -2.0562359837 -0.1187927551
H -0.965381679 -0.8084668154 -1.9771721003
H -2.0573958557 -2.8819301896 -0.439580615

