# b3lyp 6-31G(2df,p) opt Freq 

 titel

0 1
C 1.3263447088 -0.6706466102 -1.1744552105
C 0.9429867208 0.092587717 0.072835014
C 1.6954494929 1.3754907762 0.4449540331
C 0.9437237137 2.2997762217 1.346866553
C 0.7016365856 1.7396794728 2.5349782978
C 1.3194878016 0.3571150044 2.6452913103
O 0.4378298959 -0.664060567 3.1014396362
C 1.9044529026 0.1215715677 1.246638826
O 3.1139902857 -0.5668979314 1.1590416986
H 0.9954267354 -1.713948756 -1.1143008571
H 0.8659402308 -0.2286232013 -2.0642610812
H 2.4101506123 -0.6757501217 -1.3114083342
H -0.1224091345 0.1057544213 0.2970894055
H 2.4507553267 1.7418308996 -0.2412364969
H 0.6129801911 3.2843302786 1.0342061853
H 0.1373118569 2.1785369475 3.3494953613
H 2.1417976454 0.345649339 3.3723946892
H -0.3234482995 -0.6693784934 2.5101620093
H 2.9463886778 -1.4797782648 1.4216810502

