# b3lyp 6-31G(2df,p) opt Freq 

 titel

0 1
C -2.2021388374 1.7046773892 0.2118624992
C -0.9664665284 2.0170383335 -0.6444111244
C -0.2225635515 0.7353084946 -1.0701849345
C 0.3492365858 -0.0042558701 0.1191876303
O -0.0471573578 -1.0676504494 0.5225025824
C -0.1024199164 3.2067067381 -0.0900339901
C -0.6951838359 4.1680962715 -1.1635894422
C -1.3312745303 2.9410240009 -1.8327305053
O -1.8403491251 2.7360496085 -2.8953626449
H -1.9198732359 1.1871048254 1.1340889083
H -2.7344469225 2.620238024 0.4888929008
H -2.8967051814 1.0625342553 -0.3378982397
H -0.9036628542 0.0708689066 -1.608746235
H 0.605151666 1.0039421548 -1.7401181342
H 1.184166369 0.5238364808 0.6361347226
H -0.297203585 3.4767941326 0.9489637638
H 0.9715196731 3.0516033636 -0.2158515048
H -1.4459019051 4.8641779153 -0.7764721634
H 0.002864943 4.7319208751 -1.787215559

