# b3lyp 6-31G(2df,p) opt Freq 

 titel

0 1
C 2.8119185076 1.6036995881 0.0241406867
C 1.783096846 0.5008483932 0.1619052928
C 1.5677355957 -0.404034767 -1.0460075101
C 0.4227748826 -1.3619905808 -0.7609482408
O 1.0188785703 -1.7532396583 0.5082607335
C 2.1782570471 -0.9460371179 0.2337665223
C 3.4712363642 -1.5841444894 0.5869751839
C 4.2157072605 -1.2205176449 1.8039231159
O 4.6534355021 -0.7895632805 0.5143353441
H 3.1695299901 1.9374574888 1.0035078767
H 3.6831465424 1.2744715811 -0.5446711517
H 2.3702154647 2.4687455192 -0.4828467916
H 0.8999949163 0.7647427963 0.7434345423
H 2.0217687217 -0.2003893969 -2.0068451692
H -0.5795916555 -0.9354659595 -0.633943786
H 0.3751868762 -2.2198805139 -1.4417950867
H 3.5838330532 -2.6002369957 0.2065126012
H 3.8251053583 -0.4362236548 2.4490833257
H 4.8495624663 -1.961920917 2.287163101

