# b3lyp 6-31G(2df,p) opt Freq 

 titel

0 1
C 1.6404635922 -0.0639977749 1.2141413759
C 1.0962031802 0.2718164219 -0.1783783007
C 1.819438765 -0.462859249 -1.3040728307
C 1.4757577559 -1.949863296 -1.4293379428
C 1.5929559869 -2.242659671 -2.9600289483
O 2.0155113108 -1.0417741802 -3.5968686091
C 1.1357575007 -0.3233199212 -2.6930649157
C 0.3368295876 -1.6807791229 -2.3846838321
O -0.9737366634 -2.0584144863 -2.3052954306
H 1.5187743611 -1.1275796574 1.4441417958
H 2.7079665289 0.1712703173 1.2882404253
H 1.1190376074 0.5050673445 1.9899274981
H 0.0245805806 0.037803982 -0.2216818623
H 1.1859263141 1.352603482 -0.3522108066
H 2.8858107739 -0.2061268097 -1.3198356622
H 1.5609756819 -2.7459567952 -0.700421282
H 1.8695594706 -3.2004323909 -3.3803185084
H 0.7814071088 0.6286208609 -3.0861453374
H -1.3326842432 -2.1117430839 -3.1992612462

