# b3lyp 6-31G(2df,p) opt Freq 

 titel

0 1
C 1.5419609261 -0.0007450341 0.0731943534
C 0.0857088368 -0.0113144857 0.0642363174
C -1.1199406478 -0.0088297824 0.0312411642
C -2.5717207215 -0.02416636 0.0429320252
C -3.0960702065 -0.9804756046 1.1287961938
O -2.681678584 -0.5988713661 2.422525131
C -3.3251089531 -0.200493669 -1.3058810879
O -4.1496969753 0.9469048328 -1.037343359
C -3.3100845717 1.3448620895 0.0650942616
H 1.929574686 0.7637136128 0.7554559082
H 1.9467126941 -0.9674124862 0.3920342521
H 1.9405674023 0.2131599996 -0.9244658547
H -4.190488181 -0.9504758988 1.1301502804
H -2.78307767 -2.0075729061 0.8830989555
H -1.7174726213 -0.5612891887 2.4079320953
H -2.6910255515 -0.0613846505 -2.1901656421
H -3.9114125918 -1.1209120169 -1.415809891
H -2.6718517046 2.1988963242 -0.1916154155
H -3.878552845 1.5639330401 0.974465912

