# b3lyp 6-31G(2df,p) opt Freq 

 titel

0 1
C -0.0038640424 -0.3612523497 -0.3087978624
C 0.8494271483 0.4620884174 0.6191502768
O 2.0478650822 -0.1581329649 1.12419122
C 2.1801142064 0.9542213348 0.2559485918
C 2.926301803 0.8893361028 -1.0884893789
C 3.5975450707 2.2184276484 -0.7033889093
C 4.8761486948 2.7868595806 -1.124639872
O 3.627559632 3.3362163379 -1.5732519329
C 2.8969868544 2.2524625793 0.6646803579
H -0.559584888 -1.1203799245 0.2513980773
H -0.731672528 0.2746580145 -0.8247476628
H 0.6087648448 -0.8699215191 -1.0575965469
H 0.3027972007 1.0257391323 1.3784034115
H 3.604311864 0.0355296259 -1.1725950954
H 2.3025311655 0.9465380048 -1.9849355141
H 5.4425989805 3.4153839725 -0.4381610911
H 5.4670794148 2.2852263391 -1.8903444554
H 3.5596208509 2.1304729294 1.5261928452
H 2.2561945754 3.1246323288 0.8201719106

