# b3lyp 6-31G(2df,p) opt Freq 

 titel

0 1
C -3.1157788672 -2.4885375827 -0.1730878999
C -2.279339914 -1.2486487233 -0.4016290524
C -2.4981833852 -0.4281748456 -1.6697461869
C -2.9051639973 0.1133726435 -0.3198909912
O -2.2314045013 1.1550257341 0.3351725065
C -0.8613311574 1.2866489286 0.0268716607
C -0.0696216192 -0.0242924206 -0.0231023863
O 1.1257319029 -0.0048538237 -0.1922148723
C -0.8615002055 -1.31155949 0.1509659082
H -3.1788129345 -2.7337912892 0.8935902551
H -4.1358843979 -2.3514913073 -0.5454636218
H -2.6882188686 -3.3556334977 -0.6906857027
H -1.6316584823 -0.0200154926 -2.1785431074
H -3.2927477421 -0.7307791599 -2.3436816725
H -3.9649789663 0.1930072556 -0.1027527289
H -0.7063017266 1.8023711466 -0.9339712986
H -0.4227190907 1.9202786524 0.8037412909
H -0.2775669209 -2.1302272017 -0.2827534629
H -0.9144100758 -1.4983641564 1.2348590224

