# b3lyp 6-31G(2df,p) opt Freq 

 titel

0 1
C 2.9672583899 1.6139596649 -0.2392137398
C 1.9611648723 0.460030574 -0.2140893084
C 2.2263137563 -0.5899065638 -1.2866289306
O 2.1459754793 0.0178272204 -2.5973499964
C 1.5420330062 -0.8076057197 -3.5085001262
O 1.5787757333 -0.5939331355 -4.6852121602
C 0.8751826668 -1.9305970388 -2.7786242512
C -0.1450116834 -1.4728911749 -1.7497894831
C 1.2612324154 -1.7688756756 -1.3294141203
H 2.7450582469 2.3428500728 0.5453949216
H 3.9888070234 1.2516416177 -0.0793456056
H 2.9420065215 2.1286990485 -1.202993994
H 1.9912408201 -0.0484159939 0.7580518444
H 0.9419423603 0.8430241252 -0.3360013471
H 3.2521370049 -0.968718938 -1.1751170858
H 0.7530289084 -2.8737261623 -3.2924530204
H -0.4915719045 -0.4458045391 -1.7883012523
H -0.9063187369 -2.1966262991 -1.4828727881
H 1.4667189297 -2.6214614528 -0.6942251266

