# b3lyp 6-31G(2df,p) opt Freq 

 titel

0 1
C 1.3535912562 -2.669595373 -0.9062659415
C 0.7411592926 -1.3824916245 -1.3786225022
O 1.5575324356 -0.7063896369 -2.3834765197
C 0.3777755953 -0.3061881006 -3.132704584
C -0.2478096207 0.9842041835 -2.5627357604
C -0.8398360273 0.1512572493 -1.3998857769
C 0.2612577628 -0.2940285992 -0.3822164479
O 1.2285078337 0.6210807848 0.0449226007
C -0.5468280011 -1.164268838 -2.2239727441
H 0.685847177 -3.1763115155 -0.202248104
H 1.5538191843 -3.3404540329 -1.7467472168
H 2.300658611 -2.4688130255 -0.3931974886
H 0.5299558797 -0.4161374403 -4.2080801343
H 0.4264378551 1.8099703013 -2.317234814
H -1.0396427733 1.3490809701 -3.2247396453
H -1.8123316469 0.433982662 -0.9988025093
H -0.2014049023 -0.7418462638 0.5042353609
H 1.8428468406 0.7050738998 -0.6985220388
H -1.2581538323 -1.9229405707 -2.5373388237

