# b3lyp 6-31G(2df,p) opt Freq 

 titel

0 1
C -0.1032058208 0.1407770682 0.0415827087
C 1.4003407935 -0.0697863999 0.005981896
O 2.0192360961 1.2127963914 -0.0072773316
C 3.4268537335 1.2067222325 -0.0065249361
C 3.9637575284 2.6390872792 0.244824853
O 4.5848586028 2.2492852472 1.4819288919
C 4.097717017 0.9015906609 1.3718791337
C 3.9993444562 0.5056340331 -1.1520168336
C 4.48067155 -0.0671921259 -2.0931775106
H -0.3948949672 0.698668654 0.9358391679
H -0.4312167056 0.7040783388 -0.8364385049
H -0.6198899661 -0.8235315809 0.0490555275
H 1.7322214102 -0.6406633904 0.8874631649
H 1.6970809807 -0.6386907123 -0.8855639292
H 4.6870199458 3.0137667959 -0.4859082745
H 3.1516248816 3.3606263109 0.3865993742
H 4.9086141073 0.1659683255 1.3617595715
H 3.3722395063 0.6542893479 2.1565117226
H 4.9063154502 -0.5699406159 -2.9266373212

