# b3lyp 6-31G(2df,p) opt Freq 

 titel

0 1
O -3.9754815542 0.2401398333 -1.5764642471
C -2.5906788071 0.0555094561 -1.4327812194
C -2.0422805761 -1.0418662734 -2.2927467469
C -2.1241425416 -1.2407824661 -0.7911233075
C -0.8539240458 -1.2933939937 0.0442563676
C -0.0074945717 -0.0282349323 -0.0520318368
O 1.1982889666 -0.054706502 -0.1271914082
C -0.8114188272 1.2610689144 -0.0244720437
C -1.7777789025 1.3375493558 -1.2260549511
H -4.3305164906 0.5171019655 -0.7243746658
H -2.7521426147 -1.5817928297 -2.9082035789
H -1.0621335391 -0.8980582716 -2.7381093049
H -2.9237421889 -1.8986657049 -0.4642480646
H -1.1242949529 -1.3937958662 1.1058274269
H -0.2269277186 -2.153462347 -0.2095282778
H -1.3964633841 1.2717417045 0.9052527307
H -0.1247496546 2.109898684 -0.0093812114
H -2.4793001108 2.1644666827 -1.0800753189
H -1.2119319562 1.5743329207 -2.1338172922

