# b3lyp 6-31G(2df,p) opt Freq 

 titel

0 1
C -0.1066000522 -0.1070535884 -0.2062545978
C 1.3967626876 -0.0317892816 0.1159186622
C 1.926023698 1.3271176482 0.0891398783
C 2.3433143184 2.4560299719 0.0663680863
C 2.8628991271 3.8096946435 0.0003533089
O 2.7915853557 4.406344077 1.316077994
C 3.2477051133 5.6754326358 1.3868232501
C 3.1315281689 6.2042250392 2.7959523598
O 3.6834103374 6.2804510227 0.4397219579
H -0.6877304571 0.4745125694 0.5143513546
H -0.3110159695 0.2908376027 -1.2038829261
H -0.451685765 -1.1445780912 -0.1713148287
H 1.5845467924 -0.4691876931 1.104871618
H 1.9583532797 -0.6503176806 -0.5959400233
H 3.9041183899 3.8259937658 -0.3399748905
H 2.2911227572 4.4279741646 -0.7003468229
H 3.7108555295 5.5774859858 3.479773222
H 3.4978751633 7.2294575045 2.8290253983
H 2.0895046752 6.1673338838 3.1255674886

