# b3lyp 6-31G(2df,p) opt Freq 

 titel

0 1
C 2.7403779508 0.2942466397 2.5916820011
C 3.1080585592 -0.5505843722 1.3742608547
O 4.5134211135 -0.5373566324 1.1431857403
C 2.4735241446 -0.0238955076 0.0655524292
C 2.9093322742 -0.8742052927 -1.1511941792
C 2.5083276265 -0.2528910928 -2.469684233
O 2.063280996 -0.8583633489 -3.4090546273
C 1.0168757897 0.0382913094 0.1579829446
C -0.1840664711 0.0628533401 0.2054622533
H 3.2169140266 -0.1087867474 3.4924366659
H 3.0824918937 1.3254176394 2.4566879377
H 1.6601387964 0.2993276951 2.7552433968
H 2.7563412099 -1.5835371044 1.5270183764
H 4.9517817063 -0.8399481722 1.9441686611
H 2.8626075126 0.9951931917 -0.0765635763
H 4.00414219 -0.9395060435 -1.1318456049
H 2.5023549654 -1.8874549123 -1.0975998837
H 2.682715369 0.8482059909 -2.5285598912
H -1.2449146131 0.0953619701 0.2452064644

