# b3lyp 6-31G(2df,p) opt Freq 

 titel

0 1
C -0.1112549657 0.1617792953 0.0319510276
C 1.3872223539 0.0667363555 -0.0127310621
O 1.9291704896 -0.0617010707 -1.3506605815
C 2.8345604958 1.0475811188 -1.1535822742
C 2.4458732356 1.1853825523 0.3233188705
C 3.1970685185 0.194781065 1.2378560849
C 2.6351128507 0.117122931 2.6666663645
O 1.6269166654 -0.8472628663 2.2803109813
C 2.1294199681 -0.9049560968 0.9311910022
H -0.4542368225 0.189308178 1.0694153982
H -0.4673443794 1.0537585811 -0.492065806
H -0.551794613 -0.7158896961 -0.4544769795
H 3.8769661121 0.7785785896 -1.3664562448
H 2.5543408431 1.9049099738 -1.7793367688
H 2.2155843431 2.178141033 0.7116573991
H 4.2732650947 0.0841950782 1.1043902825
H 3.3254716008 -0.3086519189 3.4055824298
H 2.1985340045 1.0376721587 3.0744093346
H 2.3157112046 -1.9215810016 0.5755968916

