# b3lyp 6-31G(2df,p) opt Freq 

 titel

0 1
C -2.8834082659 -0.087966598 1.9604845941
C -1.4885040033 -0.3464493227 2.4306525761
C -0.334612084 -0.3319851936 1.7552557528
C 0.8045063765 -0.6400575673 2.6962432577
O 0.2006900952 -0.8613396741 3.9661560738
C -1.2051684782 -0.6863879937 3.871251088
C -0.1198131159 -0.0384671868 0.3286707574
C 0.9064541478 -0.7182272021 -0.4874449364
O 1.11966102 0.6088264912 -0.0194137333
H -3.3555738286 0.70295909 2.5564776512
H -2.9230722104 0.2118372125 0.9108407776
H -3.5099236011 -0.9816387001 2.0759934281
H 1.3715246054 -1.5364166012 2.3984753586
H 1.5216173021 0.1913387062 2.7531013495
H -1.7229125323 -1.6067584516 4.1901210529
H -1.5363633641 0.1159415064 4.5524588117
H -0.9812144821 0.3585228265 -0.2071267807
H 1.5379936976 -1.4830297891 -0.0392137617
H 0.7459891214 -0.8201803124 -1.5603316974

