# b3lyp 6-31G(2df,p) opt Freq 

 titel

0 1
C 1.3950518242 0.650736163 -0.1818069064
C 0.0428585514 0.0888171053 0.1197458602
C -0.2750088633 -1.1610543102 0.4767689157
C -1.7615891117 -1.3547727744 0.6853798376
C -2.3327110141 0.0446202271 0.4514181843
C -3.7601922955 0.2506237048 -0.0018572761
O -4.0603511554 -0.4307572949 -1.2114121735
O -1.8527966927 1.0182254563 1.3862040381
C -1.2047633215 0.919627038 0.090762631
H 1.6571358788 1.4522085712 0.5200001409
H 2.1697548856 -0.1186436705 -0.1259099948
H 1.4273817342 1.0908495327 -1.1865144336
H 0.4413335197 -1.9599945581 0.6369098689
H -2.1774401077 -2.0744121671 -0.0330844208
H -2.0020601157 -1.7242152202 1.6899380691
H -4.4494047888 -0.0412160378 0.8055026362
H -3.9159609738 1.3171154835 -0.1883594883
H -4.2177622209 -1.3561213493 -1.0040356991
H -1.3002173628 1.8025000807 -0.5361985594

