# b3lyp 6-31G(2df,p) opt Freq 

 titel

0 1
C 2.37384195 -0.652921341 -4.4913375607
C 1.4082029166 -0.3388857199 -3.3834917853
C 1.1609802994 1.0770337311 -2.8637137053
C 0.055448083 0.6860029968 -1.8668906564
O -0.8582049355 -0.0877808802 -2.6585654512
C 0.0671466941 -1.0134098902 -3.2116814476
C 1.1530399988 -1.277241684 -2.1945972387
C 0.7558486775 -0.4132073395 -1.0128081836
O 1.8900139996 0.0247918598 -0.2883421696
H 2.3511643817 -1.7169039926 -4.7496144927
H 2.1333598326 -0.0863666731 -5.3984024918
H 3.402517236 -0.4056944178 -4.2056176202
H 2.0314820525 1.5088019816 -2.3657254986
H 0.7941754665 1.7546193075 -3.6405127555
H -0.4808753878 1.4747776346 -1.3415303696
H -0.3671097838 -1.7435332766 -3.8805162142
H 1.646709293 -2.2332542316 -2.0831957643
H 0.0302773739 -0.9183287972 -0.3602036161
H 1.5809578019 0.5289224724 0.4712478714

