# b3lyp 6-31G(2df,p) opt Freq 

 titel

0 1
C 1.4017165845 -0.8850567056 0.0396006513
C 0.6591057116 0.4611947186 -0.0320154105
C 1.5547110568 1.6323308472 -0.2352626526
C 1.7100035934 2.5432542485 -1.2387360164
O 1.0428564393 2.6672069481 -2.4217151983
C 2.7621345269 3.4465697481 -0.8610025571
C 3.2681863406 4.6047384322 -1.6590871205
C 3.1695915869 3.0056558952 0.357958578
O 2.4611642436 1.9177121786 0.7572874694
H 2.1293054596 -0.8756213725 0.8556048342
H 0.702286872 -1.7085256171 0.2142487687
H 1.9436930674 -1.0833548499 -0.8900686993
H -0.0702086696 0.436938205 -0.8525002245
H 0.0699903094 0.5976772227 0.8850430212
H 0.3755773401 1.9761797574 -2.4818781867
H 4.071945075 5.1250317081 -1.1311644133
H 3.6555743255 4.2810809209 -2.6315905763
H 2.4711781694 5.328917249 -1.8612897853
H 3.9265825777 3.3523316555 1.042886118

