# b3lyp 6-31G(2df,p) opt Freq 

 titel

0 1
C -3.2256121993 0.1558845313 2.8369536444
C -2.4615766688 0.1126440253 1.5316929482
C -3.1336374773 -0.4003266073 0.2812149298
C -2.0270843181 -1.1990492312 0.9379052403
C -0.6432633195 -1.2391673626 0.3202894595
C -0.2345134952 0.0531429648 -0.3713619667
O 0.4753294945 0.0961070484 -1.3376709153
O -0.7267568569 1.2121889952 0.1398315331
C -1.4401752438 1.2241789809 1.3832919522
H -3.9092741874 -0.6943511171 2.9154362607
H -2.5488043582 0.1194311732 3.698973874
H -3.8226881311 1.0716190175 2.9200965854
H -4.1471266929 -0.773757823 0.3783131561
H -2.9290944823 0.0918736604 -0.6637238388
H -2.3203378209 -2.1083273803 1.4546029865
H 0.1038934299 -1.4403628077 1.1011784449
H -0.5382095305 -2.0337545312 -0.4227406145
H -0.7170357067 1.1762776875 2.2105923163
H -1.9171061456 2.208551026 1.4192281839

