# b3lyp 6-31G(2df,p) opt Freq 

 titel

0 1
C -0.025524501 -0.6963636039 -0.2343721423
C 1.3639315385 -0.1218996348 -0.0979986185
C 1.7509814788 1.3646254935 -0.3053767277
C 3.1833603185 0.7372208351 -0.2198783094
C 4.0463242891 0.9618105576 -1.4546938052
O 3.0651446408 0.1479021807 -2.1881628853
C 2.6276130321 -0.4833301325 -0.9351391976
O 3.3459890558 0.4196566953 1.1457289405
C 2.0813745459 -0.3167859792 1.2979071395
H -0.7127999136 -0.2520705059 0.4950198916
H -0.4287322706 -0.5058675274 -1.23335659
H -0.0231425473 -1.7808930597 -0.0749638491
H 1.4971076831 1.7492099122 -1.2909744672
H 1.4931394198 2.0703292755 0.487149954
H 4.1279623634 1.9735910363 -1.8617764228
H 5.0263163837 0.4699428782 -1.4322290993
H 3.0595132943 -1.483792624 -0.8360211159
H 2.3013453856 -1.3652645104 1.5313762091
H 1.4976804132 0.1246789832 2.1113081056

