# b3lyp 6-31G(2df,p) opt Freq 

 titel

0 1
C 1.6863200181 0.7207031063 4.771105429
C 1.8287574531 0.4095726076 3.3240476295
C 2.8968250276 0.211030982 2.4988651102
C 4.3528988312 0.2575011421 2.846703875
C 2.3404144303 -0.0618569882 1.1993332666
C 0.9907061006 -0.0037206984 1.3220823169
C -0.1539507742 -0.2047707391 0.3923454345
O -0.9203070334 -1.3703770861 0.6834922623
O 0.6616020145 0.2864391844 2.6182068953
H 1.1347146909 -0.06553934 5.2999496526
H 2.6691241697 0.8143649396 5.2375346072
H 1.1449937615 1.6608252799 4.9284614892
H 4.5097623007 0.4842078262 3.9045363661
H 4.8450790187 -0.699488785 2.6380911353
H 4.8798924998 1.0218825072 2.2639114886
H 2.8876555205 -0.2756833132 0.293350878
H -0.7972166221 0.689768098 0.3916686666
H 0.2329799321 -0.3346332136 -0.6217184807
H -1.1929154997 -1.3033214097 1.6046824475

