# b3lyp 6-31G(2df,p) opt Freq 

 titel

0 1
O 0.3011542174 0.0053504486 0.2364285907
C -0.4825159447 0.7940578021 1.1061360294
C -1.5526588978 0.0327451058 1.934848027
C -0.7543165363 -0.6296121661 3.0788305791
C -0.6197941996 0.8684145584 3.4336927614
O -1.9656813346 1.0706735822 2.8785930003
C 0.2509656029 1.4274325902 2.3155399763
C 0.851859641 2.7971908966 2.3226436461
C 1.7440775393 1.5769751389 2.3851723498
H 0.829572073 -0.5966618447 0.7712364621
H -0.960818759 1.545823669 0.4738051537
H -2.3697414912 -0.4530595111 1.4027388183
H -1.4072798807 -1.1627152556 3.7701005012
H 0.1471570988 -1.2100989161 2.8597143312
H -0.4855873672 1.2427399009 4.4489686301
H 0.8327397977 3.3649542892 1.3978599345
H 0.7467133604 3.4010434583 3.2187834916
H 2.311449 1.318822556 1.4965223553
H 2.2467589307 1.3548083374 3.3214841417

