# b3lyp 6-31G(2df,p) opt Freq 

 titel

0 1
O -1.0228556899 0.9093922705 0.2023176665
C -2.2137433109 0.1490041539 0.1318312871
C -2.193934403 -1.1553489977 0.9181911431
C -3.194443525 -2.0878958941 0.2423834743
C -3.7939057966 -1.3140118234 -0.9305004862
C -2.5346197981 -0.4758507446 -1.2602372886
C -1.4423429494 -1.5622402561 -1.3803930273
C -1.7073971762 -2.2282895251 -0.0307971201
O -0.9346022553 -3.2719128313 0.4582681638
H -0.2817881063 0.2983155201 0.2620712784
H -3.0142064467 0.8250684167 0.4510786949
H -1.9914052822 -1.2076595156 1.9797638201
H -3.7306788351 -2.834991981 0.8131439823
H -4.1038683016 -1.9599588395 -1.7591379758
H -4.6483557143 -0.6919507832 -0.642993477
H -2.6144819917 0.2332877969 -2.0828089247
H -1.6111381174 -2.2372341783 -2.2274079117
H -0.431117895 -1.152128383 -1.4666404347
H -1.1450396654 -4.0644477353 -0.0478353944

