# b3lyp 6-31G(2df,p) opt Freq 

 titel

0 1
C 3.626450937 -4.6939385209 1.0556197012
O 2.8358370407 -3.5794331 0.712921776
C 3.5658285602 -2.6187005057 -0.0252219022
C 2.7190886089 -1.4804232736 -0.3504070946
C 2.0405220977 -0.5243608403 -0.6256291383
C 1.2028485867 0.6127897156 -0.9591220519
C -0.3353531001 0.4325163198 -0.819481077
C -0.2390983413 1.6035158268 0.1761924521
O 1.1980581398 1.6596757428 0.0481499307
H 2.989474762 -5.3809678877 1.6168638404
H 4.0121903042 -5.2133972714 0.1636677989
H 4.4854407896 -4.4099820993 1.6844793451
H 4.4415960888 -2.2724856828 0.5517023281
H 3.9617725717 -3.0668918987 -0.9537683159
H 1.5075939038 1.0233267862 -1.9314594024
H -0.9073530652 0.6149932922 -1.7296311049
H -0.6297627007 -0.522046336 -0.3843710958
H -0.7130108422 2.5377991292 -0.1493497725
H -0.5478673717 1.3876623937 1.2052706131

