# b3lyp 6-31G(2df,p) opt Freq 

 titel

0 1
O 0.6490257493 0.6647113624 0.066691697
C -0.6407168302 0.6908818175 0.6250475805
C -1.1368356136 2.0782663361 1.0787030473
C -2.1715680483 1.3265414136 1.9692929517
C -2.7196198689 2.0684426702 3.1803145939
O -1.7127656959 2.3482369416 4.1349756164
C -0.5001830637 2.7784721544 3.5389743888
C -0.1585793924 1.9754001907 2.293872812
C -0.8231991937 0.5614641435 2.1677932509
H 0.940991057 -0.2512234873 0.0282721073
H -1.3533635736 0.1110382705 0.0213460344
H -1.3211296135 2.9509105624 0.4491565538
H -2.9602866117 0.793232869 1.4271338515
H -3.2232105177 2.9963017805 2.8540438055
H -3.464558899 1.4575383103 3.7013218739
H -0.5434944392 3.8545994103 3.2921389103
H 0.2701875272 2.6497424125 4.3067477858
H 0.8997036903 2.0307543403 2.038554369
H -0.6483669224 -0.3160229985 2.7928496

