# b3lyp 6-31G(2df,p) opt Freq 

 titel

0 1
C 0.2198657395 -0.4815156702 0.2475535947
C 1.4741157967 0.3606575618 0.4364851224
O 2.4267729712 -0.3750207744 1.1806405729
C 1.346764487 1.8968919308 0.7797846956
C 2.8206744232 2.042852046 0.2678830623
C 2.1277827078 1.097064106 -0.775726088
C 0.9569522755 2.0876069812 -0.6917645841
C -0.2428412775 2.3943016097 -1.4549899489
O 0.8689221723 3.3168288065 -1.3712398111
H -0.2287949557 -0.7150551384 1.2217410237
H -0.5422859801 0.0170939855 -0.3528297492
H 0.4793731442 -1.4299123797 -0.2326982331
H 2.003199962 -0.6684775389 1.9938085225
H 0.8913626583 2.3518733877 1.660268626
H 3.0973650271 3.030592325 -0.1006336684
H 3.5904952061 1.5888211519 0.8854838793
H 2.5648634371 0.641676078 -1.6642166277
H -0.39937755 1.9492210553 -2.437121679
H -1.1504910845 2.7196666762 -0.9473898098

