# b3lyp 6-31G(2df,p) opt Freq 

 titel

0 1
O 1.2970151513 -0.5714376625 -0.0461751197
C 0.1983174537 -0.0780878611 -0.0246536549
C -0.3922880594 0.7348344531 -1.1619132381
C -0.9670035189 2.0520489034 -0.6940529675
C -1.5465947957 3.1491544991 -1.6262607924
C -1.4785301354 3.9664856326 -0.2972023159
C -0.1608652109 3.1856768045 -0.0003324622
C -2.4631713003 3.1659453312 0.561849893
O -2.0514441879 1.8184608824 0.2325023612
H -0.4730564353 -0.1936590586 0.852187273
H 0.3776110701 0.8894099485 -1.9219903078
H -1.2073654059 0.144443985 -1.6042548382
H -0.8358009304 3.500278637 -2.375983976
H -2.5259645479 2.9547134297 -2.0709576719
H -1.5427058062 5.0529098878 -0.2681900767
H 0.6848536613 3.5371801177 -0.5932284894
H 0.1288197989 3.0292829385 1.0419141947
H -2.3499183643 3.3414082279 1.6378630415
H -3.5125645967 3.3149890736 0.2828552373

