# b3lyp 6-31G(2df,p) opt Freq 

 titel

0 1
C 3.2599394421 0.3911434532 0.5565716017
C 1.958301291 -0.3240358572 0.2745896035
C 0.7537781382 0.4513771833 -0.2361832982
C 1.472659443 -0.4864294227 -1.1507974126
O 2.2060419449 0.0939839952 -2.210479192
C 2.6422553877 -0.9339505185 -3.1007227818
C 1.6903996539 -2.0913662981 -2.8807769287
O 0.3150654853 -1.7035918829 -2.9332771347
C 0.954235704 -1.7949717286 -1.6497967011
H 3.2246901267 0.9120867653 1.5192830592
H 4.0992817048 -0.3123540938 0.5876824548
H 3.4709245529 1.1248053921 -0.2255181869
H 1.7336696667 -1.1525842703 0.9435779785
H -0.2390976047 0.1850991372 0.1098810912
H 0.8965774488 1.5086178681 -0.4346410779
H 2.6124243072 -0.5271437798 -4.1163537477
H 3.6715334526 -1.2556580225 -2.8766267876
H 1.9322832174 -3.0929665008 -3.2252359599
H 0.5701043575 -2.547157489 -0.9672607198

