# b3lyp 6-31G(2df,p) opt Freq 

 titel

0 1
O 1.7144597468 0.0698427354 0.1815119207
C 0.3332086476 0.3093879255 -0.0306567721
C -0.0275376826 0.2467942146 -1.5186566456
C -1.4155974994 -0.2036919563 -1.9974354592
C -1.5460412444 -1.7222210598 -1.9750622151
C -0.5705317275 -2.561686085 -1.1647235533
O 0.7373476952 -2.1055222568 -1.5520160117
C 0.5613287233 -0.935890964 -2.3590412575
C -0.791739681 -1.0673116278 -3.0896782172
H 1.867666476 -0.8339486938 -0.1226578623
H -0.2884365053 -0.3942159872 0.5426624569
H 0.1260111354 1.3084295846 0.3684568663
H 0.2433162817 1.1861887645 -2.0131989589
H -2.3009689404 0.4178967332 -2.0674797076
H -2.5352224983 -2.119820949 -2.1702944786
H -0.6952840557 -2.4585262295 -0.0799959116
H -0.6614051013 -3.6254147852 -1.418767154
H 1.4802949561 -0.7638321977 -2.9158845436
H -0.993090776 -1.1520894856 -4.1481565455

