# b3lyp 6-31G(2df,p) opt Freq 

 titel

0 1
C 1.4909732328 0.7286279038 -0.0622632508
C 0.1037235103 0.2031343045 0.0485692977
C -1.0955650736 0.7905463224 0.0879231523
C -2.0442054953 -0.4180349595 0.2175460849
C -3.5299652558 -0.2579527328 0.0447354854
O -3.8297382415 0.2989845617 -1.2228877299
C -1.3305309908 -1.2562630625 1.3238256682
C -0.3065220402 -1.2862935396 0.1526945627
O -1.4461192327 -1.3512511146 -0.767736991
H 2.1032774769 0.4283836992 0.7978506334
H 1.9945242103 0.3365101508 -0.9550578444
H 1.5011589082 1.8205037567 -0.1184134197
H -1.3789513319 1.8315818563 0.0372552518
H -4.0208887395 -1.232782015 0.1875202209
H -3.9245525303 0.4315164289 0.7993574479
H -3.3365201572 -0.2183025956 -1.8707951893
H -1.0515114067 -0.760839954 2.2557450879
H -1.8057459672 -2.225838496 1.4951138228
H 0.437315574 -2.0702551349 0.0102524692

