# b3lyp 6-31G(2df,p) opt Freq 

 titel

0 1
C 3.967015434 0.1927894733 2.5718956411
C 4.6949885576 0.0119907698 1.2596930803
C 6.0961517633 0.5808007197 1.1980275693
O 4.5430973802 -1.2744419897 0.6491425885
C 3.9356262867 -0.1446444895 -0.0082924066
C 2.5014135269 -0.0964117227 -0.0836806867
C 1.3024230442 -0.0322303336 -0.1961649705
C -0.1562839997 0.0303775147 -0.2762523783
O -0.7500062755 0.8396856913 0.7289883503
H 2.9647051189 -0.2353097909 2.5232828667
H 4.5198544412 -0.3021754687 3.3774526048
H 3.8839608505 1.2551460453 2.8241317545
H 6.723665988 0.1227295738 1.9702976507
H 6.5548288657 0.3847643152 0.2259399723
H 6.0859107355 1.6618916886 1.3714519563
H 4.445385397 0.1492208254 -0.9265134152
H -0.4588250242 0.4732764629 -1.2316096376
H -0.5614041715 -0.9941174149 -0.2602134
H -0.4318141288 0.5220839301 1.5804544702

