# b3lyp 6-31G(2df,p) opt Freq 

 titel

0 1
C 3.3961516147 1.2029260605 -1.6038945981
C 3.4658961717 -0.0333191588 -0.7365757431
C 2.8361114266 -0.019285249 0.657283966
C 3.5744562001 -0.6475930447 1.7738032598
O 3.5554589641 -0.2508714774 2.9134926913
C 2.2615978506 -0.8727452869 -0.479494781
C 2.2658173879 -2.3695953832 -0.4267686092
C 3.3695159183 -3.2162787866 -0.9026231367
O 2.1950652157 -3.0405200681 -1.6901037652
H 4.1736020984 1.9228948803 -1.3291734181
H 3.5308255034 0.9443808975 -2.6593965329
H 2.4267998796 1.7009502859 -1.502993947
H 4.4108746509 -0.5689456254 -0.7855081209
H 2.2693112185 0.860608006 0.9437421076
H 4.1847098035 -1.5353050426 1.4867352227
H 1.3247896323 -0.4775708064 -0.8673835099
H 1.6011489451 -2.7988565108 0.3252838718
H 4.2718441245 -2.7616375853 -1.3067434889
H 3.5055527543 -4.2074471152 -0.4713859782

