# b3lyp 6-31G(2df,p) opt Freq 

 titel

0 1
C -0.0652569582 0.0629470301 -0.2187255151
C 1.4493460284 -0.0905347753 -0.0339376919
C 1.7763519201 -0.9048814071 1.120034745
C 2.0787907436 -1.5771772291 2.0723499026
C 2.2144740404 1.2940101451 -0.1414750721
O 1.4963531028 2.4769537832 0.0900619455
C 2.4871558663 1.011450708 -1.6288523272
C 2.1864977944 -0.477127137 -1.383400417
O 1.4401145372 -1.0823729179 -2.4057643639
H -0.5088372917 0.5347959574 0.6616301594
H -0.2974882694 0.6774176312 -1.0899479669
H -0.5317447266 -0.9158950704 -0.3554416864
H 2.3358056598 -2.1711507939 2.914159321
H 3.1327487573 1.256907706 0.4573943861
H 1.425252884 2.6089437874 1.0410891541
H 1.7045222313 1.4574937096 -2.2473080939
H 3.4641943609 1.27943764 -2.0330603227
H 3.0963604619 -1.0468807253 -1.1580339973
H 1.3520124174 -2.0197516621 -2.2045469094

