# b3lyp 6-31G(2df,p) opt Freq 

 titel

0 1
O 1.4471653958 0.7984216449 -0.0883446679
C 0.0979231434 0.4264859705 0.1499808814
C -0.7906837564 1.2766271714 -0.7615060959
C -0.5727606551 0.9692429883 -2.2690609172
C -1.862660735 0.2875032628 -2.7361908112
C -1.9271469132 -0.7850735587 -3.7424547999
O -2.3229877508 0.5459824742 -4.0735222813
C -2.8315499974 0.4235375819 -1.6175577703
C -2.2592244816 0.9763450099 -0.5486605652
H 2.0153011979 0.2310548099 0.4406312024
H -0.0707074801 -0.6402637102 -0.0697609281
H -0.182106222 0.5952290923 1.2023130481
H -0.561951151 2.3248689148 -0.5320210536
H -0.4423300422 1.8903225615 -2.8435077154
H 0.3186539107 0.3590846033 -2.4300639874
H -1.0048223237 -1.1317716937 -4.2091405135
H -2.7313062013 -1.5208777499 -3.7104311806
H -3.8640075587 0.1068773464 -1.7072276377
H -2.7568191695 1.1733436205 0.3951155732

