# b3lyp 6-31G(2df,p) opt Freq 

 titel

0 1
C -0.4837826522 -2.2281757653 1.1703793134
C -0.8919607858 -1.2180841502 0.1046512161
O -2.3057436326 -1.000672369 0.1806841095
C -2.7306964212 0.3418221894 0.0318027177
C -2.0285928324 1.2663873595 1.059027505
C -0.8595751927 1.3427277587 0.0205008786
C -1.9416930371 1.0858414009 -1.0766037963
C -0.0544217491 0.0763068147 0.1811767506
O 1.1432352223 0.0395267896 0.3312624369
H -1.0290741601 -3.1643545358 1.027923903
H 0.5892342038 -2.4184196657 1.1023583365
H -0.7113886193 -1.8451954458 2.1694431302
H -0.6637971315 -1.6416815369 -0.8876496989
H -3.8203941893 0.3111023974 -0.0084760931
H -2.5289344059 2.2331904368 1.1530775597
H -1.8252900545 0.8553225865 2.0506396096
H -0.2155773915 2.220778791 -0.0237372964
H -2.4347926993 2.0177625345 -1.3619342615
H -1.6635707017 0.5279541499 -1.9739969006

