# b3lyp 6-31G(2df,p) opt Freq 

 titel

0 1
C 0.3607981241 4.6609502845 -1.5958263406
C 0.7582929086 3.2235141413 -1.3488465824
O 1.884236986 2.8113472412 -1.5087539608
C -0.3300549925 2.274167366 -0.842819651
C -0.2449148947 0.8391700879 -1.4228023079
C -1.7015094746 0.4353998089 -1.5679979332
C -2.6018187613 0.621298223 -0.3565468011
C -2.4891975774 1.7014154313 -1.4002443939
O -1.6284711286 2.7853697834 -1.1553091465
H -0.4027081748 4.7016815795 -2.3783577736
H -0.1007679955 5.0882532892 -0.6991820202
H 1.2386838056 5.2392585135 -1.8852615718
H -0.2111552953 2.2380547016 0.2527540415
H 0.2473032438 0.8526233102 -2.3995864449
H 0.338190768 0.1845032447 -0.7712668949
H -1.9637966178 -0.3070130801 -2.3120528809
H -3.5239781119 0.050622772 -0.3348409367
H -2.153667086 0.7808247817 0.6188398785
H -3.3359680755 1.9868101603 -2.0126770394

