# b3lyp 6-31G(2df,p) opt Freq 

 titel

0 1
C 0.2435450584 0.2478426913 -1.8050960999
C 1.2671878435 0.0957352584 -0.6914770476
C 1.9239229629 -1.2927525341 -0.5980411844
C 3.3406500371 -1.0108753398 -0.0758988982
O 3.6921625039 0.2672803921 -0.602701063
C 2.5304567481 1.0628661023 -0.6454781699
C 2.0378856854 1.5678433442 0.7248260299
O 0.7213993493 2.0904325648 0.5140759111
C 0.8690033158 0.6751990546 0.6830418318
H -0.5811768518 -0.4645604066 -1.6853329713
H -0.1751500544 1.2573093939 -1.804445077
H 0.7008854791 0.0639156382 -2.7834027447
H 1.3710231386 -1.9838969824 0.045685975
H 1.9719434309 -1.7357681462 -1.5979893735
H 3.3636728649 -0.9983364256 1.0236400124
H 4.0877395266 -1.7289279608 -0.4233542467
H 2.6517710778 1.8223359562 -1.4208108478
H 2.6126019443 1.9537017232 1.5592766023
H 0.3029893797 0.2101084765 1.4838105515

