# b3lyp 6-31G(2df,p) opt Freq 

 titel

0 1
O 0.6345210105 0.1505677109 0.6889096336
C -0.7424877818 0.462863637 0.824476844
C -1.2097977792 0.5521885812 2.3096108698
C -1.932454959 -0.7809755046 2.4804018174
O -0.9609127714 -1.8242263976 2.1463879928
C -1.3119044911 -2.071021963 0.7667163087
C -2.8225938746 -2.3710463757 0.8475405777
C -2.8600179239 -0.87697813 1.2439968478
C -1.6640554726 -0.6365274206 0.256591285
H 0.7844620897 -0.6212906447 1.249027378
H -0.8777539805 1.411524671 0.2984890615
H -0.3598603197 0.6757850437 2.9854087579
H -1.9013384133 1.3881933885 2.4685683537
H -2.3704663059 -0.987452492 3.4585239126
H -0.5749802167 -2.7278426396 0.3075733782
H -3.2790077143 -2.5514381583 -0.1279670104
H -3.1391588612 -3.1231428521 1.5740201292
H -3.7663514025 -0.2727144896 1.2509397598
H -1.9101341224 -0.5812118044 -0.8030207171

