# b3lyp 6-31G(2df,p) opt Freq 

 titel

0 1
C -1.4400481738 2.0572768036 -2.4154090577
C -1.9526703234 1.9330930042 -0.9752256379
C -0.8899973906 2.2120775414 0.0802270058
C -0.576042514 3.6698537763 0.3998604761
C -1.3388210865 2.8712517174 1.396546907
C 0.2626828786 1.2889433092 0.285496138
O 1.242322702 1.5796221917 0.9466240031
C 0.2749692311 -0.1552004059 -0.253338479
O -0.6326614934 -0.7347481916 -0.786901913
H -0.6772302301 1.3054328539 -2.6370310585
H -2.2567032655 1.9122430472 -3.1289909414
H -1.0045666797 3.0453891555 -2.5977119298
H -2.7616279693 2.6575600905 -0.822161966
H -2.3846265924 0.9419241642 -0.8224371204
H 0.4573144375 3.9007603597 0.6282504584
H -1.1071185686 4.408903803 -0.1897821948
H -0.8211232976 2.5598460303 2.2961596877
H -2.4050398949 3.035829158 1.5054635667
H 1.2564672206 -0.6297236687 -0.0389102543

