# b3lyp 6-31G(2df,p) opt Freq 

 titel

0 1
C 2.0968236074 0.1322242571 -1.5526619758
C 1.5160823896 0.4829430841 -0.2018483968
C 2.2083797236 1.4515527314 0.6793094717
O 1.4009221572 1.839563168 1.7842592815
C 1.3587303367 0.4692964782 2.2692424367
C 2.1994592367 -0.0266131728 1.0902897403
C 3.304609975 -1.0103184494 1.1296357716
C 3.3125792076 -1.9604017002 2.316820782
O 4.1650448379 -1.0652182314 0.2726899852
H 1.7954332394 -0.8741132076 -1.8599260734
H 1.7295785368 0.8385790784 -2.3046197446
H 3.1866484355 0.1546197496 -1.5385533773
H 0.4279074349 0.5016662963 -0.152685693
H 3.0388722286 2.0864245925 0.3902628207
H 1.8606213246 0.3972809602 3.2404285521
H 0.3328033391 0.0912785886 2.3550799021
H 3.5242255745 -1.4115042927 3.2417127976
H 2.3357881777 -2.4400239767 2.4446091645
H 4.0841921373 -2.7162856437 2.167918845

