# b3lyp 6-31G(2df,p) opt Freq 

 titel

0 1
C -4.5034109909 -0.789822032 1.2360944942
O -3.1062060862 -0.634135881 1.0906373713
C -2.6392185669 0.0743210301 -0.0636811995
C -3.1263395503 1.5394595217 -0.0735460298
C -3.0247994735 -0.6452942963 -1.3741594589
C -1.1762472809 0.0676747274 0.0618443621
C 0.0298015083 0.0912863828 0.1165748736
C 1.4646458594 0.0899796427 0.2307245164
O 2.2179381574 0.5991725738 -0.5677182842
H -4.6463656428 -1.345084436 2.1660455615
H -5.0316178615 0.1691261633 1.3225846053
H -4.9545864321 -1.3664021071 0.4175208813
H -2.8937907996 2.0190076624 0.8800434796
H -2.6339567558 2.0949619549 -0.8751619757
H -4.2055112813 1.585611034 -0.2422984504
H -2.7213921963 -1.6938325791 -1.3303670457
H -4.1042336736 -0.5928162112 -1.539364048
H -2.5284044576 -0.1714706899 -2.2242646349
H 1.8434784042 -0.4293729708 1.1344722217

