# b3lyp 6-31G(2df,p) opt Freq 

 titel

0 1
C 1.5660219431 -0.1910360679 0.2793655744
O 0.2318941085 -0.4547944892 0.7247085603
C -0.4934278463 0.6428969168 1.0485659477
O -0.0632479362 1.7693312265 0.9666367387
C -1.8413063387 0.2960625658 1.5317307765
C -2.5689206541 -0.9804061399 1.1734986607
C -2.2366035693 -0.7505856898 2.607758875
C -3.1983802161 0.2616650669 3.241270661
C -2.8063092515 1.3115416597 2.1490300428
H 2.1365226866 0.3324107166 1.051066985
H 2.0090819265 -1.165710477 0.073152304
H 1.5583162102 0.4235820103 -0.6245658267
H -3.5983459084 -0.9082065992 0.8289363545
H -1.964666265 -1.7200903371 0.6624950604
H -1.5632960688 -1.4087602979 3.1429108511
H -4.2478890454 -0.047486945 3.2751419704
H -2.8945042622 0.5735011702 4.2422192221
H -3.6065647368 1.6635715691 1.4910939758
H -2.2824749261 2.1754655611 2.5590736963

