# b3lyp 6-31G(2df,p) opt Freq 

 titel

0 1
O 0.7859172119 0.0610230275 0.9117069073
C 0.2879040245 -0.047368716 -0.1853399572
C -0.5915065728 0.9862564458 -0.8095468311
C -1.4494217663 1.7774470397 0.1762811955
C -0.2552897288 2.4273356187 -0.4299535143
C -1.1368844321 0.700141793 -2.1904963671
C -1.7738272948 -0.6961804815 -2.4042238944
O -0.6453198735 -1.1352059896 -3.1895848088
C -0.1156563033 0.2061854232 -3.2460496495
H 0.4668495576 -0.9527744553 -0.8032494377
H -2.4361486718 2.0729555328 -0.1634756956
H -1.3811434916 1.4698052147 1.2132126255
H -0.4010372778 3.1805422608 -1.1966525713
H 0.6181444095 2.557886902 0.1982196733
H -1.7582007567 1.5369578339 -2.5173338938
H -1.9227093341 -1.313589158 -1.5106258723
H -2.7011038744 -0.6896413923 -2.9920493052
H 0.943445774 0.2461553883 -2.9657260873
H -0.2381279793 0.6506928322 -4.2424618861

