# b3lyp 6-31G(2df,p) opt Freq 

 titel

0 1
O 1.4370825423 0.5543391967 0.0916793492
C 0.3615819734 -0.1694773013 0.6840246982
C -0.851754832 0.7139673983 0.9295723146
C -0.8913084669 1.655027737 2.1618506814
C -2.4551618477 1.6450863707 2.1915280412
C -2.5290456735 1.2916553418 3.6902346608
C -1.3330346208 0.4903401926 3.139418654
O -0.5365903558 -0.4287992762 3.7994544081
C -2.0353548434 0.1906937872 1.7781017022
H 1.717891801 1.2218825932 0.7253720814
H 0.1077773213 -0.9543577997 -0.0378180774
H 0.6724920807 -0.6637207275 1.6137483866
H -1.1491900532 1.2001484101 -0.007781023
H -0.2603504829 2.5113273515 2.4125498565
H -3.0971946419 2.3025083867 1.610391642
H -2.3059345261 2.0987354207 4.3969043912
H -3.3978923049 0.712725189 4.0189760961
H -0.1372887491 0.0051174704 4.5615748199
H -2.7181829606 -0.6381759811 1.5838935172

