# b3lyp 6-31G(2df,p) opt Freq 

 titel

0 1
C -0.6965736403 -0.148824663 2.4510486727
C -1.3618567405 -0.5861028818 1.1527284026
O -2.3362426109 -1.5804211309 1.4307738595
C -1.8598829854 0.4642197541 0.093189792
C -1.7041886784 -0.674744005 -0.9578959349
C -0.4865548872 -1.0819248372 -0.0539174752
C 0.4082579586 0.1279868584 -0.2741828931
O 1.5929041548 0.1764124435 -0.4675996212
C -0.6001443082 1.3015273713 -0.1891590526
H -0.3212783202 -1.0298060088 2.9797590173
H 0.1393740577 0.5374022339 2.298958806
H -1.423699444 0.3507722332 3.1036690031
H -2.9779521647 -1.1981251027 2.0394185427
H -2.803431411 0.9935766565 0.2353159037
H -2.4998018646 -1.4133292933 -0.9156686074
H -1.4894765707 -0.3834237474 -1.9891332427
H -0.0217513859 -2.0652408668 -0.0662137958
H -0.3213265837 2.0147592894 0.5908219954
H -0.6516563052 1.8442089965 -1.1385035724

