# b3lyp 6-31G(2df,p) opt Freq 

 titel

0 1
C 1.0028588094 1.1237844843 0.2709085548
C 0.9721214192 -0.383883965 0.0086066567
O 1.4576579373 -1.1494447511 1.110944772
C 2.8255942146 -0.9539768296 1.4191729378
C 3.7115228578 -0.9065768976 0.209713655
C 3.2173600835 -0.8153031025 -1.0231379518
C 1.7283534965 -0.7778098293 -1.2810675187
C 1.2894096687 -2.1601252199 -1.7529274895
O 1.0336222502 -2.4452033235 -2.8937746876
H 0.533265555 1.3415829873 1.2343128615
H 2.0240996986 1.5152350642 0.2812311729
H 0.4487161184 1.6534796322 -0.5098881553
H -0.0747238067 -0.6969963257 -0.0784706568
H 2.9684113624 -0.036238239 2.0171784945
H 3.1065728635 -1.7915402681 2.0686706148
H 4.783439271 -0.9177142892 0.3879528291
H 3.8702127208 -0.7915346427 -1.8903126909
H 1.5007258438 -0.0759864727 -2.0901881986
H 1.2408763161 -2.9112490524 -0.93406658

