# b3lyp 6-31G(2df,p) opt Freq 

 titel

0 1
C 1.1181952052 1.1350368968 0.1225937283
C 1.0436460789 -0.3866428079 0.1321075989
C 1.8035168191 -1.0500606161 -1.0203498081
C 2.0944003132 -2.5082213318 -0.6443978358
O 1.2919391261 -3.137337441 0.331786738
C 1.5199402592 -2.4320186233 1.5642026565
C 2.0480324236 -1.0673479054 1.1271014676
C 2.9530809917 -1.427872729 -0.0967180892
O 4.3092539502 -1.2342714712 -0.2477588485
H 0.7083928763 1.553797139 1.0483744272
H 2.1545827168 1.4768824231 0.0251693092
H 0.5490634122 1.5528815857 -0.7150616922
H 0.0055843057 -0.7190844155 0.2528041176
H 1.82805358 -0.7214402575 -2.0541687865
H 2.4456310401 -3.1720573958 -1.4257074206
H 0.5700823293 -2.3859293737 2.1065895976
H 2.2540493617 -2.9725544378 2.1837825847
H 2.4613213816 -0.4403028919 1.9170290798
H 4.7702555793 -2.0167289469 0.0749838356

