# b3lyp 6-31G(2df,p) opt Freq 

 titel

0 1
C -1.6533289055 -3.5742775237 1.6362682183
C -0.7705572928 -2.3675953756 1.9880520799
C -0.5207024187 -2.2794900591 3.5009741333
C -1.3989044753 -1.0775645915 1.4739585185
C -1.4173488989 -0.7080719573 -0.0370401836
O -1.6065668622 0.7128715259 0.3567996506
C -0.5867356652 0.2414206639 1.3302957124
C 0.0981351062 -0.3702812254 0.0734087688
O 1.124710932 -0.4185482181 -0.5166802227
H -2.6397154071 -3.4885088121 2.1069022883
H -1.8050608473 -3.6616413622 0.5556256745
H -1.1979747272 -4.5059793232 1.9859342283
H 0.2007012692 -2.5019421933 1.4914027774
H -0.05193068 -3.1957358177 3.8730412276
H 0.1371941895 -1.4415800798 3.7530133091
H -1.4618261965 -2.1418141936 4.0460857348
H -2.3761560689 -0.865208631 1.9201558677
H -2.0271965332 -1.0898009105 -0.8530886551
H -0.2439244182 0.9487037443 2.0824903719

