# b3lyp 6-31G(2df,p) opt Freq 

 titel

0 1
C -0.8926157755 2.213227517 -1.2249068833
C -0.9276718836 1.1721903063 -0.110201137
C -2.314411758 0.6256168074 0.2938868538
C -3.1714727418 1.5111854277 1.1931112589
C -2.016860781 -0.7528347501 0.902930269
O -2.7063638437 -1.3201342424 1.710259719
C -0.6979457756 -1.2686640822 0.3311289164
C -0.100244145 -0.0833630135 -0.4243688049
O 0.8525948272 -0.1224243979 -1.1589276408
H -1.3996317642 1.8396781603 -2.1210037135
H -1.3827429072 3.1412480371 -0.9181029383
H 0.1409006671 2.4380885456 -1.4985874888
H -0.4623014774 1.5983668761 0.7950076694
H -2.8699527547 0.4108320005 -0.6350040476
H -4.0725673012 0.9758946192 1.5015160394
H -2.6237782415 1.7891136387 2.0999530586
H -3.4690343917 2.4296688792 0.679858231
H -0.031258985 -1.6171440741 1.1271291192
H -0.856454807 -2.1217345146 -0.3374412107

