# b3lyp 6-31G(2df,p) opt Freq 

 titel

0 1
C 0.9538623874 1.0666510569 0.0965577105
C 0.9441451032 -0.4436757094 0.167972009
C 1.8461624681 -1.2422681682 -0.759142442
O 2.6707534051 -0.5564859555 -1.6467637956
C 1.4431035601 -2.67325022 -1.1065513012
C 1.4796687996 -3.3817462961 0.2345893106
C 1.8915550892 -2.5850470838 1.2249276605
C 2.1483344915 -1.2023193225 0.7273743638
O 3.294081473 -0.5107623772 1.1354340211
H 0.7129775465 1.5155391774 1.0675012868
H 1.9226446057 1.4462924461 -0.2332488645
H 0.20628312 1.4185657991 -0.6216309917
H -0.0206277673 -0.8863309384 0.4058472886
H 3.4910147248 -0.3667911364 -1.1717827765
H 0.4519554948 -2.7271157142 -1.5738076543
H 2.1538040682 -3.107808327 -1.8210055524
H 1.1725778003 -4.4149174526 0.3508095776
H 2.0081156202 -2.8656898452 2.2655833423
H 3.0399827296 0.1863820268 1.7486817075

