# b3lyp 6-31G(2df,p) opt Freq 

 titel

0 1
C -0.8035572867 2.1638670789 -1.2010505397
C -0.9360961339 1.2011820041 -0.0386955394
C -1.0772263533 1.7851656536 1.3641285959
C -2.2458679491 1.0961587621 0.7229859224
C -2.6601989734 -0.2870086197 1.1715513536
C -1.4455732727 -1.1189307796 1.5650420233
O -0.4230745707 -1.1389301152 0.5606777131
C -0.1365514313 -0.0567974311 -0.2114776809
O 0.7334692932 -0.1602394856 -1.0366209431
H -1.1291539302 1.6990439008 -2.1363544648
H -1.4137975574 3.0557375221 -1.0287675016
H 0.2365283144 2.4715051707 -1.3332254684
H -0.5587129471 1.3128556487 2.1898460505
H -1.0898502145 2.8679474336 1.41906728
H -3.0483511253 1.7317468625 0.3601997202
H -3.3410564206 -0.2406898811 2.0301086055
H -3.1983134855 -0.7883058117 0.3580462085
H -1.0123326142 -0.7593610116 2.5058135815
H -1.7205884818 -2.1660888415 1.7130543835

