# b3lyp 6-31G(2df,p) opt Freq 

 titel

0 1
O 4.7916953658 -6.7308795703 -4.5318066533
C 4.3459111392 -5.4509773642 -4.9033444008
C 4.3034217862 -4.3739359864 -3.8436621979
C 5.3878527276 -4.3756876824 -4.9010371832
C 3.3073496036 -5.4691509718 -5.9683157691
C 2.0615610006 -6.3751601028 -6.0630592374
C 2.1350740472 -6.2307613281 -7.6242814255
C 3.3705003089 -5.3424894485 -7.4378478657
O 2.9679573111 -4.2359735363 -6.6095990077
H 4.1329771687 -7.1129510106 -3.9418664158
H 3.5268461432 -3.6204309548 -3.9103914764
H 4.584266931 -4.6678439961 -2.8381461622
H 5.3375048765 -3.6232312992 -5.678269235
H 6.3820372529 -4.6822173395 -4.5985225092
H 2.2533197433 -7.3994343714 -5.7356274061
H 1.1672361118 -5.9879342609 -5.5690559602
H 2.3555809296 -7.1769124241 -8.1234303893
H 1.2873755405 -5.7461517586 -8.1139292958
H 4.2123874923 -5.1759617741 -8.0999038396

