# b3lyp 6-31G(2df,p) opt Freq 

 titel

0 1
C -1.6523044344 -4.4508497771 3.1646961882
C -0.2060451367 -3.9395142201 3.0984939116
O 0.4552823229 -4.0745972273 4.3558682365
C -0.1431665232 -2.5632303089 2.5946856865
C -0.1184198734 -1.4194267718 2.217156403
C -0.0471352467 -0.0455904228 1.7292776697
C 0.7290604997 0.0772516005 0.4283428569
C 0.4364420775 1.141227226 -0.5379160893
O 0.0141032594 -0.2046158313 -0.7708034987
H -1.6589544275 -5.4749316519 3.5470467103
H -2.2503510491 -3.821334778 3.831743967
H -2.1170032173 -4.4335747778 2.1746704257
H 0.3638771584 -4.588621048 2.4225331906
H 0.0795916391 -3.4139418886 4.9483567816
H -1.0548719978 0.3576633022 1.5720994079
H 0.4342070445 0.5887802793 2.4863951612
H 1.7374284269 -0.3363597462 0.4565496328
H -0.3631008623 1.8514994804 -0.3291769676
H 1.2224391398 1.5088715213 -1.195684734

