# b3lyp 6-31G(2df,p) opt Freq 

 titel

0 1
C -0.1867588704 -0.0889717863 -0.2179535162
C 1.3224795808 0.0372354588 -0.0854846958
C 2.0772042209 -0.3614427327 1.2243968567
C 3.2663735398 0.4764021137 0.6511308736
O 4.2135145781 1.0438949558 1.5207997667
C 2.0105030647 1.3512981529 0.4133591735
C 1.5697737515 0.9660093246 1.8637240645
C 2.2708831801 1.5120038696 3.0854631593
O 2.4963837911 0.8486441545 4.0694227486
H -0.7397737353 0.2926644321 0.6437528319
H -0.5359942867 0.4556072022 -1.1018610326
H -0.4680419895 -1.1393350805 -0.349646901
H 1.7982858234 -0.3671766665 -0.9869592774
H 2.1223111008 -1.3429343088 1.6975686027
H 3.7457401472 0.0637516767 -0.2456174902
H 4.62878875 0.3444536803 2.0369702752
H 1.9806506914 2.3368352226 -0.053440535
H 0.4931355 1.0229880418 2.0541205998
H 2.4906601219 2.6024818691 3.0619449857

