# b3lyp 6-31G(2df,p) opt Freq 

 titel

0 1
O 0.3317748531 0.0559107448 0.6223456717
C -0.8913736518 0.7315505699 0.5576447373
C -2.1576137313 -0.0572979102 0.3973784164
C -1.6086628051 0.8130665066 -0.7597776877
C -2.8171099741 1.7470511955 -0.6459684962
O -3.7447857489 1.6635988222 -1.7085977159
C -4.5167249852 0.4787216398 -1.5438696141
C -4.6908303257 0.3198193385 -0.0263684249
C -3.3731955764 0.864723725 0.539902298
H 0.3289015685 -0.6518442255 -0.0308269346
H -0.8590538121 1.5893237711 1.2272859551
H -2.160860903 -1.1365789176 0.5138108839
H -1.1218051316 0.528658944 -1.686856294
H -2.602342264 2.8070404057 -0.4802905752
H -5.4570798062 0.6186080578 -2.0831993092
H -3.9981235818 -0.3904074193 -1.9750571998
H -5.5241103484 0.9380241897 0.3215781206
H -4.8894811216 -0.7139065876 0.2703358074
H -3.4974548746 1.3374075296 1.5185245113

