# b3lyp 6-31G(2df,p) opt Freq 

 titel

0 1
O -0.1042738277 1.4423767634 0.150791699
C 0.0033926956 0.0346943393 0.0424657203
C -1.4115347591 -0.5839838443 0.0888172258
C -1.1414894383 -2.0044876093 0.6063901279
O -2.1967218852 -2.6806757842 1.2685865826
C -1.7226851597 -3.126074692 2.545730887
C -0.4306206667 -2.3749310645 2.7779906073
C -0.0936704696 -1.7480618137 1.6584138119
C 0.8088805055 -0.6349346282 1.2187988669
H 0.7592874677 1.8261810014 -0.0305660158
H 0.483250022 -0.2326170977 -0.9110885781
H -2.0070049803 -0.040319507 0.8297800036
H -1.9211512827 -0.5347909358 -0.8758670069
H -0.7610337687 -2.6324080017 -0.2199627003
H -2.4810081173 -2.8962285436 3.3069979399
H -1.5879388856 -4.2212147205 2.5417927414
H 0.0637326534 -2.3343396336 3.7405425214
H 1.7908952664 -0.9830429173 0.8779725158
H 0.9755964604 0.0968890693 2.0150432801

