# b3lyp 6-31G(2df,p) opt Freq 

 titel

0 1
C 1.4118022581 -0.0774177794 -0.2134156879
O 0.0095108337 0.1256309631 -0.0720354619
C -0.345200762 0.6466655196 1.132854784
C -1.6920988836 0.6499349472 1.8204035097
C -1.6876611914 2.1692530792 1.9680319559
C -0.1449396784 2.0499471854 1.8818185831
O 0.2175669363 1.34889028 3.0982281608
C -0.3892283852 0.1754032426 2.5542491935
C -0.2179670654 -1.1337819906 3.2445734496
H 1.7904903936 -0.7748549074 0.5441785484
H 1.5713003245 -0.4973437458 -1.2084098968
H 1.9608803231 0.8693807508 -0.1283502702
H -2.5215696503 -0.0266696848 1.6574989105
H -2.1084856933 2.6588953804 1.0859143277
H -2.0801346881 2.6185501607 2.8852861736
H 0.5098745726 2.8867653387 1.6480666744
H -0.7066477384 -1.128611631 4.2249119036
H -0.6640290495 -1.9343542111 2.6471030543
H 0.8420563438 -1.3635622674 3.3927985174

