# b3lyp 6-31G(2df,p) opt Freq 

 titel

0 1
O -0.9279953436 0.7788501318 2.372725774
C -0.7433454076 1.1281063586 1.0000456019
C -2.0679021993 0.9937864082 0.2129747154
C -1.9698548213 1.6634988359 -1.1618932342
O -1.5954318712 3.024736084 -1.0510186075
C -0.3305069079 3.1782738404 -0.4298868679
C -0.3217876048 2.6090815836 0.9908030742
C 0.2975830422 0.2768016248 0.4020467824
C 1.1295671632 -0.4509429303 -0.0723068488
H -1.0602005566 -0.1748139805 2.4183943123
H -2.3371047359 -0.0625812661 0.100845064
H -2.8453942222 1.4844792814 0.8073708751
H -1.2493759199 1.1185155043 -1.7936668222
H -2.9397860826 1.6501883571 -1.6669050206
H 0.4520460901 2.6906484363 -1.0340365117
H -0.1243715556 4.2519107543 -0.4131199322
H 0.6676881981 2.7160033886 1.4444349141
H -1.0414240611 3.1524682557 1.611648198
H 1.873570166 -1.0867581278 -0.4856036963

