# b3lyp 6-31G(2df,p) opt Freq 

 titel

0 1
C 0.3662964632 0.4575268119 -3.4988438661
C 0.8020142949 0.1017329936 -2.0993281702
O 1.9182527529 0.2798191326 -1.6690118148
C -0.2811074715 -0.5294858265 -1.1861428054
O -1.398161098 -0.7012336712 -1.6225324244
C 0.1365707377 -0.8413147321 0.2222448299
C -0.8459708985 -1.6302755619 1.1209191724
C -0.5548284546 -0.6316996443 2.2734816165
C 0.0370552858 0.3579621092 1.2351572043
H -0.0071121449 -0.4341730265 -4.0123847661
H -0.4734115417 1.158829439 -3.4626589335
H 1.2028055973 0.8913072265 -4.0469634232
H 1.1532229696 -1.2388434304 0.2249116959
H -1.8651785958 -1.5428168078 0.7368627313
H -0.6213398825 -2.6848267449 1.2935930492
H -1.4044996401 -0.2839390223 2.8649249034
H 0.2130862133 -1.0065721617 2.9555539891
H -0.6993524725 1.0980839555 0.9092504857
H 0.9707080054 0.8681151314 1.475921066

