# b3lyp 6-31G(2df,p) opt Freq 

 titel

0 1
C -0.6667462775 -1.5725958654 -2.6129948553
C -1.6271010238 -1.6120009604 -1.431250733
C -2.7474604319 -0.5315925233 -1.3185625779
C -2.2118080425 -0.0822274099 0.0558175207
C -1.0867097577 0.9866026824 -0.0374673597
C -0.0591039638 -0.1437647669 0.1255860014
O 1.0527528322 -0.18400565 0.5821734399
C -1.0898019697 -1.2540507441 -0.0137891264
O -0.9116072647 -2.3551643511 0.8066952126
H 0.1541174067 -2.2837429143 -2.4741802421
H -1.1836152864 -1.8340723945 -3.5425699713
H -0.2288344862 -0.5774019108 -2.7483596709
H -2.0569548819 -2.6138047841 -1.339220366
H -2.7322377823 0.2455949673 -2.0887864995
H -3.7513131126 -0.9605140471 -1.2865416311
H -2.8987961401 0.0175924092 0.8942431168
H -1.0401627698 1.5387519527 -0.9802856808
H -1.0362321938 1.7025904444 0.7874399444
H -0.1993410244 -2.1477024639 1.4257293282

