# b3lyp 6-31G(2df,p) opt Freq 

 titel

0 1
O 1.3058377796 -2.6081647828 0.8132669649
C 0.116801827 -2.3322603724 0.1101212703
C -0.3941905521 -3.4938597252 -0.6854682889
C -1.1313592416 -3.0517931628 0.5648368697
C 0.0123133206 -0.9314638035 -0.4442935899
C 1.3143999302 -0.4108692051 -1.1628438755
C 1.4108357767 0.6893063651 -0.0984692967
O 0.1896773663 1.4377980848 -0.1422130736
C 0.2000263348 0.2060427995 0.5847934247
H 1.2786629886 -2.1262903444 1.6471291188
H -0.8476283452 -3.3011253506 -1.6513445916
H 0.1824797963 -4.4091570358 -0.6231238137
H -2.090577474 -2.5570134552 0.4548189691
H -1.0399534152 -3.6846587344 1.4404135393
H -0.9113889749 -0.8274485002 -1.020294967
H 2.1214463928 -1.1416836976 -1.0887846537
H 1.2089115102 -0.0585248943 -2.1910802786
H 2.2868664319 1.1992887088 0.2853530943
H -0.1034704822 0.2467097162 1.6265030981

