# b3lyp 6-31G(2df,p) opt Freq 

 titel

0 1
C 6.4722131067 0.2144167977 0.0526431014
C 5.8720635971 -0.9807434517 0.8147544454
C 4.4204781455 -0.936043993 0.922299978
C 3.2146964569 -0.9071453939 1.0094800906
C 1.7696693807 -0.883506107 1.1506571073
O 1.1721775037 -1.7160042098 1.7976949499
C 1.0510592366 0.2967839326 0.4704607099
C -0.2686646948 -0.1469311868 -0.1480773883
O 1.8307149822 0.9142218487 -0.533618231
H 6.0830817865 0.2606526684 -0.9678409761
H 6.2315610867 1.1562416189 0.5530652593
H 7.5604263603 0.1211107179 0.0025947804
H 6.1531341827 -1.9196042412 0.3204611991
H 6.2983764774 -1.0359151078 1.8245498233
H 0.8391014459 1.0064750504 1.2923000179
H -0.8717784752 -0.6676978147 0.5972808102
H -0.8166435992 0.7221438377 -0.5194917621
H -0.079349255 -0.8228009429 -0.9868540926
H 2.7291856252 1.0158602365 -0.1980384226

