# b3lyp 6-31G(2df,p) opt Freq 

 titel

0 1
C 1.3366441441 -0.9501456541 0.5066022359
C 0.6250422109 0.3983096379 0.2942354982
C 1.5659573198 1.5574737499 0.0888918544
C 1.61910536 2.2851394468 -1.0233433027
C 2.5993386762 3.4078204921 -1.1866988265
C 3.1411258808 3.9707916891 0.1183071792
O 3.6567650289 5.0522868954 0.1954677506
O 3.0208315899 3.2171043613 1.2346241249
C 2.5025707614 1.8808710611 1.2217252795
H 1.9634311184 -0.9427041212 1.4042151997
H 0.6060031236 -1.755764361 0.6238114048
H 1.9766804413 -1.1932386687 -0.3473480089
H -0.040585864 0.3270142577 -0.5723622845
H -0.0148619308 0.6003602396 1.1648290327
H 0.9533464417 2.0722048246 -1.8557807086
H 3.4670012998 3.088014196 -1.7832639377
H 2.1715227019 4.2530318764 -1.7338917412
H 3.3567274261 1.1885239575 1.2321069225
H 1.9929775601 1.7653362195 2.1851593078

