# b3lyp 6-31G(2df,p) opt Freq 

 titel

0 1
C -0.184918739 1.3145757169 -0.7834920234
O -0.4200519219 -0.0184110464 -0.2744339233
C 0.8790636458 -0.0709567599 0.3339595166
C 1.2269176192 1.3619167214 -0.1670566193
C 1.3580640743 2.1172406145 1.1641757586
C 2.6840995797 1.7019912616 1.8426980993
C 2.3335177816 0.2595453918 2.3263173633
C 0.8650340004 0.133218741 1.8550379423
O 0.3719375333 1.4766974337 1.9883112489
H -0.2178000207 1.3370313768 -1.8796702483
H -0.9015597174 2.0380813274 -0.3788708814
H 1.4628919337 -0.9359626141 0.0033059251
H 2.062607433 1.4993418544 -0.8525536414
H 1.1575391831 3.1886516096 1.1254480818
H 3.5354476443 1.7307420828 1.15763087
H 2.9050471779 2.3612644371 2.6847308759
H 2.9807682291 -0.5069968983 1.8909543688
H 2.3969600821 0.1744384594 3.4126785038
H 0.2274923715 -0.5504748596 2.4146870028

