# b3lyp 6-31G(2df,p) opt Freq 

 titel

0 1
O -4.2660851904 1.2684430554 0.2342428322
C -3.2421817397 0.7430671902 -0.1392984808
C -3.1251339183 -0.7772466453 -0.2087043637
C -2.1100834677 -1.3513572642 0.8094167997
C -0.6568829828 -1.3735979949 0.3098877171
C -0.150678561 -0.0936100186 -0.3471481845
O 0.6539498559 -0.1322351846 -1.2494733156
C -0.7049222647 1.2362501319 0.1481825657
C -2.042035064 1.5907468565 -0.5508842583
H -4.1248146678 -1.1696726984 -0.0106162476
H -2.8361625306 -1.0812160876 -1.2237530742
H -2.1893316919 -0.7967914409 1.7516181701
H -2.4005198254 -2.3793097075 1.0469325265
H 0.0152836584 -1.5823818151 1.1542910908
H -0.5010541819 -2.1791153448 -0.4142823742
H -0.8444752377 1.228199713 1.234923546
H 0.0302663149 2.0041953975 -0.1022986658
H -2.3043611173 2.6309154934 -0.3465140641
H -1.9025649379 1.4892921043 -1.6357602292

