# b3lyp 6-31G(2df,p) opt Freq 

 titel

0 1
C -0.9800778784 -2.402930845 0.9720696253
C -0.9628643557 -1.1359824748 0.1300356166
C -2.0907411382 -0.062868594 0.2704224628
C -1.0254606653 1.0825491313 0.2422352754
C -1.1335546692 2.2273152307 1.2097243001
C -1.837294224 3.471205761 0.8644411423
O -0.4118239663 3.4164985013 0.8891029341
C 0.0224521718 -0.0203603733 0.5179031936
O 1.1047842806 -0.0197761274 1.0280531995
H -1.7791004855 -3.0799984155 0.6543612134
H -0.0274681842 -2.9336670946 0.8850163476
H -1.1337257365 -2.1683325437 2.0303892172
H -0.8153879544 -1.3794871998 -0.9302796829
H -2.8505888392 -0.0371461125 -0.5112432964
H -2.5842241983 -0.1280175023 1.244980194
H -0.893549358 1.4768574207 -0.7715926461
H -1.080975014 1.950098876 2.2638205818
H -2.2853802486 3.5774758702 -0.1230415438
H -2.2990361967 4.0676665018 1.6500336653

