# b3lyp 6-31G(2df,p) opt Freq 

 titel

0 1
O 1.2279320856 -0.0596777214 -0.0920622492
C 0.0267062388 -0.0493142097 -0.0597959895
C -0.943562754 -1.2256626574 0.0168987041
C -1.9180497797 -0.7543010769 1.1254833597
C -1.8895482533 0.8134253226 1.0691951715
C -0.9177442891 1.1632165972 -0.0709233765
O -1.5324955698 1.1905080465 -1.3674308289
C -2.3432061384 0.0573325789 -1.6583118906
C -1.631446146 -1.2718627193 -1.3731366288
H -0.4395294918 -2.1678517606 0.2367502111
H -2.9256314246 -1.1517598471 0.9736912666
H -1.5762316736 -1.1104852138 2.1005607953
H -2.8751616001 1.2528535912 0.8971549398
H -1.5083975989 1.2287449193 2.0062527577
H -0.4044735765 2.1181978555 0.0391523602
H -3.2849392246 0.1065117585 -1.0913406919
H -2.5998011824 0.1451640181 -2.7175647591
H -2.3575751192 -2.0928480172 -1.4108233047
H -0.8744391722 -1.4644216245 -2.1412008067

