# b3lyp 6-31G(2df,p) opt Freq 

 titel

0 1
C -0.6680112002 -1.9846738672 1.3231898283
C -0.9447579393 -1.0704574498 0.1297912162
C 0.0482348126 0.1103306052 0.0142745995
O 1.2419426332 0.1805975873 0.0453609301
C -1.0914719952 1.1471868437 -0.0131790403
O -1.5657617409 1.3260849176 -1.3669713874
C -2.6340185504 0.3669591904 -1.1765251932
C -2.1165336086 -0.0218973655 0.2218919368
C -3.0992393812 -0.0966420525 1.3681449932
H -1.4659490712 -2.7221047831 1.4526369714
H 0.2722492504 -2.5197265142 1.1637168366
H -0.569582383 -1.4217681001 2.2564518612
H -0.9927771878 -1.6704344518 -0.7863070625
H -1.0074082179 2.083842241 0.5457320074
H -3.6118030015 0.8663642567 -1.1772571926
H -2.6300446836 -0.4187196283 -1.9419652082
H -3.7441847004 -0.9786536326 1.2775925999
H -2.5957627037 -0.1568649645 2.3374135114
H -3.7462370011 0.7863614274 1.3839067221

