# b3lyp 6-31G(2df,p) opt Freq 

 titel

0 1
C 2.0855453155 -1.28510292 -0.6657978817
C 1.5477421873 -0.0058971299 -0.0151555376
C 2.5055069119 1.2050847281 -0.1925954239
O 3.5799124539 1.2408087739 0.7557768923
C 3.1737561507 0.8928405611 2.0692032778
O 2.6370128635 -0.4141765963 2.0672164742
C 1.3317187375 -0.2067562954 1.5059474287
C 0.8903576034 1.092023596 2.1695789769
C 1.9917560453 1.7422924143 2.5324346595
H 3.0504771259 -1.5561981901 -0.2313932939
H 1.3974379077 -2.1241060452 -0.5150938525
H 2.21536925 -1.1487813391 -1.7442181831
H 0.5930705479 0.2645279262 -0.4858614963
H 2.9851835687 1.1739644998 -1.1749070446
H 1.9285456957 2.1362092494 -0.1302354304
H 4.0756613908 0.916549449 2.6818915797
H 0.7105517214 -1.0786197868 1.7277890968
H -0.1369891711 1.425749033 2.2346175259
H 2.082121224 2.732445912 2.9574103123

