# b3lyp 6-31G(2df,p) opt Freq 

 titel

0 1
C -3.2783939009 0.4572526301 -2.3901551072
C -1.8116669636 0.1910830025 -2.2061219908
O -1.3503996116 -0.901753501 -2.9863412025
C 0.0230684579 -0.6503346586 -3.3063145771
C 0.4724103391 0.3601823624 -2.2561392139
C -0.7857001231 1.2616605687 -2.0786361849
C -1.1672758694 0.4119533897 -0.8454926545
C 0.2290527759 -0.2075155452 -0.8164521774
O 1.0758238424 0.3351823707 0.173982566
H -3.6031461517 1.2944471246 -1.7659692497
H -3.4966929039 0.6948319177 -3.4357632405
H -3.8649183616 -0.4240857535 -2.112636002
H 0.5688565632 -1.5984756682 -3.2539147326
H 0.1100507498 -0.2471677289 -4.3266136111
H 1.4499507752 0.8141224104 -2.4161540183
H -0.91361768 2.3126037044 -2.3052780268
H -1.7485217887 0.6865866423 0.029449298
H 0.3024501021 -1.2940318629 -0.7037392111
H 0.9589815789 1.2925534849 0.1655318562

