# b3lyp 6-31G(2df,p) opt Freq 

 titel

0 1
O 0.1245386419 0.2449845052 0.6707237262
C -1.0013892707 1.0052722705 0.3611666284
C -1.2525374061 2.1489102817 1.3362112294
C -2.8005097102 2.3211136803 1.2707758274
C -3.1934029397 1.5630709265 -0.0128755504
C -2.4419003625 2.1984763543 -1.2242560259
C -1.2224941076 1.268496195 -1.1749483644
O -1.8652962479 -0.047603975 -1.2621202352
C -2.3391285864 0.2613505303 0.0768676559
H 0.1503269005 -0.4786725056 0.0306445901
H -0.9037127693 1.8680535986 2.3329180217
H -0.7150400646 3.0577884604 1.0489069689
H -3.2718875831 1.8610214401 2.1465822169
H -3.1151860268 3.36815429 1.2472932815
H -4.2656566044 1.4304654247 -0.1548618126
H -2.9703707262 2.0764771135 -2.1721712319
H -2.2109963993 3.257471716 -1.0782703387
H -0.395508257 1.4063823459 -1.873063635
H -2.7057253807 -0.5972664723 0.6396571277

