# b3lyp 6-31G(2df,p) opt Freq 

 titel

0 1
C 2.8816170066 -1.6645984625 1.7814734029
C 3.0749869263 -1.1933182167 0.3479228235
C 2.328584286 0.129137655 0.0328722273
C 0.8936352592 0.0775288687 0.2709424228
C -0.2911824333 0.0377296658 0.4686300786
O 4.4575212761 -0.9445275623 0.076587804
C 4.9036546622 -1.8856191227 -0.8908538607
C 3.6079409733 -2.289779407 -1.5898720236
O 2.6654000296 -2.2296898613 -0.5303587513
H 3.4559774956 -2.5793435533 1.9435100959
H 3.2285806988 -0.8977700596 2.4789800507
H 1.8256403707 -1.8655436553 1.9732740485
H 2.7868367408 0.9221611587 0.6351919779
H 2.5292912214 0.3806966175 -1.0145022214
H -1.3383341932 0.0000916606 0.6393807811
H 5.6300034593 -1.3994558228 -1.5479749495
H 5.381271913 -2.7491279499 -0.4063727005
H 3.3517793535 -1.5887571161 -2.3981088285
H 3.613015274 -3.3060283968 -1.9904764676

