# b3lyp 6-31G(2df,p) opt Freq 

 titel

0 1
O 0.3049181747 -0.0951096125 0.3661995704
C -0.8897756198 0.4597011723 0.8581768938
C -2.1059495925 0.1465633606 -0.0731553361
C -2.5289102362 1.6091677936 0.1032155319
C -3.0018292043 2.0549086645 1.543182043
C -1.8857451212 3.079886072 1.3203378653
O -2.4133056518 3.8463696148 0.192686491
C -2.941013391 2.8191290085 -0.708919721
C -1.0849707773 2.0012668852 0.5671053783
H 1.0239648649 0.1739581801 0.9477330651
H -1.0607564633 0.1662284804 1.90077518
H -1.7337761906 -0.0632838194 -1.0802509265
H -2.8019750231 -0.6387086393 0.2312858719
H -4.0159069737 2.4491607549 1.6400911026
H -2.8029436563 1.314888069 2.3174170519
H -1.5110943389 3.7904393811 2.0578503095
H -4.0190564674 2.9702667334 -0.8368614292
H -2.4441111912 2.8872829653 -1.682431927
H -0.370039911 2.3499346456 -0.1818275949

