# b3lyp 6-31G(2df,p) opt Freq 

 titel

0 1
C -3.4732044231 0.0742789132 -2.5217394506
C -2.8456635191 -0.1022273372 -1.1329689379
C -1.8634000538 -1.2914007881 -1.1141505673
C -0.9093455631 -1.2826402521 0.0977468877
C -0.0522372868 -0.0325309961 0.0374002062
O 1.1573523686 -0.0321487407 0.0288347916
C -0.8315090768 1.2466408819 -0.0825379729
O -2.0034387636 1.3236078389 0.7443426386
C -2.2009018075 1.1969140893 -0.6577146472
H -3.9512740451 -0.8527013233 -2.8524255509
H -4.2337389675 0.8616534611 -2.520166182
H -2.7141500356 0.3402754644 -3.2661991409
H -3.6493723154 -0.3089382703 -0.413263276
H -2.4257976925 -2.230690214 -1.1388780605
H -1.260851382 -1.2690795647 -2.0321403114
H -1.4872065818 -1.2757291777 1.0289765289
H -0.250587376 -2.1534869077 0.0978461776
H -0.2351587641 2.1546282916 -0.1455854563
H -2.5652591949 2.1103378916 -1.1310017366

