# b3lyp 6-31G(2df,p) opt Freq 

 titel

0 1
O 0.4982321939 -1.2662988595 0.2516974585
C 0.2267603659 -0.1292849358 -0.0489687123
C 0.0594597397 0.983620547 0.9039127688
C -0.9010776224 2.1282001091 0.5699983161
C 0.5508535132 2.3826276291 0.4978880613
O 1.1036898468 3.1869117858 1.4839316443
C 2.4764806642 2.9677111349 1.6727120013
C 3.2523692595 4.118280084 2.2183715558
C 3.4566574583 3.6825988292 0.7795090116
H 0.0886870379 0.1644992211 -1.1183584196
H 0.1697502435 0.7266362066 1.9513153058
H -1.4621502666 2.0665648921 -0.3564340991
H -1.4385727504 2.5500309892 1.4106684645
H 1.0195016688 2.4702371136 -0.4819985911
H 2.719552592 1.9602013516 2.0062571786
H 2.7009864949 5.0372230198 2.3805001449
H 4.0304906908 3.9177194149 2.9456513043
H 3.0436495154 4.3265058138 0.0110239018
H 4.3768732546 3.1778428433 0.5074457846

