# b3lyp 6-31G(2df,p) opt Freq 

 titel

0 1
C -3.481892613 -0.167888854 1.2376933653
C -2.4716703356 0.8002281022 1.8826129382
C -3.1122357239 2.1907150558 2.0758730659
O -2.2507568516 3.1366857919 2.6779070656
C -1.1970976791 0.880512298 1.1077682376
C 0.0984783168 0.5804959501 1.394834467
C 0.8610668617 0.8785524122 0.2168858556
C -0.0296648214 1.3372350581 -0.6972529979
O -1.2866361308 1.3432973487 -0.1742497188
H -4.4022646589 -0.222200096 1.8281064851
H -3.7421883235 0.1634260687 0.2281249099
H -3.0627643007 -1.1748127891 1.1630860486
H -2.2053893459 0.4130136075 2.8760657035
H -3.3743947596 2.6072505112 1.0980697747
H -4.0474074955 2.0730709221 2.646847954
H -1.9787208123 2.791017964 3.5340692761
H 0.4686279909 0.1943940769 2.33200904
H 1.9248460528 0.7667517642 0.0775798249
H 0.0545997994 1.6840529775 -1.7137918254

