# b3lyp 6-31G(2df,p) opt Freq 

 titel

0 1
C 0.0673933115 2.532341173 -0.0729229694
C -0.8312738435 1.297775606 -0.0415166819
C -1.7952612372 1.2265708918 -1.2472756882
C -2.7186111774 -0.0037403288 -1.202391895
C -1.9171758926 -1.2913890097 -1.0892144914
O -2.0854359373 -2.2458228172 -1.8065502837
C -0.8539465422 -1.2827919118 0.011306577
C -0.0239450724 0.0016968309 0.0258424413
O 1.1818151626 -0.0251676113 0.0705544256
H 0.7381051964 2.5500841892 0.7888974883
H 0.692077448 2.5357123873 -0.9708628184
H -0.5344553704 3.4459992132 -0.0675160569
H -1.45245164 1.3197111503 0.8683513662
H -2.4012248118 2.137340748 -1.2752086432
H -1.2089530399 1.2126907996 -2.175146674
H -3.3719942552 0.0668055601 -0.3208893879
H -3.3561345951 -0.0682544362 -2.0866711333
H -1.3895348378 -1.3325540667 0.9709334178
H -0.2059269355 -2.1551222478 -0.0755078928

