# b3lyp 6-31G(2df,p) opt Freq 

 titel

0 1
C 5.1017746985 3.0929528178 2.6344112795
C 4.8774732296 1.7928357264 1.8598083726
C 3.4570483477 1.2239151005 2.0612216724
C 3.2924861803 -0.0956426378 1.3303884969
O 3.6994386764 -1.1438762851 1.7651517972
C 2.5952791967 -0.0533884646 -0.0605219139
O 3.0399617643 1.0633021759 -0.8254410781
C 1.1500233125 -0.056355899 0.1326860108
C -0.0360444504 0.0068571784 0.3220766514
H 4.9635764866 2.9431611841 3.7107530702
H 6.116097106 3.472595431 2.4773051762
H 4.4014114746 3.8728156902 2.3153166872
H 5.0427341417 1.9573733022 0.7900024477
H 5.6008254826 1.0349192647 2.1806609155
H 3.2860726039 1.0325014167 3.1257330849
H 2.7121178618 1.9493037579 1.7174223658
H 2.90930905 -0.9630165075 -0.5840925147
H 2.3530912337 1.7369357198 -0.8020974752
H -1.0869098166 0.0363288982 0.4762668336

