# b3lyp 6-31G(2df,p) opt Freq 

 titel

0 1
C 0.9836590305 1.1965970557 -0.0323934777
C 1.0488334126 -0.3210338582 0.026937358
C 1.7862174293 -1.0758303573 -1.1159894652
C 2.4546206939 -2.0001330894 -0.0372838831
C 3.9283404923 -2.2365594095 -0.2061054672
O 4.7876517911 -1.6923153178 0.4416542001
C 2.0023995295 -0.9806798159 1.0539721887
C 1.4169621957 -1.5727286627 2.3041932181
O 0.245479981 -1.5470792371 2.5905150082
H 0.543089058 1.6041482413 0.8835060286
H 1.9820750265 1.6332227568 -0.149616296
H 0.3703859013 1.5322903141 -0.8757652505
H 0.0462005996 -0.7346482469 0.1710111053
H 1.1773292749 -1.5715943823 -1.8740415337
H 2.5259476744 -0.4417003959 -1.6145162341
H 1.9352065653 -2.9627544787 0.0236074348
H 4.1920961726 -2.9470406883 -1.0225570739
H 2.8645602114 -0.3572746769 1.3204443658
H 2.15571509 -2.080621801 2.9658708238

