# b3lyp 6-31G(2df,p) opt Freq 

 titel

0 1
C 0.14033888 0.0670649234 -0.5945787689
C 1.2012858409 0.0655061155 0.4986494721
O 1.7046521646 1.4062133922 0.721710978
C 3.0504003295 1.4026425782 0.3222231604
C 4.0431600844 0.530956046 1.1759479138
C 4.756236913 0.1731204785 -0.1460204958
C 3.3119787759 0.2551877669 -0.6961524755
C 2.4893287298 -0.7116138541 0.1976115754
O 3.2564289541 -0.6461163792 1.4259685398
H -0.2957347313 -0.931239443 -0.7095588889
H -0.6616328584 0.7628393226 -0.3329676036
H 0.5555662331 0.377654106 -1.5581298246
H 0.7781973518 -0.2968752523 1.4417791689
H 3.384474987 2.4078244119 0.0687945028
H 4.5418163622 0.8543840849 2.0876791839
H 5.389274423 0.9724872625 -0.5381609584
H 5.2754141118 -0.7861003294 -0.1700214875
H 3.0633288751 0.3187053729 -1.753476397
H 2.3643005235 -1.7463568137 -0.1235756648

