# b3lyp 6-31G(2df,p) opt Freq 

 titel

0 1
O 0.5109167726 0.1203802025 0.5332638924
C -0.7824999719 0.5841243452 0.827475911
C -1.3795559844 0.3842526984 2.244218911
O -2.4383836396 -0.5470810925 2.2078323708
C -1.7767685304 1.8910570797 2.2901727415
C -0.7084690403 2.7446453432 2.9541213571
C -0.6173041152 4.0943531782 2.3048196049
C 0.0133314692 2.923476496 1.6047619787
C -1.056667161 2.1100891998 0.8885674958
H 1.1172474891 0.5058662797 1.1741863699
H -1.4518021937 0.1014995763 0.1102113677
H -0.6326355933 0.1126148576 3.0063913404
H -2.8496760775 -0.5707341083 3.078029066
H -2.8322904742 2.1016387793 2.4762876613
H -0.2764018719 2.550152834 3.9304974328
H -1.5040339048 4.5688893416 1.8905059288
H 0.0801019904 4.7844823965 2.7694607577
H 1.0755648856 2.9072337794 1.3854536221
H -1.5246819688 2.5607743633 0.0103023301

