# b3lyp 6-31G(2df,p) opt Freq 

 titel

0 1
C 1.4358413436 -0.1747765403 0.2168948375
O 0.0291686477 -0.1571371103 0.2572933744
C -0.4770313069 0.8686405779 1.0969172717
C -1.965441083 0.7838758881 1.1404386474
C -2.8522668079 1.7348254387 0.746552359
O -4.1280422227 1.320322618 0.9437383121
C -4.0495947488 0.065365298 1.4718147963
C -2.7574782888 -0.3247711405 1.6221786338
C -2.2457505401 -1.6243765379 2.1595585454
H 1.8736743871 -0.3431239555 1.2142293475
H 1.7339697539 -0.9933155529 -0.4426022474
H 1.845924079 0.7679749936 -0.179647153
H -0.0509611932 0.7561050396 2.109870408
H -0.1623229494 1.858893406 0.7278670349
H -2.7348363676 2.7203699646 0.3253027837
H -4.9924374223 -0.4136806634 1.680554045
H -1.6775258258 -1.4792839499 3.0866299372
H -3.0658145906 -2.3135469584 2.3788982154
H -1.570580164 -2.1009489052 1.4428869112

