# b3lyp 6-31G(2df,p) opt Freq 

 titel

0 1
C -1.6854360496 -0.3782255442 2.005585955
C -0.3385082688 -0.5151095775 1.2858753852
C 0.8424777245 0.2064080278 2.0092593996
C 1.0677539815 1.549883521 1.3225343212
O -0.2346417848 2.2057549657 1.1632431369
C -0.3261762772 1.629029524 -0.141732691
C 1.168560042 1.3582932419 -0.2424078693
O 0.9993682558 0.0031961866 -0.6588066669
C -0.3705523144 0.0497653353 -0.1360303788
H -1.6416772714 -0.8490563494 2.9932056738
H -1.9523862465 0.6719084444 2.1417162225
H -2.4846268234 -0.8716928172 1.4406593363
H -0.0960403092 -1.5802255059 1.1981667145
H 0.6164541251 0.3614283462 3.0687778325
H 1.7579019475 -0.3898652057 1.9471443435
H 1.7884316276 2.205351793 1.8167252975
H -0.9659258903 2.1767250238 -0.8339938229
H 1.9240017122 1.9132761071 -0.7989088105
H -1.0741787206 -0.451371017 -0.8057222193

