# b3lyp 6-31G(2df,p) opt Freq 

 titel

0 1
C 1.5554734215 -0.0267781344 0.0508245312
C 0.1011560939 0.0006364481 0.0122786782
C -1.1014913883 0.0197964433 -0.0118601676
C -2.5549073391 0.0539905218 -0.0673634026
O -3.1028600102 -0.4986308567 1.1228240267
C -4.5022374703 -0.4620548571 1.1453697997
C -5.1012497907 -1.0921333466 2.4107030308
O -5.918503685 -1.9878990372 1.6277955836
C -5.2768707385 -1.5807947827 0.4018922215
H 1.9121396153 -0.4690144301 0.9874144884
H 1.9660506446 -0.6200949352 -0.7734051052
H 1.9762634623 0.982066913 -0.0208121747
H -2.9059562048 1.0926940483 -0.1936911771
H -2.909115175 -0.5072366404 -0.9481722176
H -4.8716322112 0.5491986051 0.9222574652
H -4.3496910867 -1.6228949133 3.0081540152
H -5.7009562441 -0.4442724979 3.0589279718
H -4.6198140036 -2.3618689261 -0.0040840156
H -6.0038176 -1.2757548318 -0.3595063719

