# b3lyp 6-31G(2df,p) opt Freq 

 titel

0 1
C -0.1303482883 2.4924548382 0.4052066283
C -0.9479029772 1.2564516606 0.0400706265
C -2.01276736 0.7919821899 1.0582098987
C -2.2483048817 -0.6993568937 0.6893722934
C -0.8590221237 -1.2248564627 0.3010356872
C -0.0904816211 0.001867383 -0.1978697696
O 1.0111725603 0.0016622871 -0.6809256531
C -3.2807784536 1.6044627887 0.9687289461
O -3.7832997495 2.223458027 1.8692463946
H 0.3400232871 2.372149565 1.3864625956
H 0.6637956942 2.6407675737 -0.3306908885
H -0.7538933611 3.3901641062 0.4376916596
H -1.4576729888 1.4323676249 -0.9232595396
H -1.6241225081 0.8780643089 2.078658315
H -2.7097115174 -1.2528816424 1.5095696495
H -2.9303982775 -0.7595387916 -0.1680686097
H -0.3193916039 -1.6148361183 1.1729798615
H -0.8607092695 -2.0180407344 -0.4505734741
H -3.7431437999 1.59026957 -0.0494864314

