# b3lyp 6-31G(2df,p) opt Freq 

 titel

0 1
C -0.0761983744 2.5351399803 0.2143054562
C -0.8851368427 1.2976257044 -0.0711607127
C -1.8943089712 1.2398986293 -1.2490770626
C -2.7380383648 0.4559008008 -0.2271571555
C -2.4235415688 -1.0416291495 -0.2518774552
C -0.9247640149 -1.2522758258 0.0900593263
C -0.0719009622 -0.0022394252 -0.1379833051
O 1.1150137431 -0.0336694252 -0.354735591
O -1.9860486383 1.0671864053 0.8638410632
H 0.3698647646 2.4755117678 1.2117212943
H 0.7372248743 2.6219979087 -0.5103531652
H -0.707602569 3.4257549987 0.1659004346
H -2.3020928536 2.2290748645 -1.4669632655
H -1.5953579313 0.7408800647 -2.1743282556
H -3.8074031976 0.6711901796 -0.1598556144
H -3.0505968327 -1.5691441427 0.4728576215
H -2.6651200256 -1.4486629379 -1.2402254271
H -0.8270316177 -1.4762389003 1.1586773073
H -0.4736488871 -2.0891431174 -0.4474238435

