# b3lyp 6-31G(2df,p) opt Freq 

 titel

0 1
C 1.5780207195 -0.0313705451 -0.0695603695
C 0.1241118899 -0.076802495 -0.0279741359
C -1.0801578072 -0.1041429717 -0.0074706082
C -2.523428458 -0.158535517 0.0501900387
C -3.1317184618 -0.5906260005 1.3732370648
C -2.8519526317 0.4048201967 2.5051511421
O -3.4625164606 0.0161663718 3.7252552714
C -3.2831711559 -0.3423154629 -1.2047095084
O -3.2125009711 0.9392699172 -0.5916750454
H 2.0110805042 -0.2560548606 0.9111354029
H 1.979739513 -0.7563731004 -0.7859270624
H 1.930527229 0.9618702296 -0.368295698
H -4.2144799497 -0.694286896 1.2535750939
H -2.730081207 -1.5768497593 1.6415454133
H -1.767573429 0.5468813676 2.6213822462
H -3.2836353275 1.376419594 2.2472612495
H -3.0300234922 -0.7885910781 4.0278968228
H -2.7413328847 -0.4445765302 -2.1432764137
H -4.2551505791 -0.8335997502 -1.165344474

