# b3lyp 6-31G(2df,p) opt Freq 

 titel

0 1
C -0.2784212454 -1.752574907 3.95138644
C -1.4578254633 -1.4575041696 3.0770275527
C -2.6709432533 -2.0695852422 3.104077022
O -3.5119086225 -1.5346236879 2.1787956608
C -2.8155157931 -0.5546786564 1.5467202518
C -1.553172291 -0.4498168824 2.0428332794
C -0.4796672987 0.4930113123 1.5870572169
C 0.5184410829 -0.1565047033 0.6128170561
O 1.5052584355 0.7519422251 0.1556635909
H -0.5205942382 -2.5206082071 4.6911653174
H 0.5814959469 -2.1110720907 3.3735766682
H 0.0515651594 -0.8606828395 4.4972553994
H -3.0784197714 -2.8671574859 3.704172868
H -3.3500663598 -0.0177036864 0.7796363273
H -0.9206513124 1.3641480422 1.0912328946
H 0.0757103645 0.8747965137 2.4553981279
H 0.9726257622 -1.0471440781 1.0748756802
H -0.0145980323 -0.496898574 -0.2806007646
H 2.0345161502 1.0196925976 0.913695531

