# b3lyp 6-31G(2df,p) opt Freq 

 titel

0 1
C 1.5688400388 0.3543804791 2.6259906982
C 1.2752715948 1.8159453209 2.3972144809
O 2.2468418582 2.6210267043 1.7666983089
C 3.2559469934 1.9654028854 0.9828983914
C 2.7532628212 0.8647223631 -0.0286967523
C 1.2469125883 0.9069355826 0.0574355491
O 0.3722457536 -0.1729857916 -0.3646525269
C -0.4512237272 0.0507823758 0.8214393594
C 0.714923755 0.7986780226 1.4626991396
H 2.5670674843 -0.0476518192 2.4945048991
H 1.0175764861 -0.1016989975 3.4439017722
H 0.7213136636 2.3990548532 3.1249980299
H 3.7263675845 2.7862931084 0.4382680275
H 4.0148372572 1.5341805578 1.6484068931
H 3.1281465119 1.0758998273 -1.0341111354
H 3.1189160022 -0.1241108652 0.2628531972
H 0.8904973938 1.8443038357 -0.4002883216
H -1.3350095867 0.6577184307 0.5805998957
H -0.7566082031 -0.8874458335 1.2936549938

