# b3lyp 6-31G(2df,p) opt Freq 

 titel

0 1
O 1.3948887518 0.794453827 0.0346969027
C 0.3077102741 -0.0463348122 0.3846212289
C -0.8693616203 0.7230560876 0.938889849
C -1.8332700296 0.0004379502 1.8311435575
C -3.0252661612 0.9121873902 2.1706521074
C -2.014135997 1.8998160197 2.7917512494
C -2.1857623527 2.7634832318 3.9572702116
O -2.0427017899 3.3096019788 2.6369222985
C -0.8463382902 1.0189555347 2.4259661828
H 1.5918560688 1.3448108479 0.8000807248
H 0.023747676 -0.5588761274 -0.5407490592
H 0.6130032993 -0.823450117 1.1060718866
H -1.2520365642 1.4900449167 0.267288304
H -1.8190598802 -1.0756210904 1.9481388592
H -3.6005997083 1.2864538839 1.3186304129
H -3.7096393597 0.4897470962 2.9105042814
H -3.1716978542 2.8762072291 4.4076904016
H -1.3473861914 2.9454927233 4.6295516444
H 0.0359415287 0.8438639401 3.0321573464

