# b3lyp 6-31G(2df,p) opt Freq 

 titel

0 1
O -0.5365030546 -1.2909374393 -0.6027445953
C -0.201197662 0.0894442987 -0.5103698118
C -0.3095452917 0.5982787051 0.8988841288
C 0.8041114026 0.4756249739 1.8808161374
C 0.3707670132 1.8781858624 1.5103657085
C -0.9402689479 2.240489696 2.2154584258
C -1.615582675 0.9637807383 1.6186303039
C 1.2731710705 2.7860160956 0.7910808173
O 2.2566859685 2.4383656406 0.1732696235
H 0.1073313376 -1.7792300789 -0.0788542487
H 0.8060619516 0.2956725539 -0.8994774802
H -0.9188824634 0.6047590667 -1.157722559
H 0.6147809392 0.1307892577 2.8949068993
H 1.7717409267 0.2042990556 1.470044006
H -0.8876674941 2.3040855113 3.3068253253
H -1.3846318972 3.1635855157 1.8344896094
H -1.9787124 0.2218594006 2.3357554115
H -2.4250061232 1.2016238925 0.9252638348
H 0.971946619 3.8581030435 0.8269540636

