# b3lyp 6-31G(2df,p) opt Freq 

 titel

0 1
C 0.0935854885 -0.4787070462 -3.4987150232
C 1.0792761018 -1.061469254 -2.5136150545
C 2.5908942054 -1.111811505 -2.8992416604
C 2.6622936207 -2.6088496947 -2.4645608015
C 1.1675316946 -2.5588670308 -2.0792394635
O 0.9602223472 -2.2244179947 -0.6912812165
C 0.8145314482 -0.8330427233 -0.9863510746
C 1.7674805974 0.084933459 -0.2639573312
O 2.707513361 -0.26726527 0.3988279223
H -0.9409498893 -0.6724282336 -3.1954399959
H 0.2190673117 0.6072227167 -3.587800723
H 0.238383717 -0.9064833846 -4.4966210493
H 2.7391606914 -0.9662049496 -3.9721812199
H 3.2542055169 -0.4261859173 -2.3681405005
H 2.8940029296 -3.2988062993 -3.2796921135
H 3.3090921495 -2.8245374967 -1.612613281
H 0.4947879351 -3.3517145912 -2.4175312656
H -0.2123250994 -0.4807022184 -0.7931919602
H 1.5337386826 1.1657799538 -0.4223566179

