# b3lyp 6-31G(2df,p) opt Freq 

 titel

0 1
O 2.68327769 0.661591121 -3.9308573465
C 2.6300831943 0.5149826106 -2.5426803791
C 2.4175879129 -0.8508421936 -1.9391097527
C 1.2903651394 0.1667827197 -1.9668113232
C 0.8009864153 0.8128621479 -0.7126818618
C -0.3754660357 1.7282595908 -0.7133188517
C -0.5190446506 0.341248475 -0.0969738382
C -0.5954194675 0.2289622672 1.3731917549
O -1.2078965909 -0.6161067353 1.9777019981
H 3.5353476528 0.3286854234 -4.2324902355
H 3.2445673571 1.2193133025 -1.9800016602
H 2.3423206165 -1.6889054015 -2.6230203496
H 2.8889194369 -1.0754194629 -0.9876318266
H 0.525289663 -0.0179212521 -2.7158649146
H 1.5804277461 1.0451210831 0.0102142519
H -0.3733553969 2.5781884551 -0.0384569283
H -0.9010792977 1.8960175061 -1.6466547197
H -1.0867654758 -0.4031506181 -0.6443902884
H -0.0137841992 1.0166963411 1.9133715012

