# b3lyp 6-31G(2df,p) opt Freq 

 titel

0 1
C 1.346118098 1.1047615517 0.5265172567
C 0.9402023252 -0.2892578246 0.0395808517
C 1.7429098308 -0.7714417074 -1.1729270312
C 1.3288949012 -0.1752307831 -2.5370715737
C 2.0028927827 -1.0893480575 -3.5858563954
C 0.9315196544 -2.043685422 -3.0057189315
O 0.0632865162 -0.8798824137 -2.7969301553
C 1.4287483858 -2.2387850559 -1.564117901
O 1.5142584392 -3.235792572 -0.9034763831
H 0.7518144101 1.4033299613 1.3954194544
H 2.4016247866 1.1311454918 0.8194779778
H 1.198241991 1.8646264551 -0.2485321838
H 1.0754990067 -1.0200821267 0.8450557161
H -0.1238561326 -0.3069466735 -0.2213507659
H 2.8178729427 -0.6651376359 -0.9797628592
H 1.2604478709 0.9063897145 -2.6460876983
H 1.7625124045 -0.7960885673 -4.6082795789
H 3.0611774845 -1.3402952311 -3.4747651784
H 0.4787495321 -2.8800919135 -3.5335057909

