# b3lyp 6-31G(2df,p) opt Freq 

 titel

0 1
C -0.0678923616 -0.3003820819 0.2656123723
C 1.418803974 -0.1782618628 0.1213784178
C 2.3675207147 -0.9854574855 -0.7635969613
C 3.4426292026 0.0853813536 -0.4302823741
C 3.7229113334 -0.1141872491 1.0895592813
C 2.2965449376 0.3796270106 1.3023162661
O 1.7216305066 0.8383249714 2.4705404139
C 2.2497185819 1.0739163236 -0.0322665063
O 1.8627816679 2.322384245 -0.438804969
H -0.4577394825 0.4715661016 0.9357779624
H -0.5716842978 -0.1892713907 -0.7008045483
H -0.3525716687 -1.2779414 0.6748337822
H 2.5964011379 -2.021125394 -0.4829816014
H 2.0593535522 -0.9515430523 -1.8133738306
H 4.2581510626 0.3019410238 -1.1162651702
H 3.9915793015 -1.1269343536 1.4134037827
H 4.4531836734 0.6040992143 1.4744779127
H 1.3628976375 0.0870680671 2.9566320895
H 2.3419727467 2.979482999 0.0790830705

