# b3lyp 6-31G(2df,p) opt Freq 

 titel

0 1
C -0.1873784788 1.5265547769 0.1100856619
C 0.0697676685 0.0258620604 0.0272794005
O -1.1919478883 -0.6673380956 -0.07949592
C -1.1422328184 -1.8294098885 0.7214401309
C -2.246613835 -2.0545068993 1.7645094902
O -1.596171147 -2.8333682266 2.7779759517
C -0.2000596043 -2.482199154 2.8528081683
C 0.0262273275 -1.6290661198 1.6483432743
C 0.718396716 -0.5656532271 1.2661622767
H 0.7579588243 2.0788334623 0.119821211
H -0.7672031843 1.8537531101 -0.7573933973
H -0.7489711026 1.7701893895 1.0164997712
H 0.6654395657 -0.1828641073 -0.8785309534
H -1.0385787936 -2.7306867845 0.0940410053
H -2.5920351345 -1.0829023014 2.148634406
H -3.1053752485 -2.6330900525 1.4164253357
H 0.0149565145 -1.9480308781 3.7880545603
H 0.381183431 -3.4130879748 2.8535120962
H 1.5684343376 -0.1082902698 1.7571529107

