# b3lyp 6-31G(2df,p) opt Freq 

 titel

0 1
O 1.6860567946 0.6958553054 0.2841001635
C 0.7087127074 -0.1963532865 0.7837507683
C -0.5143551341 0.5476668266 1.3583610117
C -1.5467016326 -0.3630200184 1.8365890621
C -2.3721198355 -1.1570287571 2.2096979166
C -3.3809719147 -2.0903061696 2.6948231187
C -3.8074164877 -1.8017454379 4.1537500485
C -4.9331369726 -2.7079069314 4.5989809667
O -4.9366686191 -3.3589551505 5.6106992772
H 2.0801393368 1.1566040276 1.0316039579
H 0.3939576541 -0.8116329651 -0.0639641268
H 1.1192206661 -0.8734303523 1.5466713017
H -0.1817323309 1.1986137908 2.1793101162
H -0.9120256926 1.2107884739 0.5806821583
H -4.265769823 -2.052112746 2.0449410893
H -2.999392635 -3.1171772338 2.6265933951
H -2.9671168957 -1.9067237057 4.8437495908
H -4.1697220613 -0.766453806 4.2130114104
H -5.8031369442 -2.7330834139 3.8993756538

