# b3lyp 6-31G(2df,p) opt Freq 

 titel

0 1
C 1.141432907 -0.5805417423 -1.0734239464
C 1.0665201168 0.1992267474 0.240195298
C 1.7752470594 -0.5028140386 1.3949513459
C 1.8492673344 0.236014879 2.7157686566
O 1.5517330999 1.6277639177 2.5417737772
C 2.5598521146 1.6717546377 1.4685321929
C 3.0353007288 0.2479222706 1.8025977951
C 1.7704365078 1.5994432439 0.1612520376
O 0.8861510199 2.687914348 0.0106888939
H 0.6066467729 -1.5338986216 -1.0069144319
H 0.6964461797 -0.0016905516 -1.8894319227
H 2.1810802579 -0.7990127358 -1.3433654728
H 0.0132755912 0.3771449346 0.4857396186
H 1.7827151871 -1.586719026 1.4509004464
H 1.6742505799 -0.1997793392 3.6922281144
H 3.228675036 2.52499443 1.5859762033
H 4.0410779806 -0.1342006393 1.9000861837
H 2.4504329489 1.6337265232 -0.6986660732
H 0.3992760872 2.7418007622 0.8442126233

