# b3lyp 6-31G(2df,p) opt Freq 

 titel

0 1
O 1.251760479 0.2121756341 0.0919471422
C 0.0793537057 0.0212683308 0.0649447439
C -0.8795566077 -1.1699647912 0.0508254844
C -1.9712325504 -0.0840739147 0.0245112007
C -2.8510122808 0.0278478811 -1.206179573
C -3.6444672789 1.3165638391 -1.2416869814
C -4.9227793135 1.4044768839 -2.0329653445
C -4.9692094055 1.416733547 -0.5242291972
O -0.9224781261 0.9574069771 0.0414481034
H -0.8056024251 -1.7940320218 -0.8421647479
H -0.8303563246 -1.7967071905 0.9424818376
H -2.5576203881 -0.0042737351 0.9439082002
H -2.2192270204 -0.0566254698 -2.1003323232
H -3.5335887896 -0.8325409147 -1.2165570333
H -3.0259297486 2.2089441765 -1.2267458931
H -5.1378123888 2.3252520089 -2.5633624292
H -5.2667143419 0.5097535821 -2.5420653086
H -5.2162145787 2.3453376631 -0.0222450473
H -5.3470146062 0.530070404 -0.0243613337

