# b3lyp 6-31G(2df,p) opt Freq 

 titel

0 1
C 1.5817087967 -0.8192131975 0.0055559581
C 0.7864205357 0.4958065654 0.0934204278
C 1.5950650999 1.7097785332 -0.2002010762
C 1.5666395937 2.6551500808 -1.183121074
O 0.7252474713 2.77937674 -2.2473980923
C 2.6294074436 3.5786348307 -0.9208925229
C 3.242539103 3.1347562351 0.2090210539
C 4.3971700801 3.6332591558 1.0014214827
O 2.6310192592 2.0058401486 0.6595045589
H 0.9494476016 -1.6767258929 0.2562471879
H 1.9825815503 -0.9678670928 -1.001691294
H 2.4246015002 -0.8010239126 0.7017554707
H -0.0568609374 0.4643690138 -0.6091185411
H 0.3366462002 0.5784820469 1.0924175519
H 0.0888857364 2.0573788176 -2.229772834
H 2.8858798946 4.448331645 -1.5044290538
H 4.1058065427 3.8704253727 2.0312056721
H 5.200701413 2.8894404216 1.0534436002
H 4.7993806951 4.5391644888 0.5427479244

