# b3lyp 6-31G(2df,p) opt Freq 

 titel

0 1
C -1.5014660332 3.4114144857 -9.8103396945
C -1.293628686 3.447799635 -8.3193087663
O -0.2765905259 4.3307423002 -7.8280076519
C -0.079258524 2.9183128808 -7.6786278449
C -0.0777785359 2.4091076939 -6.2893667137
C -0.9239229475 2.8673646395 -5.0904574825
C 0.2499982368 2.4136890124 -4.1519151366
C 1.0255090703 1.9833985887 -5.4041146699
O 0.220534848 1.0186365429 -6.095494638
H -2.0877504398 2.530964096 -10.0938388695
H -2.0450620402 4.30102857 -10.1449791271
H -0.5428959622 3.3779672822 -10.3350381758
H -2.2040972012 3.4614439857 -7.717533628
H 0.6959866477 2.4897395899 -8.3148073896
H -1.0788521422 3.9477141169 -5.0771655655
H -1.8788362347 2.3499711655 -4.9728681227
H 0.7129483395 3.2514361651 -3.6259306077
H 0.0340946012 1.6096104061 -3.4448535443
H 2.0957717893 1.9427316738 -5.5734759912

