# b3lyp 6-31G(2df,p) opt Freq 

 titel

0 1
C 1.3720563526 0.039221408 -0.0373273419
O -0.0419718974 0.0666416842 -0.0069767
C -0.566918092 0.6456437343 1.144169148
C -0.4571065822 -0.13115824 2.4848459879
C -1.9876498013 0.0547441378 2.7069854348
C -2.1273876971 0.7392215394 1.3042407482
C -1.988402411 2.2565526651 1.4100921314
O -2.7675428205 3.1542156182 1.5525576936
C -0.4529903481 2.2014038669 1.2651329501
H 1.787657092 -0.5384902342 0.8007918573
H 1.6630096775 -0.4397385476 -0.9745945223
H 1.8006095168 1.051738115 -0.0073446235
H -0.1891753034 -1.1768472922 2.3154808887
H 0.2077784332 0.2859158385 3.245316477
H -2.5419964667 -0.8819445847 2.777968737
H -2.2742555858 0.6860189197 3.5509459676
H -2.8470991246 0.3187604623 0.6026471482
H -0.1393122042 2.6529931156 0.317643127
H 0.1341790622 2.6340848434 2.0798523208

