# b3lyp 6-31G(2df,p) opt Freq 

 titel

0 1
O 0.2462150058 0.2321601295 -0.0702674161
C -0.7943531099 0.4364946625 0.8441928212
C -2.1292572496 -0.0457955519 0.3659284003
C -1.4060179253 -0.7882909593 1.4874391356
C -2.3424678482 -0.5568905069 2.6739927541
C -3.5927367949 -1.4506131364 2.4787565955
C -4.3303829131 -0.6874673567 1.3305625812
C -3.3613688288 0.4967544538 1.0895348386
O -2.8666551262 0.7562423621 2.4142623609
H 1.0544178021 0.086953063 0.4326269183
H -0.7444348018 1.3602502452 1.4170405962
H -2.2087630009 -0.4570459811 -0.6326824016
H -0.9487978217 -1.7565448796 1.3222109239
H -1.8945439506 -0.5740987016 3.6684888292
H -3.3323530278 -2.4778273897 2.2111759922
H -4.194211917 -1.4778054703 3.3905316125
H -4.4729174326 -1.2969900668 0.4346789058
H -5.3085081374 -0.3257938453 1.6560414751
H -3.8083865024 1.4067702996 0.6877800571

