# b3lyp 6-31G(2df,p) opt Freq 

 titel

0 1
C -0.0149066755 1.5356571768 0.0247240556
C -0.0001097063 0.0078903511 -0.0154714232
O 0.5844539658 -0.4649897058 -1.22068418
C -1.4439081047 -0.5900978166 0.245505287
C -1.5065994996 -0.7082057116 1.764468747
C -0.2634116815 -0.7902337444 2.225296546
C 0.7226922181 -0.277321014 3.2430045066
O 1.5430501452 0.2116859552 2.1340596659
C 0.7752521309 -0.5992226504 1.1767738076
H 1.0008515068 1.927203867 -0.0659630581
H -0.6211517644 1.9271383884 -0.8012674271
H -0.4419514139 1.9037496622 0.9607509443
H 0.1601007338 -0.0136323872 -1.9575571356
H -2.2331950012 0.061020821 -0.1485989836
H -1.5311260162 -1.553511377 -0.2717819673
H -2.4208302304 -0.6091474846 2.3379112763
H 0.3875989521 0.5239509689 3.9102244853
H 1.2637607789 -1.0370301773 3.8217298655
H 1.373134572 -1.4572858118 0.8460149279

