# b3lyp 6-31G(2df,p) opt Freq 

 titel

0 1
C 1.5516583766 0.7536605843 -5.6312477111
C 1.4008467688 0.0468109828 -4.2837816585
C 1.8925767862 0.9055439664 -3.1283629368
O 2.2724719438 2.0440047895 -3.243286657
C 2.111618663 -1.311462091 -4.2537230245
O 1.8923139601 -1.9957304457 -2.9816815663
C 1.1589786529 -3.0266661906 -3.6494127174
C 2.0334061962 -3.763755122 -4.6114161189
C 1.4173628471 -2.4394901979 -5.0165962906
H 1.1186369337 0.1605369412 -6.4415002098
H 1.0567766371 1.726660209 -5.6084341786
H 2.6062877054 0.9330440462 -5.8613821157
H 0.3390731995 -0.1560642584 -4.0726801307
H 1.8720584638 0.3992214027 -2.141534939
H 3.1844455652 -1.1840271584 -4.4522351313
H 0.2732683949 -3.4172406543 -3.1625529505
H 3.0986704459 -3.8427329514 -4.4125253438
H 1.5849373515 -4.6320922004 -5.0842916977
H 0.7685840283 -2.3186613218 -5.8731911719

