# b3lyp 6-31G(2df,p) opt Freq 

 titel

0 1
C 1.6283691032 0.7488284114 2.1776848515
C 0.6182222596 0.0851390146 1.2376105041
C 0.3316212439 0.9754883994 0.0278455508
C -0.679718872 -0.2983171889 1.953808191
O 1.2208691609 -1.1104760907 0.6172030875
C 1.6214111821 -2.1506888031 1.35689425
O 1.5542120133 -2.2584868192 2.5581519261
C 2.1734985803 -3.1849700668 0.5012084631
C 2.6410760081 -4.0752851528 -0.1564130196
H 1.8405345604 0.1176275736 3.0404580574
H 2.5636901851 0.9541852881 1.6483817059
H 1.2219853847 1.7018442506 2.5301659009
H -0.3527592886 0.4779133625 -0.6646261376
H -0.1257892402 1.9138885102 0.3539719745
H 1.2556398317 1.2076709029 -0.5085834281
H -0.483174512 -0.9366447626 2.8150330349
H -1.185101639 0.6097694156 2.2967403793
H -1.3525868599 -0.822493966 1.2685021932
H 3.0549983783 -4.8629928889 -0.737174845

