# b3lyp 6-31G(2df,p) opt Freq 

 titel

0 1
O 1.426634379 0.5836377717 -0.4536252435
C 0.0845692225 0.3535283649 -0.0454545671
C -0.8038691746 0.3975865699 -1.2818021694
C -0.467850587 -0.7262177661 -2.3081903129
C -1.8117379902 -1.523282585 -2.3275944298
O -2.2199780506 -1.4141675543 -0.9557807301
C -2.2855720223 0.017894158 -0.9308791366
C -3.1303665197 0.3225264167 -2.1627701057
C -2.8385691784 -0.642803891 -3.0339448248
H 1.9959358493 0.4756295673 0.3137739343
H -0.0268227902 -0.6285349237 0.4382927005
H -0.2444294824 1.1218738978 0.6737022452
H -0.7388071985 1.3937678092 -1.7272366917
H -0.1868431511 -0.3450257986 -3.2916305124
H 0.3482364422 -1.3515353686 -1.9401700784
H -1.7467924294 -2.5683109447 -2.6278612727
H -2.6509240865 0.3698985822 0.0342856611
H -3.7400741262 1.204715741 -2.3020773915
H -3.1526373859 -0.7462063666 -4.0636367145

