# b3lyp 6-31G(2df,p) opt Freq 

 titel

0 1
C 1.5191221617 0.0835298009 -0.0285115612
C 0.7163250272 1.3571094354 -0.0419408449
C 0.0123154591 0.0236581108 0.0293489614
C -0.6400036324 -0.4196129684 1.3273516695
O -2.0426831446 -0.217765192 1.3076945289
C -2.6894002805 -1.0649537138 0.3820419382
C -2.100674078 -0.9809937304 -1.0113706808
O -1.9118489196 0.3276209233 -1.538077677
C -0.7448239316 -0.4343238325 -1.1835852584
H 2.006004623 -0.2296722739 -0.9467354714
H 2.0697952772 -0.1709468773 0.871730675
H 0.7136567116 1.97400067 0.8506798425
H 0.6471933185 1.9148585924 -0.9692792981
H -0.4198543053 -1.4865185304 1.5094273217
H -0.2549612061 0.1532698035 2.1763665439
H -2.6428481911 -2.1185163435 0.7126742739
H -3.7410241163 -0.7608845338 0.3685378541
H -2.4797615307 -1.7201022746 -1.719458992
H -0.1516693221 -0.7463466658 -2.0437776053

