# b3lyp 6-31G(2df,p) opt Freq 

 titel

0 1
O 0.9963522556 -0.6991725568 -0.5222976368
C 0.1831297735 0.0163103711 0.0062822497
C -0.4533650598 1.2222197094 -0.618227117
C -0.4683948079 2.5420961238 0.2234375529
C -1.8085704452 2.8459146987 -0.4956797905
C -2.0201774783 1.3091168945 -0.5780628594
O -1.5648272986 3.4331830756 -1.7622101693
C -0.930976087 2.5516264321 -2.6917630962
C 0.0486381282 1.5610910517 -2.0285402603
H -0.1664770483 -0.1839533924 1.0479162269
H -0.6064735446 2.3482209437 1.2916264068
H 0.3534729337 3.2442137737 0.0666337183
H -2.5556739057 3.4689499714 -0.000781734
H -2.4169141129 0.9206608739 0.363816153
H -2.5875130688 0.8895241344 -1.4111007051
H -1.702981111 1.9896719224 -3.2357102174
H -0.4236574063 3.1890865756 -3.420662428
H 0.1273639842 0.6546956345 -2.6365331316
H 1.0567637291 1.9825756125 -1.9559876921

