# b3lyp 6-31G(2df,p) opt Freq 

 titel

0 1
C 1.746016211 0.5618594 1.2342663823
C 2.2327560902 -0.0179449182 -0.0591433484
C 1.8394022511 -1.3455519023 -0.6673169752
C 1.1469057926 -1.39383519 -2.0178312675
O 1.6261894226 -0.4585995527 -2.9689071694
C 1.9108102405 0.8326247784 -2.4729699362
C 2.815809088 0.7718818448 -1.2487423549
O 3.8741818941 -0.2112680729 -1.4392613462
C 3.2978946005 -1.0235815854 -0.4181970235
H 1.5922958702 -0.2239242008 1.9811599961
H 2.464288302 1.2800326747 1.6462816038
H 0.789202437 1.0833285347 1.1078797659
H 1.4331451867 -2.0523366211 0.0546419484
H 1.2705539921 -2.3749148836 -2.4888546536
H 0.0655654116 -1.2419769291 -1.8481643642
H 2.4008649443 1.3590356587 -3.2977396587
H 0.9926792746 1.3882780812 -2.2086458247
H 3.2280386395 1.7532817158 -0.9903338243
H 3.9685293615 -1.6274435719 0.1833905103

