# b3lyp 6-31G(2df,p) opt Freq 

 titel

0 1
C 2.012956774 -0.4149252073 -1.3331031588
C 1.8654506171 0.4246231932 -0.0699335363
C 3.0208575151 1.4701811922 0.1544816081
C 3.3867438436 0.7295247905 1.4445534527
O 2.2167187801 0.7352165194 2.276138444
C 2.3073726948 -0.2570351086 1.2501716325
C 2.2045124049 -1.6840289404 1.647966829
C 1.5981473395 -2.084738005 2.9269954474
O 3.015648778 -2.092412143 2.7486690961
H 1.2643658482 -1.2134034913 -1.3768042567
H 1.8868054529 0.2068621608 -2.2253173312
H 3.0041316666 -0.8797384576 -1.3905323968
H 0.8584181577 0.8462874766 -0.0001148185
H 3.7918877286 1.3970273709 -0.6173910006
H 2.7303991556 2.5153078139 0.2844695885
H 4.3421445404 0.6285656388 1.9456074858
H 2.1803165155 -2.3894389989 0.8172201977
H 1.2226683458 -1.3072199973 3.5877181868
H 1.1324464216 -3.0648444071 3.0201678304

