# b3lyp 6-31G(2df,p) opt Freq 

 titel

0 1
O 0.0743655763 -1.1485991481 -0.1941923049
C 0.522232159 0.1694310305 0.0955339558
C -0.3449481542 0.8618248453 1.1544136894
C -1.8209921818 0.9617602377 0.7421156173
C -2.6671874557 1.628749885 1.8318146276
C -2.0274898909 2.8888109333 2.3419423601
C -0.7283357028 3.1714796257 2.1792506896
C 0.2139107529 2.2377991133 1.5260770715
O 1.3768572728 2.5386895092 1.3319167448
H 0.3021269654 -1.7084654202 0.554652756
H 1.5719731496 0.1878981834 0.408629561
H 0.4581596415 0.7211457801 -0.8486328777
H -0.2900194045 0.264404857 2.0818088963
H -1.8894370864 1.5586070967 -0.1772060577
H -2.1984383236 -0.03505179 0.5004943793
H -3.6744125922 1.8507971649 1.4601231216
H -2.8152188427 0.9397191916 2.6784704878
H -2.6675003492 3.594613342 2.8677447204
H -0.2921624734 4.0995410427 2.5359149918

