# b3lyp 6-31G(2df,p) opt Freq 

 titel

0 1
C 2.3805166624 -1.3483926826 -1.0349351124
C 2.3224128978 -0.4962721012 0.1903875623
O 3.3623870108 -0.6406181358 1.1682735962
C 3.0925631784 0.6712935162 0.6516046174
C 1.9114138055 1.2246241782 1.4502806709
C 1.0452247873 -0.0080944565 0.9599611889
C -0.1192976347 0.3845723025 0.0610715242
C 0.6219740426 -0.9491714361 2.0655058751
O -0.5154863165 -1.3015151441 2.2630268052
H 2.0852721215 -2.378651534 -0.8067948539
H 1.7091585313 -0.9691553626 -1.8107272704
H 3.3996538011 -1.3664162864 -1.4300746499
H 3.9238865732 1.1985906244 0.1974760545
H 2.0855615443 1.3156059211 2.5255833993
H 1.5085492147 2.1634644329 1.0640795703
H -0.8866148699 0.9070758808 0.6385428715
H 0.2135659465 1.0428092792 -0.7479611882
H -0.590855311 -0.4981265973 -0.3797275544
H 1.4566984148 -1.3066890189 2.7028237033

