# b3lyp 6-31G(2df,p) opt Freq 

 titel

0 1
C 0.6082466862 2.6356645386 -1.9645734631
C 1.6028232733 3.72863652 -1.653512426
C 1.2239722733 5.1477998835 -1.6372399967
O 1.957930043 4.597209825 -2.7322983458
C -0.0055865258 2.0307766619 -0.6932660746
O 1.0275624293 1.4894358148 0.1403352604
C 0.7712049415 0.1173331164 0.4305967798
C -0.4889037468 -0.2113383479 -0.3187234014
C -0.9325829659 0.8712133023 -0.945272187
H -0.1884224031 3.0435762435 -2.5979238585
H 1.1034569244 1.8374320673 -2.5301098566
H 2.4430466547 3.421395095 -1.0322005214
H 0.1961801164 5.4331467729 -1.8615983282
H 1.771689574 5.8511212579 -1.011452527
H -0.5182748153 2.8352914015 -0.1379173946
H 1.6272193461 -0.4980710598 0.1134909328
H 0.6588611189 -0.0225705611 1.5178336597
H -0.9408993456 -1.195027267 -0.3151302761
H -1.8206483783 0.9533238855 -1.5589465056

