# b3lyp 6-31G(2df,p) opt Freq 

 titel

0 1
C -0.3348998289 1.3830716449 -0.2208376028
O -0.0353464447 0.0185756679 -0.6421202763
C 1.3016274958 0.188692812 -0.1175602455
C 2.5559378099 -0.3580117821 -0.761265231
C 3.6996924187 0.5033843166 -0.1950931194
O 3.9469768573 1.7614943938 -0.8323478569
C 3.4808750816 1.7935660928 0.5194053247
C 2.0936569052 2.4030220288 0.7452077018
C 1.1739325008 1.6994467988 -0.2334104171
H -0.9823681343 1.8994289254 -0.9344097824
H -0.7943130401 1.3964538857 0.7785774594
H 1.3014083804 -0.1092803116 0.9465885146
H 2.7346196752 -1.4117655114 -0.5258130076
H 2.529123408 -0.251539386 -1.8508598336
H 4.6139936854 -0.0403038546 0.0449216641
H 4.2434165797 2.1003066371 1.2377257723
H 1.795184309 2.2207125359 1.7852422632
H 2.1462293176 3.4887531067 0.6038126538
H 1.4452234835 1.9910633995 -1.2515525514

