# b3lyp 6-31G(2df,p) opt Freq 

 titel

0 1
C 0.3646878086 -0.7278061776 0.0000665776
C 0.9271308962 0.6453768319 0.3177822833
O 1.6421281364 1.1043346255 -0.8331850508
C 2.2116282959 2.3334665704 -0.7077156685
C 3.0242858888 3.0273416555 -1.8074552836
C 3.0537336481 4.0467451365 -0.6479303369
C 1.6088048031 3.7017845951 -0.1812665636
O 1.9865743767 3.4777323208 1.2089980375
C 3.1092598567 2.9423219725 0.4483164318
H -0.1915400783 -1.1155803562 0.8587067457
H -0.3115370237 -0.6788171519 -0.8581819343
H 1.1696846221 -1.4291070505 -0.2374817313
H 0.1264695712 1.3556977729 0.5633913929
H 1.6031425485 0.6076211906 1.182387084
H 3.9766411654 2.5614449538 -2.0734525619
H 2.4733370989 3.3223573027 -2.7042360822
H 3.5246774574 5.024334195 -0.5910558017
H 0.6668658833 4.2047479268 -0.398689037
H 3.9655342248 2.535111626 0.9854079189

