# b3lyp 6-31G(2df,p) opt Freq 

 titel

0 1
C -0.5495910798 -0.6289795563 -1.4415147157
C 0.6262624415 -1.5956787015 -1.5921242289
O 0.7359899743 -2.4219701166 -0.4230596874
C 1.7752262576 -2.1723176677 0.5118217226
C 1.8728451958 -0.7429879577 1.0102161401
C 2.3193768529 0.24221617 0.233602796
C 2.7219856605 -0.0136141743 -1.1748575662
O 1.8887597674 0.5105573889 -2.2157264367
C 1.9270196756 -0.9102359567 -2.0370697538
H -0.3613383012 0.1203960673 -0.6717107826
H -0.7437038289 -0.1095151634 -2.3840992699
H -1.4373842756 -1.2034348258 -1.1635512834
H 0.3704790312 -2.3078828004 -2.3869520142
H 1.5600425487 -2.8478108459 1.3441020358
H 2.7473790389 -2.4760120339 0.0953380638
H 1.5663745857 -0.5389254902 2.0327648226
H 2.4069688453 1.2621841891 0.6002573805
H 3.7871212348 0.0928907577 -1.3940503761
H 2.4653608353 -1.4275976324 -2.8314120666

