# b3lyp 6-31G(2df,p) opt Freq 

 titel

0 1
O 0.3551700537 0.1714831416 0.5385240413
C -0.8664799546 0.737859637 0.9067602509
C -0.9716412458 2.2524672595 1.10177656
C -2.2847172763 2.6514297518 0.3846813796
C -3.1452538428 1.364550063 0.3411784787
C -3.8093684104 1.0575982438 1.6954715898
O -2.7725418362 0.5104174199 2.5213991347
C -1.8520384244 -0.1272361746 1.6696322968
C -2.1178239787 0.2208459708 0.230337709
H 0.9107358159 0.1249767584 1.3245610777
H -0.9998095264 2.513846677 2.1646210532
H -0.0971308811 2.7333126651 0.6561275518
H -2.8034513259 3.4851004228 0.868934228
H -2.0593162633 2.9589157882 -0.6417422676
H -3.8757288796 1.3767420967 -0.4706738016
H -4.2082617791 1.9422152913 2.2012474504
H -4.621059377 0.3242148293 1.5757481112
H -1.5504249436 -1.122812611 1.9810449898
H -2.1056427845 -0.5021350607 -0.5747626737

