# b3lyp 6-31G(2df,p) opt Freq 

 titel

0 1
C 2.846233655 -1.066832038 -0.3546806591
C 1.67152814 -0.1012263999 -0.3374772153
C 0.9201067262 -0.0611961194 -1.6549222935
C 0.9393238223 0.1267559378 0.9265937645
C 1.8514106094 1.2628837732 0.4508698554
C 1.2045613507 2.5007970211 -0.0745406732
O 0.047812871 2.5789601476 -0.4228038039
C 3.1383755348 1.4913721087 1.1617965354
O 3.7769203657 2.5151813884 1.1040102689
H 3.3209417807 -1.1879844653 0.6206936826
H 2.4880334161 -2.0533910225 -0.6690688685
H 3.6110217521 -0.750716134 -1.0716506343
H 0.5243737135 -1.0616464785 -1.86435786
H 0.0884821128 0.6416676782 -1.6344837486
H 1.5884628056 0.2088356556 -2.4794830115
H -0.1173994225 0.3673133174 0.8757577605
H 1.2565399933 -0.4022864035 1.8205638623
H 1.8786620245 3.3762354421 -0.1046830465
H 3.4867027188 0.643684871 1.7913658048

