# b3lyp 6-31G(2df,p) opt Freq 

 titel

0 1
C -4.1679043758 -0.5830435299 1.2639889478
C -2.7998454211 0.093924002 1.3601421736
O -1.901337108 -0.6359527496 2.2060156619
C -1.2817285658 -1.6490478952 1.4249549355
C -1.0871891385 -1.0365219395 0.0249993739
C -2.0714365146 0.1883679106 0.0113962242
C -0.8634506832 1.175220664 -0.0336267439
C 0.0776587813 -0.0367627301 -0.0770857147
O 1.2623660715 -0.1689079924 -0.1786417246
H -4.5774085699 -0.746033088 2.2644993111
H -4.8668110083 0.0443026764 0.7011038729
H -4.1044648073 -1.5515023477 0.756901202
H -2.9133443463 1.0777515226 1.8286011792
H -0.34091381 -1.9202689911 1.9116853628
H -1.9101109614 -2.5495206647 1.3619355339
H -1.1320886001 -1.7749414648 -0.7778746723
H -2.7496181344 0.2620660695 -0.8385191795
H -0.7994598744 1.8177923436 -0.9165348395
H -0.7362033737 1.7962139142 0.8592577456

