# b3lyp 6-31G(2df,p) opt Freq 

 titel

0 1
C -0.4425058011 -0.6591548263 -0.4159289269
O -1.5657316633 0.2136162904 -0.3922740169
C -1.3896186594 1.3455191459 0.4664403395
C -0.6478426242 0.9142477532 1.7347660554
O 0.6647058613 0.4449812161 1.4454681259
C 0.8376340204 -0.0043019625 0.1014349393
C 1.3717413005 1.1410266819 -0.7794975951
C 0.5126682688 2.3757469509 -0.8051682227
C -0.6917693379 2.4879113643 -0.2499545858
H -0.6506965616 -1.5453674667 0.2028585043
H -0.3023730309 -0.9994801254 -1.4490152724
H -2.4015348803 1.655519646 0.7462395454
H -0.5493817829 1.755913861 2.4289143315
H -1.2321491088 0.1249067246 2.2323895763
H 1.6080131397 -0.7840131791 0.1434110646
H 2.3674310317 1.4157255338 -0.4060448973
H 1.5331914335 0.7673350547 -1.8019869856
H 0.9400302927 3.2339498377 -1.319976739
H -1.2285989279 3.4305580594 -0.3096269006

