# b3lyp 6-31G(2df,p) opt Freq 

 titel

0 1
C 1.4609455042 0.3696886707 0.0359694187
C 0.0109813177 0.2572997934 0.1074141501
C -1.1877234156 0.1513884127 0.1649667422
C -2.6446094919 0.0889203461 0.202705011
C -3.2907376564 1.1702745903 -0.701773236
O -4.6785326113 0.9901552053 -0.8394640187
C -3.2009723373 0.1581551145 1.6429563053
C -2.4809720469 -0.6352830904 2.7082695602
O -4.1942373857 0.8078242522 1.8925074729
H 1.9370552261 -0.056215088 0.9260534816
H 1.8578235281 -0.1593840188 -0.8372478652
H 1.7749277908 1.416479982 -0.0386456519
H -2.9769803576 -0.8894610947 -0.181393262
H -3.0362429065 2.1611925689 -0.2973817938
H -2.8509465008 1.0957498009 -1.7000164998
H -5.0403949121 1.1190067968 0.0474852548
H -3.0746066758 -0.6479523874 3.6228088725
H -2.2852676999 -1.6561312057 2.3640549099
H -1.5051382392 -0.1797734286 2.9036326882

