# b3lyp 6-31G(2df,p) opt Freq 

 titel

0 1
C 1.6343694706 -0.1914607711 0.0974313199
C 0.180506826 -0.1131724962 0.0911721738
C -1.0215245309 -0.0385697783 0.0998465237
C -2.480098277 0.0075745961 0.0816708655
C -3.1046785358 -1.3807472278 0.3879290956
O -4.4797886156 -1.2869127471 0.677159399
C -2.9672862661 0.5200157557 -1.2704270134
C -3.5949323047 1.8339036696 -1.4369812914
O -4.3913380394 0.6414950022 -1.4276956468
H 2.0478408553 0.1851387197 1.0394145312
H 1.9778073769 -1.2244018151 -0.0258731821
H 2.068206685 0.4012818293 -0.7153926347
H -2.844230192 0.6853294124 0.865018515
H -2.8991269334 -2.0584851406 -0.4571702228
H -2.6179346028 -1.8032227994 1.2716335596
H -4.8848535692 -0.7562155854 -0.020739694
H -2.4709070444 0.0703826139 -2.1302557459
H -3.7152830474 2.4806738516 -0.5696569677
H -3.5477595949 2.3429607405 -2.3975276944

