# b3lyp 6-31G(2df,p) opt Freq 

 titel

0 1
C -1.8380677946 3.1063431551 8.6534698444
C -0.9665397593 2.5016656959 7.5308773982
C -1.6137979484 1.2171749926 7.0355299547
O -2.1523419981 1.1000252764 5.9650002207
C 0.4341346271 2.2508707789 8.0228029759
C 1.5417421339 3.2875594556 8.3019954248
C 2.5995046787 2.1637380456 8.0135854559
C 1.435608459 1.1986771843 7.7613395228
O 0.6400686024 1.1797922467 8.9594826348
H -1.9284652237 2.4075432762 9.4906490727
H -1.3875431333 4.0286669158 9.031620041
H -2.8396364663 3.3407367794 8.2831329839
H -0.928899302 3.1917772329 6.6811511043
H -1.5740268691 0.3775975752 7.7623443279
H 1.5756254177 4.0926207482 7.5639021515
H 1.5327714671 3.7117690632 9.3084409729
H 3.1923507118 2.3673275477 7.1191559225
H 3.260697757 1.883538486 8.8363971076
H 1.3965759 0.3154052241 7.1333643936

