# b3lyp 6-31G(2df,p) opt Freq 

 titel

0 1
C -2.3290104843 -2.0205399384 1.4969961298
C -1.7314546523 -1.3150814546 0.2802325795
O -2.3148153161 -0.0055029112 0.1395243275
C -1.3069854397 0.9877108617 0.1010214601
C -1.3192791677 1.6910658176 -1.2572702281
O -0.7474365446 2.7249154097 -1.4850486298
C 0.0086712933 0.2548668502 0.3039666939
C 1.31070495 0.9787748828 0.399575549
C -0.2544229058 -1.0479312765 0.3727596406
H -1.9365759795 -3.0394160529 1.581146306
H -2.0873638523 -1.4747468716 2.4136324383
H -3.4168145112 -2.0784661326 1.4003462007
H -1.9775651571 -1.8996899533 -0.6208762667
H -1.4785744351 1.7507972634 0.8762008249
H -1.8926383206 1.1350615337 -2.0328834581
H 1.3371244498 1.6148480215 1.293185423
H 2.1501215285 0.2812438221 0.4518341451
H 1.4557819209 1.645016507 -0.4572635119
H 0.4744240637 -1.8369635486 0.5138795562

