# b3lyp 6-31G(2df,p) opt Freq 

 titel

0 1
C -2.3824384615 4.4234910963 1.8583537522
C -1.5005126741 3.5374388581 1.0073237545
C -0.1722168664 3.01899151 1.5182042414
O 0.920409237 2.881875643 0.6606610215
C -1.3410743807 2.0757253972 1.3416395017
O -1.2503965421 1.2101033956 0.2420389727
C -0.6329111616 -0.0299417758 0.5957647799
C -0.4664134446 -0.8495507386 -0.5952246727
C -0.3132305727 -1.5412937678 -1.5646489462
H -2.2967429932 4.1662816151 2.9196122343
H -2.1010506094 5.4763765974 1.7518389893
H -3.4370231633 4.3236847928 1.5789069986
H -1.5154648439 3.7410712932 -0.0610787075
H 0.1472915844 3.2996960254 2.517089483
H 0.6076211121 2.3810062494 -0.1043409138
H -1.8651886658 1.6628712291 2.2048066236
H 0.3425957111 0.1547720706 1.0686150875
H -1.2576370986 -0.5593129692 1.3325991933
H -0.1812921867 -2.1502946319 -2.4246816031

