# b3lyp 6-31G(2df,p) opt Freq 

 titel

0 1
C 0.4650557062 -0.4417181774 -0.8833118162
C 1.3509446075 0.1065606827 0.2301147537
C 2.2944691554 1.2596533398 -0.1932386053
O 3.1934370748 0.638575005 -1.1073533326
C 3.6466090344 -0.3979069882 -0.254425244
C 3.5671002519 0.1760415656 1.1414819059
O 3.0725353294 1.4931802871 0.974928993
C 2.4995521725 -0.8064889362 0.67005726
C 2.3147905538 -2.1866648077 1.2337255288
H -0.0755943393 -1.3344278741 -0.5531078416
H -0.2815972934 0.2980698384 -1.1914428096
H 1.0630261441 -0.7068914366 -1.7590848965
H 0.7547655745 0.4281487005 1.0905202642
H 1.8943808332 2.185691805 -0.5978480221
H 4.4158694023 -1.0358217174 -0.6646760329
H 4.2665695595 0.040286781 1.9535640473
H 1.7287772129 -2.1630863699 2.1596563925
H 1.7974073953 -2.8433018202 0.5252460464
H 3.2782167749 -2.6525104276 1.467010209

