# b3lyp 6-31G(2df,p) opt Freq 

 titel

0 1
O 1.4473550989 0.767965683 0.0818701574
C 0.1206606473 0.2877930331 0.1962058945
C -0.7763692633 0.9543397757 -0.8210549616
C -0.5223890251 0.7133085999 -2.3067702638
C -1.6633682059 1.5154575488 -2.9943935691
C -2.6774925025 1.759575036 -1.8736807803
C -2.1521454927 2.4497378369 -0.6305035766
O -0.7236810842 2.425826223 -0.6178931649
C -2.3121175574 0.9645366989 -0.6335400947
H 1.3856775992 1.7290422725 0.1469931523
H 0.1541212399 -0.7938471489 0.0240924477
H -0.2851747789 0.4584589704 1.2051113308
H 0.4770808272 1.0442871844 -2.5969532903
H -0.6028823635 -0.3584250089 -2.5238087596
H -1.2936093683 2.4589844177 -3.4061272629
H -2.1153426003 0.9538279757 -3.816523168
H -3.726632123 1.9112187182 -2.1033856119
H -2.6532843476 3.2450467173 -0.0909909708
H -2.9293725396 0.2826876763 -0.0651222381

