# b3lyp 6-31G(2df,p) opt Freq 

 titel

0 1
C 2.2451084926 1.6221680469 0.275888437
C 1.764123425 0.1779124828 0.2101261115
C 2.4074148807 -0.669477303 -0.9464937891
C 3.0343948899 -1.5658901756 0.1119452172
O 4.2507120161 -2.1557979647 -0.0624911548
C 1.9157413588 -2.1892311953 0.9848552594
C 2.389776784 -3.2172606392 1.9153922585
O 3.5378834124 -3.3018771362 2.3221915395
C 2.4367400463 -0.7561969798 1.2290837379
H 1.8911659886 2.1147673373 1.1878946716
H 3.3394880182 1.6735873985 0.2702893823
H 1.8765934605 2.1947451448 -0.5817252805
H 0.668598534 0.1448664853 0.2342938156
H 1.7381399469 -1.1507708241 -1.6650409213
H 3.1666516946 -0.1001045412 -1.48844438
H 4.4671029547 -2.599300335 0.7774396841
H 0.9036542871 -2.321361683 0.6072351972
H 1.6330453311 -3.9624537761 2.2360677126
H 2.8288138986 -0.4881876223 2.2036861514

