# b3lyp 6-31G(2df,p) opt Freq 

 titel

0 1
C 0.527087393 0.7188275576 -0.8706924711
O -0.0188834891 -0.1206402388 0.1539781832
C 1.3791079618 0.1975862871 0.2047852717
C 2.3040128687 -0.9564822331 -0.1317917084
O 3.4383677804 -0.5038301182 -0.8446128922
C 4.5189584729 -0.0636528383 -0.0538643051
C 4.2968215658 1.1180831827 0.8572977603
C 3.1854447583 1.5839456519 1.4275325476
C 1.7660826018 1.079042632 1.3729233639
H 0.5770259839 0.2745707608 -1.8636443771
H 0.2028238264 1.7580215154 -0.8428961688
H 2.6014777741 -1.502161593 0.7780226851
H 1.7686007973 -1.6523762739 -0.7846090767
H 4.9071413064 -0.9022452835 0.555880036
H 5.3104611917 0.1876342856 -0.7688001838
H 5.2280187816 1.6254770645 1.1073703932
H 3.3056208499 2.4400655561 2.089007433
H 1.5733880118 0.5107747104 2.2974958575
H 1.0754219832 1.9286918846 1.4132945517

