# b3lyp 6-31G(2df,p) opt Freq 

 titel

0 1
C -0.5896901256 -1.8505163704 1.4897606633
C 0.516491929 -2.0418358567 0.4874344113
C 0.3613447476 -3.0839238211 -0.6406499039
C 1.7762381452 -2.9416055131 -1.1882544455
C 2.5983649311 -2.546946308 0.0125530554
O 1.7428751954 -2.460798171 1.1414641627
C 2.1910805568 -1.483848982 -0.9808575789
C 1.0241573456 -0.7869500191 -0.2884066661
O 1.4006582409 0.2755048015 0.556608799
H -0.3547777099 -1.0200940457 2.1606805135
H -1.5279819262 -1.6189960617 0.9769623517
H -0.7338221714 -2.7562098481 2.0853476812
H 0.152239317 -4.0848382268 -0.2512239634
H -0.4188610975 -2.8042928577 -1.3546070339
H 2.1705738023 -3.5489138743 -1.9917922278
H 3.6069202763 -2.8684222961 0.2290190402
H 2.8891387072 -0.9627048555 -1.6213975308
H 0.2717008093 -0.3940020648 -0.9771751101
H 1.9801115668 -0.1123638794 1.2253829919

