# b3lyp 6-31G(2df,p) opt Freq 

 titel

0 1
C -2.7521562214 1.5572008025 -1.7175636489
C -1.6416881014 0.6247072365 -1.2578914388
C -2.0068815407 -0.3536085848 -0.1093565096
O -1.8038425048 0.7433594787 0.8490852705
C -0.762427223 1.1663728195 -0.0928798677
C 0.235278552 0.016895085 0.108687827
O 1.4254035557 0.0388878811 0.2536506823
C -0.733297114 -1.1964886594 0.1107422385
C -0.6937425674 -1.9974609023 1.4112625369
H -3.2669256289 1.9972428877 -0.8600651981
H -2.3509466846 2.3673535397 -2.3347241118
H -3.4876540688 1.0132523789 -2.3198278415
H -1.1035214426 0.1877223861 -2.1064954539
H -2.9819748556 -0.8355690833 -0.0268815158
H -0.4261035471 2.1965327673 0.0102095761
H -0.5067390519 -1.8432124327 -0.745279415
H -1.3549828792 -2.8681872181 1.3590912202
H 0.3230491159 -2.3499742798 1.6063135741
H -1.0064848621 -1.3718886127 2.2516053855

