# b3lyp 6-31G(2df,p) opt Freq 

 titel

0 1
C 1.8258294826 1.321505841 0.2674175948
C 1.3174869468 -0.0843610641 -0.0408036079
C 1.6074469135 -1.1417404791 1.0790080238
C 2.4827326651 -2.092422802 0.2408356266
O 3.3578927957 -1.1653131262 -0.4738889133
C 2.1235025211 -0.7890090966 -1.1595947678
C 1.6620520847 -2.2733238049 -1.072083068
C 2.3114820642 -3.1772602313 -2.0802947944
O 1.7135759949 -4.0153539882 -2.7095415304
H 1.3338566824 1.7314348993 1.1552292918
H 2.9036337293 1.3012274134 0.454059067
H 1.6338815861 2.0059665932 -0.5660711788
H 0.2534308044 -0.053409623 -0.2960414563
H 2.1754960719 -0.71938092 1.9115646818
H 0.709796816 -1.6236062884 1.4739645081
H 3.0077531808 -2.9135902458 0.7290001561
H 2.2805613628 -0.2705467099 -2.1062969488
H 0.5933163943 -2.4867948217 -0.9976742442
H 3.4023094635 -3.0185917156 -2.21069362

