# b3lyp 6-31G(2df,p) opt Freq 

 titel

0 1
C 0.7989887026 -2.4100497412 -1.1952960213
C -0.5150132079 -1.7053944538 -1.6101672332
C -0.3816492607 -0.1799086747 -1.4633283204
O 0.7208571967 0.2508366738 -2.268009228
C 1.8847390101 -0.141509177 -1.5331511772
C 2.0603660421 -1.6617599574 -1.6895101597
C 1.5208555968 0.2158485435 -0.0938448481
O 0.7714698173 1.4270431026 0.0216984349
C 0.0578162918 0.1910599809 -0.0487718526
H 0.8339769522 -2.4893059096 -0.1031966008
H 0.804771399 -3.4375092482 -1.5726442624
H -0.7415945718 -1.910994415 -2.6618442006
H -1.3551859838 -2.0877209318 -1.0181504211
H -1.2701067922 0.3532855429 -1.8121646791
H 2.7314899732 0.4210848646 -1.9354452708
H 2.2286238006 -1.8606688187 -2.7533519873
H 2.9478369225 -2.0148156664 -1.1507202922
H 2.1621518421 -0.0481668169 0.7421930812
H -0.5215114212 -0.0936363975 0.8248710084

