# b3lyp 6-31G(2df,p) opt Freq 

 titel

0 1
C 3.4566608387 -2.9550310071 4.9473753738
C 2.9731332801 -2.9670223206 3.5229162422
C 2.7860269666 -1.7502054348 2.562906029
C 2.3479318537 -2.9723062622 1.7213045054
C 1.5934719399 -3.4860254376 2.9888237754
C 1.88519454 -2.9917518648 0.3103610148
O 1.9028957461 -2.0350922709 -0.4262009761
C 3.6353196438 -3.6908499898 2.3069861073
O 3.7975696222 -5.074468118 2.2762126437
H 3.5516708357 -3.9740503476 5.338544979
H 4.4389036636 -2.4762686458 5.0217996725
H 2.7650876163 -2.4078957916 5.5967749939
H 1.9905525177 -1.0505081903 2.8261383672
H 3.6908534006 -1.2282404 2.2416915846
H 0.7126824952 -2.9093066658 3.2831788261
H 1.3758200608 -4.5567589994 3.0598717086
H 1.5244974819 -3.9840529085 -0.0468819511
H 4.5787391187 -3.2661618298 1.9537056452
H 3.0507088685 -5.4999934157 2.7098211586

