# b3lyp 6-31G(2df,p) opt Freq 

 titel

0 1
C 1.2031146478 -0.1343989733 -3.3373324172
C 0.2367864885 -0.1384818428 -2.1852387604
C -1.3237496987 -0.1893104383 -2.4503253303
C -1.8778043261 0.2617998532 -1.0832016076
C -0.6692626213 -0.298446661 -0.3109121237
C 0.4702401459 0.6024397317 -0.8562323695
O 1.7661963545 0.2627034879 -0.3993452856
C -0.2242693857 -1.3942649135 -1.3973139789
O -1.3198474057 -1.6389727856 -2.2859917485
H 0.949858404 -0.9216156137 -4.0547952231
H 1.1858240611 0.82464839 -3.8683889342
H 2.2229112974 -0.3032430266 -2.9802376553
H -1.7868438122 0.1485149628 -3.3771830239
H -1.9914859554 1.3439744646 -0.9692990799
H -2.8269549129 -0.2335998154 -0.8707395012
H -0.7655133924 -0.515888178 0.7521258931
H 0.3036120537 1.68910779 -0.8163964969
H 1.8248344983 0.4981671695 0.5318144536
H 0.3685863091 -2.2623971815 -1.1204583305

