# b3lyp 6-31G(2df,p) opt Freq 

 titel

0 1
C 1.3690527729 -0.2836974605 -1.3468943408
C 1.3117882119 0.2422733987 0.0826948705
C 2.2989479526 1.3932115402 0.4370953046
O 1.7835411601 2.2803587308 1.4454415851
C 2.4359095324 1.5359604004 2.5040495502
C 3.0033741144 0.5066351521 1.5094649057
C 2.025662831 -0.6131963661 1.1546034673
C 2.2433154735 -2.0606222391 1.1967596793
O 1.3653378578 -1.407958442 2.1245921964
H 0.7682810655 -1.1921468638 -1.4583949601
H 0.9827301079 0.4606627514 -2.0509453541
H 2.3956405593 -0.5257721139 -1.6442701578
H 0.2885671407 0.5048645056 0.3665534427
H 2.7953990424 1.9178169232 -0.3835583132
H 3.1954473609 2.147350808 3.0055147422
H 1.7295890084 1.1485858483 3.2466949088
H 4.0681150239 0.2803371239 1.5494926021
H 1.7546997322 -2.7077033937 0.4694909486
H 3.1644961022 -2.4563973336 1.6239047923

