# b3lyp 6-31G(2df,p) opt Freq 

 titel

0 1
C 0.0917652291 0.4427348348 0.0428910272
C 0.9712106262 -0.777032429 -0.0294182381
O 2.1538524701 -0.7780798638 0.8181963982
C 2.3179231789 -0.7559589049 -0.5818228828
C 3.2133284604 -1.7576876071 -1.3453004954
C 4.3521276541 -0.7079848229 -1.1080243752
C 3.1746549601 0.2768533217 -1.3333343995
O 2.8007606204 0.0502568758 -2.7019656162
C 2.8050275562 -1.4001493756 -2.7800690928
H -0.4929284839 0.4425329578 0.9685727768
H 0.6898378584 1.3566243044 0.0127895552
H -0.6080440653 0.4564598703 -0.7993633167
H 0.4467619172 -1.7344896481 -0.0213659377
H 3.2964834275 -2.8074677464 -1.0704401075
H 4.7151518465 -0.7140884403 -0.0798662693
H 5.172179328 -0.6674511577 -1.8283683382
H 3.2044720316 1.3424703664 -1.1171720629
H 1.8064116945 -1.7618834376 -3.0513912135
H 3.52395134 -1.7312541879 -3.5385711316

