# b3lyp 6-31G(2df,p) opt Freq 

 titel

0 1
C 1.4657906074 1.3810703496 0.0234311898
C 1.2427058863 -0.1276200155 0.0498826963
C 1.9918076789 -1.0050493202 1.0614536494
O 1.4060651316 -2.3224034084 0.7625213419
C 1.3982207001 -2.3986324195 -0.7039690816
C 2.0914810594 -1.0669539929 -0.9159046751
O 2.865751331 -0.4679448791 -1.9392713077
C 3.8696924522 -0.1261578715 -0.9137413245
C 3.2253553013 -1.0965244286 0.1286635828
H 0.6355242225 1.885924767 0.525590705
H 2.3808621355 1.6908860591 0.5337988217
H 1.5085494925 1.7515336136 -1.0063184979
H 0.1718607986 -0.3460551818 0.0264011997
H 1.9924131315 -0.8805665007 2.144029965
H 1.9771761206 -3.2638307069 -1.0398656773
H 0.3664285398 -2.4734726255 -1.0622092433
H 4.8593631971 -0.4601986921 -1.2351196223
H 3.8892934575 0.9451381056 -0.7135833752
H 3.8064325064 -2.0099091722 0.2575604233

