# b3lyp 6-31G(2df,p) opt Freq 

 titel

0 1
C 2.4749970008 -1.4487289852 1.2282063964
C 2.3473496079 0.0417842438 1.4439528244
C 1.8937255634 0.9119815667 0.3512677852
O 1.0034942629 0.5484698681 1.414572009
C 3.2104210213 0.6287047691 2.5373363254
C 2.7076344714 1.8383116599 3.3196101475
C 2.7393316658 0.5082103995 3.9862066861
C 4.6779484357 0.576930989 2.3341194791
O 5.235346411 0.1277235123 1.3617718562
H 2.2465289661 -1.9912609105 2.1518082334
H 1.778448888 -1.7806025555 0.4546705396
H 3.4949368314 -1.6962970916 0.9244136838
H 2.1948653856 1.958110101 0.3344161137
H 1.6585319001 0.4787093354 -0.6192180289
H 3.4371487374 2.5862819111 3.6110600986
H 1.7455238128 2.2177410144 2.9991899726
H 3.4876583456 0.3187727173 4.7486380485
H 1.7981948825 -0.0102360372 4.1299964394
H 5.2618249703 1.0097343823 3.1808889201

