# b3lyp 6-31G(2df,p) opt Freq 

 titel

0 1
O 0.3709772183 0.3242373663 0.7990082537
C -0.8341474992 0.8697059464 0.3458530925
C -2.1261553764 0.2498839955 0.8272018191
C -3.3924877513 1.0825629039 0.7272840692
C -3.383763438 1.6152652108 -0.7091101725
C -3.5211537463 3.0442225471 -1.0256208454
O -4.5986633713 2.127157869 -1.2447237324
C -2.5580460979 0.6542645888 -1.5693106737
C -1.6114298162 -0.011209122 -0.5865388361
H 0.4958865364 0.599178376 1.7135105892
H -0.8086203056 1.944429107 0.1533840494
H -2.048396932 -0.5198804701 1.5866832171
H -4.274376256 0.4447656328 0.8635671757
H -3.4560011737 1.8898294279 1.4646346285
H -3.6789446013 3.7656238899 -0.2239354662
H -3.0607719293 3.4469004994 -1.9276590575
H -3.2281899761 -0.0937933811 -2.0099070189
H -2.0529080786 1.168346913 -2.3933765243
H -1.1581087453 -0.9627638406 -0.8371318074

