# b3lyp 6-31G(2df,p) opt Freq 

 titel

0 1
C 0.018683746 -0.0470353967 -0.291429204
C 1.515229019 0.0196715756 -0.1393501546
O 2.1224886292 -0.953658337 0.7077319008
C 2.4355365956 -0.9900984533 -0.6931666902
C 3.8278227236 -0.5219165151 -1.108496431
C 3.9378767481 0.9954034891 -0.9186114011
C 2.7115571238 1.7559110803 -1.4794741158
C 2.1505333942 1.4171196252 -0.0793383991
O 3.4984611014 1.3211028651 0.430776696
H -0.475101558 0.3575975141 0.5992625944
H -0.3153291613 0.5405744501 -1.1539577869
H -0.3116789174 -1.0800371007 -0.425622039
H 2.0332947994 -1.8617394534 -1.2090039457
H 4.5908934786 -1.0305765034 -0.5090208624
H 4.0036243294 -0.7835823888 -2.1592368967
H 4.9381650168 1.3806210012 -1.1332312177
H 2.9144782309 2.8205674699 -1.6020969257
H 2.2000709325 1.3561069708 -2.3588319301
H 1.5462878483 2.146619257 0.467393419

