# b3lyp 6-31G(2df,p) opt Freq 

 titel

0 1
C -3.1609274113 0.6499907229 0.0568437351
C -2.4688606272 1.9698109195 0.2463185532
C -2.9839318368 3.2954754939 -0.319632233
O -2.5399482072 4.0281880746 0.855954373
C -2.0990142191 2.8105483343 1.4508146306
C -1.0055367293 2.1827242809 0.630259687
C -0.2429121963 1.0223214948 1.2518206284
C 0.2367018499 0.0435773481 0.1996724145
O -0.0790805271 -1.1172013295 0.1459179254
H -2.7103870016 -0.147000811 0.6526503427
H -4.2199339801 0.7205830391 0.3284781855
H -3.1076657602 0.3316738906 -0.9913748989
H -2.5283687808 3.67106844 -1.2440619815
H -4.0765822979 3.3333155592 -0.4036852474
H -2.2257541859 2.6833656713 2.5209644651
H -0.4033484333 2.8560009361 0.0207614118
H 0.6368425778 1.4202321098 1.7767952718
H -0.8500704621 0.4763483475 1.9795008568
H 0.9157279383 0.4879946481 -0.5651408301

