# b3lyp 6-31G(2df,p) opt Freq 

 titel

0 1
C 2.0616570384 -0.2511317614 -1.4660159662
C 1.5730813545 0.0165064023 -0.0424529656
C 2.5660215538 -0.4889919251 1.0609967906
O 2.4647035775 0.4193356959 2.1797501693
C 2.1060409096 1.6546659679 1.6573443829
C 0.648545677 2.0093206984 1.4668903305
C 1.4625959393 1.4921944797 0.3150916179
O 2.2765479731 2.5132589532 -0.2951834308
C 3.036620723 2.6423945876 0.9460601645
H 2.2671870968 -1.316015398 -1.6131553435
H 1.3114024057 0.0520920739 -2.2015052079
H 2.9763466871 0.3113622221 -1.6716018391
H 0.6012371006 -0.4662013487 0.1060497484
H 2.3423551132 -1.4945478817 1.4289674723
H 3.5939192071 -0.4853967889 0.6681426913
H -0.046446527 1.3053028478 1.9105702965
H 0.3356355479 3.0493196103 1.4729136983
H 4.0560332791 2.2578156924 0.8294128306
H 3.0662009632 3.6770114422 1.3055742999

