# b3lyp 6-31G(2df,p) opt Freq 

 titel

0 1
C 5.4664258035 0.1597913358 -2.0313352563
C 4.618082155 0.8987399259 -1.0112773284
C 5.3125461102 1.6002854422 0.1750126303
O 4.4825699951 0.910923983 1.1339517916
C 3.9164491401 0.0618194903 0.1011575346
C 2.4676945589 0.0028557775 0.1103300329
C 1.2634781946 -0.0561846638 0.0958943938
C -0.1980903054 -0.0648079755 0.1034740901
O -0.7791944829 1.1053631172 -0.4544145034
H 6.1864315996 -0.5052723656 -1.5417689332
H 4.8431044747 -0.4477110769 -2.6959103343
H 6.0297126077 0.8617482032 -2.6552744428
H 3.9006097209 1.556409529 -1.5071774471
H 6.3738626211 1.3405319797 0.2941409376
H 5.2015345088 2.6878680965 0.2455990848
H 4.3274712396 -0.9563377983 0.1760319192
H -0.5708707659 -0.8997375934 -0.5003792643
H -0.5510475431 -0.2376366508 1.1328747506
H -0.3904235726 1.8618471139 -0.0028504658

