# b3lyp 6-31G(2df,p) opt Freq 

 titel

0 1
O -2.2140500262 -1.925885199 -0.9044604201
C -1.1575836732 -1.5008246383 -0.4937642704
C -0.9668026733 -1.2119380933 0.9944765502
C -0.6989194502 0.2804640911 1.3076392472
C 0.7319094079 0.6836535865 1.0146411197
O 0.9637250939 1.9023099677 0.3019774748
C 1.2700318565 0.6681574603 -0.3536037402
C 0.4189785811 0.2482521045 -1.5347350283
C -0.0019605181 -1.2397434037 -1.4586915963
H -1.8787291099 -1.5471391996 1.4936630085
H -0.1319272582 -1.8154461102 1.3756849462
H -1.3809962295 0.9170389384 0.7362590331
H -0.9173210548 0.4611461413 2.364967428
H 1.4362064129 0.5113688889 1.830550473
H 2.3400771961 0.4853410298 -0.4676500124
H -0.4646555615 0.8906310547 -1.5936532002
H 0.9806800336 0.4064417318 -2.4608856576
H -0.3321388807 -1.5917273834 -2.4386131064
H 0.8642621036 -1.8441365374 -1.1571522387

