# b3lyp 6-31G(2df,p) opt Freq 

 titel

0 1
O 1.6100260534 0.7440192927 -0.1315200418
C 0.2757519619 0.3360581448 0.1305268258
C -0.7489705441 1.1631189365 -0.6557947438
C -2.1707453664 0.7142909426 -0.4046397283
O -2.5280205081 0.847520647 0.9394392318
C -2.7542989215 -0.4280559752 -1.1876332779
C -3.2418981164 0.9994937587 -1.459377132
C -4.5300206389 1.4091989311 -0.9921895678
C -5.5769751237 1.7684271371 -0.515339046
H 1.7261624159 1.6232442626 0.2421419287
H 0.2196502386 -0.7140829066 -0.1755422158
H 0.0399591296 0.376948048 1.2023994598
H -0.6587017283 2.2194457495 -0.3688632893
H -0.5157318187 1.0925071277 -1.7237097694
H -3.4252820665 1.2056395988 0.9826503334
H -2.1616503033 -0.8986149308 -1.9647530199
H -3.4399471517 -1.0841739144 -0.6648098564
H -2.905360296 1.4639775452 -2.3811812364
H -6.522045816 2.0735377746 -0.1389547948

