# b3lyp 6-31G(2df,p) opt Freq 

 titel

0 1
C 0.0142397383 1.5106641093 0.1716734688
C 0.0452261973 0.0058244948 0.0096529523
O -1.2050214013 -0.6537632961 0.4215788089
C -0.4535212757 -1.7057165543 1.11836714
C -0.610703591 -1.9747213397 2.6220537997
C 0.8448744495 -1.809420462 3.1590778957
O 0.7828809314 -1.2972679267 4.4830334899
C 1.461771028 -0.8117272469 2.1658199377
C 0.7557794777 -0.8375947217 1.0431483045
H 0.9798211888 1.9417314315 -0.1134804257
H -0.7563866096 1.943456072 -0.4735631823
H -0.2028158024 1.7790837089 1.2083644403
H 0.2736368691 -0.2710568995 -1.0296821774
H -0.4691630498 -2.6216457073 0.51325041
H -1.2094972381 -1.1786495311 3.0747135744
H -1.0556854882 -2.9403762792 2.8744475769
H 1.3727693815 -2.7764162296 3.1610361461
H 1.6444990372 -1.4159560451 4.8941915472
H 2.2571930174 -0.1331815574 2.4515571729

