# b3lyp 6-31G(2df,p) opt Freq 

 titel

0 1
C -0.0802796661 2.651828776 -0.442384019
C -1.1395364057 1.7346528742 0.16743707
C -2.4553637987 1.7777613437 -0.6547299384
C -3.347729409 2.6813207062 0.1568422824
C -2.8563481274 2.9017975516 1.374743648
C -1.5482783282 2.1859434673 1.5993392145
O -0.6805541814 0.3473616252 0.117821821
C 0.3595944045 -0.0299113354 0.8653122581
O 0.9931890874 0.6473833783 1.6301508797
H 0.8240976601 2.6688496379 0.167103395
H 0.1728784998 2.3212614882 -1.4544251528
H -0.4823142197 3.6678552464 -0.5043061888
H -2.2850799129 2.135724583 -1.6765103781
H -2.8755791362 0.7678034888 -0.7405528545
H -4.2865219197 3.0669058206 -0.2239954651
H -3.3321312386 3.4958281149 2.1469816835
H -0.7776293558 2.805730988 2.065743042
H -1.6839254503 1.3179124988 2.2562810926
H 0.5530304278 -1.097998464 0.6724261899

