# b3lyp 6-31G(2df,p) opt Freq 

 titel

0 1
O -1.143379455 0.6784597265 1.033064844
C -0.4458006519 -0.093303836 0.0642922834
C -0.4762178425 0.6864348026 -1.2477794159
C 0.249482335 0.001420253 -2.3811223057
C 1.1694586184 0.7751048262 -2.951617654
C 1.2441939557 2.1473458533 -2.3348468168
C 0.2513859456 2.0751093309 -1.1495873707
C -0.7536064857 3.2075654605 -1.101514097
O -0.8189225827 4.1158318488 -1.8914822563
H -1.0848448502 0.2318655926 1.8825199086
H 0.6003882565 -0.2642823801 0.3641328491
H -0.9180830949 -1.0783730874 -0.0756580731
H -1.5383015907 0.822385357 -1.5018620323
H 0.0033273105 -1.010615637 -2.685467152
H 1.7890942752 0.4837786836 -3.7930312819
H 2.2593198045 2.4045456033 -2.0110491328
H 0.9367311436 2.9299957496 -3.03885938
H 0.7758092031 2.1073631827 -0.1862747369
H -1.4668383846 3.1294547998 -0.2525865596

