# b3lyp 6-31G(2df,p) opt Freq 

 titel

0 1
O -0.4568456274 -0.4241585287 0.4252393956
C 0.1186507421 0.8241470653 0.0567825855
C -0.4518812717 1.2318934417 -1.2733521006
C 0.372814838 2.0884111402 -2.2030165252
C 0.0881895566 0.6530890589 -2.5752274094
C -1.06276804 0.3965962393 -3.5244130092
C -2.281304282 1.0712192223 -2.8716702824
O -3.3156973283 1.3312468312 -3.4277811931
C -1.9593434587 1.3616783536 -1.4000886738
H -0.2428418498 -0.5952755865 1.3469100199
H -0.1017485129 1.595421449 0.8123923026
H 1.215134891 0.7477177877 -0.0223933957
H -0.1238442252 2.8829732771 -2.7539120163
H 1.384562577 2.3331986175 -1.8965667691
H 0.9099291559 -0.0533542623 -2.5452812503
H -0.9220445996 0.7773168976 -4.540667365
H -1.2765524071 -0.6768727076 -3.6088222603
H -2.3679172537 2.3347218543 -1.109821029
H -2.4492622843 0.5981445794 -0.7831698144

