# b3lyp 6-31G(2df,p) opt Freq 

 titel

0 1
C 1.6386512256 0.1796778221 -0.0143718862
O 0.2250733384 0.0485277689 0.0446830671
C -0.3401536561 0.7071391284 1.1074439464
C -0.4790010848 2.2160492921 1.3410021489
C -1.4947790477 1.7856831358 2.4319015853
O -0.6756956098 1.1371357215 3.4466812797
C -0.5125618574 0.0631014068 2.5106818878
C 0.0591421786 -1.2373927378 2.9564322847
C -1.7150204417 0.4211676809 1.6850833158
H 2.1177627377 -0.2080562128 0.894142491
H 1.9747011438 -0.4002069823 -0.8763668606
H 1.938436859 1.2277038195 -0.1495152357
H 0.3806845053 2.8005594307 1.6826473615
H -0.9736540734 2.7000491736 0.4946087746
H -2.2471943797 2.4584925228 2.8360598453
H 1.0521518144 -1.0927054673 3.3958152792
H -0.5780298277 -1.7163852283 3.7065935023
H 0.1555271688 -1.9100958296 2.0993454541
H -2.5749823631 -0.124514205 1.3221590788

