# b3lyp 6-31G(2df,p) opt Freq 

 titel

0 1
C 1.4021419604 -0.1788475471 -0.0630806846
O 0.0386092916 0.1835610069 -0.0829001059
C -0.4182887811 0.747054779 1.1368956031
C -1.925409597 0.6910719881 1.1783264654
C -2.4885398991 1.8993028044 1.2217581079
C -1.477907837 3.0081101923 1.2468723534
C -1.0489625267 3.5109052565 2.6503286037
O 0.1126158207 2.6573836185 2.6448675508
C -0.1216574163 2.2565461336 1.2757096804
H 1.6094083316 -0.932551474 0.7123589488
H 1.6374319022 -0.6031884575 -1.0421955301
H 2.0634886786 0.6825332274 0.1141115401
H 0.0374245424 0.2173860939 1.9897940394
H -2.4557277815 -0.2539330925 1.1599376344
H -3.5570846705 2.0843609156 1.2596686852
H -1.6454932206 3.7863728585 0.4992919871
H -0.7708855502 4.5722006442 2.6836492783
H -1.7257448476 3.2858532875 3.4825416527
H 0.6749818699 2.5921967746 0.60336275

