# b3lyp 6-31G(2df,p) opt Freq 

 titel

0 1
C 0.0765657103 0.359064908 0.0964059773
C 1.0456180986 -0.792909863 0.0376506987
O 2.2659520552 -0.6640814186 0.7955623421
C 2.3528319168 -0.7464933464 -0.6208050818
C 3.0559959715 -1.8740169863 -1.4117904155
C 3.6153195584 -0.7980338743 -2.3531128584
C 4.4591789281 0.165810144 -1.5554885161
C 2.9600107285 0.3095771954 -1.5191831302
O 2.315210802 1.4535686365 -1.9566167745
H -0.4296754912 0.3767420621 1.0674961255
H 0.5872000864 1.3097888634 -0.0580462996
H -0.6875211135 0.2515380544 -0.6807862776
H 0.5873979479 -1.7809584023 0.1308772053
H 3.8005178304 -2.4467295894 -0.8505212936
H 2.3514457919 -2.5623017356 -1.8853834715
H 3.6856505318 -0.871347911 -3.4299185346
H 5.0175590893 -0.1710680704 -0.685288527
H 4.9515721866 0.9328231694 -2.1459160012
H 2.676727791 2.206732384 -1.4774762575

