# b3lyp 6-31G(2df,p) opt Freq 

 titel

0 1
C 1.1693299609 1.5594148647 -0.2532532109
C -0.3334728431 1.4895829333 0.1372765381
C -0.2420994116 -0.0522235135 0.0745267299
C 1.3104747249 0.066587072 0.1536877753
O -0.921706683 -0.7249834687 1.1255946324
C -1.3915219709 -2.0009459356 0.6999942997
C -1.4499551046 -1.9268042928 -0.8087166284
O -2.1598962572 -0.776103465 -1.2797222799
C -0.731170462 -0.7129564493 -1.1961795895
H 1.3119732345 1.7108441532 -1.3266689084
H 1.7899275212 2.2804339364 0.2812808884
H -0.5021782749 1.8055900848 1.16959578
H -1.0705188384 1.9708903741 -0.5089194519
H 1.6329442665 -0.0468566944 1.1915571933
H 1.9110749251 -0.5916063562 -0.4810549613
H -0.7083431394 -2.8089968302 1.0064065086
H -2.3677601184 -2.1752785975 1.1649067275
H -1.513376906 -2.8229780082 -1.4196311443
H -0.1960868435 -0.5927540469 -2.1342461986

