# b3lyp 6-31G(2df,p) opt Freq 

 titel

0 1
C 3.6052310175 -0.7263662176 2.6200348226
C 2.9511230283 -0.5291989766 1.2918262554
O 3.3159462753 -1.3957857029 0.2132165513
C 1.9282888743 -1.2991833679 0.5461835296
C 1.3641601388 0.0099638053 -0.0932683274
C -0.1196972746 0.2339736655 0.0139625251
O 1.9259620032 0.3481622561 -1.3773749342
C 2.9868829619 1.1240003669 -0.7625362479
C 2.4675219516 0.8054792139 0.6551414187
H 3.6606960408 -1.790900539 2.8625442362
H 4.6247113711 -0.3237979549 2.6148475619
H 3.0464348061 -0.2131991694 3.4093841674
H 1.4113692911 -2.2272183831 0.7736620055
H -0.4768025184 0.0073861642 1.0243767314
H -0.3774365948 1.2691886019 -0.2260157956
H -0.6482197894 -0.4214194882 -0.6876819601
H 3.9771148073 0.7348941396 -1.0143787738
H 2.9124984125 2.1809426821 -1.0436654691
H 2.2342172873 1.6212687842 1.338069813

