# b3lyp 6-31G(2df,p) opt Freq 

 titel

0 1
C 1.4233774003 0.712076084 0.6880230802
C 0.1079245865 0.1300401227 0.2850202471
C -0.1310374625 -1.0960519974 -0.1940309292
C -1.5917873294 -1.3734579923 -0.4516794493
C -2.2442121397 -0.1519352923 0.1903454656
O -3.3756711129 -0.0384381597 0.5884265003
C -1.1717721573 0.9402449619 0.3840694219
C -1.2977644421 2.0072504833 -0.72024769
O -1.3150751846 1.5417076609 1.660538173
H 1.3807329992 1.0547360942 1.7276663488
H 2.2305096271 -0.0189641126 0.5913618373
H 1.6797045242 1.5873048227 0.0784570939
H 0.6380669053 -1.8389408333 -0.3769193076
H -1.8460183977 -1.4199768152 -1.520515374
H -1.9702507117 -2.2985352432 -0.0024510733
H -0.5358735594 2.7778023467 -0.5743500655
H -1.1743610084 1.5771398044 -1.7194027981
H -2.283056608 2.4803245574 -0.6611786828
H -2.2629767389 1.5280454477 1.8542367615

