# b3lyp 6-31G(2df,p) opt Freq 

 titel

0 1
O -1.6809785069 -1.993138967 3.3086787162
C -1.1830100849 -0.8454921084 2.6489655597
C -0.3520463724 0.0487756035 3.5760982153
C 0.1280998779 1.3034089108 2.8425741796
O -0.9597570742 2.0260807129 2.2912935316
C -1.6782521685 1.2651477223 1.3465082659
C -2.3011220896 -0.0037820016 1.9835293664
C -3.0554097745 -0.7579637212 0.9924343569
C -3.6567639401 -1.3495474372 0.1361207262
H -2.2598430545 -1.7008209578 4.0216964036
H -0.5396353253 -1.2391811654 1.8525024964
H -0.9699451675 0.3524627501 4.4322714296
H 0.4987610556 -0.5186431902 3.9673526523
H 0.6399221193 1.9885403925 3.5236357119
H 0.8389880304 1.0253515627 2.0456301531
H -2.4642524582 1.9108416509 0.948532715
H -1.0280361474 0.9620106057 0.5092470746
H -2.9807373035 0.3349523388 2.7799023121
H -4.1958690958 -1.8854844413 -0.6052336062

