# b3lyp 6-31G(2df,p) opt Freq 

 titel

0 1
O 2.0820667302 2.686322732 0.0425411169
C 1.2969341469 2.1115353517 0.7487249709
C -0.0831774143 1.6131809786 0.3099785237
C -1.143066995 1.9481355266 1.3980680407
C -2.3367158691 2.5224715537 0.6148150627
C -1.685040566 3.2387953464 -0.578597211
C -0.5562064559 2.2861152434 -1.0102250912
C 0.074194509 0.1037025146 0.1038608888
O -0.2990328661 -0.7424898576 0.872063463
H 1.529995241 1.8906006517 1.8132928444
H -1.3876897419 1.0594786443 1.9835266332
H -0.7469765664 2.6996904366 2.091693232
H -2.9719341806 1.7042844617 0.2545899152
H -2.9638175242 3.1781811071 1.2246352093
H -2.3854339082 3.4558961655 -1.3894045145
H -1.2584465859 4.1941574055 -0.249973821
H -0.9426761536 1.5282911676 -1.7024480032
H 0.2770874798 2.7877348213 -1.5065331506
H 0.5832203305 -0.1627732804 -0.8481407895

