# b3lyp 6-31G(2df,p) opt Freq 

 titel

0 1
C -0.0215963558 1.5944640238 -0.0434933068
C -0.0029029858 0.0716765773 0.028898497
O -1.3044366414 -0.5384909585 0.0614619157
C -2.1520773982 -0.2277726395 1.1611874476
C -1.4335482136 -0.0639407502 2.4787706969
C -0.1263679958 -0.2588573284 2.4851151648
C 1.1295004169 0.1890678716 3.1864632351
O 1.8045688307 0.2273002668 1.8925924307
C 0.7081714791 -0.4986649414 1.2641327728
H 0.9995304044 1.9685610532 -0.1568188968
H -0.6132619205 1.9181475407 -0.9043923542
H -0.4418632446 2.0450815455 0.8595366761
H 0.4364432632 -0.3231543208 -0.8924061428
H -2.713413306 0.7020413388 0.96410639
H -2.8909766619 -1.037917639 1.1921223755
H -1.9950274703 0.3251902656 3.3233928277
H 1.1103697861 1.1672376068 3.6803571769
H 1.59779658 -0.5463647994 3.8552986355
H 0.9992018334 -1.541093453 1.0799663383

