# b3lyp 6-31G(2df,p) opt Freq 

 titel

0 1
C 1.594791048 -0.4981127636 -0.1145209136
C 0.1657815545 -0.2369449845 -0.0170109378
C -1.0161722871 -0.0254076627 0.0663675477
C -2.4457829466 0.2483012685 0.1522830865
C -2.793579439 1.737223627 0.0175653411
C -4.2947744238 1.9967175719 -0.0043233051
O -2.205096054 2.3943628674 1.1711690814
C -1.8319056272 3.6702887986 1.0200563898
O -1.9552815959 4.3412485824 0.0313285919
H 1.9951442475 -0.8836110125 0.8296748294
H 1.8134337058 -1.2369115687 -0.8934907641
H 2.1487028221 0.4146360622 -0.3603009024
H -2.979976039 -0.2929747281 -0.6389706613
H -2.8485677014 -0.1181808886 1.1053197603
H -2.3249900832 2.1541245677 -0.8768316324
H -4.7669549713 1.6252705692 0.9106182696
H -4.4912850136 3.0672137818 -0.0944982932
H -4.7525536822 1.4920789611 -0.8606628055
H -1.3842209535 4.0174437208 1.9645663175

