# b3lyp 6-31G(2df,p) opt Freq 

 titel

0 1
C 1.9285654844 -0.1875350077 1.1837795078
C 1.401670536 0.3441742927 -0.1532787219
C 1.9743683216 -0.4123496449 -1.3342539666
O 3.439509069 -0.3329042219 -1.4400041567
C 3.3536987513 0.0545365909 -2.7965988849
C 2.6681672124 1.3504745454 -2.9819155215
C 1.8082407721 0.1075778826 -2.7630976453
C 0.8420675331 -0.3982925867 -3.7371637711
O -0.0347813862 -1.1897684034 -3.4737496673
H 1.6635913524 -1.2411985198 1.3226348945
H 3.0184250289 -0.1071827361 1.2263030715
H 1.510692359 0.3764065804 2.0224863212
H 0.309620946 0.2481591727 -0.2011745643
H 1.6324529598 1.4110647476 -0.2485330981
H 1.68980034 -1.4697792313 -1.2910303689
H 4.0187384822 -0.4172980862 -3.5113172891
H 2.7213815579 2.1122186453 -2.210698914
H 2.64002589 1.72433743 -4.001800617
H 0.97211373 -0.0019015395 -4.7706053382

