# b3lyp 6-31G(2df,p) opt Freq 

 titel

0 1
C 2.8636487577 1.4576159369 -0.1153216663
C 2.0425109244 0.1819804997 0.1046226957
C 1.8309631136 -0.6058023637 -1.1846141332
C 0.943882001 -1.9075364791 -1.1775586546
C 0.2678394509 -1.4449837227 -2.5101982474
C 0.8704441043 -0.056225336 -2.2540972151
O 0.5974203636 1.0472476526 -2.6262408382
C 1.7028174161 -3.2015902896 -1.2387174265
O 1.6136151495 -4.1026812966 -0.4466126768
H 2.978890673 2.0121636382 0.8205145483
H 3.8662380792 1.2221041558 -0.4893051608
H 2.3761724886 2.1097917592 -0.8445573247
H 2.5362395713 -0.4666898824 0.8385218647
H 1.0637860974 0.43946551 0.5277620603
H 2.7976044057 -0.8250634365 -1.6633609013
H 0.2494325325 -1.92387897 -0.3355145334
H 0.7206186415 -1.9174845164 -3.3905965637
H -0.8183255315 -1.5174421123 -2.5903884888
H 2.398168131 -3.2678092871 -2.112297238

