# b3lyp 6-31G(2df,p) opt Freq 

 titel

0 1
O 1.1776955445 0.6713157564 0.3109218565
C 0.135998328 -0.1685572934 -0.159635933
C -1.0040775582 0.6445563672 -0.7349492458
C -0.6798183744 1.4994712584 -1.9451346658
C -1.8873860303 2.0603084482 -2.641375102
C -3.1421663912 1.7007990735 -2.3848659483
C -3.5338093221 0.6792635894 -1.353328511
C -2.3968564808 0.2665140894 -0.4470175969
O -1.7631351404 1.3174490396 0.2941123608
H 0.7808474898 1.2520102229 0.9708503025
H 0.5822131878 -0.8088519976 -0.9283076929
H -0.2506055482 -0.8164901464 0.6411544702
H -0.0038040009 2.30581573 -1.6336451778
H -0.0937277944 0.894131259 -2.6523722094
H -1.690902635 2.8028223992 -3.4107613008
H -3.9560515591 2.1536059659 -2.9451325447
H -4.3591551462 1.0599099911 -0.7353613249
H -3.9303007406 -0.2213227454 -1.8455337232
H -2.5747408783 -0.6369893976 0.1389850564

