# b3lyp 6-31G(2df,p) opt Freq 

 titel

0 1
C 1.7812727276 0.1769334126 3.2640882439
C 0.2913883824 0.1753140702 3.640682393
C -0.0068938955 -0.8054218765 4.7864966376
C -0.5700248235 -0.1359391635 2.452294036
O -1.9561081238 0.2055611543 2.4740931234
C -1.1616401662 0.6672309746 1.3789054833
C -0.9877905523 -0.5341270213 0.366621742
O -1.6903925971 -1.6603705336 0.8859249083
C -0.4082590823 -1.3522335761 1.4296112092
H 2.3938165947 0.4516728074 4.1281052975
H 2.1098108856 -0.8142491566 2.9323136084
H 1.9909056397 0.8890055348 2.4597838469
H 0.0119080165 1.1843229542 3.9688963681
H 0.2440445907 -1.8331145366 4.5002329289
H 0.5806802094 -0.5533648258 5.6747454025
H -1.066436015 -0.7799297042 5.0553003956
H -1.1363473037 1.7296112331 1.1684017047
H -0.7893418003 -0.487221477 -0.6966479583
H 0.3586718833 -2.11639769 1.4080638991

