# b3lyp 6-31G(2df,p) opt Freq 

 titel

0 1
O 0.5545877131 -1.0561333959 0.4809056926
C 0.6424614504 0.0703346379 0.0648858021
C 0.3165947593 1.3028453679 0.8701115438
C -0.9515147258 2.0854255354 0.4322139152
C -0.0383738691 3.2929373813 0.7103177381
C -0.0735296919 3.6846185634 2.1927930309
C 0.5513192069 2.5409618997 3.0322000817
C 0.3513689097 1.14324305 2.3951786254
O 1.1311515143 2.4467888213 0.4702451336
H 0.9525972439 0.2969913283 -0.9797964651
H -1.1675224792 1.9643965176 -0.6316742146
H -1.8573387088 1.9546898456 1.0270906823
H -0.0735720058 4.1441658491 0.0262054721
H 0.4861435389 4.6102710762 2.3600617537
H -1.1121084492 3.8864557218 2.4816944242
H 1.6261646599 2.7258545211 3.0925999199
H 0.171825771 2.5570249134 4.0575417477
H 1.1624541372 0.4715700198 2.6902010088
H -0.5791903249 0.6688595161 2.7233679176

