# b3lyp 6-31G(2df,p) opt Freq 

 titel

0 1
C -3.1562271744 -1.6127141674 -0.051677146
C -2.0640603882 -0.731632337 -0.6357530563
O -0.7981212942 -1.0673673315 -0.0201983524
C -0.0418296273 0.0458944678 0.2163849426
O 1.1179609945 -0.0175046093 0.5092441196
C -0.884491929 1.2784078806 0.0496322162
C -0.1933561193 2.5537550613 -0.3570958602
C -2.0915344993 1.2686843961 0.9754248582
C -2.2222057207 0.7691710875 -0.4328422374
H -3.2922617761 -1.4175793188 1.0153163167
H -4.1039514185 -1.4179515536 -0.5633807976
H -2.9045118112 -2.6683922144 -0.1820460802
H -1.9615295574 -0.9419754507 -1.7087422026
H 0.5887916664 2.8039053467 0.3655167271
H 0.2818346412 2.4544708351 -1.3382303049
H -0.9016809906 3.3858376834 -0.4027435786
H -2.1190964015 0.5652593795 1.8010673103
H -2.5194108467 2.2402616602 1.1976390123
H -2.8161542878 1.3239895945 -1.1493441569

