# b3lyp 6-31G(2df,p) opt Freq 

 titel

0 1
O 4.5751368589 0.5215359307 -1.1993874226
C 3.1584249339 0.638702749 -1.1858837617
C 2.6493133164 0.014826683 -2.4833254677
C 3.1444270039 0.7647016259 -3.7303779028
C 2.819573357 0.023526188 -5.0045150313
O 2.2374240826 0.4882889709 -5.9504776531
C 2.5837468694 -0.0650581828 0.067838643
C 1.1433111508 0.091819359 0.2137126143
C -0.0448587306 0.2474277541 0.3094950558
H 4.9351263527 1.0677527151 -0.4938134922
H 2.8582134064 1.6974560673 -1.1549631253
H 2.9938965385 -1.0273442019 -2.5159750451
H 1.5554660779 -0.0049383696 -2.4588645966
H 2.7220788148 1.7720520566 -3.7933861785
H 4.2372667445 0.8512452946 -3.66366158
H 3.1726503787 -1.0357362261 -5.0160478566
H 2.853514236 -1.1274785044 0.0224616461
H 3.0870871112 0.3431432622 0.9544763443
H -1.095094553 0.373864128 0.4027779999

