# b3lyp 6-31G(2df,p) opt Freq 

 titel

0 1
O 1.2405433843 0.7783705799 -0.0787281832
C 0.2576341346 -0.0690384868 0.4992008099
C -0.9733018424 0.6910238949 0.9744372367
C -0.7379212124 1.5130611374 2.2487421734
C -2.0715484378 1.6072914019 2.9952685134
C -1.1876161932 0.3817363777 3.14175179
C -1.937047831 -0.1591656865 1.8497080554
C -3.100981933 0.8183712559 2.186372771
O -4.1388727254 0.2643148871 2.9624384997
H 1.5714892637 1.3583544551 0.6140304227
H -0.025620029 -0.7720499881 -0.2917043076
H 0.6755958596 -0.6593652295 1.330697591
H -1.4291728616 1.2124886988 0.1231521016
H 0.0432063029 2.2390985619 2.4458640678
H -2.2584065265 2.390610019 3.7198106371
H -0.7250675446 -0.0827720038 3.9999884315
H -2.1584421671 -1.1981124663 1.6092169208
H -3.5945679874 1.3068020818 1.3395684785
H -3.7433936337 -0.0829957703 3.7712674602

