# b3lyp 6-31G(2df,p) opt Freq 

 titel

0 1
C -1.0033669261 -2.2384555025 1.0176426484
C -0.9041323931 -1.0388001032 0.0881258064
C -0.0508536403 0.1529223279 0.5622051465
O 0.821626944 0.266500418 1.3781994838
C -1.0346371518 1.1812183393 -0.0181235572
O -1.277163322 2.3517007484 0.7022818215
C -2.0456750136 0.0022647814 -0.0108407266
C -3.3657267861 -0.0679867412 -0.7062089297
C -3.3028703659 0.0245681333 0.804490651
H -1.746262492 -2.9581747913 0.658865717
H -0.0395497803 -2.7516898828 1.0809545421
H -1.2837608877 -1.9294326574 2.0286435443
H -0.5906048025 -1.3505492094 -0.916940247
H -0.7786481479 1.457167991 -1.0494393526
H -0.941337039 2.2181689582 1.5968604166
H -3.6977307148 0.8052236377 -1.2592849103
H -3.6647991894 -1.0158117073 -1.1433251691
H -3.5696343474 0.9698656143 1.2658202338
H -3.569045374 -0.8556901943 1.3802252211

