# b3lyp 6-31G(2df,p) opt Freq 

 titel

0 1
O 0.1069156791 1.4207818357 -0.096227038
C 0.0576265307 0.005115093 -0.0258629497
C -1.3881162534 -0.5803787331 0.0507229901
C -1.2264072839 -1.8489730353 0.8932035474
O -2.226264303 -2.0868254575 1.8810643644
C -1.588175725 -2.8320710323 2.9207134288
C -0.0823277715 -2.4026660816 2.9575330449
C 0.0130303731 -1.5834841468 1.7062621501
C 0.723111316 -0.5727040409 1.2149641303
H -0.2896769142 1.7620425386 0.7135686384
H 0.5604953219 -0.320698057 -0.9453375402
H -2.0168692357 0.122072089 0.609028767
H -1.840597795 -0.7404795486 -0.9301257095
H -1.1174255405 -2.7450954681 0.2560730623
H -2.1173435957 -2.6191365799 3.8528410909
H -1.6689804719 -3.9107050512 2.7193620832
H 0.1639404518 -1.8200488109 3.8494184837
H 0.5757969471 -3.2781471646 2.9479829555
H 1.63571364 -0.1471592287 1.6177473404

