# b3lyp 6-31G(2df,p) opt Freq 

 titel

0 1
C -1.8991563434 -1.2945925577 -1.5798466087
C -1.1364202629 -0.0930474817 -2.1064834302
O -1.6045249217 0.6407885309 -2.9573653606
C 0.2078114225 0.1363777969 -1.5137272681
C 1.1916767072 0.9375817316 -2.370782906
C 2.5104986698 1.019159982 -1.6217983809
O 1.8356967611 1.5460617865 -0.4430393613
C 0.5978683532 1.5815315464 -1.1590456529
C -0.3319821164 2.7164553198 -0.894302829
H -2.0083777657 -1.2302544988 -0.4912512361
H -2.8819180674 -1.3442569151 -2.0497332378
H -1.3437954154 -2.2163887806 -1.7883725867
H 0.5935283325 -0.6399373546 -0.8579969801
H 0.9947078049 1.1055350916 -3.4202033114
H 3.0467384364 0.0859665689 -1.4153363097
H 3.2016006891 1.7652079883 -2.0287831808
H -0.6569879921 2.7058689966 0.1519134361
H 0.1714665582 3.6694490115 -1.0830939691
H -1.2075313598 2.6440980478 -1.5410512167

