# b3lyp 6-31G(2df,p) opt Freq 

 titel

0 1
C -0.0147915032 0.0481366373 0.0092396672
C 1.5069876349 0.0461708518 0.0241870964
C 2.146075924 -1.0139214491 0.9680294534
O 1.8951707718 -2.0166548923 -0.0667985127
C 2.1655507754 -0.9234563288 -1.000123298
C 3.7266575391 -0.6849155979 -0.9751131949
C 4.3543808917 -1.7395610942 -0.029725928
C 3.7071579928 -0.7755128301 0.995837848
O 3.9888819226 0.3150675667 0.0611010672
H -0.4094391879 0.5285460415 0.9113729375
H -0.3920252042 0.6102231366 -0.8522296537
H -0.4122761394 -0.9686204255 -0.0417483563
H 1.9139532691 1.0535514358 0.074513575
H 1.7004861599 -1.277255302 1.9300911292
H 1.7392850823 -1.0970249915 -1.9908948489
H 4.1689427971 -0.4231432399 -1.9379188383
H 4.0302684312 -2.7753521158 -0.080543352
H 5.4400863373 -1.6437934493 -0.0145818663
H 4.1301067957 -0.6035632432 1.9871417552

