# b3lyp 6-31G(2df,p) opt Freq 

 titel

0 1
C -3.4148687611 1.6063923339 0.1528556706
C -2.2763884844 0.7385811788 -0.3266297082
C -1.5049980407 1.1143349154 -1.54863988
C -0.8137918579 1.1551424354 -0.1866114778
C -0.0241582146 -0.0645203799 0.1477336508
O 1.0838436043 -0.0999482258 0.6211050098
C -0.907201296 -1.2864005832 -0.1622207166
C -2.3545218371 -0.767779131 -0.0480168141
O -2.8458978077 -0.9054084984 1.280407804
H -3.570943953 1.4864142782 1.2267308291
H -3.2146481441 2.6612696863 -0.0577963121
H -4.3482126363 1.336275688 -0.3549004519
H -1.2012042758 0.3641575503 -2.2714246339
H -1.72450388 2.0821899107 -1.9860942614
H -0.5006732001 2.1080304832 0.2208297414
H -0.6774682765 -1.6580374046 -1.1673726676
H -0.6955819459 -2.0966008374 0.5389044904
H -3.0340987556 -1.2630255428 -0.7583827918
H -2.8862669776 -1.8438150771 1.4883119993

