# b3lyp 6-31G(2df,p) opt Freq 

 titel

0 1
C -0.05531893 0.2054271409 0.5238804438
C 1.1580807915 -0.2428356188 -0.2921952322
O 1.5316927537 -1.5276998007 0.2011528253
C 2.2692449398 0.7129210179 -0.2114875509
C 3.2051306128 1.4722462238 -0.1724033544
C 4.3356960025 2.3872920965 -0.0582803091
C 3.8818459016 3.8669457441 -0.0243591883
C 5.1090177746 2.0829886021 1.2296793784
O 6.3004580177 1.9457834614 1.283537235
H 0.2193069028 0.3090483108 1.5763751092
H -0.4314124158 1.1637565487 0.1577343698
H -0.8449567773 -0.5454759379 0.4384581533
H 0.8562245699 -0.3208868357 -1.3500926247
H 2.370028853 -1.767641327 -0.2071025123
H 5.0365874781 2.2423050721 -0.8878461652
H 3.2471201167 4.0583025046 0.8458985093
H 4.7521632825 4.5272150789 0.0216013098
H 3.305892056 4.1025904282 -0.9221598338
H 4.4645822698 2.01952487 2.1347214569

