# b3lyp 6-31G(2df,p) opt Freq 

 titel

0 1
C 0.5467935101 1.0542979383 0.2121619497
C 1.0756657686 -0.3650105156 0.1262934082
O 1.9182782626 -0.6332277887 1.2544176677
C 2.8497368273 -1.6203702039 0.9031945063
C 4.1076613229 -1.1272659495 0.2421488878
C 2.9664871435 -1.6736676842 -0.5941651516
C 1.9492536333 -0.6643895313 -1.1319193357
C 1.1007839517 -1.2385475638 -2.2432202905
O 0.7775267244 -0.6466490268 -3.2397767163
H -0.0396651303 1.1900974668 1.124710916
H 1.3742501519 1.7698337547 0.2226039216
H -0.0932552779 1.2712733645 -0.6483711359
H 0.231273548 -1.0759020861 0.1452427892
H 2.8476556792 -2.5004263427 1.5384405528
H 4.2783929908 -0.0560355754 0.244549536
H 5.0015168168 -1.7373624134 0.3209050525
H 3.1056434997 -2.6101252832 -1.1232040254
H 2.4158588092 0.2546149057 -1.4999050965
H 0.7595604181 -2.2855974254 -2.0593096858

