# b3lyp 6-31G(2df,p) opt Freq 

 titel

0 1
C 6.2741773846 2.7457935652 2.1947191811
C 4.7976392612 2.5726939754 1.8830376353
O 3.9788015038 3.4116779881 2.1825970918
C 4.4107630271 1.2787973858 1.1791240079
C 2.9506359973 1.2335049505 0.7354616951
C 2.5390087429 -0.1693411568 0.250632283
O 2.7525041885 -1.161083149 1.2560413658
C 1.1535798823 -0.1786271588 -0.2267384293
C 0.0024693072 -0.1733026428 -0.5732478956
H 6.8419793795 2.8445144947 1.2620428946
H 6.4235548154 3.6382720899 2.8034501385
H 6.669394035 1.8662694386 2.7142607242
H 5.0926597205 1.1216299619 0.3319662508
H 4.6141153169 0.4470493271 1.8669628886
H 2.3034782517 1.5317044966 1.5666849738
H 2.7683934005 1.957523461 -0.0653882669
H 3.1993997695 -0.4699351272 -0.5731425046
H 2.0521424152 -1.0600751818 1.910744537
H -1.0097684892 -0.1772588082 -0.8951251011

