# b3lyp 6-31G(2df,p) opt Freq 

 titel

0 1
O 4.6187758909 -1.1053613959 -1.2132535416
C 3.3294945255 -0.576738455 -0.8913129041
C 3.0838531349 0.8308789421 -1.52032803
C 3.2288350227 1.8595611613 -0.3704246443
C 3.2008880663 1.0016716769 0.8708910508
C 3.2203871742 -0.3016878154 0.5962215063
C 2.3053812894 -1.5932768605 -1.3638631859
C 2.6296402496 -2.9989196704 -1.6268968277
O 2.4235019854 -2.0731207542 -2.6999808297
H 5.2688597323 -0.5745768176 -0.7420929616
H 3.782225792 0.9902774464 -2.3438527894
H 2.0746890964 0.8792316557 -1.9390761006
H 4.1623172334 2.435435207 -0.427443656
H 2.4213631293 2.6005872053 -0.375740195
H 3.1862378525 1.4259433027 1.8697364541
H 3.2295265252 -1.1073953004 1.3221018694
H 1.2852416535 -1.3415090586 -1.0676769109
H 3.6552778897 -3.333291802 -1.5017136811
H 1.8569191369 -3.7583364373 -1.5124101728

