# b3lyp 6-31G(2df,p) opt Freq 

 titel

0 1
C 0.0470040224 0.2497479788 0.2164971406
C 1.5460337522 0.0327313947 0.0813056093
C 2.2331576621 -0.1440400359 1.4265477704
O 1.8153504038 -1.1042318045 -0.7889471863
C 2.5394502534 -0.3086984068 -1.7353139497
C 2.3187287966 0.9897561637 -0.9285606911
O 3.5594165557 1.4971322719 -0.4712311831
C 1.5330930207 2.0382506972 -1.5623485969
C 0.9101426599 2.9377049908 -2.0619084921
H -0.3999279901 -0.6077353113 0.7295149266
H -0.1679695793 1.1515925199 0.7986232704
H -0.4264968461 0.3504180721 -0.7622994495
H 1.8331812099 -1.0372220346 1.916603515
H 3.3107409966 -0.2594558758 1.3053318544
H 2.0473282687 0.7155190542 2.0795759357
H 3.6007565498 -0.5765606467 -1.7938066342
H 2.0923982195 -0.3306589597 -2.7345995139
H 3.4041231475 2.3657314103 -0.0844755375
H 0.3559460066 3.7234735416 -2.513618848

