# b3lyp 6-31G(2df,p) opt Freq 

 titel

0 1
C -3.8392052705 1.0026193802 0.4595474468
C -2.7446508378 2.0242791472 0.2627776338
O -3.0443858372 2.9786334574 -0.7256071123
C -1.866897259 2.5644376689 1.4032058472
C -1.714223088 1.7303774501 2.6221567037
C -1.1532604697 0.5436058846 2.3585995416
C -0.7603307718 0.4139745411 0.9009697587
O 0.641662826 0.23676694 0.7182565441
C -1.2800157494 1.7139786513 0.2737267178
H -3.605027546 0.2937093216 1.2546951141
H -4.7799938672 1.50164569 0.7250513568
H -4.0054706191 0.4485497086 -0.4698133216
H -3.8572259604 3.4261063089 -0.4639012887
H -1.7425735468 3.6411296591 1.441477419
H -2.0617800935 2.0521481385 3.5981891839
H -0.9784256465 -0.2541463802 3.0711163692
H -1.2072173341 -0.4704603412 0.4314727111
H 1.0790291698 0.9291020958 1.226801617
H -0.6868692086 2.157673298 -0.5172150223

