# b3lyp 6-31G(2df,p) opt Freq 

 titel

0 1
O 1.0975255658 -3.8566580596 0.5451876082
C 1.2802191939 -2.6747747187 0.3671956692
C 2.0085968083 -2.149818788 -0.8653789096
C 3.3984115621 -1.5648047184 -0.5527937747
O 3.4568293863 -0.7739483239 0.6207075384
C 2.4699406643 0.2362821032 0.7311993734
C 1.2375763555 -0.246828028 1.4825181163
C 1.4251890701 -1.2491662166 2.5901785624
C 0.7042463756 -1.6494438836 1.3184551376
H 2.1216708149 -2.9712289686 -1.5779143559
H 1.3776803066 -1.3804913396 -1.326651087
H 4.1093633254 -2.3782159427 -0.3812360813
H 3.7494343709 -0.9880069858 -1.4226842406
H 2.9305529997 1.0574985909 1.2931073575
H 2.1999527448 0.6341930214 -0.2589830908
H 0.4971861849 0.5343810971 1.6366640548
H 2.4295306766 -1.6312723487 2.7304769135
H 0.8348892071 -1.1612164554 3.4947671335
H -0.3687926229 -1.783417975 1.427222975

