# b3lyp 6-31G(2df,p) opt Freq 

 titel

0 1
C 1.0616624388 -0.7400923452 -0.9233872784
C 0.9348720433 0.2546732555 0.2359456993
C 1.4017086426 -0.3447026281 1.5968869835
C 2.799088473 0.1915650203 1.8155726943
O 3.6671124505 0.0326239482 0.6781794292
C 3.0494400729 1.3032833343 0.8918121437
C 1.8114412659 1.520168565 0.0247117937
C 1.1376026637 2.8233367629 0.4165715675
O 0.0103000853 2.9306632772 0.825608198
H 0.4350821712 -1.6206967714 -0.7463120356
H 0.7364891353 -0.2873174982 -1.8665534154
H 2.0961416012 -1.0734317727 -1.0398861796
H -0.106716549 0.5739445771 0.3203834462
H 0.7625134228 -0.0028900426 2.4190969736
H 1.3735960225 -1.4391212386 1.5929831805
H 3.2895259846 0.1103215948 2.7823632568
H 3.7282550554 2.1259266766 1.1071864471
H 2.1162766003 1.6394382774 -1.0258226388
H 1.7843345698 3.7236155876 0.2955017545

