# b3lyp 6-31G(2df,p) opt Freq 

 titel

0 1
C 4.4288788209 -1.9712319194 2.2155688865
C 4.7160209467 -1.2861966223 0.8998687581
C 6.0557254777 -0.7447003263 0.6093054992
O 4.9740999386 0.1227934129 0.9617790865
C 3.8390579178 -1.6775094265 -0.2413681338
C 3.5638733786 -0.8817278397 -1.473971397
C 2.4051765603 -1.3466481021 -0.6087217553
C 2.239158247 -2.8519683841 -0.7679047893
O 3.6498586251 -3.07996483 -0.4868252612
H 4.5043674467 -3.0553578026 2.0968893667
H 5.1322615398 -1.6423421166 2.9838905649
H 3.4135174477 -1.7371256317 2.5522659364
H 6.8408853739 -0.8352499532 1.3584767071
H 6.3944642643 -0.6710377139 -0.4224188786
H 3.7832028731 0.1768693112 -1.3889482958
H 3.7373421154 -1.328960165 -2.4494816111
H 1.6999265371 -0.6663263944 -0.1518088939
H 1.6166577962 -3.3139485173 0.0062920017
H 1.9480927131 -3.2332929689 -1.7539141111

