# b3lyp 6-31G(2df,p) opt Freq 

 titel

0 1
C 0.0535959409 -0.2772144949 -0.0721610181
C 1.5387853154 0.0845049825 0.0152589745
C 2.2493093598 -0.5472712035 1.2573736191
C 2.8037477116 -1.91583652 0.7914588708
C 3.0471252239 -1.7214295064 -0.6886966463
O 3.734984147 -0.5001498563 -0.9998443575
C 2.3103964865 -0.5392544855 -1.1515208067
C 1.7426719238 1.590204211 0.0238685745
O 0.8586329665 2.4084434168 0.0333683923
H -0.5008194763 0.1934072711 0.7431769465
H -0.3850159915 0.0774032962 -1.0094814074
H -0.0890572517 -1.3605802147 -0.0141578872
H 3.0784171483 0.0912570819 1.5735675768
H 1.5616172263 -0.633065331 2.1016536637
H 3.7086569715 -2.2012306668 1.3360596741
H 2.070150736 -2.7186286154 0.9300527731
H 3.2752004061 -2.5605149484 -1.3407967921
H 1.9409206529 -0.4218406184 -2.1676582185
H 2.812903213 1.8946424718 0.0228110684

