# b3lyp 6-31G(2df,p) opt Freq 

 titel

0 1
O 0.1289351511 0.0920439958 1.0793712063
C -0.6215448833 1.2309950478 0.8401867227
C -2.0536024205 1.1909571816 0.3964914464
C -1.7044576313 1.8220945526 1.7298151003
C -1.1528486638 3.2324565081 1.4904539088
O -0.5271169471 3.8268547778 2.6064074117
C 0.7447362994 3.2083873867 2.7863236618
C 1.261081114 2.9179182838 1.3685111538
C -0.0183674847 2.6211124825 0.5783643446
H 0.2812307631 -0.3548207237 0.2392346774
H -2.4086932216 1.8002428856 -0.4332497168
H -2.5232549987 0.2155362218 0.4774615722
H -2.1183959141 1.4590895229 2.6625805735
H -1.8474433734 3.9626957198 1.0655412315
H 1.3722870091 3.9019592587 3.3516992246
H 0.6482859437 2.2779809127 3.3639810281
H 1.7567351777 3.8007049354 0.9545001078
H 1.9640638289 2.0812589857 1.3466425637
H 0.0392602115 2.9341145943 -0.4683349183

