# b3lyp 6-31G(2df,p) opt Freq 

 titel

0 1
O 0.8601381738 0.8768719237 0.5191527751
C -0.5304261444 0.6774763784 0.5443004586
C -1.2396668173 0.2779856323 1.879499077
C -2.5180016435 0.9124969587 1.2596216417
C -1.3706540623 1.9156662374 0.9362725718
C -0.8913735575 1.6993684572 2.3994802694
C 0.449557076 2.1492634748 2.9956668596
O -0.2215533579 2.7412081324 4.1316259114
C -1.5201547341 2.3596790364 3.6386348021
H 1.2882176215 0.0197418809 0.4304937616
H -0.877025959 0.1370961391 -0.3470001742
H -1.1623425142 -0.6646632174 2.424832697
H -2.9684290154 0.3900128987 0.4111822643
H -3.2778826863 1.2568707024 1.9625481644
H -1.4424401623 2.8600580509 0.3951178295
H 1.1336084923 1.3464530438 3.2950966054
H 1.0077206412 2.8897069548 2.4122906651
H -2.0426156773 1.6851900978 4.3312187208
H -2.1608703233 3.2314688777 3.4462986793

