# b3lyp 6-31G(2df,p) opt Freq 

 titel

0 1
O 1.4282289924 0.5808208384 -0.3742106807
C 0.0683459654 0.3484924889 -0.0306119051
C -0.7360631666 0.3729567454 -1.3243880322
C -0.3337206147 -0.7494970991 -2.3230400896
C -1.6370357271 -1.4246788205 -2.6698702049
C -2.6730331499 -0.9240045058 -1.9977592137
C -2.2440246246 0.1648759946 -1.0857848318
C -3.137123319 1.2066269517 -0.5626697097
O -2.7315568128 0.1243154575 0.2766170736
H 1.9528424863 0.5232364398 0.4294194282
H -0.062078602 -0.6258607344 0.4644520452
H -0.3086771109 1.1153463225 0.6608423383
H -0.5750043433 1.3489116034 -1.7942659345
H 0.1654764444 -0.3440103452 -3.2099546034
H 0.3798705994 -1.4536882186 -1.8769368599
H -1.6959614822 -2.2352361019 -3.388246148
H -3.7038209903 -1.2522162927 -2.0572645246
H -2.7238619045 2.1823436553 -0.3040225717
H -4.19103478 1.2144308907 -0.8409809154

