# b3lyp 6-31G(2df,p) opt Freq 

 titel

0 1
C -1.7046771916 3.9523351336 -0.2896293255
C -0.82545524 3.4382606546 -1.4743025056
C -1.174078551 1.9681383152 -1.101994251
C -1.9921079799 2.4907296043 0.1118645248
O -1.0075330749 1.9612180601 1.0303482202
C -0.2672237073 1.3400771463 -0.0332037731
C 1.2688704865 1.421775548 -0.02131496
O 1.3822136062 -0.0120108272 -0.1333730196
C -0.0382861646 -0.182952115 0.0485646156
H -1.2001333029 4.5334956211 0.4849405547
H -2.5953263181 4.4945803365 -0.6184847879
H -1.2007708016 3.7339532152 -2.4559106692
H 0.2371284132 3.6907651565 -1.4298053823
H -1.5554422637 1.3134467807 -1.8847083253
H -3.008547114 2.1939074599 0.3813606104
H 1.7512585731 1.9424593045 -0.8573095366
H 1.6680492037 1.8016880738 0.9282134911
H -0.4870347175 -0.8018641102 -0.7379742337
H -0.2894670856 -0.5951766378 1.0346122629

