# b3lyp 6-31G(2df,p) opt Freq 

 titel

0 1
C 1.7160108179 0.3944683993 0.4901532764
C 0.2971416838 0.2083920245 0.2170769382
C -0.8763273701 0.0810638043 -0.0304102057
C -2.3067347101 -0.0817399564 -0.2720833016
C -3.0491747267 -0.5959418711 0.9776404871
O -3.9484529338 0.0340612192 1.4753601754
C -2.5916627626 -1.945172381 1.5657900814
C -3.7951023145 -2.8478224155 1.8254892044
O -1.6923374431 -2.6443538923 0.7270701457
H 1.9474854485 0.203630728 1.5436694167
H 2.3316414075 -0.2801784258 -0.1143337271
H 2.0262546511 1.4203064768 0.2641441856
H -2.7724563079 0.8654266106 -0.5578524622
H -2.4666588877 -0.8066634025 -1.0804621313
H -2.1217878349 -1.6983581067 2.5330280098
H -3.4760883262 -3.7505696644 2.3512039443
H -4.5357425621 -2.3157530716 2.4244656377
H -4.2529521678 -3.1454912861 0.8772055713
H -0.8894375912 -2.1152791092 0.6390407739

