# b3lyp 6-31G(2df,p) opt Freq 

 titel

0 1
C 0.3895512884 0.8333682651 -0.0208689065
C 1.0136850257 -0.5421088193 0.1042781039
O 1.6661475565 -0.8910528133 -1.1339628546
C 2.6830686646 -1.8143840845 -0.8383041865
C 3.9648914876 -1.2747234447 -0.2359408859
C 3.9923228714 0.2081059883 0.1014036017
O 3.0241493658 0.4129783423 1.135113752
C 2.1273368086 -0.6932036932 1.1624211524
C 2.908016952 -1.9089384395 0.6403742089
H -0.1904309509 1.0660707018 0.8778837627
H 1.1625626714 1.5950014626 -0.1389240428
H -0.2829896676 0.86774665 -0.8820559373
H 0.2367055247 -1.2960810165 0.3153938196
H 2.7115773851 -2.6721748644 -1.501792432
H 4.8960333114 -1.787524902 -0.4478185917
H 4.9710444597 0.5154012888 0.4853797549
H 3.7467020275 0.8253160974 -0.7726104819
H 1.7393230026 -0.7917062187 2.1787551321
H 3.0316670057 -2.81995275 1.209949461

