# b3lyp 6-31G(2df,p) opt Freq 

 titel

0 1
C 0.1632999877 -0.6143417274 0.165716309
C 1.5143648781 0.0221533942 -0.05989166
C 2.067505651 0.0480961871 -1.4845163535
O 3.4744840206 -0.1717491787 -1.3886862882
C 3.8931945738 0.099561453 -0.0648938907
O 4.1891395055 1.4698188158 0.115925694
C 2.9776231367 2.166757204 0.4175053077
C 1.9861022441 1.1131246039 0.893560271
C 2.6957578048 -0.2128406403 0.8409476543
H -0.0965012347 -0.6257933673 1.2286998997
H -0.6267845732 -0.066052084 -0.3602942752
H 0.1474467904 -1.6488777717 -0.1952222923
H 1.6345026117 -0.7599745106 -2.0855994597
H 1.8640137662 0.9981848404 -1.9991062259
H 4.8121368955 -0.4597888332 0.1117972857
H 3.1891864939 2.8979348514 1.205305837
H 2.625471337 2.7148099147 -0.4677868484
H 1.3293677582 1.3620207498 1.7199063214
H 2.7447044428 -0.9382744811 1.6425535741

