# b3lyp 6-31G(2df,p) opt Freq 

 titel

0 1
O 1.190812606 -0.1330803657 -0.5282051619
C 0.0428797904 -0.133462435 -0.1882503788
C -0.9706179824 -1.2302348169 0.1735518531
C -2.0962074128 -0.176904106 -0.064192203
C -1.0323400626 0.969934556 -0.1127721983
C -1.0499482576 1.9983150244 -1.2270782041
C 0.0704928049 3.0646810985 -1.1851618766
O -0.8850752209 4.1270697778 -0.9781680631
C -1.9944248111 3.2125089032 -1.0561145421
H -0.9548433084 -2.1262197601 -0.4515535529
H -0.8755515989 -1.5365386265 1.2205332947
H -2.5935048684 -0.3146225743 -1.0275652427
H -2.8540971153 -0.0962534522 0.7154091281
H -0.9610529956 1.474255008 0.8606602899
H -1.1436498158 1.4993542261 -2.195505379
H 0.7779453778 2.9745493699 -0.3527633476
H 0.6345593028 3.1928460171 -2.1164192633
H -2.5995490936 3.2176364613 -0.1396595976
H -2.6474403087 3.4281213643 -1.9115169248

