# b3lyp 6-31G(2df,p) opt Freq 

 titel

0 1
O -2.5206877125 4.0254869316 0.4994852274
C -1.4053343713 3.1402152002 0.5542022039
C -1.1730897777 2.4194533619 -0.7502973867
C -0.0229724237 2.5309042234 -1.4197766675
C 0.2686443768 1.8400027314 -2.7249286218
C -0.6829380968 0.6546129494 -2.9793448854
C -2.1207545625 1.0275649333 -2.6631413731
O -3.0297134872 0.8692990711 -3.4432968994
C -2.3382526476 1.6070756279 -1.2711011962
H -2.3328743442 4.6797337808 -0.182205715
H -0.4884047022 3.6646505037 0.861235729
H -1.6558164924 2.4233595444 1.3463297442
H 0.7664774123 3.1595869795 -1.0120283874
H 0.1908811195 2.563077335 -3.5498183827
H 1.3073671965 1.4899115987 -2.7410433254
H -0.6255100652 0.2917764036 -4.007576977
H -0.4023215632 -0.1683633161 -2.3076587026
H -3.2549918774 2.2041288749 -1.2745582641
H -2.5385273711 0.7659912854 -0.58744987

