# b3lyp 6-31G(2df,p) opt Freq 

 titel

0 1
C 0.0411847489 0.1559188929 0.2492088299
C 1.443173769 0.0391462138 -0.2766344585
O 1.9945356137 1.2607972721 -0.7152555138
C 3.3452346827 1.3402972886 -0.2612002457
C 3.8215204037 -0.112810517 -0.0991024399
C 4.1246726274 -0.7765258327 -1.4533791031
O 2.8537421393 -1.0702624645 -2.0375828479
C 1.9212159707 -1.2138938336 -1.0001658012
C 2.5225127724 -0.8272332982 0.3296758962
H 0.007649208 0.7924862196 1.1397550883
H -0.6142861526 0.5958054561 -0.5091752732
H -0.357014276 -0.8281928913 0.5141963779
H 3.9188802621 1.9079653571 -1.0007739968
H 3.3921825412 1.8725155681 0.7014563561
H 4.6423641708 -0.2132199121 0.6136740708
H 4.6720011225 -0.1275908505 -2.1441284319
H 4.7002778625 -1.7038781968 -1.311411578
H 1.2487225821 -2.0578453342 -1.1215248816
H 2.4360666315 -1.3902077773 1.2507276424

