# b3lyp 6-31G(2df,p) opt Freq 

 titel

0 1
O -0.9122052844 1.3815732339 0.3292527907
C -0.8939493959 0.367699169 -0.6309918423
C -2.1897965547 -0.1354273338 -1.2144469308
C -1.2391215739 0.6978523461 -2.0574619174
C -0.2776841972 -0.0419028892 -2.9719451534
C 0.3568154945 -1.1373823959 -2.0772828062
C 0.296967327 -0.5938156249 -0.6192402311
C 1.55984033 0.1724405106 -0.2732210529
O 2.2979410017 -0.1056455959 0.6360546294
H -1.1422825781 0.9897726318 1.1794794124
H -2.3228337116 -1.1917019106 -1.4270885493
H -3.0815785739 0.3740936293 -0.8666648967
H -1.553022921 1.7032165837 -2.3130007898
H -0.7614165123 -0.4716908504 -3.8555045052
H 0.4880898062 0.6542175868 -3.3327925125
H -0.2187845355 -2.0651151749 -2.1337504777
H 1.3764524857 -1.3870244064 -2.3846540238
H 0.195326929 -1.3992023916 0.1158343776
H 1.7814478544 1.0283689024 -0.951419841

