# b3lyp 6-31G(2df,p) opt Freq 

 titel

0 1
O 3.6852197145 -5.0151432129 -0.5551716335
C 2.8943778138 -3.8434658496 -0.500077925
C 3.7358144376 -2.5676919039 -0.7088150825
C 2.929253281 -1.3552731702 -0.695056335
C 2.2219566444 -0.3796897446 -0.6701426771
C 1.385383703 0.8063935601 -0.653413621
C -0.0167501913 0.7197656244 -1.3194847498
C -0.5446080963 1.1267559537 0.0685143766
O 0.7802717999 1.0815315089 0.6400000941
H 4.2441739741 -5.0352474499 0.2280880586
H 2.1610277427 -3.9308562337 -1.306947401
H 2.3365936422 -3.765512402 0.4440475998
H 4.5025266067 -2.5112538312 0.076762949
H 4.2752990289 -2.6588726837 -1.6593309165
H 1.9682695516 1.6750186826 -0.989877062
H -0.1918977353 1.4225668039 -2.1345879056
H -0.2887664414 -0.2867186047 -1.6368546553
H -0.9788157488 2.1328286506 0.126738586
H -1.2237496174 0.4187087422 0.5568518103

