# b3lyp 6-31G(2df,p) opt Freq 

 titel

0 1
C 1.2759294727 0.6056812746 -0.8013229935
C -0.0440179526 0.1783909323 -0.2445649086
C -1.0198110443 0.9435696562 0.2591887598
C -2.1818052832 0.1532850186 0.8085759189
C -1.9251645281 -1.2755598024 0.2580211109
O -2.2519269558 -2.3399168278 1.1150304937
C -0.4321748165 -1.2535179513 -0.1076495404
C 0.2482458476 -2.422267566 -0.6667659222
O 0.4081980535 -2.1001621036 0.7242887883
H 2.0956656625 0.1112744385 -0.2665960087
H 1.3745378061 0.3340690004 -1.8595926112
H 1.4137321943 1.6864228321 -0.7150602384
H -0.9800113668 2.0275923006 0.3008836236
H -2.1757955051 0.139441769 1.906214305
H -3.1562710359 0.5486532827 0.5030705444
H -2.5070598667 -1.4029489138 -0.6638951888
H -1.4220136782 -2.589901856 1.5479725439
H -0.3331903761 -3.3217319099 -0.8663297295
H 1.1465112728 -2.3046054544 -1.2705865674

