# b3lyp 6-31G(2df,p) opt Freq 

 titel

0 1
C 2.8479888943 -0.8030032165 -0.7667392584
C 2.4654767956 -0.1350308058 0.5208507044
C 3.4317234537 0.0625697224 1.6836862601
C 2.718498912 1.2389094092 1.1010132926
O 1.3985182909 1.3458726925 1.6447525823
C 1.0131568058 0.0858933774 1.0234423339
C -0.0205067193 0.3086293865 -0.0661259634
C 0.5461985368 -0.9369542764 2.0470015435
O -0.0766964567 -1.928447611 1.7626202958
H 2.7584452291 -1.8924055283 -0.6873381126
H 2.2197470229 -0.4741963632 -1.6001568052
H 3.8879348395 -0.5769031051 -1.0229029807
H 3.2125574048 -0.2568783923 2.6970392393
H 4.4732164678 -0.0430990169 1.3933978897
H 3.1768271559 2.1371873871 0.7033360642
H -0.3114591515 -0.6474046337 -0.5082857289
H -0.9122181513 0.7729666512 0.3647762856
H 0.3727959517 0.9704226253 -0.8413289008
H 0.8471054878 -0.7098980423 3.0924423487

