# b3lyp 6-31G(2df,p) opt Freq 

 titel

0 1
C 2.1843078239 1.3743307619 -0.5453962069
C 2.3371070706 1.8836676927 0.9166334096
C 3.3039592996 0.9513235062 1.6456745435
O 3.1441542896 -0.3936632054 1.1833724862
C 1.7951176559 -0.7247866426 0.8800390242
C 0.9170955548 -0.7063625369 2.1395001291
O 0.6037701208 0.6736494286 2.3681862956
C 0.8703848286 1.3774353349 1.1689494174
C 1.1348975458 0.3890845841 0.0175212511
H 1.7262256399 2.1166669099 -1.2029504046
H 3.0716675358 0.9530934835 -1.0220302379
H 2.5703754004 2.9337612718 1.1043271374
H 4.3445610378 1.2186336394 1.4351969584
H 3.1405200989 1.0110036659 2.7306929909
H 1.8254560799 -1.7043953987 0.3975997775
H -0.0075909538 -1.2831972264 1.9898434007
H 1.4472051938 -1.1065377959 3.0088135197
H 0.105538305 2.1417060416 1.0167218358
H 0.3180626726 0.0175957955 -0.6042178775

