# b3lyp 6-31G(2df,p) opt Freq 

 titel

0 1
C 3.188465451 0.7149344536 -1.4442964405
C 1.8998487348 1.5303211824 -1.4616807933
O 1.6055850321 1.8405717557 -0.1088664765
C 0.6846409221 2.8565747365 0.1532305519
C -0.5924917463 3.0750959417 -0.6121794881
C 0.5692617746 4.0649216866 -0.7289962195
C 1.3593432628 4.0160897539 -1.9898857964
O 2.787333876 3.8548796514 -1.8606240238
C 2.0219548407 2.757767388 -2.3501546845
H 3.0785420599 -0.1449077786 -0.7789248138
H 3.4286997942 0.3519789592 -2.4481660268
H 4.0134734461 1.3349924004 -1.0841158839
H 1.0868912548 0.9146341088 -1.8862323853
H 0.6461655041 3.0110963325 1.2258033826
H -0.8004477835 2.4629755667 -1.4825310297
H -1.4739077234 3.370615532 -0.053925438
H 0.4664476096 5.0395626273 -0.2621495777
H 1.0675140731 4.7012947609 -2.7855540281
H 2.1769685873 2.5225359111 -3.4051309686

