# b3lyp 6-31G(2df,p) opt Freq 

 titel

0 1
C 1.4352148107 0.0133714609 -0.1243252804
O 0.0424318809 -0.0617600868 0.0573803103
C -0.408183291 0.6843688241 1.165324528
C -1.9264524615 0.5256582962 1.2658114362
C -2.5125910024 1.3093365175 2.4011297413
C -3.0318796334 0.8198908207 3.559726305
O -3.4580750635 1.8252680021 4.3709331211
C -3.2039479103 2.9881600249 3.7165244996
C -2.6286393852 2.7409726625 2.512781926
H 1.9841702967 -0.3786399979 0.7469259653
H 1.6854925346 -0.5913025713 -0.9995408973
H 1.7703375871 1.0483000717 -0.3002012323
H 0.0706177264 0.3325836815 2.0949192219
H -0.1407436331 1.7489468231 1.0501408254
H -2.3653210687 0.8412538843 0.312076512
H -2.1568601558 -0.538317828 1.3819105356
H -3.1709614987 -0.1796217523 3.9386528211
H -3.4917516776 3.8885489301 4.233763927
H -2.3271623651 3.4766008768 1.7826923443

