# b3lyp 6-31G(2df,p) opt Freq 

 titel

0 1
O -2.870557342 -0.2931126464 3.9195747031
C -2.475521967 -0.4273125766 2.5846840841
C -1.1728292325 0.1856949061 2.14704289
C -2.5307742334 0.7684578388 1.6771900844
C -2.1973504021 0.3520893723 0.2581028341
C -2.3854870531 1.1746885119 -0.9830108336
C -3.1156071331 -0.1401561569 -0.8221289609
C -0.8290834643 -0.2251773663 0.7044030786
O 0.3053871944 0.3913776824 0.1401181039
H -2.5710534464 0.5618532976 4.24676775
H -2.7777910539 -1.4061316634 2.2188811011
H -0.4570079992 0.5661625817 2.8679685308
H -3.0372889733 1.6816249866 1.9741417332
H -2.9609236863 2.0919510371 -0.9076526916
H -1.5579766341 1.2155468333 -1.6840891537
H -4.1846389514 -0.1120967845 -0.637041389
H -2.7869871533 -0.9788568074 -1.4275412968
H -0.6837892422 -1.2991927099 0.5452272686
H 0.173787923 1.3451731237 0.1939615837

