# b3lyp 6-31G(2df,p) opt Freq 

 titel

0 1
C 1.4251378245 -0.113174775 -0.1513438677
O 0.0190786353 -0.0717287443 0.0319058362
C -0.4290216892 0.6564362166 1.1428274965
O 0.0800891789 0.126912106 2.3680825261
C 0.760530058 1.1340113315 3.0875019509
C 1.9691231675 0.7358887674 3.8954225076
C 0.672275077 1.0944338812 4.5913669398
C 0.663032173 2.367256492 2.2819675731
C -0.0258506783 2.1146340995 1.1731990967
H 1.9272499112 -0.5645990632 0.7119110721
H 1.6001992141 -0.7329542362 -1.0331790569
H 1.8493881971 0.8845499136 -0.3249031123
H -1.5162804073 0.5076201335 1.117936426
H 2.2395409752 -0.3134629415 3.8587016961
H 2.8061725204 1.4233663329 3.9551968752
H 0.0901656197 0.2818646016 5.0108582084
H 0.6089682228 2.0320816029 5.133201965
H 1.0965492251 3.3092723668 2.5928567724
H -0.2771454851 2.8023253047 0.3770586549

