# b3lyp 6-31G(2df,p) opt Freq 

 titel

0 1
C 0.1886733828 0.8145605099 0.224931418
C 1.5377740682 0.1565106439 0.0716897595
C 2.7563973491 1.0032404617 -0.3354853954
C 3.6882126028 -0.2211880188 -0.4405655785
C 2.8344108711 -1.0972401048 -1.3892448334
O 1.4756026214 -0.8231163548 -0.9997897938
C 3.4970291625 -0.8782511187 0.9322395473
O 3.1387117115 -0.0018432051 2.0079615583
C 2.0889998429 -0.6426845096 1.2675185199
H 0.2129869458 1.5423561379 1.0414733274
H -0.0976158861 1.328111325 -0.6971118592
H -0.579255051 0.0684058935 0.4514965861
H 2.5930269502 1.4989428162 -1.2948403082
H 3.0657923627 1.7215133709 0.4208071231
H 4.7136872662 -0.0535568646 -0.7699721047
H 2.9768327159 -0.8190868614 -2.4409196341
H 3.0402703809 -2.1696435682 -1.2826609281
H 4.0409949709 -1.7760050926 1.2105719353
H 1.4621472421 -1.3413489006 1.8131514604

