# b3lyp 6-31G(2df,p) opt Freq 

 titel

0 1
C 1.904037839 -0.9403871185 -1.0256994256
C 1.4348227284 0.0741630473 0.0169010394
O 2.2041561848 1.2805851546 -0.0173474988
C 3.3090136889 1.1605687175 0.878092676
C 2.8333390108 0.2459170134 1.991477871
C 1.4472392283 0.5463302941 2.5455499273
C 1.5779041144 -0.4446906266 1.4428000922
C 3.8012151201 -0.4972865234 2.815759758
O 5.0014394466 -0.4151189123 2.7045666373
H 2.923967596 -1.2806525602 -0.819874437
H 1.2483071356 -1.8176027481 -1.0337360336
H 1.8856603342 -0.4875767718 -2.0204167968
H 0.4029248401 0.3747667095 -0.2026706633
H 4.1936202037 0.7247199516 0.3944314849
H 3.5651506354 2.1698602836 1.2140545037
H 1.2230889375 0.1699773714 3.5382959268
H 1.0425207351 1.5274457633 2.3195875912
H 1.3982444511 -1.4957672709 1.6388636984
H 3.33695828 -1.1676024545 3.576710589

