# b3lyp 6-31G(2df,p) opt Freq 

 titel

0 1
O 0.0422560304 1.4554511486 -0.3853709714
C 0.1256371221 0.1360222137 0.1186915984
C -1.2637361485 -0.4921697121 0.1525861545
C -2.1600081335 -0.0373505126 1.3140691542
C -2.1292202629 -1.2894704959 2.2573490093
C -1.9520176539 -2.4505648999 1.2749276691
C -1.4189845537 -1.9785002404 0.1544777098
C -1.5405927319 -1.9373091308 -1.3479232571
O -1.7699905331 -0.4932480099 -1.2480581576
H -0.4434481107 1.3798041901 -1.2170947611
H 0.8048517918 -0.4852002141 -0.4863399143
H 0.5444895315 0.2013146112 1.1285726456
H -1.827578178 0.8873774421 1.7924008721
H -3.1784490563 0.1105796947 0.9430011612
H -1.3136361421 -1.2234716451 2.9897429983
H -3.0536460997 -1.3926954054 2.8344352111
H -2.3317463106 -3.4485489806 1.4592330555
H -0.6320322414 -2.1538840224 -1.9230596115
H -2.3898571094 -2.4660254611 -1.7917283159

