# b3lyp 6-31G(2df,p) opt Freq 

 titel

0 1
C -0.0792016468 -1.1139619886 -4.2161061103
C -0.7684989967 -2.1793902257 -3.3927042029
O -1.789313422 -2.7196240958 -3.7407807235
C -0.0877152251 -2.6062776155 -2.073685205
C 0.5931115487 -1.5491966391 -1.3398226238
C 1.1592082459 -0.6714982178 -0.7389743304
C 1.7946429347 0.4107645914 0.0017661739
C 0.7771704681 1.4374810392 0.5406046888
O 1.4104756512 2.5071484086 1.2152466787
H -0.0977555572 -0.1624128634 -3.6751581062
H 0.9768015886 -1.3641497301 -4.3653448601
H -0.5835570331 -1.0074834547 -5.1767670726
H -0.8549776618 -3.0943562715 -1.4646496632
H 0.6333842954 -3.3914957156 -2.3483905946
H 2.3667437032 -0.0009896115 0.8451402258
H 2.5173779375 0.9401234963 -0.6308846342
H 0.2326197676 1.8833351468 -0.2967876438
H 0.0398617215 0.9265710549 1.1763227408
H 1.7764174602 2.167360732 2.0380198724

