# b3lyp 6-31G(2df,p) opt Freq 

 titel

0 1
C 1.5168495361 -0.0325930285 0.056723646
O 0.1164783552 0.1396122821 0.1504862309
C -0.2673576692 0.7937593023 1.3176401832
C -1.6886784439 0.5270006724 1.7038807431
C -2.0979154163 1.3256805794 2.9749537303
O -0.9810080707 2.1145765977 3.4287687731
C -1.025110081 0.711293224 3.7585901666
C -0.8875679497 0.3054929087 5.187082133
C -0.5506905065 -0.1033359466 2.5097631028
H 1.9060486694 -0.6513937995 0.8780366702
H 1.7160401575 -0.5312807032 -0.8945053554
H 2.0436835318 0.9331622383 0.0715763875
H 0.1784628044 1.774535058 1.4644275446
H -2.3790882655 0.0398709724 1.0291358824
H -3.0903209331 1.6700619901 3.2428404254
H -1.2433661049 -0.7196950712 5.3332565367
H 0.1612369491 0.3456201733 5.5032131705
H -1.46609628 0.9751784634 5.8288343144
H -0.2480204329 -1.1419981829 2.5271758648

