# b3lyp 6-31G(2df,p) opt Freq 

 titel

0 1
O 0.3612037793 -0.8632241129 0.2395007264
C -0.0572985427 0.218030559 -0.0821164819
C 0.3127739431 1.5373625845 0.5988576755
O -0.7183409987 2.4972361503 0.3854962275
C -1.650289071 2.3410515385 1.4611033941
C -0.7998736274 2.0509265324 2.6940662419
C 0.0449901736 3.2393584313 3.2384094464
C 1.3490159397 2.5208025273 2.7922792716
C 0.5073560798 1.4053681366 2.113953623
H -0.7547587408 0.3537806371 -0.9400663217
H 1.2101656795 1.9110457843 0.0857757319
H -2.234030794 3.2637505366 1.5230649785
H -2.3384254149 1.5046625537 1.2563345317
H -1.3350826669 1.4764656684 3.4513699293
H -0.1456437488 4.1778849235 2.7110759206
H -0.0468346494 3.4220383198 4.311091642
H 2.0064358792 3.0883781718 2.1277797794
H 1.9470169811 2.148190541 3.6271615022
H 0.7487437291 0.377560047 2.3846678416

