# b3lyp 6-31G(2df,p) opt Freq 

 titel

0 1
O -0.1764681038 0.1291693521 0.6702314622
C -1.5012169731 -0.3441254092 0.6862110385
C -1.8380703587 -1.4462313101 -0.3435715557
C -3.072312422 -1.7663789289 0.5564978473
C -1.8919063564 -1.5811574546 1.5575583515
C -1.0529846306 -2.432333194 0.567002817
C 0.4629455865 -2.6781942797 0.588692045
C 0.0815773763 -4.1629797023 0.4578028677
O -1.3261637289 -3.8382725958 0.4596329905
H -0.0520831231 0.6984750484 1.4357364043
H -2.224011581 0.4810638544 0.7235145749
H -1.8044836268 -1.366610957 -1.4305154561
H -3.8607797858 -1.0095357844 0.5859956404
H -3.4729563121 -2.774501338 0.4734154834
H -1.9216485448 -1.6557790399 2.6459377731
H 1.0121638241 -2.2471767489 -0.2481421221
H 0.9596566119 -2.3978860949 1.5182055536
H 0.3817515774 -4.6557905569 -0.474575871
H 0.349029381 -4.8073542303 1.3035524654

