# b3lyp 6-31G(2df,p) opt Freq 

 titel

0 1
C -2.3077361598 1.4918293621 0.2122186423
C -1.0889945927 1.9596500704 -0.60988886
C -1.5841625155 2.7788673759 -1.8363978566
O -0.5319928897 3.2823754106 -2.6271345862
C -0.2714998097 0.7436160006 -1.1293149397
C 0.3944007913 -0.0661444214 -0.0410713402
O 0.2610854565 -1.2557797648 0.0990349591
C -0.2393322154 2.8497400305 0.1908881158
C 0.448044861 3.628638836 0.7988988898
H -1.9979322686 0.9071621953 1.0821796158
H -2.8886350127 2.3471867289 0.5678334571
H -2.9560463281 0.8621774699 -0.4056656379
H -2.1721977527 2.1216522448 -2.4851946825
H -2.2435435852 3.5824230549 -1.4757359718
H -0.0146966346 3.8748164974 -2.0675238843
H -0.9236797038 0.0797234699 -1.7044807805
H 0.5065808517 1.1296390983 -1.7997354187
H 1.045004608 0.5223232402 0.6427819291
H 1.0539902999 4.2937032506 1.3642286092

