# b3lyp 6-31G(2df,p) opt Freq 

 titel

0 1
C -2.5297392004 1.6372316028 1.2437616137
C -1.4647815365 2.1462218189 0.3304458092
O -1.1301865508 3.5435272659 0.4116500961
C -0.9914549521 3.6142626127 -1.0340636236
C -1.223474077 2.1166377719 -1.1745551311
C -0.2976124493 1.4006899792 -0.2228658583
C 1.1923748111 1.5600270105 0.0559496244
O 1.3433859932 0.1216378434 0.1354311601
C -0.0485042495 -0.1044557042 -0.168003254
H -2.213920027 1.7329111426 2.2889240534
H -3.457777139 2.2025570201 1.1163646725
H -2.735579657 0.5809898323 1.0484607898
H -1.7903974688 4.2274406131 -1.4654166507
H -0.0161858029 4.0114781217 -1.3402618494
H -1.7539403434 1.6144246789 -1.9741030764
H 1.7924682357 1.9880042104 -0.758012506
H 1.4508814964 2.0581799893 0.9975977188
H -0.1801134068 -0.6447363939 -1.1156024763
H -0.5599760259 -0.6574755157 0.6312137778

