# b3lyp 6-31G(2df,p) opt Freq 

 titel

0 1
O 0.4098989875 0.0273188278 0.2613595402
C -0.7749173836 0.6928964758 0.5810896416
C -2.111156771 -0.0234102258 0.4735314707
C -3.2611029773 0.3524711229 1.3967359637
C -4.5473064367 0.6743658981 0.6610440187
C -4.6703315309 1.4470196795 -0.4179254326
C -3.5997450514 2.2026212693 -1.1615530951
O -2.3197816789 2.2352293272 -0.5492719161
C -1.6835555534 0.9963648965 -0.5599264775
H 0.6143202761 -0.575756693 0.9838504317
H -0.6984341245 1.4637793667 1.3489359269
H -2.0690611973 -1.0603725188 0.1520996722
H -3.4419232189 -0.4645398287 2.1034593658
H -2.9718409138 1.2160134047 2.0083532399
H -5.454277478 0.2355706473 1.071078993
H -5.662730245 1.5844956012 -0.846677373
H -3.5181074222 1.8060181019 -2.1897737751
H -3.9044326 3.2520889813 -1.2617402298
H -1.3767655506 0.635984416 -1.5425430152

