# b3lyp 6-31G(2df,p) opt Freq 

 titel

0 1
O -2.5562210596 -0.4173837171 3.0005630041
C -1.3133336894 -0.7192337928 2.3496760944
C -0.141075405 0.0731801461 2.9516245624
C -0.1958321798 1.4736104856 2.2812376656
C -1.2706534649 1.3882215997 1.161727015
O -2.4987284812 1.9838978124 1.5279148926
C -1.4410811511 -0.1475073536 0.9192798829
C -0.4178825437 -0.6889557621 0.0370076855
C 0.4447193328 -1.1156540717 -0.6841786505
H -2.4531660098 -0.5992822356 3.9401730312
H -1.1436842997 -1.8021807926 2.353080021
H -0.2068569454 0.1117011954 4.0441484343
H 0.7943258503 -0.4377279732 2.7065870931
H -0.4804626514 2.2670219181 2.9757350112
H 0.7791220336 1.7394037467 1.86517465
H -0.9507536912 1.8967091536 0.2500649676
H -2.8578691619 1.4440552055 2.2460791721
H -2.4368162592 -0.3478808305 0.5117278073
H 1.1945698665 -1.4971527239 -1.3320679397

