# b3lyp 6-31G(2df,p) opt Freq 

 titel

0 1
C 1.496982695 0.0334260502 0.0948919027
C 0.0421503848 0.0160259211 0.0515174423
C -1.1616278499 0.0072877852 0.020400402
C -2.6208546258 0.0226468343 -0.0484281694
C -3.1811302022 -1.1958304964 -0.8066635683
C -3.1263424687 1.345602261 -0.684175469
O -4.5456673759 1.4133819761 -0.7043116504
C -2.596011078 2.5655338525 0.0627238009
O -1.8206112634 3.3712312214 -0.3724885513
H 1.8687391559 -0.2282446556 1.0916075195
H 1.9247355157 -0.6805204919 -0.6173908152
H 1.8852572974 1.0266032258 -0.1551998028
H -3.0176729338 -0.0021076981 0.9801855808
H -2.9077676722 -2.1219533427 -0.2952649055
H -4.2693289406 -1.13021991 -0.8736914471
H -2.7724569659 -1.232803535 -1.8206372102
H -2.7974358077 1.4089379481 -1.7245148165
H -4.8656282959 1.3567769513 0.2043852568
H -3.0386938389 2.6748885229 1.0856528707

