# b3lyp 6-31G(2df,p) opt Freq 

 titel

0 1
C 2.7009215879 2.4838376282 1.2460492036
C 1.5723042585 1.6115718406 1.7394154208
O 0.2380704779 1.937165116 1.4278512602
C -0.2273511866 1.4492049195 0.1707622823
C -0.1301225412 -0.0869942827 0.0400201733
O 1.1059513234 -0.3612540505 -0.6362545379
C 1.8297714859 0.877340198 -0.697173137
C 0.714747696 1.8968800117 -0.9564381105
C 2.4871913484 1.1045603641 0.6554003826
H 2.4410741558 3.3537930056 0.6548537847
H 3.5573148022 2.6256490371 1.896976727
H 1.6538463809 1.1925814241 2.738188405
H -1.2517221923 1.814660057 0.0842813574
H -0.1521605159 -0.5632272886 1.0271580724
H -0.9522996245 -0.4910544489 -0.5623046442
H 2.5616120254 0.7844908878 -1.5028345108
H 0.995853061 2.946962096 -0.8761709402
H 0.274588266 1.7169967554 -1.9413096556
H 3.1974080011 0.3300949197 0.9278512668

