# b3lyp 6-31G(2df,p) opt Freq 

 titel

0 1
C 1.1128217888 -1.2221874976 7.6776804278
C 2.1034797534 -2.0699836334 8.4762234744
O 3.4020917544 -1.5487442318 8.2050608517
C 4.4647263173 -2.3140987518 8.713829343
C 5.8397722406 -1.7410376983 8.3424512873
O 6.2417194712 -2.9877662891 7.7361385199
C 4.9218057851 -3.5473980013 7.8947439256
C 1.7944390303 -2.0616253775 9.9131549801
C 1.5347958231 -2.0490327099 11.0868387928
H 1.1625344858 -0.1820440281 8.0081145034
H 1.3671514393 -1.2688237887 6.6160413297
H 0.094317927 -1.5903561084 7.8214542465
H 2.0489389663 -3.112166302 8.1207648216
H 4.3255414393 -2.5143216474 9.7819068129
H 5.7725789502 -0.9227242701 7.6147054963
H 6.4995690502 -1.449948034 9.1668866946
H 4.3960293462 -3.6513979194 6.9357325206
H 4.9457078266 -4.5147530122 8.4093278524
H 1.3044528749 -2.040002619 12.1238314995

