# b3lyp 6-31G(2df,p) opt Freq 

 titel

0 1
C -0.8293098736 -0.0946468378 3.2157498029
C -1.9073997408 -0.0385617699 2.1292924945
C -1.8789417848 1.2902935071 1.3233320206
C -1.1059217354 1.1280852246 -0.004807956
C -1.8135026422 0.0055241655 -0.8305228361
C -1.0877032187 -1.0265359117 0.0842091008
O -1.8088765185 -1.206402961 1.2897252998
C 0.0010059182 0.0804940501 0.2033246519
O 1.1969917317 0.0954299512 0.2107193325
H -0.8614595043 -1.0658772684 3.7161049046
H 0.1752567289 0.045693816 2.8065390114
H -1.0042335775 0.6871638114 3.96252962
H -2.8840213228 -0.1380717167 2.6139174677
H -2.8958339335 1.6235471419 1.089878032
H -1.4167157934 2.0676746082 1.9394645263
H -0.8547625443 2.0811311802 -0.4718275621
H -2.9039019762 -0.0229321653 -0.7821554944
H -1.4702741727 -0.0388403526 -1.8667555545
H -0.8202852901 -2.0129394429 -0.2960223818

