# b3lyp 6-31G(2df,p) opt Freq 

 titel

0 1
C -0.2191796249 -0.1935212682 -0.0251295373
C 1.2940087487 -0.0655418567 0.0623922742
C 1.9726421433 -0.5337308996 1.3630505006
O 1.5141226617 0.3260812945 2.4148585295
C 2.5847252456 0.7850252634 1.5765039849
C 1.9360223543 1.3519487805 0.3127639494
C 2.7945810836 2.045904409 -0.7612096351
O 2.0918485924 3.2898092086 -0.5823962692
C 1.1708136029 2.6852211545 0.3535836105
H -0.6893263045 0.2186594334 0.8720297949
H -0.6149906939 0.3378963234 -0.8969164506
H -0.5170966236 -1.2438258847 -0.1142268501
H 1.7794009898 -0.5258826024 -0.806270981
H 2.307103548 -1.5250943018 1.6468129355
H 3.5097545016 1.0778063643 2.0614804954
H 3.8667733841 2.1393935229 -0.5428176913
H 2.6740993704 1.6451665498 -1.7774732932
H 1.1591137482 3.2002955002 1.3212642497
H 0.1485307221 2.6517611991 -0.0448228469

