# b3lyp 6-31G(2df,p) opt Freq 

 titel

0 1
O 0.68183198 0.1960908106 0.7458297547
C 0.0429410608 -0.2271571834 -0.1813795196
C -0.5520100755 0.6454914296 -1.274814403
C -0.9344714306 2.0514162146 -0.7945512834
C -1.8858713752 2.7372520951 -1.7731822632
C -3.3519610656 2.3679202178 -1.7711175924
C -2.4793352491 1.9402701708 -2.9184223269
C -2.0829286177 0.4837770748 -3.0477123408
O -1.6547350357 -0.0650757598 -1.8095178195
H -0.157068389 -1.3119562541 -0.3238256324
H 0.2302655272 0.7298465523 -2.0555431945
H -1.3868388623 1.9821732987 0.2005115425
H -0.0187470265 2.6363800121 -0.6745395779
H -1.6601798703 3.7785800944 -1.97790125
H -3.6622605943 1.5981497646 -1.0714408492
H -4.0838726379 3.1498020552 -1.9402150639
H -2.6109802956 2.4501250509 -3.8683174001
H -2.9267927986 -0.1327744985 -3.3744036735
H -1.2764359139 0.3793139143 -3.7939140868

