# b3lyp 6-31G(2df,p) opt Freq 

 titel

0 1
C -1.9410222847 0.8842841084 -6.0699242198
C -1.8064907511 2.1096315742 -5.1471332635
C -1.3197955085 1.7713835493 -3.814208571
C -0.9219379285 1.4724592006 -2.716915429
C -0.43989258 1.1152689308 -1.3705038781
O -0.1461153912 -0.2621035701 -1.2605412876
C 1.1911645083 -0.4153352631 -1.7286846947
C 1.8124618087 0.998666464 -1.5778464586
O 0.7564444271 1.7893083236 -1.0388789445
H -2.6387859396 0.1557265787 -5.6488770083
H -2.3100070009 1.1886026415 -7.0537338223
H -0.9753118695 0.3889432269 -6.2018282704
H -1.1295853607 2.8426886037 -5.6042263289
H -2.7783093973 2.6117406257 -5.0584834657
H -1.1868188283 1.3619793642 -0.6098515679
H 1.6778583478 -1.1717746255 -1.1080378812
H 1.2041674014 -0.7479329552 -2.7738753493
H 2.6478822981 1.0328514437 -0.8741733585
H 2.1437402687 1.3948086086 -2.5455715009

