# b3lyp 6-31G(2df,p) opt Freq 

 titel

0 1
C -2.8993830662 1.0277624725 -1.3516861131
C -2.3603263772 0.7739611669 0.0681984453
C -3.2249234748 1.5033002418 1.0995005621
C -2.2969606081 -0.7557181009 0.3322911399
C -0.9971259315 -1.2230485147 -0.3009513732
O -0.6871411847 -2.3269404157 -0.6565320291
C -0.0804639729 0.0372580934 -0.4237838834
O 1.0272590375 0.0302549101 -0.8863909946
C -0.8698719051 1.206270282 0.1411934445
H -2.2986189424 0.5165746599 -2.113285646
H -3.9290453209 0.6683942325 -1.4485494009
H -2.8899787117 2.0968470999 -1.5876977361
H -4.2634822784 1.1572795323 1.0565387118
H -2.8572062453 1.3349968296 2.117469326
H -3.2260095399 2.5836199066 0.9175980193
H -2.2265421866 -0.9532171421 1.4117058721
H -3.157891342 -1.3134590061 -0.0442221319
H -0.5617403044 1.3354835414 1.1887942322
H -0.6460195154 2.1399563706 -0.380492275

