# b3lyp 6-31G(2df,p) opt Freq 

 titel

0 1
C -0.7222175503 1.2512341975 -0.4104092652
O -0.2653817701 0.0290272058 0.1645402895
C 1.1684516076 -0.0888733745 0.0092838256
C 1.5382921453 0.98476902 -1.0269987702
C 0.5267831757 2.0913248341 -0.6880614794
O 0.9533921926 2.9194569729 0.386042027
C 0.8930943451 2.4342312924 1.7210918517
C 1.7387346965 1.2276979292 2.0685023407
C 1.8662634623 0.1231546796 1.3358519349
H -1.2556877323 1.0532718023 -1.3519225761
H -1.4198436884 1.7403567743 0.2782012492
H 1.3682257886 -1.1009581705 -0.3554568602
H 2.570231716 1.3277875743 -0.9506202762
H 1.3546557388 0.6173579242 -2.0424916892
H 0.3717534741 2.7827605978 -1.5203199216
H 1.2216217285 3.286939691 2.3224207916
H -0.149375853 2.228774652 2.0144967068
H 2.2407054206 1.2832854165 3.0319109863
H 2.4925385325 -0.6876563991 1.6985141748

