# b3lyp 6-31G(2df,p) opt Freq 

 titel

0 1
C 2.9587270274 -0.2825107405 1.3668075792
C 2.0679535664 0.1010383819 0.2004007588
O 2.3753047483 1.4525717183 -0.1656836471
C 1.6374006248 1.9202165204 -1.2162548703
C 0.2043030415 2.4292240896 -1.0386756606
C 1.2358108731 3.3763344892 -1.5566407636
C 1.4319095859 3.1186826542 -3.058491465
C 1.9192386824 1.6907917831 -2.6759611983
O 2.5018318131 0.8328112623 -3.2771245707
H 2.7516977475 -1.3110590947 1.6767423661
H 4.0126940712 -0.2105308833 1.0848275199
H 2.784451116 0.3794165415 2.2199966121
H 2.238977755 -0.556532251 -0.6612769929
H 1.0046952863 0.0296517954 0.4743135718
H -0.6082028202 2.0924746688 -1.6772726732
H -0.0541364768 2.538228011 0.0100718638
H 1.545062035 4.2659513374 -1.0254577406
H 0.5410543154 3.1971172569 -3.6882533558
H 2.2508317379 3.6817537394 -3.5149714936

