# b3lyp 6-31G(2df,p) opt Freq 

 titel

0 1
O -0.2056141148 3.0792927781 -3.4382493764
C 0.1347793072 2.239754846 -2.3551110388
C 1.3019626604 2.8304461064 -1.5477559225
C 1.0652869449 2.3963344817 -0.07062216
C -0.2211867442 1.520016393 -0.0971421573
C -1.0101253231 1.5197411993 1.1229189346
C -1.7013736767 1.5351840248 2.107719714
C -0.9797730349 2.0761622753 -1.3231867888
O -1.9930854337 1.242149157 -1.8400607666
H -0.9860276323 2.695573304 -3.8540931082
H 0.3899030536 1.2294158043 -2.7163576651
H 2.2683515144 2.4980048359 -1.9323927292
H 1.270544516 3.9186699347 -1.6496979544
H 1.9073824537 1.8436366395 0.350920079
H 0.9027880334 3.2664392386 0.5700090385
H 0.0513022605 0.4844047473 -0.3412369658
H -2.2928104502 1.5435160586 2.989603662
H -1.3746304097 3.0747473665 -1.0770139257
H -2.6924675545 1.1784508792 -1.1805561494

