# b3lyp 6-31G(2df,p) opt Freq 

 titel

0 1
O 0.5168791194 1.2137577355 -2.1461331509
C -0.3533464101 0.2941932654 -1.5148410558
C -0.399310391 -0.9989217043 -2.3335687683
C 0.8535790712 -1.8374773896 -2.4213852951
C 2.0348910939 -1.7116815705 -1.8132568626
C 2.46434685 -0.6355777553 -0.8387753437
C 1.4353124723 -0.3839373958 0.2504416022
O 0.9898022566 0.9700940405 0.493323591
C 0.0684608079 0.026894637 -0.0716083669
H 0.8529914019 1.7842607179 -1.4407086259
H -1.3746768335 0.7107756605 -1.4921184036
H -1.2159983006 -1.624742356 -1.9425919471
H -0.7089819854 -0.7320589114 -3.3530083427
H 0.7457450336 -2.6796973739 -3.104079296
H 2.7965691908 -2.4483570874 -2.0578993447
H 3.4165352134 -0.9153566807 -0.3774405237
H 2.6336144043 0.2985121968 -1.3824246985
H 1.580852582 -0.946364886 1.1723587871
H -0.7403054566 -0.2707119226 0.5962712452

