# b3lyp 6-31G(2df,p) opt Freq 

 titel

0 1
C 1.9612654666 -4.1841739104 0.2735605873
C 0.5193849434 -3.7709550989 0.3217232105
C -0.6178972948 -3.9602585204 -0.7111372832
C -1.3253646733 -3.2059706413 0.4350187569
C -0.4735943956 -3.9290691096 1.520021213
O -0.0526765258 -2.7048003029 2.1956131512
C -0.0502460114 -2.3704612016 0.7628753568
C 0.3849179995 -0.9826420454 0.4085222411
O 1.6975477226 -0.7336839922 0.8805380531
H 2.468122229 -3.8889376242 1.1975855273
H 2.0582779374 -5.2693424537 0.1592142989
H 2.4821009069 -3.708068013 -0.5631780735
H -0.512597733 -3.4264993818 -1.6602200313
H -0.9452542901 -4.9885110773 -0.8908502837
H -2.3602088758 -2.8786264488 0.5310568911
H -0.7092447411 -4.8031634244 2.1272733662
H 0.4011764982 -0.8592000497 -0.6798243084
H -0.3381895656 -0.2591296805 0.8179007237
H 1.7097048729 -1.0097898437 1.8048235129

