# b3lyp 6-31G(2df,p) opt Freq 

 titel

0 1
O 0.4477674449 0.1260766351 0.0585803548
C -0.8069014776 -0.0755808911 0.6639653071
C -1.9450265204 0.7524139871 0.0355709112
C -2.4875986344 1.0191088663 1.4613018608
C -3.7525122235 0.2554714676 2.0063041354
C -4.3462262987 1.6185809034 2.3859417352
O -4.4204321379 2.3934104985 1.1836413191
C -3.1641458617 2.3280819934 1.8735302107
C -1.1026968586 0.6114777121 2.0289163195
H 1.0930805853 -0.4348948057 0.5005797063
H -1.0644591439 -1.1439152446 0.700313616
H -1.5359518345 1.6627815744 -0.4130512776
H -2.6049150214 0.2636480393 -0.6833316153
H -4.3380219008 -0.3162901846 1.2813254654
H -3.5188939157 -0.3726929102 2.8703554511
H -5.0358161396 1.8718331408 3.1827069612
H -2.7065608933 3.2678410149 2.1649137939
H -0.4503311663 1.4827070797 2.1506581672
H -1.0742747617 0.0069385636 2.939842568

