# b3lyp 6-31G(2df,p) opt Freq 

 titel

0 1
O -2.2994531676 0.1145039226 1.3504840835
C -0.9709526149 -0.2598336751 1.5875743607
C -0.6048258972 -0.3159011959 3.0225018667
C -0.7180883512 -1.6315368953 2.242519682
C -1.8539197114 -2.5307832932 2.5355315864
O -1.8115250609 -3.7342310101 2.4343316844
C 0.028929271 0.2216933121 0.5757482788
C -0.1180675368 1.5864372095 -0.047952365
C -0.3290964369 0.3490502178 -0.8848953412
H -2.6128163238 -0.3580737463 0.5708663682
H 0.3867780371 -0.0045737878 3.3294334121
H -1.3969368228 -0.1088362573 3.7343066273
H 0.1988043592 -2.1440971999 1.9716197847
H -2.7815234186 -2.0117552155 2.8623981736
H 1.0421226281 -0.1066010775 0.787656544
H -1.0007519945 2.1550378438 0.2205363315
H 0.776662083 2.1773280903 -0.2070091812
H -1.344497386 0.1265158132 -1.196225088
H 0.4220959642 0.0749744846 -1.6166927385

