# b3lyp 6-31G(2df,p) opt Freq 

 titel

0 1
C 1.2592473135 -0.3367093035 -1.3196214217
C 1.3083340908 0.2371748472 0.0905432152
C 2.355323554 1.3695911815 0.3591705606
C 1.9265457464 2.373747897 1.4366696513
O 2.327874446 1.4752407493 2.4988937938
C 2.9278365746 0.5553915795 1.5629510446
C 2.017861962 -0.6041569791 1.1730907088
C 2.3545391903 -2.0317987344 1.1508561888
O 1.398558647 -1.4945635347 2.0736832497
H 0.6077650835 -1.2158166671 -1.3653063891
H 0.8698389845 0.4013882962 -2.0288902365
H 2.2551893952 -0.6384463595 -1.6619930902
H 0.303507707 0.5338304083 0.4106428477
H 2.9460822706 1.7123661862 -0.4887217196
H 2.5155805831 3.300029133 1.459418005
H 0.8595658126 2.6245162136 1.4822211925
H 3.9812307792 0.3614776379 1.7852365696
H 1.9440792942 -2.6733405118 0.3726166131
H 3.2892672256 -2.3751305594 1.5930942765

