# b3lyp 6-31G(2df,p) opt Freq 

 titel

0 1
O 0.0527577895 1.5085381512 1.430969462
C -0.9139027335 0.7378297505 0.778644738
C -2.3779364058 1.0773531543 0.9973278282
C -1.7843007189 -0.154595982 1.6337286525
O -1.5931017917 -0.0221796461 3.0262215677
C -2.1802610378 -1.5345226896 1.1531540721
C -1.9725418325 -1.7204835818 -0.3272603557
C -1.209691147 -0.9316947496 -1.0841107769
C -0.4431138653 0.259520687 -0.5768129024
H -0.163865106 1.4622771717 2.3726141072
H -2.5857028312 1.9076718172 1.6636528685
H -3.0827419233 0.9436951448 0.1832095677
H -0.9440434139 -0.684224475 3.2942755668
H -1.5798405207 -2.2842615278 1.6949782722
H -3.2234285204 -1.7449162178 1.4261382366
H -2.4755368618 -2.5714856675 -0.7790837896
H -1.1049924673 -1.1541811032 -2.1430500537
H 0.6226506866 0.0047889333 -0.4905273156
H -0.491916239 1.0809159903 -1.3043712656

