# b3lyp 6-31G(2df,p) opt Freq 

 titel

0 1
C 0.0204185872 -0.0474773786 0.1701752662
C 1.5119154246 -0.0162006656 -0.014822067
O 2.101761685 -1.3309029598 -0.2445990559
C 2.6929520582 -0.9097526404 -1.5030474965
C 2.2452111727 0.5378683191 -1.2652734336
O 1.6232690725 1.1445313085 -2.3539735803
C 3.0989224673 1.4432242163 -0.3409367431
C 3.8092565464 0.6736057104 0.7394388678
C 2.3422192808 0.9284278281 0.8972111983
H -0.2370271724 -0.5856638312 1.0892602293
H -0.3820552467 0.9679914765 0.2510244867
H -0.4643843926 -0.549357276 -0.6712460883
H 3.7676104491 -1.1160241441 -1.5514615766
H 2.1869042322 -1.3685919323 -2.3607390084
H 1.3770143038 2.0419280465 -2.1045736722
H 3.3911859459 2.4546062249 -0.6041007494
H 4.1619615812 -0.3381313572 0.5740780464
H 4.4535168422 1.2750411069 1.3732074701
H 1.9363125626 1.483898798 1.7352918967

