# b3lyp 6-31G(2df,p) opt Freq 

 titel

0 1
C 2.1204725342 0.5592159855 0.9920252865
C 1.6015386523 0.7203407193 -0.4449334652
C 1.9460960192 -0.4672449777 -1.302694944
C 1.071110791 -1.7191622659 -1.3640915943
O -0.1852862336 -1.5167140061 -0.7893613966
C 1.3777585476 -1.032901692 -2.6505294961
C 2.7788306354 -1.4488146159 -3.1158476499
C 3.315659471 -0.8224306131 -1.8011158232
O 4.4192399289 -0.5361871544 -1.4259493652
H 1.6535306551 -0.3021350591 1.4797150194
H 3.2036584671 0.4101486684 0.9962841764
H 1.8937637395 1.4488716857 1.5874043085
H 0.5162375633 0.8530706004 -0.4405724636
H 2.0379253496 1.6202910132 -0.8947091202
H 1.5063983819 -2.700082576 -1.1588380833
H -0.8257816233 -2.0398639191 -1.2827068771
H 0.6052252737 -0.5843676182 -3.2616481502
H 2.9534343673 -2.5180577362 -3.2747883453
H 3.1515826299 -0.8923632288 -3.9803852766

