# b3lyp 6-31G(2df,p) opt Freq 

 titel

0 1
C -4.5417322125 -0.407594963 1.1700264403
C -3.2958807767 -1.2699846166 0.8990830823
C -3.1420852335 -2.3821089178 1.9647385964
O -2.0307625437 -3.216278256 1.732395209
C -2.0733199508 -0.4693254669 0.8559810631
C -1.0367380988 0.1476691082 0.8640002275
C 0.1837989942 0.9083338122 0.8820896959
C 1.3060600389 0.6020221094 -0.0274923547
O 1.3692189428 0.237181009 1.3452305719
H -4.4639269042 0.0953406428 2.1386281939
H -4.6632401777 0.3583864087 0.4002923382
H -5.4399560719 -1.032971457 1.1773024111
H -3.4127493049 -1.7717438821 -0.0707639561
H -3.1042123102 -1.9149981589 2.9618500992
H -4.0261419941 -3.0272529583 1.9306971451
H -1.2455715869 -2.655411129 1.7407796294
H 0.0935554263 1.9326844662 1.2420849922
H 1.2030592847 -0.2227896807 -0.7298132652
H 1.9734522089 1.4062218997 -0.3348505895

