# b3lyp 6-31G(2df,p) opt Freq 

 titel

0 1
C -2.9214962782 -0.1877147512 0.4909616233
C -1.6615420824 -0.9690174646 0.2470520212
C -1.6928601235 -2.4958492994 0.0214313288
O -0.7962552769 -2.3880519409 -1.1138236434
C -0.7203266615 -0.9576043946 -0.9838939928
C 0.3315594158 -0.4856291575 0.0018257067
C 1.3316464501 0.617857283 -0.1196090589
C 1.7764928799 -0.8236025691 0.0972233895
O -0.5690971049 -0.5767901032 1.1183506404
H -3.3050901032 -0.3975609223 1.4958444121
H -2.7299814243 0.8864572371 0.4207296812
H -3.695300902 -0.4580568652 -0.2337977407
H -1.2720725554 -3.0859269566 0.842272917
H -2.664127744 -2.9078010589 -0.2805859981
H -0.8541508588 -0.4308428873 -1.930925851
H 1.4862553461 1.0731928707 -1.0927903237
H 1.416564122 1.2973674337 0.7216492058
H 2.2321612875 -1.3664154721 -0.7239522965
H 2.1547135237 -1.0817310814 1.0804427989

