# b3lyp 6-31G(2df,p) opt Freq 

 titel

0 1
C 1.4613908389 -1.307411867 -2.8428202653
C 2.3135786984 -0.0263666878 -2.711547186
C 2.6811034258 0.4286990685 -1.3040640323
C 1.5799644308 0.4133526478 -0.261923127
O 0.9532224984 -0.8378746928 0.0564344222
C 0.1339666862 0.2100534994 -0.4824470342
C -0.5757112824 -0.0291878835 -1.8007489627
C 0.2957641486 -0.3100594445 -3.0192765998
O 1.2289149049 0.7775786637 -3.2405843814
H 1.6784874126 -1.8548553316 -3.7616609471
H 1.426695623 -1.9835085086 -1.9920361273
H 3.1975241979 0.0308043505 -3.35666957
H 3.516325354 -0.1800880286 -0.9303374468
H 3.0546573076 1.458503583 -1.373174162
H 1.8434099134 0.9879568601 0.6296724447
H -0.5233812026 0.6551990914 0.2687223091
H -1.2871981418 -0.8554288873 -1.6629050305
H -1.1758560337 0.8637230634 -2.0183554586
H -0.34201469 -0.466834316 -3.896471425

