# b3lyp 6-31G(2df,p) opt Freq 

 titel

0 1
C -1.3544620579 5.1474893881 -2.7349645115
C -1.0934839166 3.9992498319 -1.8159632125
C -1.6230368912 2.778611674 -1.8214328176
C -1.0565421327 1.9505994005 -0.7017100541
C -0.3304017644 0.6721165832 -1.1715525025
C 0.3035944134 -0.0801131752 -0.020821708
O 0.097434036 -1.2413005547 0.2281145738
O -0.1293519575 2.8192781873 -0.0418263971
C -0.1227553942 4.0988030014 -0.6662718651
H -1.7318102715 6.0175435741 -2.1832565061
H -0.4331296089 5.4707863174 -3.2354427475
H -2.0864915893 4.8886423041 -3.5036713312
H -2.3596127357 2.3972730733 -2.5178240928
H -1.8398347898 1.6578695126 0.0172874533
H -1.0220894468 0.0014404542 -1.6902263411
H 0.4633837182 0.9729955154 -1.8679784269
H 0.9914192628 0.5311817203 0.6010630117
H -0.4214195663 4.8733110762 0.0589231474
H 0.8969394024 4.3485900458 -1.0001539719

