# b3lyp 6-31G(2df,p) opt Freq 

 titel

0 1
O 0.3572923623 0.3726901666 0.9356700921
C -0.9259543066 0.5409333231 0.3401835209
C -1.3300664281 2.0082375173 0.3508586114
O -2.6772281632 2.2361145906 -0.0734266731
C -2.4062557768 2.2133229349 1.3331876025
C -2.7577974988 0.8921700078 1.9884362162
C -2.0728513022 -0.1507914172 1.0931470134
C -2.8789552307 -1.2196415442 0.400497993
C -1.9311677119 -1.5908023935 1.5107516322
H 0.2832502333 0.5971343177 1.8697236656
H -0.816178579 0.1525781241 -0.6766798415
H -0.6009444327 2.7678599078 0.0808862008
H -2.5587666622 3.1562504604 1.8523604418
H -2.3623681144 0.8800106054 3.0134405935
H -3.8393569287 0.7371283918 2.0569885597
H -3.9449392382 -1.2558972012 0.6003196554
H -2.6082458895 -1.4825599289 -0.6167758199
H -2.3520043286 -1.884759375 2.4670918306
H -1.0043585039 -2.0934750676 1.2565981355

