# b3lyp 6-31G(2df,p) opt Freq 

 titel

0 1
O 0.3998408516 -0.9864636563 -0.4699673708
C 0.7159824405 0.3052467459 0.0195810269
C -0.2338156935 0.7569763461 1.1454638993
C -1.7459663703 0.6469497472 0.7557651047
C -2.465445793 -0.0816715818 1.9232542759
C -1.3314917557 -0.5901611566 2.7751431631
C -0.1442512188 -0.1426554248 2.3688692467
C 0.0969235587 2.1813786169 1.5719050267
O 1.031600592 2.8272823987 1.172476442
H 0.4087758512 -1.5923718541 0.2796133756
H 1.7541158983 0.3623623619 0.3752805599
H 0.6321962031 0.9852270889 -0.8327168781
H -2.1879982179 1.6253330942 0.5465470811
H -1.807106118 0.0539667464 -0.1589167846
H -3.1081096852 0.5955790486 2.5009127555
H -3.1180468803 -0.8898102363 1.5730407209
H -1.4891359539 -1.2334047925 3.6347275214
H 0.8072779513 -0.350377997 2.848405024
H -0.6167568502 2.6014489946 2.3187819999

