# b3lyp 6-31G(2df,p) opt Freq 

 titel

0 1
C 1.3196354497 -1.0249342599 -1.1042982086
C 1.1533110437 -0.030448475 0.0601506002
C 1.7808885874 1.3104147826 -0.2094701649
C 1.0645216911 2.4180568567 -0.4454486251
C 1.672691203 3.7571526843 -0.5914695924
O 1.0405662714 4.7814678796 -0.5529947328
O 3.0290535557 3.8137689725 -0.7173143699
C 3.7238479648 2.605893491 -1.0478959864
C 3.2849493646 1.4286168048 -0.1877248614
H 0.8609078692 -1.9854586757 -0.8528270602
H 0.8399917622 -0.6452770297 -2.0112878227
H 2.3733273452 -1.2117995578 -1.3338274978
H 0.0881226494 0.1037690767 0.2736823425
H 1.607636383 -0.4602022605 0.9634785189
H -0.0199467491 2.416083931 -0.4458219592
H 3.5512222989 2.3757784115 -2.107869604
H 4.7837201205 2.8338522562 -0.9153565736
H 3.7606388002 0.5141595445 -0.5587601156
H 3.625801859 1.557203607 0.8493599929

