# b3lyp 6-31G(2df,p) opt Freq 

 titel

0 1
C 1.486702737 -0.1993141033 0.2597503437
O 0.1074184393 0.102022384 0.0963062093
C -0.455645833 0.7745505583 1.1500588493
C -0.8311362553 0.08611271 2.4861224838
O -0.9393143907 1.096091243 3.4890921991
C -1.5771812898 1.9134530843 2.4604495312
C -1.8987976286 0.6410243146 1.5976423247
C -0.4217961442 2.2784421844 1.4804839937
C 0.820762402 2.9561267882 2.0384454146
H 1.6664831174 -0.7590393892 1.1871149074
H 1.7787846463 -0.8124233453 -0.5955138043
H 2.102170891 0.7092007278 0.2737123379
H -0.5654684506 -0.9255419382 2.763150575
H -2.2692077131 2.6533281076 2.8565427207
H -2.7853548679 0.2337574407 1.13328282
H -0.8426764814 2.8290980548 0.6319688687
H 1.1921778396 2.4147702954 2.9117171985
H 1.6183812327 3.0041030253 1.289833545
H 0.5986633893 3.9847764877 2.3450504216

