# b3lyp 6-31G(2df,p) opt Freq 

 titel

0 1
C 1.4529795592 0.7744362265 0.0825878705
C 0.0454357935 0.246507973 0.0214479288
C -1.0582445973 0.9587956968 -0.2893449103
C -2.4386254021 0.3307180969 -0.2717300494
O -2.48467165 -0.925393666 0.3727693954
C -1.4475656274 -1.7779245835 -0.0652414802
C -0.0883330275 -1.2213584979 0.3561196714
C -1.0408641658 2.3729990798 -0.6892903835
O -2.044773078 2.9874423104 -0.9894240957
H 1.8976700918 0.525872991 1.0543663458
H 2.0746353417 0.2798242152 -0.6743887259
H 1.5376571221 1.8508789792 -0.0588512361
H -3.1306486087 0.9870030771 0.2624920746
H -2.8171151911 0.2522052671 -1.3055186799
H -1.6316316273 -2.7570866091 0.3852510299
H -1.481550464 -1.8971169653 -1.1612558908
H 0.0529850871 -1.3529571137 1.438280677
H 0.7213035339 -1.7853603474 -0.1259085324
H -0.0530100698 2.87381508 -0.7174173795

