# b3lyp 6-31G(2df,p) opt Freq 

 titel

0 1
C -3.9466525499 -1.2796356283 -1.256192781
C -3.0826229352 -0.0439414645 -1.1254379648
C -3.545811458 1.2287151973 -1.6969269954
O -2.5434501736 0.4504155867 -2.3624492695
C -2.1074348658 -0.0511074454 0.0326690412
C -0.9510504879 -1.1069013991 -0.0346474492
C 0.0087778152 0.0175480068 0.3814490542
O 1.1163191434 0.0366257172 0.8323109542
C -1.0516679726 1.0937838329 0.1161824192
H -4.5790212788 -1.4048910789 -0.370638071
H -4.5890766912 -1.2096467517 -2.1370132436
H -3.3278063474 -2.1774242819 -1.3554452514
H -4.5098265642 1.2724311478 -2.2018973268
H -3.2003026433 2.1734001056 -1.2800155898
H -2.6629183291 -0.1489347444 0.9704067911
H -0.9937216622 -1.9831120312 0.6158808112
H -0.7501679105 -1.4310066564 -1.0620575024
H -1.1691053339 1.8732964237 0.8718352831
H -0.8891919949 1.5514854239 -0.8659683391

