# b3lyp 6-31G(2df,p) opt Freq 

 titel

0 1
C 1.5968565724 0.2623999672 -0.0990392855
O 0.2007031191 0.0778497444 -0.0467346813
C -0.3758182412 0.4437784879 1.179853752
C -1.8876406651 0.3337884544 1.1053465645
C -2.3750575896 0.0694233708 2.5322635122
C -1.1349772593 0.0231813053 3.4215503833
C -0.2130151327 -0.5852791705 2.3419859652
O -0.9544891653 -1.7167395322 1.8731423268
C -2.1766684922 -1.0750190355 1.566322669
H 2.1332806628 -0.391559495 0.604122854
H 1.9169370738 0.0164079686 -1.1142320179
H 1.877137897 1.3055934132 0.1185964552
H -0.0276667625 1.4421205324 1.4888617612
H -2.4713666299 0.8516738143 0.3577548368
H -3.3498231397 0.3824776928 2.8803836463
H -0.7966334871 1.0063342213 3.7608174112
H -1.2527985777 -0.6371898915 4.2851472242
H 0.7910863281 -0.8891671618 2.6283637081
H -2.9478503909 -1.7230175658 1.1767146346

