# b3lyp 6-31G(2df,p) opt Freq 

 titel

0 1
C 1.5690159199 3.6215470078 -1.04512088
C 1.0945779838 4.1319280648 0.3107163131
O 1.4059383093 5.5216993016 0.3545856062
C 1.754705035 3.3996779602 1.4638773448
C 1.0923751329 2.1476947379 1.9728640239
C 1.9125446164 1.4822861562 3.1259648537
O 3.1016505058 2.2463697266 3.3727972786
C 1.8559901164 2.7077919774 3.9144445052
C 1.0356768001 3.4289438928 2.795499017
H 1.3105415497 2.5668048445 -1.1735271611
H 1.1022846234 4.1989676064 -1.8476510934
H 2.6543863192 3.7302998708 -1.1313929599
H 0.0014895708 3.9902012826 0.3804741619
H 1.2649918007 5.8206972189 1.2589624582
H 2.838086261 3.4508876502 1.4668098134
H 0.2781653971 1.6548247857 1.4576658973
H 1.9201257921 0.4363510751 3.4069035897
H 1.8070527368 2.8844391481 4.9819730077
H 0.1688119597 4.0474759223 2.9928201238

