# b3lyp 6-31G(2df,p) opt Freq 

 titel

0 1
C 1.4218519594 0.0906481669 -0.1460616478
O 0.0514480139 -0.0978288124 0.1304276867
C -0.4181254112 0.5637877556 1.2890183446
C 0.005730696 -0.1416720241 2.5886013039
C -0.7240649873 0.4089531354 3.7825457073
C -1.890195703 1.0618960569 3.699702171
C -2.5858110641 1.2721034858 2.4110374121
O -3.6239803294 1.8973293287 2.3363274564
C -1.9413522268 0.6244033345 1.1900299962
H 2.074844941 -0.3758611224 0.6057922511
H 1.620236074 -0.3782935398 -1.1127369244
H 1.6781556205 1.1594095222 -0.2113981787
H -0.0203447795 1.5932137574 1.3104720879
H -0.2040515807 -1.2166911422 2.4856400156
H 1.0862953342 -0.057773312 2.74772921
H -0.2611164586 0.2590661748 4.755323773
H -2.3894884686 1.4613334642 4.5766938142
H -2.325184628 -0.402548284 1.1106560074
H -2.2595808519 1.1589497945 0.2927116635

