# b3lyp 6-31G(2df,p) opt Freq 

 titel

0 1
C 2.1141529585 0.2411189013 -1.7454131379
C 1.421510101 0.1531683286 -0.3919144748
C 2.0348313837 -0.9070926414 0.5937371418
C 2.4224940064 0.2362889325 1.5357103567
O 1.2263164575 0.9661692178 1.8626340958
C 1.8314340874 1.2473496894 0.6112745268
C 3.611217894 0.3387629452 2.422692929
C 3.6489723833 1.499246323 3.3939927938
O 4.4921378499 -0.4908868066 2.3438551542
H 1.9259307821 -0.6607579813 -2.3361350032
H 1.7544505255 1.1011381544 -2.3207819079
H 3.1991164049 0.3437698069 -1.6304222366
H 0.336130269 0.0857793938 -0.5109108152
H 1.3535047882 -1.6448491473 1.0220258949
H 2.9111566963 -1.4074998758 0.1782641791
H 2.1303648382 2.2732828198 0.4182341094
H 2.8660314882 1.3718423978 4.1489971516
H 4.626544076 1.5344804167 3.8758873886
H 3.4403238998 2.4473626353 2.8887137439

