# b3lyp 6-31G(2df,p) opt Freq 

 titel

0 1
C -0.0218041909 0.2554764081 0.3218116112
C 1.4351590042 -0.0071329786 -0.0006412376
C 1.963508671 0.2325176971 -1.4441165278
C 3.3170327033 0.6240331965 -0.8185498463
O 4.0665966581 -0.5339581274 -0.4256391764
C 3.464551745 -0.9249708381 0.8049105962
C 2.0099362066 -1.3498566004 0.5290478347
O 3.3038444525 0.2862234478 1.5265948821
C 2.5762405731 0.9601365323 0.522837323
H -0.1996798007 0.2166312563 1.4023149307
H -0.3367889823 1.2414859629 -0.0374152378
H -0.6725936955 -0.4906337997 -0.1487728266
H 1.9660605686 -0.6119401221 -2.137788353
H 1.4794163855 1.0942516128 -1.9166559991
H 3.9838139221 1.3264660268 -1.3187942079
H 4.1193646454 -1.6165453342 1.3327514936
H 1.9377892482 -2.1640239186 -0.1957042464
H 1.5262737907 -1.6545756462 1.4620685257
H 2.3482369651 1.9875278247 0.7952579716

