# b3lyp 6-31G(2df,p) opt Freq 

 titel

0 1
C -3.1707717027 -1.226307623 1.1800019459
C -2.1895923541 -0.7538164946 0.1046828458
C -0.7388988519 -1.2563580373 0.3112229251
C 0.1642517051 -0.1406468277 -0.2217455621
O 1.2667815132 -0.2597058133 -0.691864263
C -0.6283462152 1.1364538594 -0.1393375345
O -1.2851996495 1.2724431797 1.1393160493
C -2.0517859039 0.7738302334 0.0384449346
C -3.1904464885 1.6348436123 -0.4351687965
H -3.1907700099 -2.3189808185 1.2352540513
H -2.8736425903 -0.8412945262 2.1607559338
H -4.1909649124 -0.8867718534 0.9749001641
H -2.5422665097 -1.091926136 -0.8786378525
H -0.5243361136 -1.3939670667 1.3771201649
H -0.520025617 -2.1984175222 -0.194636123
H -0.2759809886 2.0504923082 -0.6072814646
H -4.064302053 1.5139317082 0.2133962441
H -2.9046292472 2.6891901316 -0.4249614551
H -3.4854768708 1.3592977062 -1.4528250477

