# b3lyp 6-31G(2df,p) opt Freq 

 titel

0 1
O -0.1509975242 3.1298224616 -0.6713877928
C -0.1527103939 1.8066464391 -1.1608561147
C -1.4933383634 1.1628896601 -1.3898937304
C -0.6828357704 1.6821298915 -2.5604863334
C 1.0847811569 1.0515414345 -0.7496835067
C 1.2115672323 -0.491507385 -0.8797144122
C 2.3733827808 -0.4711924807 0.1431154201
C 1.2101995306 0.4040711773 0.6653138833
O 0.2685335513 -0.6637041523 0.2531246257
H -0.3867492305 3.0941152435 0.2622244099
H -1.5879696492 0.0961873789 -1.239184861
H -2.3576914222 1.7492525468 -1.0977037075
H -0.2159482158 0.9644879303 -3.226661886
H -1.009532209 2.6010087481 -3.0331554818
H 1.9702443013 1.6142520057 -1.0644022375
H 1.068808166 -1.1306945608 -1.7520102978
H 2.51680423 -1.4066400181 0.6838553086
H 3.3092603402 0.0166909367 -0.1392185315
H 1.066658939 0.8455643428 1.6525510659

