# b3lyp 6-31G(2df,p) opt Freq 

 titel

0 1
O 0.4933592964 0.7056594797 0.5870469501
C -0.638609365 -0.0247455699 1.021175603
C -1.8050453642 0.0106509479 -0.0083416997
C -2.7847377974 1.0576838899 0.590636434
C -3.9939895347 0.4096554761 1.2817480583
C -3.5353944152 -0.3536866848 2.5001267011
C -2.2829261348 -0.2487410668 2.9427288699
C -1.3079495056 0.6598136109 2.233943064
O -2.0037813621 1.7370566758 1.5906847612
H 0.2092096391 1.6258380467 0.5182789435
H -0.2885749648 -1.0375616577 1.2315076541
H -1.4110386271 0.3194874671 -0.9786601155
H -2.276120955 -0.9674345548 -0.1298832541
H -3.1024573799 1.8097114752 -0.1348874617
H -4.7260284668 1.1769695098 1.5672066943
H -4.5089337265 -0.2599032072 0.5798637704
H -4.2574588452 -0.988075955 3.0073347515
H -1.9273480858 -0.8131294165 3.7995027129
H -0.5710647853 1.0930803036 2.9140075627

