# b3lyp 6-31G(2df,p) opt Freq 

 titel

0 1
C 2.6798051862 2.5172485338 -0.6662164655
C 3.0533148956 1.0688892327 -0.9044831108
C 2.5792776719 0.0834483483 0.1635185261
C 1.1264943165 -0.0415968762 0.2265391435
C -0.071478089 -0.1324322965 0.2652853004
C 4.3936862966 0.7740147402 -1.5728574622
O 5.1332083016 -0.3693764494 -1.2486721216
C 3.1117762995 0.5546578036 -2.3247309015
O 2.7352132381 1.4269672198 -3.3479444676
H 3.1410542733 2.8915428752 0.2553697922
H 2.9983511464 3.1483995584 -1.4976842783
H 1.5945921687 2.6209177484 -0.5665475113
H 3.0288717925 -0.8977932556 -0.0234680118
H 2.9549424535 0.4090234864 1.1441814674
H -1.1288024354 -0.22033446 0.3024866336
H 4.9809521587 1.6456647756 -1.8650114093
H 5.5994638021 -0.2014553401 -0.4224022124
H 2.8245159602 -0.4878418353 -2.4674393741
H 3.2918408829 1.2451061305 -4.1126375266

