# b3lyp 6-31G(2df,p) opt Freq 

 titel

0 1
O 0.8608052453 0.015754156 0.8932149134
C -0.1201342456 -0.0220364677 0.1899902306
C -1.021807529 1.1922526851 -0.0031529267
C -1.7973043953 1.1754418447 -1.3295993026
C -2.652958081 -0.0840306506 -1.4900039399
C -3.6839602646 -0.3459534264 -0.3724278411
O -2.846912061 -1.3634061378 0.2177205628
C -1.9766569375 -1.3700011291 -0.9414452669
C -0.5086042715 -1.2918986318 -0.5662929322
H -1.7210535235 1.1917478765 0.8437074983
H -0.4082108697 2.0907608102 0.1033037467
H -2.4313854269 2.0667942852 -1.4026661555
H -1.0887582845 1.2358471045 -2.1656470403
H -3.0440136571 -0.1585212279 -2.5067945457
H -3.8882927595 0.4756490474 0.324769219
H -4.6391901227 -0.7576422336 -0.7238416907
H -2.1645806708 -2.2598180331 -1.557907336
H -0.2065515656 -2.1567687774 0.0319695784
H 0.0958266305 -1.3223646343 -1.4848196117

