# b3lyp 6-31G(2df,p) opt Freq 

 titel

0 1
C 4.6892187059 -1.2392702569 -0.876103471
C 3.1631337961 -1.2918987114 -0.7236558674
C 2.704191813 -2.6550574195 -0.1929453391
C 2.6631484212 -0.1456474816 0.2101632271
O 3.2183111897 -0.2840195236 1.4955102809
C 3.0821850617 1.2158062714 -0.370198976
O 3.7386359158 1.9968201446 0.2693045287
C 1.1915571003 -0.0984836663 0.2516558164
C -0.007510423 -0.0070284856 0.2488249656
H 5.1708920572 -1.3337051931 0.1006102769
H 5.0332774588 -2.0611902008 -1.5104047887
H 5.0318362199 -0.3042497423 -1.332378371
H 2.6960667224 -1.1209709006 -1.7028351105
H 3.1281449165 -2.8403212871 0.7979956639
H 1.6152369799 -2.7070231225 -0.1140475574
H 3.0375062879 -3.452631818 -0.8639047303
H 3.6197473874 0.576774355 1.6993864953
H 2.7271816226 1.4329924397 -1.3957630619
H -1.0680539135 0.0551131185 0.2680791384

