# b3lyp 6-31G(2df,p) opt Freq 

 titel

0 1
C -2.9927804298 -0.1171917519 -1.4511464142
C -2.2948503039 -0.0573323934 -0.0976953441
C -1.2071395526 -1.1826806552 0.1133607528
O -1.2090813313 -2.3065292609 -0.7231447694
C -0.1422987716 -0.1047746051 -0.14012688
O 1.0039377442 -0.1683395927 -0.498731415
C -1.1575897539 0.9864988409 0.0050423284
C -1.0248773734 2.1740106267 0.9385249783
C -1.0472906159 2.3882615926 -0.541646471
H -3.6231565546 -1.0077583845 -1.5214457305
H -3.6238304085 0.7641516216 -1.6045858595
H -2.2689384153 -0.160429349 -2.2707765692
H -3.02589084 -0.0126815154 0.7139259593
H -1.1898330688 -1.48864449 1.1702378144
H -0.3674822629 -2.3119806346 -1.1945102048
H -1.9065148503 2.4407428255 1.512283552
H -0.0840054945 2.2892554765 1.4661607766
H -1.9392908106 2.8149775667 -0.9877413134
H -0.1180004863 2.6385899324 -1.0425501605

