# b3lyp 6-31G(2df,p) opt Freq 

 titel

0 1
C -2.9946536567 -0.079740543 1.1993924988
C -2.0391619179 -0.0543470384 0.0174821204
C -0.8926478901 -1.122518479 0.0497609268
C 0.1286749968 0.0199305969 0.0767634682
O 1.3200640136 0.0686402113 0.1827469927
C -0.9586871417 1.0963903057 -0.0473629193
C -1.1199582909 1.6719463121 -1.4661065815
O -1.7635139125 0.6524531565 -2.2189212179
C -2.7228568138 0.0622135222 -1.3524779919
H -3.6401725834 -0.9650104882 1.1662101063
H -2.4524344901 -0.1052592225 2.1502613389
H -3.6420026305 0.803913339 1.2065371726
H -0.868050262 -1.7671619619 0.9338915455
H -0.8137278676 -1.7501983136 -0.8438441013
H -0.9507145307 1.8629021643 0.7309524794
H -1.7387505072 2.5830000731 -1.4319624293
H -0.1719050829 1.9096404393 -1.9550867162
H -3.620406526 0.699500812 -1.273937413
H -3.0165764665 -0.8989110455 -1.7840650292

