# b3lyp 6-31G(2df,p) opt Freq 

 titel

0 1
C 0.8944236561 1.123986374 1.2749238274
C -0.0353735387 1.6942057685 0.1459423704
C 0.1406064775 0.3628476743 -0.5940601828
C 0.2613066109 -0.0979591023 -2.0396226904
C 0.4240558684 -1.6372908271 -1.76647542
C 0.1472317546 -1.7120192322 -0.2388377174
O 1.3140306779 -1.3426949014 0.5104190678
C 1.3940429326 0.0580435399 0.2504331082
O -0.7473097608 -0.6393927339 -0.0348678765
H 1.6461951546 1.8003053003 1.6854056857
H 0.3275467982 0.6648899493 2.0844955037
H -1.0582047558 1.9662572334 0.4103898416
H 0.4318853557 2.5231581776 -0.3916700593
H -0.6373167165 0.1178019615 -2.6231742027
H 1.1244625532 0.3361232744 -2.5505736232
H -0.3129390529 -2.226308656 -2.3171536759
H 1.41951544 -2.0151023188 -2.0079991227
H -0.2477118886 -2.6498047207 0.149937321
H 2.3569013736 0.3100817991 -0.2038624148

