# b3lyp 6-31G(2df,p) opt Freq 

 titel

0 1
O 1.0806619852 -0.1711567776 -0.7752809748
C -0.0038670808 -0.1080151871 -0.2589214675
C -0.7754283338 -1.2763317364 0.3672207318
C -2.1850427002 -0.7273422883 0.6253352779
C -1.9659492704 0.7855441358 0.884094333
C -0.8528716563 1.1613988324 -0.1097562306
C -3.2203027169 1.6072056292 0.7395909006
C -3.5055129617 2.7775818746 1.5785042072
O -4.1656315258 1.5310544405 1.8088807189
H -0.7280013393 -2.1624641391 -0.2699241303
H -0.2695973533 -1.5325915552 1.3076505395
H -2.8083562013 -0.855338349 -0.2689101849
H -2.7034328093 -1.213588079 1.4539838936
H -1.594334363 0.9130765915 1.9086697202
H -1.2764830947 1.3873358049 -1.0992744302
H -0.2387874745 2.0177984997 0.1772459767
H -3.6754470705 1.5748578241 -0.2541099646
H -2.7903142147 3.0749631216 2.3447500277
H -4.1368514988 3.5791214074 1.1978442859

