# b3lyp 6-31G(2df,p) opt Freq 

 titel

0 1
C 0.8620351603 0.947363206 0.033352224
C 0.888193956 -0.5760280889 0.1947381282
C 1.2704918158 -1.2937645748 -1.1020469487
O 2.5243805889 -0.8685628242 -1.6491674905
C 2.483708897 -2.1044436808 -0.9218982051
C 2.936268626 -1.9821963646 0.4991996479
C 1.9695314616 -2.5417261877 1.5293497141
C 1.958916602 -1.0691325843 1.1928512223
O 2.4620316796 -0.1692139403 2.1332718738
H 0.6580464659 1.4424842849 0.9859708398
H 1.8243633412 1.3062810197 -0.3378267848
H 0.084324594 1.2424798352 -0.6784830543
H -0.1081922722 -0.9217549914 0.5038811867
H 0.5062909604 -1.5351638469 -1.837704084
H 2.689623726 -2.9972598106 -1.5078885822
H 3.992715151 -1.9400778678 0.7377972206
H 1.1535705203 -3.1766020942 1.1958009443
H 2.3953696911 -2.8080764451 2.4904000361
H 1.8222820051 -0.0944351042 2.8498091218

