# b3lyp 6-31G(2df,p) opt Freq 

 titel

0 1
C -0.0721291664 -0.0219966926 -0.1579529318
C 1.440533535 0.0012549977 0.0617350986
O 2.1266746904 -0.5735579342 -1.053597119
C 1.9084592707 -0.6889913974 1.3602612637
C 1.5161522718 -0.1710120076 2.7196460969
C 2.8391481 0.2381619287 2.1149092865
C 2.8432659096 1.5462804523 1.3544973299
O 1.5537879239 2.1824656817 1.2641915906
C 2.0159415125 1.4194993165 0.1480327665
H -0.589351661 0.520855784 0.6367285786
H -0.3222045551 0.4387117741 -1.1183931826
H -0.4467103125 -1.0525575671 -0.1623199847
H 1.7554797431 -1.4485320774 -1.2082510688
H 2.1340741983 -1.7466679556 1.2660987312
H 0.7511330972 0.5904659827 2.8001725043
H 1.5446403805 -0.884102383 3.5366928978
H 3.7703777407 -0.1008822536 2.5518787093
H 3.6873381962 2.2252521407 1.4305775799
H 2.1746788852 1.9649762101 -0.7792893869

