# b3lyp 6-31G(2df,p) opt Freq 

 titel

0 1
C 0.0366754505 -0.1695090627 0.0818306155
C 1.4537746878 0.3525070631 0.3459401901
C 2.1272808925 -0.7139143055 1.203443069
O 2.4302266361 -1.801144607 0.7810016993
C 1.6826435922 1.8598203873 0.7232158026
C 1.3874742327 2.2258672869 -0.7600132433
C 2.3023465062 0.9681039908 -0.8311066876
C 3.1600762586 1.680719424 0.2422285417
O 4.0395063612 0.8577087303 0.9642192462
H -0.4957880776 -0.3235806242 1.0278827362
H -0.5698238954 0.4994415141 -0.5300262263
H 0.0985832233 -1.1395146376 -0.4192165694
H 2.2121593744 -0.4710725188 2.2873212281
H 1.3330554694 2.3840547818 1.6153615882
H 0.3638657812 2.1254925658 -1.1116490214
H 1.8282546994 3.1591085951 -1.1202301303
H 2.6621674434 0.4487036752 -1.7188263679
H 3.6582200017 2.5999873957 -0.0895730266
H 4.3386963326 1.3353253159 1.745111026

