# b3lyp 6-31G(2df,p) opt Freq 

 titel

0 1
O -0.624240167 -1.0866362288 0.7768270964
C 0.6869360861 -0.8458035126 0.2954199399
C 0.7357650741 0.2898952752 -0.6366383805
C 0.7656601938 1.2117927789 -1.4070823244
C 1.6539936456 -0.6506110405 1.4804086367
O 1.1207250537 0.4460549842 2.1956745385
C 1.9069209918 -1.9776342194 2.2485380816
C 3.2344269891 -2.1364603777 1.4562897718
C 3.1532287851 -0.6326427412 1.0726380906
H -0.8028886264 -0.3685311311 1.398378043
H 0.9789901452 -1.7540745582 -0.2443616857
H 0.7853327811 2.0284194467 -2.085739922
H 1.5673682665 0.5036026608 3.0455098339
H 2.0921116716 -1.7822615263 3.3105811959
H 1.1407787994 -2.7509208 2.1652491673
H 4.1115735498 -2.4573390259 2.0205047656
H 3.1256993532 -2.7936311404 0.5900871147
H 3.7285374526 -0.0031943404 1.758718917
H 3.3886667246 -0.3360297831 0.0481912498

