# b3lyp 6-31G(2df,p) opt Freq 

 titel

0 1
O 0.5051709519 0.7471584643 0.4134204773
C -0.6345862671 0.0446543128 0.8983386547
C -1.7593242265 0.0773660532 -0.1600806082
C -2.7710785883 1.0965274592 0.3886086038
C -2.0960920808 2.49575542 0.593850396
C -1.813223677 2.0953232027 2.0383062314
C -2.7548180652 0.8972977526 1.9332091496
C -1.2764892752 0.6816026878 2.1302409726
O -0.7469941797 0.3794097283 3.3872513843
H 1.073064509 0.9262286871 1.1708868985
H -0.3485866698 -0.9920901388 1.1424112434
H -1.3592456932 0.3491057598 -1.1407985381
H -2.2246804965 -0.9106132242 -0.2428338338
H -3.7332221372 1.0989241755 -0.1229885456
H -1.2430267198 2.7325770516 -0.0476249857
H -2.8306924618 3.3040998516 0.5473281776
H -1.6641597608 2.7517714211 2.8875250188
H -3.5374540909 0.5544190545 2.597367781
H -0.9431959611 -0.5444027993 3.5805109024

