# b3lyp 6-31G(2df,p) opt Freq 

 titel

0 1
O 1.5146293121 0.9362308557 -0.0202230901
C 0.1957634842 0.4772618156 0.2326636829
C -0.7491175013 1.2534804883 -0.6788399634
C -2.1961007784 0.8009722736 -0.5527846735
C -3.2768442364 1.7355203253 -1.2027903035
O -3.1370446792 2.6165579259 -0.0392245857
C -3.0166837029 1.3440179314 0.6765285541
C -4.39520324 0.7103523028 0.4247843261
C -4.5750606422 0.9811123355 -0.8701429754
H 2.1142645455 0.4701615097 0.5694806814
H 0.1051428597 -0.603629917 0.0319963173
H -0.0848928975 0.6351500796 1.286880931
H -0.6722568918 2.3211495878 -0.4561773825
H -0.4116649186 1.1113566864 -1.7133984157
H -2.3103179671 -0.2674627388 -0.7600860783
H -3.1505254982 2.2295830075 -2.1657322072
H -2.6236540896 1.4282351521 1.6892620637
H -5.0136214775 0.1817196549 1.1347808151
H -5.3849244509 0.7414966838 -1.5429115861

