# b3lyp 6-31G(2df,p) opt Freq 

 titel

0 1
C 1.1516879935 0.562681437 -0.6917725587
C -0.1656867738 -0.0622658877 -0.3382503604
C -0.3239564265 -1.3415642333 0.0024065854
C -1.6526434138 -1.8596192757 0.4228539218
O -1.6937133456 -2.4714510436 1.6886139342
C -2.6809420715 -2.3141991451 -0.6010915377
C -2.8197593561 -0.9830281727 0.1053092568
O -2.5933192914 0.1660395217 -0.6573517
C -1.3812519575 0.8445276544 -0.3630528214
H 1.3645342635 1.4244022485 -0.0455760675
H 1.9742974116 -0.1493866725 -0.5861135756
H 1.1512344974 0.9397886764 -1.7226149939
H 0.5203975261 -2.028164435 0.0231532973
H -1.3365987474 -3.3617273602 1.5952846148
H -2.4076315441 -2.281669911 -1.6494602503
H -3.354018094 -3.111224037 -0.3029602064
H -3.5919050416 -0.8818578471 0.865217972
H -1.2739149831 1.601057863 -1.1479799464
H -1.4558764455 1.3860144597 0.5966899361

