# b3lyp 6-31G(2df,p) opt Freq 

 titel

0 1
C 1.4224117851 -0.0140438988 0.0114055774
O 0.0034473924 -0.0673768645 0.0899979959
C -0.5303951428 0.5944642957 1.1547989927
C -2.0304191324 0.6788017646 1.4521616899
C -1.3994271851 1.4890298152 2.6106257651
C -2.0481597299 2.1989322073 3.7613528929
C -0.145790733 0.554518763 2.6861828047
O 0.8129116837 1.6510690632 2.606726764
C -0.2571460016 2.0514721647 1.6998323169
H 1.8894713705 -0.4640153481 0.8958605297
H 1.7064589892 -0.5788998946 -0.8785091125
H 1.7796942405 1.0188142666 -0.0803512259
H -2.6363012339 1.241261861 0.7360241277
H -2.5247560084 -0.2582450782 1.7239716168
H -2.6220568075 1.5046767888 4.3844369389
H -1.2838878428 2.6702334575 4.3878634349
H -2.733943108 2.9782965881 3.4122606147
H 0.0614945406 -0.2798311825 3.3567495255
H -0.1833447066 3.0114033009 1.1881181509

