# b3lyp 6-31G(2df,p) opt Freq 

 titel

0 1
C 0.7905695263 3.6324734325 -4.7436416729
C 1.0550074708 3.7772106544 -3.2599305359
O 0.8709133026 4.8162142377 -2.6691402256
C 1.6021808553 2.5547952424 -2.5157715379
C 0.5819687066 1.4119943511 -2.280854567
C 1.1833163903 0.366432948 -1.3233927045
O 0.3519138587 0.8118081629 -3.5638791321
C -0.6810615618 1.925493042 -1.7309122185
C -1.7320411429 2.3045156569 -1.2880156436
H 0.12773098 2.7825008399 -4.92450057
H 0.3633011438 4.5565239683 -5.1345744558
H 1.7287183147 3.4100704557 -5.2663576994
H 2.4367530247 2.1149991494 -3.0739472771
H 1.9634354424 2.9079548579 -1.5480953526
H 1.3818472855 0.8013870844 -0.3404215153
H 0.4873888132 -0.4677222399 -1.1926493688
H 2.1165602037 -0.017977641 -1.7438977872
H -0.4084879201 0.2260695028 -3.4789350264
H -2.6534629536 2.6638079647 -0.8999211595

