# b3lyp 6-31G(2df,p) opt Freq 

 titel

0 1
C 1.1491927041 -2.4379872148 0.5666838828
C 1.104874526 -1.0429975512 1.1292014494
O 0.1133446251 -0.1547080063 0.5807160323
C 1.4942975539 0.1370033055 0.3482506773
C 2.0255475998 1.3929881731 0.9740942809
C 1.2282823771 2.6887554418 0.8145365564
C 1.2857151628 2.0251043739 2.1455428713
C 3.4991001109 1.5379064775 0.9589750872
O 4.2637839355 0.7241165752 0.5000418872
H 0.3273986819 -3.0425307146 0.9642109847
H 1.0663258523 -2.4197498221 -0.523163693
H 2.091307119 -2.9257146181 0.8377698908
H 1.1951029122 -0.9675565668 2.2138932
H 1.8231197864 -0.027927946 -0.6778314554
H 1.7848750127 3.6070816018 0.6606363656
H 0.3114005359 2.6029906625 0.243274325
H 1.8814669441 2.4769682897 2.9313808591
H 0.4039651596 1.4889317305 2.4752919683
H 3.8689479208 2.4879245883 1.4126675703

