# b3lyp 6-31G(2df,p) opt Freq 

 titel

0 1
C 0.2968222572 -2.2784159439 -2.601803679
C -0.338515413 -0.9962552691 -2.1055341347
C 0.405189212 0.3320632567 -2.0839533381
O 1.609601046 0.3335331449 -1.3317076441
C 1.3633337958 0.2908192306 0.038471016
C 2.3598758195 -0.455609634 0.8780162991
C 0.9989618639 -1.0506194976 0.6315139787
O 0.9936939194 -2.1262382879 -0.2541394296
C -0.0767181519 -2.1463004838 -1.1560600209
H -0.2695800176 -2.9387371796 -3.2489195768
H 1.3642854517 -2.2432009156 -2.7925173246
H -1.3876027059 -0.8704932644 -2.3658228262
H 0.6920315697 0.6197001538 -3.1014549382
H -0.2708429937 1.1133698797 -1.7006947855
H 0.8967727995 1.189620046 0.4450977453
H 3.1750609632 -0.9250978057 0.3399753943
H 2.6017490432 -0.0753850844 1.8636253511
H 0.2753389452 -1.102741231 1.4448850892
H -0.9474077241 -2.6882102746 -0.7867736459

