# b3lyp 6-31G(2df,p) opt Freq 

 titel

0 1
C 0.0411128399 -0.100603971 -0.0551907468
C 1.5616070926 -0.0441268692 0.0063175778
C 2.1584921469 1.3239890207 0.4263443506
O 1.7839876575 0.9901201493 1.8219008175
C 2.1792752205 -0.3661579364 1.3911439734
C 3.7053478982 -0.1773288437 1.2487869063
O 4.5045571559 -0.4251567981 2.3550696319
C 4.3335585322 -0.1238324024 -0.102992364
C 3.6832912492 1.1310121369 0.4664972678
H -0.4030493018 0.3846734647 0.8160850629
H -0.3261749617 0.4005400415 -0.9574383718
H -0.3064651573 -1.1387204845 -0.0911390413
H 1.9910930532 -0.5362979673 -0.8677942085
H 1.7570793029 2.279815387 0.0881875857
H 1.8258178705 -1.1630393554 2.0468291516
H 4.1685988105 0.1247010545 3.0738075656
H 5.4189940673 -0.1000033585 -0.0787003535
H 3.9300213599 -0.6540085037 -0.9574004088
H 4.3138739036 1.9665802156 0.7448441737

