# b3lyp 6-31G(2df,p) opt Freq 

 titel

0 1
C 1.4243792415 1.0988199064 0.1540928033
C 1.0754221033 -0.3809875608 -0.0461732816
C 1.6842302653 -0.970620294 -1.30290862
C 1.9228952855 -2.4349414289 -1.3991586315
O 2.293448662 -2.7662353736 -2.7670371212
C 3.4563429347 -2.0136483284 -2.6332035057
O 4.3464070466 -1.9146614184 -3.4137667406
C 3.1292830565 -1.5409164639 -1.2359330639
C 4.1429032865 -1.3057186252 -0.1545865945
H 0.9318023608 1.4995208008 1.0448295773
H 2.502633572 1.2439548029 0.2702104902
H 1.1008029108 1.69608669 -0.7046770068
H 1.3824412834 -0.9616283362 0.8317009934
H -0.0138447182 -0.4940537571 -0.1146402448
H 1.3889546673 -0.4732781265 -2.2251195614
H 1.5218413985 -3.2303093069 -0.7860450586
H 4.8027687423 -2.1714688216 -0.0405040386
H 4.7693288116 -0.4422158771 -0.4011611313
H 3.6708281297 -1.1129700814 0.8115146762

