# b3lyp 6-31G(2df,p) opt Freq 

 titel

0 1
C -4.1863521463 1.7052348333 -1.4739850342
C -3.0300368075 0.8798185938 -0.9550541864
C -2.218516326 0.0064697175 -1.9006393797
C -1.6258693696 -1.3122980989 -1.4502619239
C -1.0526849379 -1.2163437767 -0.0285542955
C -0.192328577 0.0110625191 0.2248027
O 0.7643974458 0.0119423319 0.9500171815
O -0.5585140696 1.1728842592 -0.3776562609
C -1.6166177505 1.2490475713 -1.314122196
H -4.3935292379 2.5563078342 -0.8166923668
H -3.9719143021 2.1009688331 -2.472484258
H -5.0999521153 1.1053165437 -1.5473417927
H -3.1643164588 0.4940015302 0.0518229029
H -2.4926801931 0.0559326101 -2.9510838073
H -2.3684561074 -2.1168009643 -1.4951828997
H -0.8224391811 -1.5892517208 -2.1437730269
H -1.8657319716 -1.1919413475 0.7070983701
H -0.4404196448 -2.0849244606 0.2193167041
H -1.4542048492 2.1207418612 -1.9380594008

