# b3lyp 6-31G(2df,p) opt Freq 

 titel

0 1
C -4.1529454823 -2.3451666089 -0.7316108055
C -2.7043121547 -1.9804492504 -0.4310319428
C -1.7184762464 -3.0300942392 -0.9455439385
O -2.4900098513 -0.696865521 -1.0342238969
C -1.3734615235 0.0372354743 -0.5713592547
C -1.8000807867 1.5155931575 -0.658213962
O -1.5342804479 2.3419648913 0.1681742443
C -0.1651089645 -0.1455394526 -1.3807108609
C 0.8161140922 -0.2258343131 -2.0710950269
H -4.4098069786 -3.3009407839 -0.2658671964
H -4.8302233536 -1.5764716756 -0.3509424371
H -4.3057193402 -2.4350071531 -1.8116127733
H -2.5781463112 -1.8718419224 0.6586525835
H -1.9239348237 -3.9980679662 -0.4772080648
H -1.8145274678 -3.1405739046 -2.0301269989
H -0.6843958365 -2.7570178921 -0.722114437
H -1.1569380367 -0.1795762273 0.4844356945
H -2.3970188161 1.7327117864 -1.5685092585
H 1.6879127894 -0.316455379 -2.6715467881

