# b3lyp 6-31G(2df,p) opt Freq 

 titel

0 1
C -1.6859315988 3.430953049 -1.0845697287
C -0.9588899349 2.2287509792 -0.477813806
C -0.7025633636 1.1135980047 -1.5013884339
O -1.956017599 0.6509560478 -1.9706646945
C -1.8607970716 -0.1142448406 -3.1639460233
C -3.1862060674 -0.5557081806 -3.5726196058
C -4.2681424401 -0.9331920421 -3.9306892434
C 0.0665413492 -0.0201803561 -0.8273950192
O 1.2622112249 -0.0494892168 -0.7012458494
H -1.8721284243 4.193290876 -0.3225636046
H -1.0904486251 3.8908535845 -1.8807322737
H -2.6451622706 3.1276084754 -1.5101203529
H 0.0107437128 2.5271231498 -0.064969784
H -1.5468958687 1.8110207579 0.3485459777
H -0.0890405247 1.5068573132 -2.3277579774
H -1.4021705854 0.4890559064 -3.9647338154
H -1.2087243027 -0.9915997884 -3.0187723624
H -5.2275925084 -1.2645204222 -4.2433444402
H -0.5967218816 -0.8186756172 -0.419062903

