# b3lyp 6-31G(2df,p) opt Freq 

 titel

0 1
O 0.5728770363 0.1174656382 0.5758086759
C -0.7500104072 0.5024198047 0.8910488069
C -1.0094028494 0.8721512919 2.3819774704
C -2.4843315883 1.3022241705 2.3042091189
C -2.3283669097 2.3993920114 1.1978221143
C -2.0192986107 3.708625996 1.9304223242
O -0.8085886107 3.4102960907 2.646033566
C -0.283098713 2.2362963911 2.0577235233
C -0.9193924684 2.0151389808 0.6613156046
H 0.7248289359 -0.7547893932 0.9530442653
H -1.4836090217 -0.1685599828 0.4224137186
H -0.7025978541 0.2135590577 3.1960109542
H -3.1355789607 0.4771554883 1.9995974316
H -2.8686702929 1.7150209578 3.2404898152
H -3.1390310682 2.4621981796 0.4714235728
H -1.8523273129 4.5508636159 1.2422167075
H -2.7988541338 3.9914132748 2.6465443305
H 0.8002310505 2.2215570356 2.1378709183
H -0.5594637712 2.5059646311 -0.2420980989

