# b3lyp 6-31G(2df,p) opt Freq 

 titel

0 1
C 1.5915082406 -0.0917687796 -0.1089498719
C 0.1474261517 -0.1047496269 0.0785253617
C -1.0453196342 -0.1074428294 0.2440435405
C -2.4929773256 -0.127826073 0.4201907259
C -3.2072555117 -0.9200047003 -0.6854912106
C -4.710360231 -0.9739365103 -0.4888905343
O -5.267753292 -0.4871316983 0.468370505
C -5.5396267025 -1.6536452672 -1.5870073739
O -4.8039543346 -2.4288096987 -2.5121734263
H 2.1135755543 -0.4504459566 0.7851963337
H 1.8914464138 -0.733205322 -0.9452575974
H 1.9575957569 0.918907473 -0.3215252299
H -2.7544902318 -0.5584223252 1.3935694658
H -2.8891809429 0.8941895873 0.4416773817
H -2.9974759722 -0.5033204543 -1.678060722
H -2.8232008309 -1.9467873485 -0.7362810604
H -6.3503465664 -2.2129586522 -1.1010324566
H -6.0143417896 -0.8494467404 -2.1632993334
H -4.5777391022 -3.2657536074 -2.0955911475

