# b3lyp 6-31G(2df,p) opt Freq 

 titel

0 1
C 0.3397378456 -0.0272813641 -0.5761950054
C 0.7715549609 -0.0079730796 0.8897766867
O 2.1095714731 -0.5140180225 1.0148408372
C 2.9457557747 0.4143188725 1.6774696216
C 3.7915591994 -0.1457778995 2.8557824533
O 5.0101381361 0.3377096746 2.2583836072
C 4.334372917 0.6612468223 1.0280939915
C 2.071048076 1.5998669273 1.9461860422
C 0.8399229107 1.3621449229 1.5104108533
H 0.4164542884 -1.0420382604 -0.9762569227
H -0.6994804872 0.3036160705 -0.6751733678
H 0.9761204456 0.632864978 -1.1726120846
H 0.0979149494 -0.6645029372 1.4645261958
H 3.6184747106 0.2798547475 3.8509326258
H 3.7527356981 -1.2415467158 2.9069437755
H 4.5582080826 1.6778548898 0.6846174131
H 4.5483335435 -0.0582641452 0.2271838235
H 2.4371955237 2.4944228032 2.4338986437
H -0.0139276883 2.0253064957 1.5689679901

