# b3lyp 6-31G(2df,p) opt Freq 

 titel

0 1
C 1.3479374745 0.8667585843 0.4670379205
C -0.0181651138 0.2747658219 0.3393520962
C -1.1685317653 0.8656809136 -0.0439462982
C -1.3652655272 2.2523497619 -0.4411911857
O -2.4459895541 2.6990497216 -0.7894522268
C -2.351704837 -0.0913428679 0.012012204
O -3.174897526 -0.0572966977 -1.1364576818
C -1.6736079416 -1.4682551036 0.1407617445
C -0.2617575449 -1.1759329582 0.6949206403
H 1.7212146203 0.7431650564 1.4913980538
H 2.0529874392 0.3339235095 -0.1831208438
H 1.3864022687 1.927884174 0.2154340259
H -0.4744557088 2.9131931735 -0.4222019559
H -2.950762341 0.1359897839 0.9113736433
H -3.4340451919 0.8686070504 -1.2446475393
H -2.2410213905 -2.1707735568 0.7542181872
H -1.6044651783 -1.8819703162 -0.8696228803
H -0.2154006095 -1.2951945075 1.7873872564
H 0.5129002472 -1.8364633831 0.2880892498

