# b3lyp 6-31G(2df,p) opt Freq 

 titel

0 1
C 3.4990090379 1.8841014358 -1.6593943987
C 3.0947433 0.6996822253 -2.4886662
O 3.0575462891 -0.5691713899 -1.8837441184
C 2.2789513484 -0.4588744669 -0.6993854072
C 1.3252466494 0.7465676275 -0.8704158094
C -0.1875297616 0.4833813273 -1.087116479
C -0.368237742 1.1962826357 0.2645578861
O 1.0553954482 1.3869526704 0.4036069542
C 2.0267463082 1.5881505166 -1.9120818323
H 3.8975463889 1.7293597759 -0.6629566281
H 3.9185508801 2.736222445 -2.1827792643
H 3.3358152981 0.6414141122 -3.5432190346
H 1.7585319759 -1.4080279722 -0.5445383514
H 2.9073759569 -0.2654529996 0.1815514467
H -0.6241808584 0.9892646223 -1.9501008442
H -0.4735279715 -0.5695431482 -1.1090862516
H -0.9067960167 2.1509220099 0.2299302708
H -0.7794100688 0.5878196751 1.0787291661
H 1.4392833979 2.2699182877 -2.5153007648

