# b3lyp 6-31G(2df,p) opt Freq 

 titel

0 1
C -3.2906068025 0.1735442846 1.1215987099
C -2.2107250135 -0.058948261 0.0906713789
C -2.5619087883 -0.7562199992 -1.233907856
O -1.4175828847 -1.6367909683 -1.1432369148
C -1.0805920491 -1.1623881796 0.189936688
C -0.9114449114 -2.2594401851 1.2005067066
C -0.0290601029 -0.037933157 0.0357336619
O 1.1662422205 -0.0131826358 0.0569668398
C -1.1233615176 1.0410236005 -0.1022304944
H -3.8770389235 -0.7340098353 1.2992976179
H -2.8662807907 0.492531236 2.0797844519
H -3.9836809449 0.9573232077 0.7936892838
H -3.4989694769 -1.3281268423 -1.2122730368
H -2.5413886215 -0.1375655366 -2.1391328998
H -0.0575082214 -2.8857309313 0.9228215591
H -0.717952434 -1.8475826465 2.1962028455
H -1.8032680153 -2.8916740282 1.245558178
H -1.0741139425 1.7600251399 0.7230972584
H -1.1366866397 1.5986827875 -1.043206708

