# b3lyp 6-31G(2df,p) opt Freq 

 titel

0 1
O 2.7736427339 2.1516263249 1.1088837092
C 1.9224988627 1.3145753948 0.9152944479
C 1.9487069215 -0.0340622274 1.6364697337
C 0.5933534656 -0.6254441754 2.0663608137
C -0.3511935619 -1.05609121 0.9308613714
C -0.6121473756 0.0507375084 -0.0994436548
C 0.5545281808 0.3795100248 -1.0583456082
C 0.8042196945 1.5629496463 -0.0987963634
O -0.5011314709 1.3731873704 0.5021481873
H 2.4657575559 -0.7408853707 0.9700721763
H 2.602083899 0.0977633647 2.5031271773
H 0.7888685524 -1.4980621175 2.6991740135
H 0.0739770282 0.1062258391 2.6918831554
H 0.0448748405 -1.935077885 0.404798117
H -1.3016114002 -1.3674058811 1.3788177573
H -1.5898114973 -0.0798389913 -0.5739482277
H 1.3456979933 -0.3630337239 -1.1762492928
H 0.2166124259 0.709553711 -2.041492886
H 0.9262628417 2.5625669978 -0.522400327

