# b3lyp 6-31G(2df,p) opt Freq 

 titel

0 1
C 1.2617671938 -0.1928930164 -0.2557361623
O -0.1261971502 -0.1035375742 0.0111758628
C -0.4602885223 0.7266875941 1.101890997
C -0.0670803427 0.175394483 2.5128027168
C -1.5542169403 -0.0586783176 2.8171027337
C -2.3181603378 1.2278416702 2.7170626801
C -1.9483215144 0.5002872762 1.4515709342
C -0.1434674292 2.1757989196 0.7798397116
O 0.1770785453 3.0109609976 1.5881615183
H 1.8151977165 -0.637598853 0.58268533
H 1.3732912988 -0.8354068978 -1.1316006294
H 1.7068984104 0.7878615355 -0.4788630824
H 0.4962803646 -0.7537368996 2.41140131
H 0.4654011553 0.8648534021 3.1723839465
H -1.9551586071 -0.9270026985 3.3244301779
H -3.370356248 1.1672082933 2.9754451901
H -1.8458540122 2.1729699771 2.969485536
H -2.6693715289 0.1478286777 0.7253834662
H -0.2907416416 2.4265546506 -0.2967073271

