# b3lyp 6-31G(2df,p) opt Freq 

 titel

0 1
O 1.0841442261 2.961005253 2.3186254902
C 0.8369275886 1.5988782274 1.9887831348
C -0.5524723339 1.1761436877 2.5218708781
C -1.0555863914 -0.202873521 2.1589670103
C -0.9436190262 -0.7926061075 0.967244362
C -0.2036857088 -0.1850913811 -0.1911797788
C 1.3257941947 -0.1028871673 0.0565977784
C 1.0016049227 1.3454042518 0.4756717492
O -0.2826701018 1.2679636906 -0.1984331513
H 0.3954173601 3.4906340585 1.9005117044
H 1.621460082 1.0443745536 2.5169694113
H -0.5332134599 1.2906120491 3.6096245231
H -1.2736915427 1.9141887847 2.1456212609
H -1.5848249179 -0.7328194421 2.9472531367
H -1.3542608829 -1.7881053229 0.8165558383
H -0.5315552155 -0.6019028527 -1.148164408
H 1.7458299455 -0.775390463 0.8054862482
H 1.9120216297 -0.1457632199 -0.86330221
H 1.6318985917 2.136107581 0.0563729324

