# b3lyp 6-31G(2df,p) opt Freq 

 titel

0 1
O 0.5118649042 -0.0150637871 0.6783539691
C -0.7904145554 0.4937468701 0.8425108885
C -1.3869908118 0.32203897 2.2411274322
C -2.6192779751 1.301015416 2.3505255724
C -1.9910532342 1.8841560558 3.6415493005
C -0.6335540121 1.3959649684 3.0974427732
O -0.1135700186 2.3055316169 2.1043464982
C -0.8677121082 2.0324084316 0.9038102591
C -2.3589722927 2.2807507363 1.1717065586
H 1.0897261378 0.5547891713 1.2020116096
H -1.4112722025 0.0662363999 0.0503707575
H -1.479416557 -0.6808540889 2.6509462386
H -3.6336407198 0.9033429419 2.3906263758
H -2.0966061956 2.9558852047 3.8325798608
H -2.2829057377 1.3189019531 4.5320369702
H 0.1737445311 1.139544741 3.785196475
H -0.4117648633 2.5847994049 0.0821082717
H -2.5763849307 3.3194017347 1.4357746929
H -2.9491360086 2.0237653894 0.2853407359

