# b3lyp 6-31G(2df,p) opt Freq 

 titel

0 1
C -2.7178494949 -2.5104949862 0.0691390401
C -2.1667362082 -1.1370699068 -0.2812825547
O -0.7798962067 -1.1615459933 0.1256473933
C -0.0398395613 -0.0238710873 0.0558955391
O 1.1597622316 -0.0854103147 0.1405352811
C -0.7891987657 1.2478098962 -0.0464528302
C -2.1079435827 1.2933581999 0.1468815504
C -2.9196626526 0.0408667744 0.3541918617
C -4.3397257691 0.1947944637 -0.2118907189
H -2.7350366818 -2.653927161 1.1538875208
H -3.7316541904 -2.6367397228 -0.3188479935
H -2.0830374843 -3.2850886953 -0.3676492742
H -2.1856443481 -0.9990126918 -1.3728930011
H -0.1796366436 2.1318205838 -0.1900392813
H -2.6320085091 2.2465357929 0.1654642551
H -2.9979011736 -0.1427652902 1.4373975973
H -4.8281359217 1.0748648229 0.2175651998
H -4.3181402087 0.3227433572 -1.2996991627
H -4.961686509 -0.6739165315 0.016904468

