# b3lyp 6-31G(2df,p) opt Freq 

 titel

0 1
C 1.2082691842 -1.7772605444 -1.9045957184
C 0.5196065066 -0.4614243208 -2.0309331745
O -0.7623916023 -0.4133361589 -2.6838087122
C -0.3984430636 0.8347508967 -3.3070433324
C -1.4128699795 1.8723317834 -3.6482647724
C -0.693698984 1.0915803073 -4.7452524943
C 0.9133060374 0.9014427932 -2.577876771
C 0.6421210333 0.7189041696 -1.0988896639
O 1.8061291037 0.8024493596 -0.3283411873
H 0.5891647306 -2.4807624524 -1.335317131
H 1.4071083951 -2.2192855157 -2.8855418021
H 2.1586007007 -1.6471068712 -1.3801048433
H -2.4525825336 1.6234025466 -3.4657616586
H -1.1609539816 2.9170200933 -3.4991370373
H -1.2626308529 0.3339174024 -5.2731309094
H 0.0525904732 1.6039529841 -5.3438587406
H 1.8589437357 1.2728117496 -2.9492637413
H -0.2602937968 1.146906561 -0.6574613324
H 1.6953546738 0.2313937866 0.4394932321

