# b3lyp 6-31G(2df,p) opt Freq 

 titel

0 1
C -1.9893338777 -2.8543772302 -1.8048980487
C -1.6203471447 -1.4588124375 -1.3527531089
C -0.8250184456 -1.2796885918 -0.0610367588
C 0.0470229544 -0.0697850518 -0.0339642571
O 1.2270597447 0.0093078011 0.1474033246
O -0.7275690284 1.0374695308 -0.2750131639
C -2.1254688872 0.7279286722 -0.1859342491
C -2.2568540519 -0.794333707 -0.1647516992
C -3.4234040582 -1.3720574261 0.5990744503
H -2.1811931488 -3.5252053733 -0.963157998
H -2.8865773351 -2.8400105529 -2.4331827958
H -1.1766525883 -3.2915953121 -2.393550438
H -1.3370826074 -0.794639383 -2.1675585321
H -0.5113569959 -2.1517098726 0.497575797
H -2.5201013407 1.1695411169 0.737493906
H -2.630945013 1.1927676498 -1.0390422969
H -3.419624415 -1.0238261982 1.6375813789
H -4.3751618832 -1.0664052656 0.1487385603
H -3.4040922482 -2.4637794086 0.6154389995

