# b3lyp 6-31G(2df,p) opt Freq 

 titel

0 1
C 1.1423273824 -0.7877659748 -0.8309555525
C 1.0481101836 0.1405596423 0.3739198706
C 1.7351959858 1.5141521965 0.2125627858
C 1.6751269088 2.276589266 1.5207246783
C 2.688785996 1.1943093329 1.3892892782
O 4.0245561276 1.4183275946 1.6176944049
C 2.0642088801 -0.1732988255 1.4994769152
C 2.1272623788 -1.1599417545 2.5758321761
O 2.9421833417 -1.2927287839 1.3913903786
H 0.799713714 -1.7961073711 -0.580328185
H 0.5220054474 -0.411983396 -1.6510226296
H 2.1730749595 -0.8677467482 -1.1879268959
H 0.0097935284 0.2076260573 0.7222679876
H 1.9253773903 2.007408327 -0.7326002164
H 2.1059308568 3.2726992606 1.4809090159
H 0.8185856329 2.1848055469 2.1868904259
H 4.4849861648 0.6175614007 1.3322497707
H 2.6731859401 -0.9314483083 3.4899295809
H 1.3440732612 -1.9100400924 2.6751913107

