# b3lyp 6-31G(2df,p) opt Freq 

 titel

0 1
C -0.050335258 0.1437369567 0.0183097149
C 1.4430747222 0.0318107133 0.121974164
C 2.0962745577 -0.6602570445 1.3424126036
C 3.5638015031 -0.3845225379 0.9205510072
O 4.0155410903 0.8330406142 1.5082950159
C 3.1485943372 1.8652234054 1.0010695825
C 2.4403417231 1.213913816 -0.1786046701
C 3.2756928813 -0.0183900724 -0.5735065387
O 2.0830258278 -0.7331411559 -0.9589181799
H -0.4424254484 0.7661598105 0.8292721333
H -0.3437245413 0.5893954116 -0.9363554004
H -0.5145532021 -0.8450752047 0.0941546367
H 1.8713446231 -0.2147464381 2.3146607536
H 1.829585461 -1.7195139322 1.3524244958
H 4.2979399934 -1.1600389949 1.1316844365
H 2.457556096 2.2071579718 1.7846090706
H 3.7643662061 2.7192248241 0.6977154009
H 2.1180649485 1.8625529435 -0.9916240252
H 4.0852922192 -0.0313298264 -1.3008981013

