# b3lyp 6-31G(2df,p) opt Freq 

 titel

0 1
C -4.3238783942 -0.4930408115 1.2021780451
C -2.8916233506 0.0217820028 1.3844472907
C -2.0035019511 -1.0150720729 2.1081913594
O -1.545355834 -1.9048557568 1.0884650626
C -1.2817637295 -1.114001101 -0.0458707757
C -2.1656757242 0.1815891026 0.0321542063
C -0.8966091237 1.0846774369 0.0139406152
C -0.0247708723 -0.1855220905 0.0384446886
O 1.1493663734 -0.386856152 0.1273830903
H -4.8209226219 -0.6242825126 2.1687557132
H -4.9230120984 0.2042238666 0.607975562
H -4.3243617533 -1.46106646 0.69045228
H -2.9060086693 0.9667509552 1.9377872522
H -1.1496372108 -0.5299007475 2.6056889286
H -2.5401313736 -1.6118318957 2.8498229028
H -1.3237826115 -1.7445792653 -0.9379180568
H -2.8561349868 0.3513032203 -0.7940074424
H -0.76422487 1.6734644763 -0.8991039637
H -0.7533047682 1.7505643152 0.8714337718

