# b3lyp 6-31G(2df,p) opt Freq 

 titel

0 1
O 0.82288935 -1.0761574811 -0.2358099265
C 0.2337390191 -0.0411594412 -0.0750070369
C -0.3441044645 0.7838480223 -1.2123319878
O -0.9582738655 1.9191505639 -0.662862005
C -1.5377274956 2.7746045553 -1.6269904167
C -2.1649624233 3.9587853436 -0.9048361703
C -2.8231689053 4.946917069 -1.8872857409
C -3.4304929496 6.08916188 -1.2158133038
C -3.9235888422 7.0217625418 -0.6402956138
H 0.0602797196 0.4040292838 0.9294004806
H 0.4712305366 1.0473022935 -1.9079789746
H -1.0561334401 0.157742287 -1.7772400984
H -0.7698051993 3.1184944537 -2.3414466305
H -2.2989853223 2.2292975449 -2.211404685
H -2.9114320001 3.5923265888 -0.1933030048
H -1.3950393778 4.4742095706 -0.3223007585
H -2.0749049534 5.3042203178 -2.607403827
H -3.5870102662 4.4247614396 -2.4789268031
H -4.36220429 7.8504924268 -0.142446957

