# b3lyp 6-31G(2df,p) opt Freq 

 titel

0 1
O 0.9647497801 -0.8886642308 0.5144892168
C 0.708042955 0.51094843 0.6114070105
C -0.7493694383 0.8041267037 0.8125328193
C -1.2921061261 1.4687041153 1.8379643804
C -2.7901464118 1.5357132975 1.7444249042
O -3.4736733959 0.59427517 2.6187215442
C -3.7203917539 -0.3014834214 1.5130763556
C -3.1273191494 0.6906390026 0.4873155065
C -1.7919941807 0.3204362535 -0.1802057046
H 0.680992918 -1.2872078767 1.3442422752
H 1.3035057813 0.9764546079 1.410409856
H 1.0539654845 0.9289521217 -0.3418994553
H -0.7356111533 1.898785805 2.6642499507
H -3.2088869631 2.5416595894 1.8605464569
H -3.1684725198 -1.2464097115 1.612703341
H -4.7884782567 -0.5247996863 1.4076935699
H -3.8608685074 1.1097242845 -0.2011621396
H -1.6922891387 -0.7541284424 -0.3727867322
H -1.6643502338 0.8163178281 -1.1518782953

