# b3lyp 6-31G(2df,p) opt Freq 

 titel

0 1
C -0.0523596273 0.1324706701 -0.0327901026
C 1.440939768 -0.0394087841 0.0252677773
O 2.1043295433 1.1887907531 -0.3298185054
C 3.3818675863 0.7815135185 -0.8441653173
C 3.3159708759 -0.75611372 -0.6785590543
O 1.9211836926 -0.9652572954 -0.9425713983
C 3.4300572679 -1.0435974721 0.8192235361
C 2.4230519716 -1.995020294 1.4102570238
C 2.0959910475 -0.5263724682 1.325184496
H -0.361178761 0.9123243199 0.6676277665
H -0.354998343 0.4244625951 -1.0407493222
H -0.5496135767 -0.8014918207 0.2396629319
H 3.4676941358 1.081857406 -1.8947688452
H 4.1929624408 1.2390899493 -0.2667651518
H 3.924792904 -1.3449669636 -1.3640233328
H 4.3621824187 -0.8321371504 1.3289242872
H 1.9054677866 -2.6894505474 0.7587447867
H 2.6544626699 -2.3770963455 2.3985480074
H 2.0061063591 0.0875862093 2.2120910971

