# b3lyp 6-31G(2df,p) opt Freq 

 titel

0 1
C -0.0693792367 -0.123996063 0.2063121862
C 1.4472231215 -0.0335379285 0.063524151
C 2.138732877 -0.6669362851 1.2672011306
C 2.130476011 -0.2841668004 -1.3233344096
C 1.5433286435 1.0242452529 -1.8975457742
C 2.1363971614 1.2959584902 -0.4843260932
O 3.3082699329 0.4975081685 -0.869277336
C 2.3203769874 2.5926822695 0.2252044443
O 3.3752227847 3.0104442035 0.6262403243
H -0.3916906493 0.359513742 1.1348983325
H -0.631074909 0.3240121564 -0.6143992877
H -0.369147064 -1.1758556047 0.2753061499
H 1.8685195257 -1.7265667867 1.341081963
H 3.2217128982 -0.5843560219 1.1869720769
H 1.81501703 -0.1854986411 2.1963658858
H 2.333942768 -1.22885789 -1.8297300587
H 2.1342880104 1.4601260441 -2.7027867998
H 0.4713809346 1.1159998604 -2.0642568299
H 1.3683276826 3.1536152238 0.3727188847

