# b3lyp 6-31G(2df,p) opt Freq 

 titel

0 1
C 0.4578303334 -0.4346262931 -0.7218722878
O 0.0372275472 0.3261790912 0.4132633863
C 1.4110436664 0.3861126349 0.0386982139
C 1.9110174938 1.6938974966 -0.4865639725
C 3.3988542392 1.925076168 -0.7039826886
C 3.5042979259 3.4459880968 -0.9783452983
C 2.3083891578 4.0871590133 -0.2307077745
C 1.2681426889 2.9876975249 -0.2046000808
O 1.0935670411 2.3346204704 -1.4756918389
H 0.4487188486 -1.5155206952 -0.5899822496
H 0.1031327149 -0.0613080529 -1.6793098284
H 2.0915631087 -0.1135579273 0.73016421
H 3.9369835308 1.6444643041 0.2103633613
H 3.8070186804 1.3228113925 -1.5218426728
H 4.4659144157 3.8598794405 -0.6664757618
H 3.4001598352 3.6266826519 -2.0499567152
H 2.5695453507 4.3478903177 0.8026231012
H 1.9504095515 4.9997047558 -0.7172931565
H 0.3683364398 3.05791827 0.3991676431

