# b3lyp 6-31G(2df,p) opt Freq 

 titel

0 1
C 3.6471230553 -0.5186689034 -1.6234209884
C 2.2477199308 -0.1516949926 -1.1548432401
C 1.511011333 -1.3276591162 -0.4906296511
C 0.2472686003 -0.8212166934 0.1952654307
O -0.4490845205 0.152550175 -0.6493628653
C -0.1344322346 1.1918685701 0.2754624587
C 1.3424346056 1.2813808541 0.5758444981
O 2.4026038211 0.9724592864 -0.2749638631
C 0.5188813559 0.2388623061 1.27181363
H 4.2639700429 -0.8442171044 -0.7798120154
H 3.6043996821 -1.3279026867 -2.3591255468
H 4.1297025838 0.3460753916 -2.0869004028
H 1.6442198152 0.1684003374 -2.0133722547
H 1.2700283016 -2.065481534 -1.2638989568
H 2.1477703854 -1.8220187659 0.2539320146
H -0.4398456397 -1.6180512295 0.4916170422
H -0.8507940642 1.9995475768 0.3823148588
H 1.6106214632 2.1384973656 1.1873821601
H 0.4265432628 0.1055191328 2.3418938314

