# b3lyp 6-31G(2df,p) opt Freq 

 titel

0 1
C -0.4517751811 -1.9404650199 -1.4333710342
C -0.7570184352 -1.2034575564 -0.1213870064
C 0.1036133619 0.0692574079 -0.037086784
O 1.2962451769 0.1449720973 -0.0791823311
O -0.6911200039 1.1733803976 0.0850485356
C -2.0541768244 0.800125722 0.1502014367
C -2.4604812504 0.0182894394 1.3644815234
C -2.1888550105 -0.6964695011 0.0472171335
C -3.337079623 -1.3606246331 -0.6760898045
H -0.9891036164 -2.8910250004 -1.485458109
H -0.7295902015 -1.3407619598 -2.305882368
H 0.6203947667 -2.1422811135 -1.4917898703
H -0.4570213832 -1.8466669436 0.7141289122
H -2.7032186931 1.5163727487 -0.3379908944
H -1.7380735703 -0.0590407121 2.1715954476
H -3.4947881222 0.0843167882 1.6850200398
H -4.2646981833 -0.8000527378 -0.5243220919
H -3.1608913751 -1.4230808725 -1.7540954024
H -3.505381742 -2.3775934809 -0.3037779026

