# b3lyp 6-31G(2df,p) opt Freq 

 titel

0 1
C -0.1448190116 0.2017883492 -0.1906456936
C 1.3595765368 0.0170049686 -0.1722032218
C 2.1774680316 1.1959902901 0.3455769692
C 3.7227132596 0.9795637338 0.3224265819
O 4.6152124158 2.0296745022 0.4149651526
C 4.1637002246 -0.3227933029 -0.2489954117
C 3.5674538371 -0.2903647311 1.1507596778
C 2.0248784159 -0.0472299571 1.1811361474
O 1.3224032515 -0.1564898124 2.3705254401
H -0.4831775639 0.7818481266 0.6717822101
H -0.4633495938 0.71863126 -1.1017488759
H -0.6580529544 -0.7660482037 -0.1604850821
H 1.7355041919 -0.5784177421 -0.9989602118
H 1.7273906585 2.1719375135 0.4838743774
H 4.3980372333 2.5389646566 1.2044467917
H 3.6894247254 -0.8097726079 -1.0945337135
H 5.2445595067 -0.4333237443 -0.235590247
H 4.1145907663 -0.6294865045 2.0212951052
H 1.0586617087 -1.0780187246 2.4794575639

