# b3lyp 6-31G(2df,p) opt Freq 

 titel

0 1
C 2.9021054717 0.8457533992 1.3726820236
C 1.934666372 0.7723848028 0.1859416728
C 2.3425527909 -0.2762808623 -0.8368344918
C 1.8505808114 -0.1493324472 -2.243631264
C 2.2773653547 -1.377139865 -3.0521966427
C 3.7384147574 -0.9015681377 -2.8301213307
O 4.7428613999 -1.0296446478 -3.4838038016
C 3.374041626 0.1523818851 -1.8517683881
O 4.0944305773 1.300635441 -1.6672780045
H 2.9812923109 -0.1227935177 1.8786758011
H 3.9016081381 1.1364361494 1.0386273176
H 2.5608258116 1.5787822518 2.1097713511
H 0.9250099365 0.5304344373 0.5399179991
H 1.8723646473 1.7517334138 -0.2996983373
H 2.4201431668 -1.2823024286 -0.420802094
H 1.1129009879 0.5812081261 -2.5480098247
H 1.9977718245 -2.3476851169 -2.6314544449
H 2.0243789861 -1.3521428331 -4.114804501
H 4.6418927389 1.4211123396 -2.4544808197

