# b3lyp 6-31G(2df,p) opt Freq 

 titel

0 1
O 2.8342353454 1.1078555019 -1.5420354132
C 1.854082746 2.1446184275 -1.5734655473
C 0.4401142604 1.5527696943 -1.6283849189
O -0.0338719036 1.1365052864 -0.3529314881
C 0.0294961209 2.1606809493 0.6243717964
C -0.3589991998 3.6144319476 0.1771478331
C 1.1108278735 4.0114283448 0.3007694486
C 1.4498473555 2.6641237637 0.9494737029
C 2.0690609685 3.0464538074 -0.3648208336
H 2.6672751455 0.5979024524 -0.7403192027
H 2.0455914364 2.6852441717 -2.5071820813
H -0.2578717714 2.2665128924 -2.0865943419
H 0.4645035854 0.6560020054 -2.252449077
H -0.5386350854 1.7927337001 1.4792580317
H -0.8665521497 3.7535591025 -0.780391357
H -0.9619321078 4.0902905878 0.9547631144
H 1.4621137649 4.9931112895 0.5959243546
H 2.0175550907 2.4464882676 1.8455633008
H 3.1033265949 3.3710835277 -0.2848768116

