# b3lyp 6-31G(2df,p) opt Freq 

 titel

0 1
C 1.3495214638 -0.2431094254 0.0579610966
O -0.0510326555 -0.1568475068 0.2558286388
C -0.4334119561 0.8929735329 1.106645229
C -1.9748593437 0.9052905613 1.1703917561
C -2.297865469 0.5040288477 2.6236903908
C -0.957222189 -0.0843815754 3.1148404965
O 0.0296131062 0.7018820625 2.4304684305
C -0.7486433854 -0.0139003424 4.5526509129
C -0.6110543686 0.0252420966 5.7452640701
H 1.8794801885 -0.4220474457 1.0003500979
H 1.5248568674 -1.0784054696 -0.6233870413
H 1.7443496648 0.6780873127 -0.3971077496
H 0.0210807618 1.8338095817 0.766131684
H -2.3749241266 1.8891582226 0.9185410793
H -2.3576530995 0.1856544291 0.4444878096
H -2.5473930299 1.3767343907 3.2316448906
H -3.1154906391 -0.2148202462 2.7050339866
H -0.873702971 -1.131915889 2.788612255
H -0.4802560392 0.0627890127 6.7984810264

