# b3lyp 6-31G(2df,p) opt Freq 

 titel

0 1
C -0.0611394591 -2.522414703 0.3543140696
C -0.8090127499 -1.2764308583 -0.1267994212
C -1.4619314978 -1.4934837797 -1.4779711213
C -2.3439870144 -0.6448334558 -1.9968708986
C -2.6904590084 0.6443206253 -1.2956604054
C -1.4824016334 1.5729847764 -1.1739852329
O -0.4085520934 1.1819248459 -0.3024169464
C 0.1187712605 -0.0542414046 -0.1021186539
O 1.2771967077 -0.1308292118 0.205993048
H 0.3583123586 -2.3706952308 1.3501982674
H -0.743183662 -3.3777950992 0.3837262334
H 0.7669645313 -2.75941925 -0.3187700112
H -1.6068267725 -1.0402074316 0.5938655163
H -1.1856535288 -2.4014813425 -2.007278919
H -2.8044834636 -0.8503143535 -2.9585930854
H -3.4557725898 1.1947113596 -1.8527605247
H -3.1099315588 0.4528781852 -0.2981483273
H -1.052198388 1.738305862 -2.1697803259
H -1.7956099483 2.5432879265 -0.7770827414

