# b3lyp 6-31G(2df,p) opt Freq 

 titel

0 1
C -4.0165970345 2.9170347424 1.5657519463
C -2.7578069594 3.113877457 0.7320313482
C -2.3653487387 1.876801396 -0.1553763424
C -1.0587218993 1.7836365872 0.6226955377
C -0.2623760391 3.0442950417 0.5501911089
C -1.4354586168 2.9529664456 1.5062719407
O -0.4737771106 0.5729502258 1.0439551505
C 0.0864215753 -0.1754915512 0.074004157
O 0.1195164728 0.0889452222 -1.094044871
H -4.1559797677 3.7422849066 2.2728022361
H -4.9055641796 2.8659871845 0.9280719978
H -3.9633745904 1.9874538028 2.1437748705
H -2.8192579268 4.055075337 0.173601136
H -3.0244449092 1.0268576837 0.0400647101
H -2.2727920061 2.0202149958 -1.2345599045
H 0.7112657889 2.9862993213 1.0260031032
H -0.3024487871 3.6813698372 -0.3306203003
H -1.3105168442 3.0827210605 2.57475945
H 0.5056960824 -1.0832782761 0.5349719951

