# b3lyp 6-31G(2df,p) opt Freq 

 titel

0 1
O -0.6103318319 0.498264786 -0.202215051
C -1.8659147044 0.3268675267 0.419848524
C -2.9479649967 0.1923417793 -0.6880030829
C -3.1614723926 1.7271610145 -0.5944190702
C -2.556990663 1.6757676882 0.8422778682
C -3.5997640506 1.4531266537 1.9008529076
C -4.6590239837 0.6538095472 1.7627529219
C -5.0552721647 -0.1212795348 0.5253214303
O -4.0280000107 -0.6353092991 -0.309037219
H 0.023240313 0.7688289552 0.4700357391
H -1.8579825493 -0.4691324816 1.1745897344
H -2.575899776 -0.2030814821 -1.6364248297
H -2.491126863 2.2359341126 -1.2891376417
H -4.1709717422 2.1250139813 -0.7090536357
H -1.8733552431 2.4827213256 1.1177821757
H -3.4516547593 1.957539454 2.8521971058
H -5.3581736635 0.5572061657 2.5904609614
H -5.6231367798 -1.0068716555 0.8292253099
H -5.7502434984 0.4953791629 -0.0703705881

