# b3lyp 6-31G(2df,p) opt Freq 

 titel

0 1
O -0.2502007373 0.9831508174 -2.2551031799
C -0.2569640006 2.0195209399 -1.2894659216
C -0.1530131547 1.4943655017 0.1448381601
C -0.094070778 2.6155232596 1.1985951548
C 1.2142677893 3.4385613069 1.2020671009
C 1.753377589 3.3665191015 2.6420275805
O 2.737720215 3.9287335552 3.0601460371
C 0.8345041367 2.4820773841 3.3972529014
C -0.1700298307 2.0801690086 2.6119750105
H -1.0300248187 0.4377166266 -2.1104609958
H 0.6078370758 2.6477222246 -1.5278000758
H -1.152122644 2.6563956843 -1.3867814629
H -1.022769978 0.8532795728 0.3495245696
H 0.7343934178 0.8555504758 0.228834519
H -0.958586395 3.2748268735 1.0300593143
H 1.9680390358 3.0191972922 0.5271578573
H 1.0782006608 4.483945533 0.9125715629
H 0.991257749 2.2345300422 4.4392440198
H -0.9826147523 1.4282487501 2.9187959978

