# b3lyp 6-31G(2df,p) opt Freq 

 titel

0 1
O 0.2692526689 0.7327850303 -0.165555192
C -0.8538436269 0.8817804379 0.6611648973
C -0.5468973956 1.9480826569 1.7788266153
C -1.3044553828 3.03174855 0.901130923
C -1.9713500115 1.8345708432 0.2276183034
C -2.9538125826 0.9588416504 1.0670294923
C -2.0073491778 -0.1594748121 0.5554426128
C -2.3058984078 0.0244279848 -0.9686564348
O -2.2625865399 1.4939295698 -1.1261423964
H 0.0025384468 1.0008602929 -1.0553874179
H -0.9916264479 1.7779590194 2.7588154387
H 0.5242854154 2.1091390465 1.8902239335
H -1.9426230981 3.7621245904 1.403320226
H -0.6051139993 3.5495631325 0.2406720539
H -2.9249736281 1.1293244051 2.1406176229
H -3.9852359549 0.9417245074 0.7099738897
H -2.0045754472 -1.1888789051 0.9181776611
H -1.5633292554 -0.4333416079 -1.627803674
H -3.3032367152 -0.3366607924 -1.2350093048

