# b3lyp 6-31G(2df,p) opt Freq 

 titel

0 1
O 0.4665434978 0.3347384343 0.9950342506
C -0.8691209032 0.6631700137 0.7856910966
C -1.8174263392 0.7590639359 1.9786490965
C -1.8738954223 -0.4119686688 1.0469888517
O -1.334953212 -1.6887086264 1.4389809567
C -2.2543053092 -2.3701225676 0.5412355039
C -3.525632023 -2.8579536373 1.2648684417
C -4.2184638074 -1.4929530457 0.9516976663
C -2.9522186612 -1.0259104125 0.1762428218
H 0.4867940459 -0.6255570703 1.1223048465
H -1.0200567462 1.348976785 -0.0449002638
H -1.384391726 0.5848088376 2.9583908217
H -2.6219417173 1.4877858732 1.9462957466
H -1.7312311487 -3.0336067722 -0.1505655164
H -4.0025161237 -3.7086880375 0.7706899398
H -3.3676998373 -3.1010215393 2.3174819413
H -5.1038016683 -1.5893537521 0.3199478009
H -4.4752994481 -0.8757649148 1.8159051955
H -3.0720081405 -0.6359986952 -0.8338508977

