# b3lyp 6-31G(2df,p) opt Freq 

 titel

0 1
O 1.5413337554 0.5278089622 -0.0693873652
C 0.162567602 0.2865873071 0.1654932748
C -0.7445847936 1.0874864159 -0.7729981552
C -2.2180226314 0.8203098323 -0.5280250504
C -3.2475213328 1.7412455848 -1.2155130347
C -3.7057020247 2.0811394855 0.2287715926
O -2.6470244311 1.2640061511 0.789010271
C -3.6480405342 3.4726180325 0.6437531116
C -3.6050713626 4.6279164217 0.9732250968
H 1.7257819213 1.4375856932 0.1844144843
H 0.0173378003 -0.7867709433 -0.0017425949
H -0.1143766151 0.4948831778 1.2086464246
H -0.5562295894 2.1611993969 -0.6385340129
H -0.4988943153 0.8391476144 -1.813401448
H -2.4371404183 -0.2499127713 -0.6522440738
H -2.8109861191 2.5851162946 -1.7511273558
H -3.9964248808 1.2547684343 -1.8407577244
H -4.688059515 1.6613418331 0.4826968332
H -3.5685657258 5.6466887071 1.2714830265

