# b3lyp 6-31G(2df,p) opt Freq 

 titel

0 1
C 2.0274461915 -0.6293954724 1.464347279
C 1.7795158679 0.8663905312 1.2633905423
C 2.0796068654 1.3623800347 -0.1720760971
C 1.6450640436 2.8365425869 -0.3540415809
O 1.8718745108 3.3391757195 -1.6520890347
C 3.4807774251 1.1780540497 -0.5296307417
C 4.6496144994 1.016552368 -0.791191257
C 6.0379406928 0.8627462063 -1.1380304605
O 6.7522741334 -0.028727714 -0.7378863122
H 1.8046693776 -0.923372935 2.4940846422
H 1.3931725172 -1.2285504717 0.8016985037
H 3.0692583669 -0.8882992218 1.2557350506
H 0.7322842866 1.1039208 1.4864902582
H 2.3893995979 1.4450229646 1.9669368377
H 1.4807348146 0.7548604479 -0.8698498146
H 0.5874163104 2.9208963198 -0.0603165977
H 2.2276809091 3.4711489544 0.3211426102
H 1.3121290699 2.8547768776 -2.2675225094
H 6.4222552298 1.6463052343 -1.822550548

