# b3lyp 6-31G(2df,p) opt Freq 

 titel

0 1
C -1.0983145594 -2.1296569239 1.1867324089
C -1.0236400791 -1.1303070892 0.0378663074
C 0.1236381615 -0.0958334421 0.0796738851
O 1.3001818357 -0.188667445 0.2774779762
C -0.8348339603 1.0868276356 -0.1488270148
C -1.9879607417 0.0776743387 -0.0198944684
C -3.347346953 0.1726356597 -0.6591248632
C -3.1878752148 0.3028723291 0.8399119419
O -3.2817950757 1.559171717 1.4440504632
H -0.2116447504 -2.7702631559 1.1831822737
H -1.1406759134 -1.6180868086 2.1531490168
H -1.9810358439 -2.7721697754 1.1029460293
H -0.9955888728 -1.6604113396 -0.9242288627
H -0.7968813112 1.874091037 0.6088138802
H -0.7209272855 1.5449765767 -1.137357216
H -3.5713913579 1.0801724886 -1.2116543304
H -3.8076307218 -0.7290957031 -1.0523680242
H -3.5342621621 -0.5294746191 1.4536642928
H -4.2087309941 1.8193575194 1.4564711241

