# b3lyp 6-31G(2df,p) opt Freq 

 titel

0 1
O 1.0369703324 3.804869151 -2.0337746253
C -0.0585083008 2.9070242163 -1.8628667879
C -1.3270536624 3.6280253017 -1.7220874229
C -2.3471031311 4.2447607086 -1.5640298676
C 0.1876955733 1.9424812152 -0.6905590263
C -0.8422894005 0.7839802389 -0.5875452827
C 0.0346327321 -0.4846536114 -0.6562080431
O 1.3327154698 -0.0797064135 -0.2520986736
C 1.5374942057 1.1993151927 -0.8259946908
H 0.9794052174 4.46774955 -1.3364009318
H -0.0822254485 2.3208675958 -2.7912074619
H -3.2533876269 4.7858905458 -1.4449656538
H 0.1804232179 2.5292771109 0.2337146997
H -1.389595411 0.8356369741 0.3557247739
H -1.5810543793 0.8150638447 -1.3935145358
H -0.293261272 -1.2849052295 0.0118312928
H 0.0593739441 -0.8832039065 -1.6840844159
H 2.3621339134 1.6804720917 -0.2973924299
H 1.8173469766 1.1122430235 -1.8896949071

