# b3lyp 6-31G(2df,p) opt Freq 

 titel

0 1
C -0.1091130647 1.4223439943 0.2132499588
C -0.0634195293 -0.0524032795 -0.0170031811
C -1.0356385053 -0.8917248549 -0.3654139236
C -2.5211451696 -0.9492025841 -0.2515334628
C -2.6052145453 -2.1533665532 0.7301099566
O -1.499194662 -3.0180030943 0.4258631087
C -0.5343472436 -2.3075180938 -0.3348100805
O 0.7570245721 -2.2415801552 0.2345351207
C 1.1794399174 -0.8768138125 0.2516857483
H 0.5545570789 1.9529436221 -0.4810839254
H -1.1183014379 1.8193226183 0.0768863385
H 0.229938351 1.6760297877 1.2252922254
H -2.9807795471 -0.0451993457 0.1535620985
H -3.0097575458 -1.194534224 -1.2018201313
H -2.5325852928 -1.7962666834 1.7665320577
H -3.5260257484 -2.734633559 0.6256706237
H -0.4524086773 -2.8229623075 -1.3048996611
H 1.9754797143 -0.7220251845 -0.4943925758
H 1.6068147154 -0.6356946507 1.2358687547

