# b3lyp 6-31G(2df,p) opt Freq 

 titel

0 1
O 0.285789617 -0.1042466955 0.4730437952
C -0.9320758514 0.392646078 0.9797278971
C -2.2050400868 -0.060872142 0.2461252133
C -3.4125070534 0.6465692837 0.8369333628
C -2.5402778724 1.4041187963 -0.100198101
O -3.084238058 1.9943830806 -1.2227841806
C -1.2739712292 1.8583638611 0.6019328346
C -0.2747550549 2.8265850328 0.037679037
C -0.997264547 3.1363450329 1.3316491776
H 0.3180992279 0.106706842 -0.4669632736
H -0.9105979498 0.1776315996 2.0532463331
H -2.2971643716 -0.974800124 -0.3284254574
H -4.3603823071 0.3371515205 0.4074803408
H -3.4521760415 0.8933547374 1.8961359636
H -2.3984414652 2.0398914527 -1.8989445119
H 0.7742541574 2.5528924723 0.0880049533
H -0.5536729023 3.4003896843 -0.841632004
H -0.4267908501 3.0848642329 2.2534663408
H -1.7585397217 3.9098140242 1.3144235695

