# b3lyp 6-31G(2df,p) opt Freq 

 titel

0 1
O -0.2546369647 0.2544500823 -3.3923473208
C 0.843220131 0.0575844557 -2.9294531658
C 1.464432529 -1.3515348989 -2.9975170071
O 2.6431037601 -1.5209673193 -2.2498845834
C 2.458339238 -1.6172573215 -0.844578009
C 1.6831472105 -0.4335609166 -0.2339537414
C 2.1098242888 0.8859276327 -0.8430987278
C 1.0899622676 1.9559716044 -1.163474788
C 1.6821614734 1.1270744339 -2.2692119682
H 0.6801324352 -2.0749461488 -2.7252026783
H 1.7278917536 -1.5446467565 -4.0443711551
H 1.9536879339 -2.5629101698 -0.5893962846
H 3.4725178488 -1.659765573 -0.4351632562
H 0.6065332673 -0.5742065892 -0.3954933608
H 1.8257077735 -0.442836818 0.8529180233
H 3.1077656748 1.2203865824 -0.57313734
H 0.0523717778 1.7728729339 -0.9029387541
H 1.3922167271 2.994210831 -1.0851236422
H 2.3988891544 1.5906927252 -2.9421807706

