# b3lyp 6-31G(2df,p) opt Freq 

 titel

0 1
C 1.4803386301 0.1354655471 -0.0563936633
C 0.0283643578 0.0572592449 0.0079032935
C -1.172213864 -0.0094174037 0.0828028999
C -2.6366465113 -0.0605166534 0.1085042792
O -3.2222660778 1.2317534757 -0.0262673532
C -3.1520950464 -1.0170306312 -0.9562602606
O -4.4669697104 -1.5297638014 -0.7581375393
C -3.362971574 -2.4436598327 -0.6862531217
C -3.2769364147 -3.4964774218 -1.759952021
H 1.9434040226 -0.49693435 0.7088536836
H 1.8563942623 -0.1922767057 -1.0316237352
H 1.8280213782 1.161255514 0.1075127109
H -2.987078222 -0.4288847401 1.0799208061
H -2.7692278239 1.6799528488 -0.7489870183
H -2.9307533441 -0.7110239668 -1.9812413853
H -3.1556799448 -2.7931001197 0.3273558686
H -4.0033370765 -4.294699432 -1.5754669359
H -3.4842651489 -3.0656991512 -2.7430911049
H -2.2785544821 -3.9465168608 -1.7766533533

