# b3lyp 6-31G(2df,p) opt Freq 

 titel

0 1
C 1.298029599 -0.6890665561 1.0614430189
C 1.1559213591 0.1988668333 -0.1880495062
C 1.9003051706 1.4906070237 -0.0802214749
C 2.8987827172 1.9907821219 -0.8157162822
C 3.0838376993 3.4135617675 -0.3062997635
O 1.9652847877 4.1905983824 -0.8100379189
C 0.8595024817 3.7258245252 -0.0300130198
C 1.5359362839 2.637570983 0.8667973925
O 2.8006839902 3.2908326292 1.0705425931
H 0.730462748 -1.6168278807 0.9424777016
H 2.3461507411 -0.948527631 1.2366527598
H 0.9263565456 -0.1828637557 1.9580311013
H 1.5062241662 -0.3471236338 -1.0707491831
H 0.0893449621 0.404798527 -0.3570742434
H 3.3795513348 1.5630844703 -1.6848781588
H 4.009951095 3.9516416024 -0.4951825992
H 0.466684499 4.5477464789 0.5776467907
H 0.0675174625 3.3276789299 -0.6730855049
H 1.0449461369 2.4099495227 1.810861047

