# b3lyp 6-31G(2df,p) opt Freq 

 titel

0 1
O 1.2133869549 -0.5927968758 -0.1475614834
C 0.1061805551 -0.1176047564 -0.1630605442
C -0.4082467596 0.8153352802 -1.2408973248
C -0.9232764702 2.1338975252 -0.6564712079
O -1.9761487506 1.8996404126 0.3145082278
C -3.0364645174 2.7370495576 -0.1864979235
C -3.0661824291 2.4114140144 -1.6980212161
C -1.6592832991 3.0881583081 -1.6143821511
C -2.3065429117 4.0487847908 -0.5633915612
H -0.6305047483 -0.3397638084 0.6376684332
H 0.4008900586 1.0033217861 -1.9533190667
H -1.2260918132 0.3022833435 -1.7625540129
H -0.0902872014 2.6483581379 -0.1583417558
H -3.8961130128 2.6738782821 0.4780585181
H -3.1417577571 1.3617549415 -1.988337237
H -3.7812061337 3.01712784 -2.2563886763
H -1.1146097043 3.4433416151 -2.4880449767
H -1.6613129409 4.498094281 0.1953269631
H -2.9587962595 4.7959630345 -1.0175788344

