# b3lyp 6-31G(2df,p) opt Freq 

 titel

0 1
C 1.6639042792 0.1018484722 3.713574947
O 1.7764395032 1.4837244478 3.3876923464
C 0.7561204614 0.7140975943 2.7258284479
C 0.8917042113 0.5170337444 1.2623849438
C -0.1776004589 0.5638535672 0.4640130633
C -0.0939666161 0.3473832101 -1.0206066377
O 1.1737743527 -0.0977189303 -1.4580506974
C 2.2387155146 0.5932089892 -0.8251247169
C 2.2659660754 0.2964989825 0.6744425335
H 2.4860525767 -0.5273074403 3.3772722955
H 1.2908574237 -0.1182667452 4.7132336804
H -0.254794493 0.9482814849 3.0613263471
H -1.1655894047 0.7744402753 0.8679585572
H -0.8124156045 -0.41894314 -1.3372445951
H -0.3799380584 1.2805230421 -1.5424798273
H 3.1556342319 0.2554278861 -1.3154492582
H 2.1438167081 1.6790914872 -0.9893876305
H 2.5932055758 -0.7387052873 0.8385225133
H 2.9893385916 0.9460898998 1.1802914678

