# b3lyp 6-31G(2df,p) opt Freq 

 titel

0 1
C 1.4722514007 0.0276856634 0.0008273135
O 0.059557289 0.0470269881 0.1032336315
C -0.390424424 0.6915678059 1.2485937981
C -0.5459073266 -0.1554856297 2.4848799819
O -0.9344346061 0.6504059358 3.6024504969
C -2.1576023659 0.9967330051 2.9175561035
C -2.8327419697 2.3093898247 3.1230664043
C -3.4614926794 1.0173805488 3.637932063
C -1.7664295147 0.2369116619 1.677546431
H 1.9350834056 -0.4917788051 0.8512992343
H 1.7186784827 -0.5011800592 -0.9224684021
H 1.8844863349 1.046100426 -0.0495669774
H -0.0930958505 1.7380899806 1.3559866899
H -0.0622765531 -1.1079050912 2.6649540099
H -2.3980805813 2.9755282124 3.8602933997
H -3.2805647721 2.8049257025 2.2681154182
H -3.4339083529 0.840287181 4.707564751
H -4.3387171541 0.628120043 3.1313050148
H -2.4087373325 -0.3481638538 1.0339876182

