# b3lyp 6-31G(2df,p) opt Freq 

 titel

0 1
C 5.8610113873 3.3034126759 -1.1823534635
C 5.1660120603 2.2952949187 -0.2631843336
C 3.6979747683 2.1213876606 -0.6167736562
O 3.1440567635 1.1640687273 0.2962168152
C 1.8514700439 0.8550708333 0.1672871727
C 1.0783658677 -0.0068331244 0.8836051873
C -0.2270088029 0.0768336106 0.2899952436
C -0.1448755404 0.9697054094 -0.7250068
O 1.1399489035 1.4604818189 -0.8121687284
H 6.9146632669 3.4149155716 -0.9123136906
H 5.8180971711 2.9855715568 -2.2298169344
H 5.3945489252 4.2924333482 -1.1167508507
H 5.6602099778 1.3192485881 -0.3256282175
H 5.2396930133 2.6184031964 0.7813101088
H 3.1530147634 3.0698400597 -0.531087717
H 3.5765546629 1.7613782235 -1.6461142385
H 1.398658835 -0.612114388 1.7143698586
H -1.1096556584 -0.4659849188 0.5908789796
H -0.8378509786 1.362315692 -1.4482110253

