# b3lyp 6-31G(2df,p) opt Freq 

 titel

0 1
C -0.1865590324 -2.3929284989 -0.7703432762
C -0.7587440618 -1.2249678373 0.0296251521
C -2.2709230456 -1.0421530016 -0.1373407456
C -3.1914884183 -1.0625190241 1.0658503118
C -2.814890529 0.2417621862 0.4352270766
O -1.8674012232 1.0141835358 1.1205527486
C -0.772000561 1.3403552321 0.2817350612
C -0.094533368 0.1058848768 -0.3257588728
O 0.878797569 0.2140722205 -1.0321533635
H -0.6483220888 -3.3342084344 -0.4586196963
H -0.3685669558 -2.257021674 -1.8408545103
H 0.8940514075 -2.4664767296 -0.630796235
H -0.5497145214 -1.3779801888 1.0978537458
H -2.6721992456 -1.3875071398 -1.0852317596
H -4.2066676808 -1.4181985175 0.9299014868
H -2.7527200069 -1.2829701191 2.0331185897
H -3.5627793331 0.8175476177 -0.1091696694
H -1.0678344387 2.0130075306 -0.5385198861
H -0.0420448461 1.8749079752 0.897308212

