# b3lyp 6-31G(2df,p) opt Freq 

 titel

0 1
O 0.4014979127 0.2376406556 0.9472833793
C 0.13354388 -0.1840258426 -0.1482200011
C -0.576688074 0.5996790284 -1.2403416659
C -1.0658283022 1.9805847689 -0.7804314815
C -2.3415368679 1.8681246475 0.0654319647
C -3.5143496193 1.2557693518 -0.7192581449
C -3.1074474669 0.0738549788 -1.5812572277
O -2.4810851941 0.3887911302 -2.838128719
C -1.6918245942 -0.2472163553 -1.838496936
H 0.4252128485 -1.219284096 -0.4444095289
H 0.1841521276 0.7134952248 -2.0315329516
H -0.2730278806 2.4576609723 -0.1986558301
H -1.2540449413 2.5990597306 -1.6636218762
H -2.1241059343 1.2509970205 0.9441169803
H -2.6281269363 2.8549107211 0.4428229608
H -4.3013438335 0.9378975204 -0.0267848606
H -3.9657273835 2.0053712127 -1.3806718819
H -3.8316400995 -0.7371823256 -1.6601479829
H -1.4219562112 -1.280116544 -2.0695173866

