# b3lyp 6-31G(2df,p) opt Freq 

 titel

0 1
C 0.5520339415 -1.4639780412 0.3362235367
C 1.3698670303 -2.5372458233 -0.3962050749
C 2.1927088553 -1.98478432 -1.5237781489
C 2.9315269007 -2.5661079686 -2.7085044444
O 4.1350459481 -1.836979581 -2.468086669
C 3.4241307679 -1.0356966714 -1.472566669
C 2.9635867535 0.2291853399 -2.178281564
O 2.1133260465 -0.252373578 -3.2288915216
C 1.7845359237 -1.5850766558 -2.9146568449
H -0.0384839469 -1.9048587701 1.1448155872
H 1.2023046836 -0.7017123682 0.7791824279
H -0.1348339993 -0.9572423999 -0.3491018235
H 2.0240215915 -3.055471568 0.31719848
H 0.6942313492 -3.3026836558 -0.7976677054
H 3.0091058873 -3.5690964568 -3.1145272602
H 3.989835296 -0.9139272081 -0.5472270696
H 2.4078364977 0.8978710546 -1.5017112342
H 3.7981216933 0.7764716193 -2.6263057668
H 0.85415516 -1.9241070676 -3.3557948254

