# b3lyp 6-31G(2df,p) opt Freq 

 titel

0 1
O 0.248384246 1.0649897563 0.2603347463
C -0.6337436041 0.0320018638 0.6503078197
C -1.0391924379 0.1038267565 2.1759819096
C -2.2910848345 0.9682418749 1.7891070973
C -3.7314963204 0.5270347923 1.4672960983
C -3.1701773818 -0.6563384434 0.6749377886
C -2.0767094884 0.4295496301 0.3335161566
C -2.8906807589 1.395970078 -0.4986388155
O -4.0504164707 1.4717671488 0.3972283235
H 1.1054961959 0.8936295658 0.664061718
H -0.2991469654 -0.9449493979 0.2726207768
H -1.2371972948 -0.8635241376 2.6413914584
H -0.3154495267 0.6449217531 2.7899169763
H -2.1638862158 2.0331437746 1.9862576879
H -4.5830276021 0.4963488472 2.1476012428
H -2.7971591663 -1.482826829 1.2772595581
H -3.7787677629 -1.0266288105 -0.1524499447
H -2.4319425606 2.3830364013 -0.6014790582
H -3.2148561705 1.0337249656 -1.4805977798

