# b3lyp 6-31G(2df,p) opt Freq 

 titel

0 1
C -0.3751356765 1.0219710785 -0.001732619
O 0.1146502166 -0.3309506886 0.0154876618
C 1.4857888704 0.1194789728 -0.0094130045
C 1.0534035578 1.6058558843 -0.0295464895
C 1.4850561227 2.4153532793 -1.2720111839
C 2.7276624043 3.1486011138 -0.8111927026
O 3.6367846815 2.3153558416 -0.0738551234
C 2.7459262403 3.1737838736 0.6568554391
C 1.5154743789 2.457305075 1.1733071984
H -0.9864808167 1.2294524563 -0.8907240692
H -0.964306806 1.2602020627 0.8944914212
H 2.0413908623 -0.1982779741 0.8810685679
H 2.0190606926 -0.2288930476 -0.9020954305
H 1.65447227 1.7782236602 -2.1456516446
H 0.7171017887 3.1516975542 -1.5453883268
H 3.1920339224 3.9170097653 -1.4234801502
H 3.2250529193 3.9625406828 1.2306927729
H 1.7068249836 1.8504458084 2.0638066647
H 0.7542418279 3.2029239215 1.4402710682

