# b3lyp 6-31G(2df,p) opt Freq 

 titel

0 1
C -3.2087287842 -1.3368024739 1.1522134304
C -2.2929327052 -0.7055337123 0.1265205084
C -2.5323754637 -1.1348305042 -1.3596995476
C -1.1710045309 -1.8847339531 -1.3482408142
C -0.8299500449 -1.2080157635 0.0148537027
C -0.0286546658 0.0786836732 -0.1315226645
O 1.1575419798 0.1846238849 -0.3005361295
C -1.0252416657 1.2430602076 -0.0481282712
O -2.2648990702 0.7063834104 0.3635958385
H -3.2690816397 -2.419579219 1.0059040612
H -2.8468727643 -1.1387792593 2.1654895392
H -4.2173048812 -0.921394865 1.0601673488
H -3.4224169364 -1.7401225067 -1.544811366
H -2.5529383805 -0.2756098469 -2.0344382136
H -1.2780688018 -2.9663517949 -1.2443249817
H -0.4798788699 -1.6839122178 -2.1694950954
H -0.4090965556 -1.8380047095 0.8013698846
H -0.6882616957 1.9953376212 0.6726434061
H -1.0858977843 1.7303474188 -1.035058036

