# b3lyp 6-31G(2df,p) opt Freq 

 titel

0 1
C 1.1589032328 -0.2932860989 0.9123562097
C 0.9481510703 0.2773684123 -0.4969742724
C 1.6956737593 -0.5119124006 -1.5523666847
C 1.2213994059 -1.9605490232 -1.9300505871
C 1.2961541655 -1.5943562897 -3.4444645682
C 1.8196698709 -0.1960187006 -3.0711629462
O 3.2793087578 -0.1766433499 -2.9503194863
C 3.2207622222 -0.4161017822 -1.595361888
O 4.1332825512 -0.4911018605 -0.8343773972
H 0.7922119093 -1.3228850867 0.9816894604
H 2.2206614432 -0.2970383062 1.1724790816
H 0.6220766106 0.3026721633 1.6558465175
H -0.1209135733 0.2808708031 -0.745479952
H 1.2781979149 1.3232268804 -0.5245653122
H 1.864862502 -2.7727749786 -1.5875482096
H 0.203719469 -2.1562196105 -1.5845554467
H 1.9823033726 -2.1770365453 -4.0614299236
H 0.3175190015 -1.569312928 -3.9293266726
H 1.4576268145 0.702704602 -3.5689219325

