# b3lyp 6-31G(2df,p) opt Freq 

 titel

0 1
C 0.5879073339 3.0738097102 -3.5400331235
C -0.2639767581 2.9379212319 -2.2917923707
O -1.4279921292 3.2669396421 -2.2718051586
C 0.4315714615 2.3448173398 -1.0607198544
C 0.4913337256 0.8314268728 -1.1825999938
C -0.3282261878 0.2330562086 -0.3209313927
C -1.0660701901 1.2227351341 0.5436221438
C -0.3504293432 2.5697138996 0.2538600219
O 0.625488691 2.8796169581 1.2447020118
H 1.3641710365 3.8297267139 -3.3715019789
H 1.1044656549 2.1355852659 -3.7678561299
H -0.0325301581 3.3733415902 -4.3854319952
H 1.4324274292 2.7848685786 -0.9720253229
H 1.116627414 0.3297127316 -1.9120813007
H -0.4683199972 -0.8392800641 -0.2400082106
H -2.1296944971 1.267239196 0.2768678858
H -1.0133130896 0.9787261664 1.6119743794
H -1.0683710103 3.3889630029 0.1431421879
H 0.1613516341 3.0478960714 2.0707937113

