# b3lyp 6-31G(2df,p) opt Freq 

 titel

0 1
C -3.7541863381 -1.0414143734 1.6625582779
C -2.8608678615 -1.3497914307 0.4608824203
O -1.7251133254 -0.4974633752 0.5584504531
C -0.7042935449 -0.7719158499 -0.3763835895
C 0.4372621076 0.2363558142 -0.2488973439
C 0.1663233534 1.4998473242 0.5350437747
O 1.4917924963 0.0038054039 -0.7913648848
C -3.5733214019 -1.168749793 -0.8116714389
C -4.1562818811 -1.0131227347 -1.851381596
H -4.6312242175 -1.6927851051 1.660305016
H -3.191088424 -1.1994199218 2.5856094931
H -4.0876262163 -0.0017469655 1.6236017967
H -2.526432241 -2.3992785851 0.5202590286
H -0.2894900019 -1.7823598562 -0.2426754841
H -1.0852424345 -0.7097465238 -1.4083607107
H -0.0937714734 1.2486287049 1.5680871919
H 1.046851723 2.1422557164 0.5073203903
H -0.7027935685 2.0221965614 0.1213041658
H -4.6723718403 -0.8806794504 -2.7704954506

