# b3lyp 6-31G(2df,p) opt Freq 

 titel

0 1
C 0.8004503875 4.1423724896 1.7587368243
C 1.9968235644 3.2963103655 2.1953408405
O 1.5666162035 2.0350916222 2.7018566316
C 2.9018120448 4.0098576144 3.2238198974
C 4.0638216353 3.1430935999 3.6787045511
C 5.2511567897 3.6921207515 3.4094712049
C 5.0672699055 5.0396054085 2.795372139
O 4.3701644992 5.9697717893 3.6597553253
C 3.6134610856 5.2544301353 2.6840488339
H 0.1885850298 4.4239230259 2.6252610157
H 1.1078087007 5.065210093 1.2578071418
H 0.1747837997 3.5701201243 1.0686747813
H 2.6037990095 3.0426602506 1.3177285344
H 0.9578148092 2.2056539625 3.4296669305
H 2.2737793803 4.2909311775 4.0834643738
H 3.8997935875 2.1935092791 4.1720680176
H 6.2195506733 3.2604386879 3.6292832483
H 5.80166659 5.4911208405 2.1354588705
H 3.1608798944 5.8667362927 1.9085738984

