# b3lyp 6-31G(2df,p) opt Freq 

 titel

0 1
C -0.0153212987 -0.1429118567 -0.0287321276
C 1.4684167482 0.0400668206 0.0626290465
O 2.0581959573 -0.6940312349 1.1264354129
C 3.3952283359 -0.2270986549 1.2019048001
C 3.294437667 1.2965038902 0.9876060319
C 2.2321572414 1.3346991393 -0.0962132143
C 2.3881420786 0.2132316001 -1.118629891
C 3.688441024 -0.5730827775 -1.1243749385
O 4.1840841073 -0.818748445 0.1968373113
H -0.4993897528 0.1573352986 0.9062418819
H -0.4253820261 0.4625441895 -0.8417763812
H -0.2676698547 -1.1908201828 -0.2208772288
H 3.8196021359 -0.5482994883 2.1532268201
H 2.9491272507 1.8015852128 1.8955562117
H 4.263233171 1.7108089386 0.6976827445
H 1.7435108823 2.2624937839 -0.3685529728
H 1.9360966602 0.3608197063 -2.0947974569
H 3.5388600647 -1.5460674857 -1.6104560428
H 4.4600005878 -0.0362685142 -1.6950395072

