# b3lyp 6-31G(2df,p) opt Freq 

 titel

0 1
C 1.4634888434 -0.1471524751 -0.1141165566
O 0.0644754549 0.0779179826 -0.0517012316
C -0.3285935207 0.7288910996 1.1063854704
C -1.7370134086 0.4203441131 1.5408989873
C -2.4832659112 1.4460985689 2.3859036673
C -1.6348488959 1.5545312608 3.6394433144
C -0.6030820665 0.7060105635 3.6303595583
C -0.5476011064 -0.0875917388 2.3686552951
O -0.0843219969 -1.3983934121 2.3756663465
H 1.7994519871 -0.798062943 0.701115161
H 1.6634354024 -0.6312922547 -1.0729482456
H 2.0234801148 0.7994794662 -0.0720990184
H 0.0644030381 1.7425340232 1.2260672962
H -2.2698591445 -0.2642403663 0.8917102731
H -2.5713012955 2.4129006978 1.8732916536
H -3.5086967394 1.1277132416 2.6183841695
H -1.8507605975 2.2706387699 4.4243358161
H 0.1450436118 0.5977879865 4.407630609
H -0.7293522494 -1.9428545339 2.8403835643

