# b3lyp 6-31G(2df,p) opt Freq 

 titel

0 1
O 0.9710983791 -0.6651003273 0.2336467072
C 0.0828760243 0.0242489962 -0.2019752151
C -0.3258742828 1.3633189601 0.3570652835
C -1.8832026624 1.4726394453 0.5025318574
C -1.9566711566 2.1897028738 -0.8689834078
C -0.4285650199 2.431676305 -0.7956713639
C 0.5281638096 1.7370443316 1.5425007497
C 0.106108814 1.5242671427 2.9290253936
O 0.0630326958 2.8295991987 2.3402951049
H -0.5089530935 -0.3034883149 -1.0886644425
H -2.4401206718 0.5398505076 0.6219039203
H -2.1206484505 2.1454859615 1.328850304
H -2.2313451454 1.5106456044 -1.6805152928
H -2.5952473841 3.0728715669 -0.9311284228
H 0.1617054349 2.2501623325 -1.6975461462
H -0.1809935995 3.4204081067 -0.403373619
H 1.5988080914 1.7584647582 1.3404210966
H -0.8647567607 1.0765609148 3.1354300895
H 0.856322558 1.3852704262 3.7049792633

