# b3lyp 6-31G(2df,p) opt Freq 

 titel

0 1
C 2.1842933813 -0.445866709 1.1511362589
C 1.8479645221 0.0806774717 -0.2472147097
C 2.2753425934 -0.8649652987 -1.3683624135
C 1.8734907224 -0.4093555066 -2.8101690466
C 0.9692678512 -1.6731461133 -2.9642895981
C 1.3911731535 -2.1249159597 -1.5459970371
O 2.1327115978 -3.2484421057 -2.1207725395
C 1.7511303688 -2.9073808625 -3.4025952383
O 2.023992193 -3.4727744473 -4.4114431704
H 1.7065536107 -1.4124129003 1.3440317413
H 3.2641195308 -0.5835435106 1.2705428958
H 1.8477031853 0.2492517532 1.9259499859
H 0.7682687528 0.2705889822 -0.3246696832
H 2.3351364562 1.0510512231 -0.4050372109
H 3.3311701098 -1.1293664184 -1.2586759247
H 1.2893135463 0.5137400892 -2.8068244361
H 2.6747768067 -0.311105643 -3.5446901825
H -0.0481235222 -1.5626301738 -3.3326590058
H 0.7226076701 -2.4573010003 -0.7528242554

