# b3lyp 6-31G(2df,p) opt Freq 

 titel

0 1
C 1.3061755616 -0.318543038 -0.1161838507
O -0.0337305527 0.1655888417 -0.0714170631
C -0.4471927325 0.7464603494 1.1373759844
C -1.7958633038 0.3007345702 1.6159423363
C -0.5450862899 -0.1021428044 2.3721552724
C -0.0965400994 2.2331340962 1.2343922531
O -0.4723138482 2.8884412022 0.0355021452
C 1.3173187319 2.4757576345 1.5734795085
C 2.4594222909 2.7045305136 1.8727933845
H 1.5012970898 -1.0260367454 0.6990637563
H 1.4101394799 -0.8375582977 -1.0719348841
H 2.0386882693 0.4924716209 -0.059038277
H -2.4598113104 1.0388743354 2.0516780231
H -2.2842390608 -0.4646790058 1.0246646132
H -0.3356585918 0.3599957089 3.3309960855
H -0.2299769931 -1.1365065539 2.2948832158
H -0.706806485 2.6723374146 2.0333840466
H -0.269316378 2.262917125 -0.6735301785
H 3.4694558721 2.9067655726 2.1318998685

