# b3lyp 6-31G(2df,p) opt Freq 

 titel

0 1
C 1.8606540186 2.81197989 -0.311339876
C 2.5006557272 1.8215887506 0.6863733078
C 1.4110337466 0.8752707243 0.1956906812
O 0.8900105554 1.8256506471 -0.7372831845
C 1.5032775007 -0.6009205546 -0.0787360131
C 0.5735991052 -1.1624496349 -1.1465943059
C -0.807421516 -0.5802122563 -0.768615381
O -0.7650685894 -0.2848472606 0.6326523451
C 0.5666730525 -0.0692982691 0.9999016241
H 1.3755872531 3.6865680752 0.1359802192
H 2.4976713781 3.1356253119 -1.1415014399
H 3.5224170142 1.5181456271 0.4480036112
H 2.4418175098 2.1047705684 1.7393353421
H 2.4248134838 -1.1287899689 0.1459712108
H 0.8574620945 -0.8748020259 -2.162726671
H 0.578376035 -2.2555161033 -1.0875999391
H -0.9961884872 0.3395366084 -1.3315940763
H -1.6327070778 -1.27807905 -0.934971921
H 0.7251977058 -0.1869478293 2.0675092261

