# b3lyp 6-31G(2df,p) opt Freq 

 titel

0 1
C -2.2172060062 1.8012191961 -0.375196023
C -1.0634204724 2.0158595487 0.5872407716
C -0.4842562274 0.7482449426 1.1831930444
C 0.2682026071 -0.1170535273 0.1963801204
O 0.4739379223 0.1514860382 -0.9602091493
C -0.1505641237 3.1643327657 0.3473436022
C -1.1690503119 3.2829006487 1.4770196309
C -0.6974707163 3.3007594961 2.8758462712
O 0.3285787805 2.7948195329 3.279127287
H -3.04976192 1.2827132682 0.1138031831
H -2.5942880627 2.7518640811 -0.7635736396
H -1.8848951286 1.197026948 -1.2238473901
H 0.2119127714 0.9774047093 2.000370541
H -1.2662409544 0.1211481408 1.6373816941
H 0.649706184 -1.0669642982 0.6371837421
H 0.8802405599 3.0702312995 0.6715116302
H -0.3070674838 3.7855317705 -0.5272350687
H -2.0484847298 3.8916116584 1.2940538503
H -1.371296498 3.8340129309 3.5818785621

