# b3lyp 6-31G(2df,p) opt Freq 

 titel

0 1
O 0.0409950251 0.1990613469 0.2345580641
C -0.7352106676 1.2814239176 0.674835428
C -1.0318020737 1.3294755265 2.1853242262
O -2.0371363657 2.3459071951 2.2865189229
C -2.5479585268 2.5194861253 0.974564477
C -1.6568641899 3.2993763252 -0.0659608623
C -2.165203434 2.2709606706 -1.1140534065
C -2.1749550339 1.3070257281 0.090823365
C -0.269343161 2.7173771858 0.2668006331
H 0.9417990624 0.3228021962 0.5519593147
H -1.4107688628 0.3642060205 2.5522131512
H -0.1618286996 1.6201047569 2.7865009737
H -3.5929759212 2.826398304 1.0152861394
H -1.7381563681 4.3752308632 -0.2210636853
H -3.1741103963 2.4855356997 -1.4751993783
H -1.507711326 2.0405599712 -1.9556713511
H -2.7183457582 0.3629829691 0.1100890681
H 0.3849569268 2.6917764841 -0.6098769978
H 0.2429771703 3.238362974 1.0806270879

