# b3lyp 6-31G(2df,p) opt Freq 

 titel

0 1
C 0.6183768339 0.8304037821 -1.2791884649
C -0.0211749266 -0.1577192302 -0.283829454
C 0.9500218953 0.4711799884 0.7396423827
O 1.4381632169 1.4163109997 -0.2414506705
C 0.3701624091 1.1800763274 1.9257960441
C 1.095602344 2.0416098671 2.9944382251
C -0.3506724478 1.7568035401 3.4571258021
C -0.8731566653 2.102625185 2.0440342369
O -0.1851449789 0.3456822481 3.0258842422
H 1.2298809044 0.3732739629 -2.0667113068
H -0.051483236 1.5689951933 -1.7341259536
H -1.0762591016 0.0163568419 -0.0692047501
H 0.1348685719 -1.2166063817 -0.4900827579
H 1.7475871418 -0.2018662316 1.0832289115
H 1.8726746586 1.5199427627 3.5544461133
H 1.3652895299 3.0659926861 2.7292410446
H -0.8164653187 1.9302114487 4.4266976777
H -1.8254487573 1.6403056663 1.7809291854
H -0.7811458635 3.1335890936 1.6955216122

