# b3lyp 6-31G(2df,p) opt Freq 

 titel

0 1
O 0.4725385616 0.2151507054 0.7524570703
C -0.7981740475 0.6809807492 0.4145524704
C -2.011622279 -0.0895699526 0.8734329193
C -1.6783315407 1.2580212983 1.4890929328
C -2.4411915706 2.4255353775 0.9193441311
O -1.854197435 3.7107441713 1.224486792
C -1.557654337 3.9546636694 -0.1646846004
C -2.0459400608 2.5492223437 -0.583232234
C -0.9469218667 1.5010621612 -0.8700787526
H 0.6545730503 -0.5688007693 0.2230578903
H -2.8731451437 -0.1756694545 0.2160298285
H -1.8264150416 -0.9574518501 1.4966321298
H -1.3510391111 1.2934433524 2.521613482
H -3.5103361606 2.4141409463 1.1660429673
H -2.1498057121 4.7884536038 -0.5637521118
H -0.4929243363 4.161195211 -0.3313101399
H -2.8550559491 2.5402310075 -1.3134136419
H -1.1954050227 0.8732589404 -1.7336048386
H 0.0132868627 1.9818966989 -1.0845914247

