# b3lyp 6-31G(2df,p) opt Freq 

 titel

0 1
C 2.9413049739 0.3744023631 -3.3082863301
C 1.4614058216 0.5646413689 -3.240535125
C 0.6027532004 1.860813559 -3.3043761844
C -0.3394218837 0.6364226395 -3.3850766662
O 0.6062227509 0.0104363936 -4.3386542005
C 0.4426672851 -0.0095503777 -2.2388653554
C 0.3851125056 -1.3203495534 -1.5322942839
C 0.3792637086 -0.000378359 -0.7602903164
O 1.5384963221 0.4165906768 -0.0925152814
H 3.4046172647 0.7902244309 -2.4092634242
H 3.1856492863 -0.6909782636 -3.3645044665
H 3.3557613352 0.8728791987 -4.1893823803
H 0.5624414737 2.4904545078 -2.4122811125
H 0.6973475337 2.4238837367 -4.2342550038
H -1.4020248201 0.5851162805 -3.6212861701
H -0.5283018887 -1.9066453639 -1.5595659551
H 1.3005630201 -1.9033570572 -1.4907220702
H -0.5571709059 0.2890278051 -0.2806699257
H 1.6259138965 -0.1093869858 0.7096449818

