# b3lyp 6-31G(2df,p) opt Freq 

 titel

0 1
C 1.2848764172 -0.0723691012 -0.0758595643
O -0.12201016 0.0412776914 0.0358332845
C -0.5637959682 0.7644613654 1.1218349273
C -0.1901603307 2.2087923424 1.4971776461
C -0.9702145806 1.8330724141 2.7795276634
O -2.3201422516 1.7240492611 2.2989928683
C -2.1076665894 0.5883140951 1.4500564378
C -1.744437596 -0.5237813237 2.4599443419
C -0.4818834431 0.3287345284 2.6471808824
H 1.7268683252 -0.5244497856 0.8229737543
H 1.4833421954 -0.7186717053 -0.9334186741
H 1.7591109964 0.9030718393 -0.2483332183
H 0.882989243 2.3090690334 1.682708121
H -0.5712000593 3.0486898834 0.9110576674
H -0.9173742955 2.4073603424 3.7015106515
H -2.876386079 0.5034493234 0.6842666526
H -2.4340370586 -0.6764188393 3.293170463
H -1.5033926057 -1.468123699 1.9664514729
H 0.4223791306 0.0221386742 3.1694751625

