# b3lyp 6-31G(2df,p) opt Freq 

 titel

0 1
C 0.7617277791 0.8655387237 -0.3498015939
C 0.9395717618 -0.6046316453 0.0197561543
C 1.4847074421 -1.5469052646 -1.1064644941
O 1.9528477365 -2.661543208 -0.3270266401
C 2.9231125537 -1.9134600227 0.4322150835
C 3.6838848402 -1.1724483481 -0.6557392148
C 2.7934326609 -0.9516195832 -1.6217953815
C 1.9709577669 -0.9107508249 1.1604333679
O 1.3768835752 -1.5068484633 2.2982838872
H 0.3666620212 1.4320131324 0.4993361071
H 1.7113798393 1.3221905543 -0.6439996642
H 0.0583749658 0.9846715168 -1.1820009249
H -0.02175448 -1.0077746816 0.3544725966
H 0.7535172809 -1.8753805968 -1.8448991067
H 3.4823802242 -2.5644781377 1.1031462057
H 4.7091704239 -0.8367158211 -0.5850645773
H 2.9131233323 -0.3922745436 -2.5391714965
H 2.4858847099 -0.0175509951 1.5213710831
H 0.9831091061 -2.3338332113 1.9937802085

