# b3lyp 6-31G(2df,p) opt Freq 

 titel

0 1
C 0.5480074071 -0.2528147823 -0.561930556
C 0.9071402523 0.097744703 0.881701634
O 2.1175610286 -0.5846240687 1.2721583953
C 3.0986116796 0.3650700711 1.6580126021
C 4.112701985 -0.0853999134 2.686661847
C 4.5021752645 0.0027694103 1.2236300052
O 4.6491518406 -1.1561426936 0.4690391291
C 2.4647518658 1.6917817518 1.555159674
C 1.2159067095 1.5548815107 1.1177906768
H 0.4270399381 -1.3345576226 -0.6698690312
H -0.393941686 0.2264617257 -0.8488135789
H 1.3333590336 0.0843269927 -1.2447213102
H 0.0999141284 -0.2524403526 1.544051595
H 4.5058251749 0.6486348466 3.3831513122
H 3.9675445316 -1.0821068795 3.0897225456
H 5.1807214547 0.7947184978 0.9166742814
H 3.7515941458 -1.4767153542 0.2982587087
H 2.9783351248 2.6118264485 1.8011491525
H 0.4988892713 2.3435321387 0.9304407075

