# b3lyp 6-31G(2df,p) opt Freq 

 titel

0 1
C -0.0195361449 0.2478780716 -0.2319378973
C 1.4529839663 0.0039342413 -0.1832758834
O 2.1426604758 0.2335614811 1.0543168919
C 2.6148798609 0.9172468819 -0.1179498077
C 3.4857314958 -0.0753597854 -0.9268625897
O 4.5759777096 -0.7024575116 -0.3091272035
C 4.1036876043 -1.8137947504 0.4636477508
C 2.7842085825 -2.2962383674 -0.190729952
C 2.2735398227 -1.0632953106 -0.9488194475
H -0.2719854323 1.1699011563 0.2984137129
H -0.3654808003 0.3301221397 -1.2674211242
H -0.5666011127 -0.5767700183 0.2393978418
H 2.6696971144 1.999512837 -0.0629855901
H 3.800844713 0.3320384796 -1.8916281885
H 4.8901530372 -2.5751118566 0.4464815339
H 3.9298919664 -1.5051057721 1.4985959005
H 2.9788334314 -3.1104331235 -0.894566756
H 2.0789509543 -2.6608856771 0.5603716558
H 1.8785270357 -1.2811976556 -1.9423031578

