# b3lyp 6-31G(2df,p) opt Freq 

 titel

0 1
C -0.4223722962 -2.1814736706 1.2307507206
C -0.8632212988 -1.2727777824 0.075813778
C -2.3716475744 -0.9927830287 0.0389650715
C -2.7058461336 0.1337901328 1.0624971053
C -2.2097628266 1.1001534911 -0.0352299341
C -2.6483207643 0.0517064804 -1.0806980412
O -0.7722955213 1.1981791123 0.0042914146
C -0.0629820691 0.0420626563 0.0992307998
O 1.1333343648 0.0849698861 0.1868811928
H -0.8714659581 -3.1736931923 1.12592797
H 0.6644785205 -2.283586746 1.2325496884
H -0.7267624259 -1.7733466553 2.2000261091
H -0.5727016434 -1.7608971667 -0.8646314338
H -2.9567790404 -1.9148471724 0.0587295789
H -3.7809269163 0.2344645275 1.2271741389
H -2.181117562 0.1548156022 2.0209015156
H -2.5699339284 2.1271126445 -0.0853147243
H -3.7121258544 0.1413724918 -1.3126351812
H -2.068603402 -0.0055693306 -2.0059017393

