# b3lyp 6-31G(2df,p) opt Freq 

 titel

0 1
C 1.1796588983 -0.2313288901 1.1202840633
C 0.8259651456 0.1254669673 -0.3250939791
C 1.7720552816 -0.4875704899 -1.3866728581
O 3.1168329862 -0.1217189831 -1.1381066006
C 1.3239295698 -0.0954182795 -2.8114957853
C 0.6516914373 -1.3380099599 -3.3405755093
C 0.8177928414 -2.4089091494 -2.5511112032
C 1.6530242532 -2.0290106295 -1.398707559
O 2.2328627418 -2.7454612569 -0.6097479775
H 1.1358422838 -1.3088878651 1.2976275978
H 2.1899970137 0.1103549925 1.3622508337
H 0.4872058629 0.2568595328 1.812421645
H -0.2040427091 -0.1770830113 -0.5537195162
H 0.8720103473 1.2135919654 -0.454726135
H 3.4805394468 -0.823868097 -0.5800202014
H 0.6572757878 0.773479838 -2.833672862
H 2.2031039735 0.1586449946 -3.4148399496
H 0.1124247028 -1.3396691027 -4.2823646514
H 0.4734875954 -3.4187198163 -2.7323505722

