# b3lyp 6-31G(2df,p) opt Freq 

 titel

0 1
C 0.0982756937 4.2389360341 -1.361958229
C 0.3346888684 4.4877437688 -2.8773051848
O 1.1180277055 5.6457911458 -3.1703219266
C 2.5026623355 5.416273123 -3.3765176001
C 3.0716988099 4.655027906 -2.2657174446
C 3.2201925049 3.9528561706 -1.2988239372
C 2.997482007 3.0741065244 -0.151940986
O 1.6469486375 3.1414122008 0.2770187516
C 0.6632107958 2.9331325626 -0.737610498
H 0.5062262655 5.0875428713 -0.8080300096
H -0.9827966738 4.2529951413 -1.1857777645
H 0.7711090405 3.5993615309 -3.355812589
H -0.6254056374 4.6793056441 -3.366596111
H 2.6719049053 4.8781345928 -4.3241013779
H 2.9592668642 6.4061584158 -3.4771769771
H 3.2719728518 2.0389633734 -0.4151678727
H 3.6021791573 3.3620517719 0.7140360923
H 1.0536915703 2.2640677907 -1.5176837143
H -0.1433923819 2.3977766517 -0.2270507917

