# b3lyp 6-31G(2df,p) opt Freq 

 titel

0 1
C -0.0308034891 0.279105066 0.7156883307
C 1.4763663909 0.3803691862 0.7742048487
C 2.2256617334 -0.8763298288 1.2036766434
C 3.7640385638 -0.6539755137 1.2277489283
C 4.0639867634 0.7811909142 0.8056549574
O 3.3938215347 1.6796459949 1.6837040937
C 2.0740133201 1.7174308442 1.1866860946
C 2.1594442628 1.2781530554 -0.2468125907
O 3.5234221281 1.0130404498 -0.4910287641
H -0.446775491 0.0265314652 1.6980717326
H -0.4853368409 1.2234340911 0.3970178248
H -0.3459811257 -0.4956175392 0.0069091773
H 1.8671636203 -1.1809273909 2.1934034506
H 1.9673702889 -1.6928464782 0.5199728058
H 4.174975452 -0.8182868649 2.2280799177
H 4.2760735618 -1.3353994986 0.5421788045
H 5.1287230525 1.0246379751 0.7944860829
H 1.4923035027 2.5430186622 1.5766964964
H 1.6514342914 1.7252986 -1.0918431347

