# b3lyp 6-31G(2df,p) opt Freq 

 titel

0 1
C 0.0903281726 -0.1374808693 0.0942300408
C 1.5944197861 -0.0313498309 0.1372660129
O 2.1542963781 -0.6402476803 1.2718896281
C 3.1167541827 -1.6422813588 0.9619630648
C 4.3192070044 -1.0645968997 0.2002835331
C 3.8361013319 0.0069717497 -0.7763337073
O 3.6112128962 1.2794418328 -0.0932980054
C 2.2270792187 1.2257561516 -0.4074402102
C 2.3535091241 -0.0803245903 -1.1709586643
H -0.3390522077 0.2482731257 1.023836493
H -0.3225923414 0.4370845073 -0.7410606624
H -0.2255188732 -1.1799282038 -0.0196530287
H 3.4148828287 -2.079752128 1.9177513085
H 2.6458643469 -2.4350118946 0.3605277669
H 5.0340703266 -0.5960666723 0.8841907594
H 4.8433181 -1.8677504356 -0.3308090617
H 4.5223318289 0.1602816241 -1.6139599469
H 1.7094217936 2.1567048956 -0.6106037297
H 1.9464173927 -0.4225111431 -2.1137160909

