# b3lyp 6-31G(2df,p) opt Freq 

 titel

0 1
C 1.4366571258 -0.0325077477 0.0790195202
O 0.0266017281 -0.0057363089 0.1873360895
C -0.4169562573 0.7267806613 1.2857193055
C -1.8131959442 1.2318516201 1.1219366735
C -0.6105386939 2.2056119366 1.0552592174
C -1.1223309793 2.8877807772 2.3366193138
O -0.6284913835 2.3633270461 3.6000259135
C -1.813355129 1.5388598998 3.7675912601
C -2.346046728 1.9530039704 2.3799048315
H 1.9008343739 -0.4872066964 0.966844419
H 1.6791949379 -0.6380189795 -0.7971850487
H 1.854841519 0.9757048516 -0.0510026932
H -0.0339064919 0.3764001658 2.2434854996
H -2.4222704408 0.8558968413 0.3094668521
H -0.1692320971 2.6973802096 0.196763459
H -1.1792669318 3.978824251 2.3271487327
H -1.5696977036 0.4820565204 3.9256770339
H -2.4252757093 1.8976449968 4.604297149
H -3.366241595 2.3252239244 2.3048124915

