# b3lyp 6-31G(2df,p) opt Freq 

 titel

0 1
C 0.2455371738 2.3103392078 -0.491750971
C -0.9174069057 1.3753296357 -0.1281500887
C -1.9321080829 1.180253544 -1.2769532263
C -2.859366267 0.0186501868 -1.0104679621
C -2.3758944422 -1.1122696034 -0.5006375528
C -0.8954955695 -1.239008808 -0.2293611048
O -0.5763679849 -2.3487897787 0.5599363667
C -0.395359004 0.0541726265 0.4217085658
O 0.3645012255 -0.0148615983 1.3639766491
H 0.9247915483 2.418782316 0.3566443805
H 0.816606402 1.9164277386 -1.3395141362
H -0.1298960873 3.2994442122 -0.7701498375
H -1.4567247509 1.8178039585 0.7204654162
H -2.4922159939 2.108970129 -1.4210405421
H -1.3856129489 1.0119401934 -2.2177504027
H -3.913775087 0.1227424106 -1.246035021
H -2.9856904972 -1.9813912103 -0.2789836091
H -0.3676427443 -1.2983359631 -1.2047587232
H 0.0281077761 -2.0082044571 1.2394861293

