# b3lyp 6-31G(2df,p) opt Freq 

 titel

0 1
C 1.4793597211 0.0788642764 0.0287475564
O 0.0635115621 -0.0529452718 0.0462372909
C -0.5246535921 0.6037511668 1.101709759
C -0.8738384866 2.0736043809 1.1215979695
C -0.7904648281 2.8276955836 -0.1892817132
C -1.9714660568 1.0210349541 1.2281737138
C -2.0068711648 0.3622313354 2.6422785067
O -1.0029012549 0.9557866241 3.4860983856
C -0.6108557699 -0.0435619482 2.5372518868
H 1.9333100444 -0.3242999138 0.9445438001
H 1.8401199365 -0.4936314272 -0.8283154974
H 1.7835070034 1.1277470187 -0.0790852238
H -0.6434510946 2.6501132349 2.0106606803
H -0.9537637545 2.165620993 -1.0443226815
H -1.540050851 3.6251076442 -0.225628412
H 0.1933520297 3.2932965428 -0.3112182457
H -2.7658999326 0.9356157056 0.4986986415
H -2.856308972 -0.1000050433 3.1300429988
H -0.0789313392 -0.9176782061 2.8946502341

