# b3lyp 6-31G(2df,p) opt Freq 

 titel

0 1
C 1.4197135489 -0.5886991627 0.0914548124
O 0.7238813098 0.6377854717 -0.0026140664
C -0.0091623006 0.9962404395 1.0855892146
C -0.7370773005 2.1477245081 1.1544301493
C -0.9577403802 3.2619891528 0.2012388315
O -1.3529309288 2.2038384798 2.3805684676
C -1.0120312414 1.0895196108 3.0797441925
C -1.5781128955 0.9524164534 4.44736747
C -0.1845999309 0.3058973632 2.3334875257
H 0.7338087334 -1.433977621 0.2385108042
H 1.948205367 -0.7190666039 -0.8547675369
H 2.1501905192 -0.5787819127 0.911745887
H -0.6147917894 4.2227811435 0.6043312783
H -0.4001246296 3.0588346313 -0.7159969237
H -2.0168195859 3.3762700424 -0.0604961661
H -1.2316370439 0.0213005376 4.9014290841
H -1.2738216518 1.7828223746 5.095197322
H -2.6741789993 0.9378116403 4.4309024456
H 0.2408731996 -0.6369862586 2.6362504182

