# b3lyp 6-31G(2df,p) opt Freq 

 titel

0 1
C 0.3853388742 -0.4387561362 -0.6844151357
C 0.9083542804 0.1508219482 0.6115366817
O 1.3006536063 1.5149226793 0.4205842212
C 2.3813266797 1.7639553613 1.3019475363
C 3.6858518333 1.0200165675 1.0934564019
C 3.41339843 -0.2652762297 0.3112438961
C 2.1681254027 -0.5047010962 1.2112751042
O 2.0234377254 -1.8267928047 1.6332466051
C 2.6904987576 0.6095473856 2.1836602119
H 0.1221608148 -1.4898305309 -0.5311063178
H -0.5072121711 0.0980748976 -1.0171304038
H 1.134710848 -0.3790130467 -1.4776552025
H 0.1090799883 0.107714368 1.3774029837
H 2.4169771555 2.787050136 1.6563938012
H 4.6465462733 1.5101006739 1.2029582719
H 3.2603514569 -0.1913601159 -0.7694376979
H 4.1624334541 -1.0306810606 0.5259423089
H 1.2584491618 -1.8776374042 2.2183601672
H 2.7578940389 0.5810143275 3.2634283164

