# b3lyp 6-31G(2df,p) opt Freq 

 titel

0 1
C -0.1433349263 0.1066426666 -0.104144647
C 1.3627278142 -0.011867632 0.0751934705
O 1.73671417 0.9780256776 1.0090673563
C 2.2506299369 0.0124584052 -1.2057519004
C 1.7242835576 -1.1820741278 -2.0404202721
C 2.2960109269 -2.0352392067 -0.8938134759
C 3.3893830835 -0.9752964448 -0.6591974657
O 3.2950236458 -1.0797315011 0.7754449915
C 1.8931890728 -1.4148823736 0.4996652566
H -0.6107693206 0.1228496303 0.8842941289
H -0.3970038385 1.0437611456 -0.6087746501
H -0.5727985399 -0.720725963 -0.6720737473
H 2.6186062344 0.7149775422 1.312437565
H 2.4626855815 0.9892019203 -1.6361810988
H 0.6635388758 -1.2210836732 -2.2909181289
H 2.3120017497 -1.3432885876 -2.9492799539
H 2.488818652 -3.1054026914 -0.9434323205
H 4.3983087497 -0.958730875 -1.0674822234
H 1.4087679345 -1.9616040815 1.3077470451

