# b3lyp 6-31G(2df,p) opt Freq 

 titel

0 1
O 1.3938663779 -0.5461575091 0.1101294442
C 0.2987209096 -0.0475325843 0.0834485051
C -0.2629009433 0.7428961996 -1.0825483192
C -0.8629029335 2.0624519403 -0.6360757889
C -1.9272843093 2.7208775381 -1.5037647548
C -2.1556693045 4.2137808575 -1.3233183157
C -2.290123195 4.3655219343 0.2103723398
O -2.7112073691 3.0967442485 0.7182488887
C -2.3081121872 2.1080091454 -0.1872118174
H -0.3955456829 -0.1366504151 0.9508259663
H 0.5295799249 0.8771152735 -1.8257608728
H -1.048028255 0.1263964348 -1.5456449933
H -0.1685792868 2.7228568805 -0.1221186262
H -2.1859149617 2.2596901587 -2.4501785525
H -1.3506031105 4.8394103595 -1.720013771
H -3.0835616325 4.4990941307 -1.8295455373
H -1.3275596535 4.6473152594 0.6583738945
H -3.0310287662 5.1103897226 0.5126413081
H -2.8858161814 1.1963354151 -0.0822404576

