# b3lyp 6-31G(2df,p) opt Freq 

 titel

0 1
O 0.2166700923 0.0591387871 0.040758232
C -0.8838483424 0.9357256202 0.0405807597
C -1.0053992266 2.0240188967 1.146363165
C -2.5291010415 1.7161412457 1.2565566208
C -2.2722304177 0.4268648419 0.4695130739
C -3.1732638754 -0.4864689383 -0.320041102
C -4.4640023454 -0.7116500544 0.4644032486
O -3.7234298701 -1.084932284 1.6617278797
C -2.49378387 -0.9749788325 0.9416278295
H 0.3338748885 -0.264588619 0.9404883754
H -0.9067536699 1.3718019711 -0.963797204
H -0.4639737379 1.7223614013 2.0490776806
H -0.7054369446 3.040160657 0.8827982567
H -2.94156283 1.5907913885 2.2593611359
H -3.1448775631 2.435172094 0.7079677564
H -2.9994209784 -0.741195476 -1.3576159891
H -5.1186721026 0.1517522241 0.6318933779
H -5.0547541221 -1.5611980117 0.1046721179
H -1.7273183231 -1.7211185418 1.1191752152

