# b3lyp 6-31G(2df,p) opt Freq 

 titel

0 1
C -2.20855724 -2.9371082657 1.2887455907
C -1.0226538607 -1.9938207393 1.2085979129
C -0.4606560203 -1.4447034301 2.501043756
C 0.3127545633 -2.4805507377 1.7186556494
C -1.0373679393 -1.1077044697 -0.0204503239
C -2.0036244259 0.097244204 -0.0685865565
O -0.8684670868 1.0115742506 -0.2250864566
C 0.0335433799 -0.0164516591 -0.1510237385
O 1.2211065715 0.0551708532 -0.180182558
H -2.1554390052 -3.5565544575 2.1889551705
H -3.1583016973 -2.3893691725 1.3202932275
H -2.2402958659 -3.6087214957 0.4225329239
H -0.068891277 -0.4331848927 2.5178794887
H -0.941419082 -1.7476165305 3.4249143061
H 1.2060737265 -2.1471664859 1.2033105752
H 0.3610568028 -3.4908148562 2.1108831685
H -1.0799752845 -1.7191967848 -0.9286631102
H -2.6732242907 0.1650989361 -0.9276958025
H -2.5373023383 0.3083625234 0.8603655465

