# b3lyp 6-31G(2df,p) opt Freq 

 titel

0 1
O 0.1194354002 0.0722569528 0.4081189407
C -0.992684552 0.8641438639 0.0703371086
C -1.2419886622 2.035366538 1.0428336033
C -2.2024610335 3.1000903091 0.4941898626
C -3.5045714957 2.4669614751 -0.0010589508
C -3.5787321551 1.6291400333 -1.2539170073
C -3.5781562723 0.9571635179 0.1006479452
C -2.318867634 0.3532094687 0.6854000923
O -1.9777168695 1.1090673143 1.905619078
H 0.0622185188 -0.0916117957 1.3579944013
H -0.9212730408 1.0562937686 -1.0001781177
H -0.36993448 2.4652545439 1.5446383684
H -2.4346537836 3.7945459626 1.3084040827
H -1.7016544912 3.6838027161 -0.2889969766
H -4.4037001675 3.0196379435 0.2484694666
H -4.5163386522 1.6361181891 -1.7995264182
H -2.7077057884 1.5460867371 -1.8929037174
H -4.5060651441 0.507363284 0.4383578729
H -2.388437177 -0.7206560122 0.8771654553

