# b3lyp 6-31G(2df,p) opt Freq 

 titel

0 1
O 1.3004057723 -0.0793496562 0.0750034375
C 0.1007981196 -0.035600941 -0.080213096
C -0.6798491644 1.2715088413 -0.0603251801
C -1.8219189198 1.2413633154 -1.0877598364
O -2.6877178975 0.1511551775 -0.8288553553
C -2.0856104301 -1.1027507489 -1.0900192791
C -2.7107300979 -2.154775407 -0.1528713078
C -1.5483901918 -1.9059789625 0.8464568144
C -0.7285438985 -1.2742373792 -0.3320041179
H -1.1204197034 1.4017375398 0.9364988421
H 0.0139927532 2.0987271436 -0.2324193209
H -2.4310057434 2.1468825885 -1.0209825311
H -1.417572033 1.1837569438 -2.1115875402
H -2.0721900352 -1.3005083823 -2.1708607085
H -3.7284594411 -1.9409400519 0.1780660316
H -2.6713327773 -3.1568390568 -0.5874450725
H -1.8132567759 -1.1662435258 1.6047465532
H -1.0954522744 -2.7689260266 1.3362844375
H -0.0938239613 -2.0310638619 -0.7983703701

