# b3lyp 6-31G(2df,p) opt Freq 

 titel

0 1
O 1.3990847383 0.821621385 0.0975775883
C 0.3954468004 -0.0940630516 0.4729117827
C -0.897131439 0.599470211 0.9785556055
C -1.9854605313 -0.4747296998 1.3005650764
C -3.0035723955 -0.3188269159 0.1469563008
O -2.3342732783 0.4118815935 -0.8712967508
C -1.5528803207 1.3779819436 -0.1981004508
C -0.5630724518 1.4640396006 2.1030103117
C -0.2328076354 2.1851317515 3.0085562378
H 1.5939695336 1.3636054097 0.8721558742
H 0.1440630595 -0.6679045061 -0.4244629703
H 0.7487643694 -0.7949084359 1.2446033533
H -1.5360688126 -1.4721959544 1.3122903327
H -2.4428859903 -0.3064372641 2.276524016
H -3.3326809772 -1.2683888191 -0.2814928786
H -3.8920638923 0.2333904472 0.4910213572
H -0.8080410712 1.7775216131 -0.8882507828
H -2.175983859 2.1998468244 0.1864302209
H 0.0283783134 2.8212482773 3.8181598359

