# b3lyp 6-31G(2df,p) opt Freq 

 titel

0 1
C 0.323291041 0.694962875 -0.2947765035
C 1.5462521163 -0.2088721162 -0.3487553764
C 3.012549866 0.3519513612 -0.5080480885
C 3.4774331832 -1.0024543075 0.1008581126
C 2.1829259971 -0.8242805549 0.9475885345
O 1.5086236754 -1.8654843337 1.5799767296
C 2.4951259209 0.4667427303 1.7530779438
O 3.8832255853 0.836376124 1.8158519961
C 3.0888341011 1.3007246262 0.7099912988
H 0.4434181868 1.5300132578 0.4001693841
H 0.1088812573 1.1124240625 -1.2846560665
H -0.5562889313 0.1228656606 0.0186047049
H 1.3767053802 -1.0105911301 -1.0751881757
H 3.3877883666 0.7106512625 -1.4648016116
H 3.3729166606 -1.8234330494 -0.6091452535
H 4.4364885139 -1.0305702882 0.6133022893
H 2.031884904 -2.15626075 2.3346961742
H 1.8593273845 0.8060462584 2.5641954503
H 2.9754790011 2.3759277314 0.6274720173

