# b3lyp 6-31G(2df,p) opt Freq 

 titel

0 1
C -0.2480115207 0.1921291858 -0.0309253861
C 1.2720965831 0.1229242603 -0.0205469837
C 1.978365878 -0.8492070727 0.9627729138
C 1.7551477498 -2.0870328343 0.0461127097
O 3.1547998035 -2.4935715808 0.0400980031
C 3.216984737 -1.0267451868 0.0254577322
C 4.5496804589 -0.3521031906 0.0224174602
C 1.9761297807 -0.8829816719 -0.9417821154
O 1.9431110013 -0.8590366308 -2.3141950179
H -0.6226827864 0.7533457451 0.831647276
H -0.6089060578 0.6921689563 -0.9355297687
H -0.6978008223 -0.8059529933 -0.0008580474
H 1.7119983377 1.1269053038 -0.04378142
H 1.9908579969 -0.849021141 2.0506251553
H 0.9908857041 -2.8617437221 0.0817438462
H 5.1344013999 -0.6430377459 0.9004992138
H 5.116414118 -0.6227346947 -0.8743281692
H 4.4242716909 0.7351000081 0.0333114593
H 2.4432796173 -1.6205782843 -2.6340971813

