# b3lyp 6-31G(2df,p) opt Freq 

 titel

0 1
C 0.1141784619 -0.4798545311 -0.612957136
C 1.4236355396 0.1363704028 -0.1576496589
O 1.1420759901 1.0615528214 0.8868258006
C 2.2160595031 1.6999735985 1.4039836369
C 3.5406842216 1.607178376 1.0910003499
O 4.2555538697 2.4555311562 1.8927088929
C 3.364640562 3.0760236108 2.7059606045
C 2.0922269908 2.6642891525 2.4654519603
C 0.8234093148 3.091334651 3.1304309183
H -0.3741936461 -1.0019687707 0.2144653333
H -0.566521841 0.2916808692 -0.983253002
H 0.2958930564 -1.1980217201 -1.4178268829
H 2.1165440475 -0.6330471036 0.2142345243
H 1.9240376813 0.6618262754 -0.9846433035
H 4.1082179427 1.0337981161 0.3804886091
H 3.779850954 3.7845600744 3.4046493972
H 1.0182003663 3.8379781927 3.9049342958
H 0.1213412664 3.5251100745 2.4097728776
H 0.312476619 2.2424844241 3.5982106927

