# b3lyp 6-31G(2df,p) opt Freq 

 titel

0 1
O 1.0532984932 -0.5794596513 -0.5235819417
C 0.1651543281 -0.1182519738 0.1479850055
C 0.1950265272 1.2272340747 0.8165703709
C -0.91526352 2.2164503842 0.3244079945
C 0.1899008474 3.2164584382 -0.1235075158
C 1.295547373 2.2441554061 0.3828125363
O 1.9951168819 2.6449938732 1.5449182233
C 1.1481427507 2.422492169 2.6639638113
C 0.3750390235 1.1294334109 2.3460753418
H -0.7799154024 -0.6887739718 0.3128218203
H -1.5319888865 1.8235098091 -0.4885723757
H -1.5816691996 2.574965578 1.113355138
H 0.2215923846 3.4027079443 -1.1991322887
H 0.1875887825 4.1769406295 0.3964206943
H 2.0241428317 1.9097405614 -0.355869568
H 1.7778724472 2.3470335915 3.5539826844
H 0.4521056593 3.2641459652 2.8088946484
H 0.9893047615 0.2591323237 2.5988938293
H -0.571495343 1.0544196279 2.8880823615

