# b3lyp 6-31G(2df,p) opt Freq 

 titel

0 1
C -0.8845906697 1.9415193053 -1.1802131695
C -0.9365724849 1.0634871278 0.0699939612
C -2.0408405444 -0.0083625728 0.0737389039
C -0.9717922557 -1.1545355796 0.0303927277
C 0.0893074907 -0.106792629 -0.012621877
O 1.2692138888 -0.1252468641 -0.2350665317
C -1.9331004962 -0.9368219058 1.2201203069
C -1.4657147258 -0.5776989501 2.6130536495
O -2.9909371805 -1.8588052918 1.2127372009
H -0.9650109607 1.3388831589 -2.0909811222
H -1.7005926493 2.6708026893 -1.1812750703
H 0.0643291207 2.4831214726 -1.2188439611
H -0.8809810642 1.6863268985 0.9685388348
H -2.9467559899 0.0347331364 -0.5175982525
H -0.9825800018 -2.1093894542 -0.4807657363
H -1.1080033377 -1.4748467597 3.1324698448
H -0.6441395714 0.1408199457 2.6063582078
H -2.2955405578 -0.1589864587 3.1913020824
H -2.7039736102 -2.6448908188 1.6910293407

