# b3lyp 6-31G(2df,p) opt Freq 

 titel

0 1
C 1.5507848698 0.4133068736 0.4009971951
C 0.1171446245 0.0223108192 0.2479224777
C -0.4303558285 -1.1902320495 0.3405306164
C -1.9131040377 -1.1145809904 0.117273552
O -2.1726755044 0.2699742907 -0.1529934156
C -0.9615630182 1.0002580606 -0.0369304826
C -0.8585893947 2.2542196054 -0.8775931296
C -1.1395612585 2.3568220309 0.6097744822
O -2.4140775965 2.6813960158 1.060949663
H 1.6811118546 1.1413645041 1.2107761951
H 2.1752236763 -0.4550582051 0.6230730673
H 1.9337389005 0.8833796557 -0.5127191724
H 0.0893947395 -2.1153447186 0.5554233947
H -2.2538594568 -1.7157045927 -0.7388207933
H -2.4943471847 -1.4370324859 0.9949270694
H 0.1148821068 2.5563953076 -1.251073418
H -1.6938591634 2.4447548607 -1.5431408907
H -0.3553384812 2.7456741109 1.2543864288
H -2.9558576372 1.8927433569 0.9119645707

