# b3lyp 6-31G(2df,p) opt Freq 

 titel

0 1
O 0.6914633116 -0.5762452479 0.4779441916
C 0.7000628249 0.6762053548 -0.1648519347
C 0.2801474526 0.5739952316 -1.622329736
O -0.732888104 -0.4567381702 -1.8336497092
C 0.5769947055 -0.6392084276 -2.3998004364
C 0.697482873 -0.5370175339 -3.9019784324
C -0.1764520772 0.5880088849 -4.4933080463
C -0.1065935984 1.856529202 -3.6846290683
C 0.091178321 1.8458792121 -2.3656072734
H -0.1224726477 -1.0070633194 0.1817532141
H 0.0324971636 1.3962789321 0.340116486
H 1.7184086673 1.0769300861 -0.0987830731
H 1.159355215 -1.4212672703 -1.9144181373
H 1.7549981786 -0.348912654 -4.1300232816
H 0.44170516 -1.4946904071 -4.3684738445
H 0.1165614352 0.7780679022 -5.5309696893
H -1.2194421908 0.2487204942 -4.5269579298
H -0.2561256937 2.7992358097 -4.2038806537
H 0.1177569036 2.7694646207 -1.7936404858

