# b3lyp 6-31G(2df,p) opt Freq 

 titel

0 1
C 0.2585859577 -0.6390134213 -0.566753739
C 1.5520031352 -0.2121054951 0.0874843291
C 2.1626071669 -1.1156093018 1.1824869818
O 3.4526323742 -1.1468397836 0.5266378624
C 2.9760838807 -0.3224684391 -0.5546903833
C 3.191581567 1.1686173945 -0.2849462111
C 4.4437411796 1.877506781 -0.0361610936
O 3.7005560944 2.0731470914 -1.2502608056
C 1.7936270651 1.3107725799 0.3359524272
H -0.5889796727 -0.5045101376 0.1163045073
H 0.0538845483 -0.0478145236 -1.4654940594
H 0.288471576 -1.6945887322 -0.8570552586
H 2.2166271659 -0.6918726651 2.1934745865
H 1.7253151552 -2.1207906733 1.2393483655
H 3.2186277565 -0.7163939577 -1.5457866594
H 4.4541851024 2.7286185685 0.6434413555
H 5.391254248 1.3523671871 -0.1451060552
H 1.743782406 1.6496364974 1.3746617726
H 1.1461179536 1.9461941006 -0.2753418525

