# b3lyp 6-31G(2df,p) opt Freq 

 titel

0 1
C 1.2042556634 -0.1627020889 -0.1504620081
O -0.1449599626 0.1511034303 0.1284640501
C -0.3393122336 0.818482302 1.3435838225
C -0.2688062388 2.4060693389 1.3384855099
C -1.6417264824 2.3623261263 0.5897422366
C -1.861040207 1.1441884044 1.5598096464
O -2.8495917072 0.1869433175 1.4058715217
C -1.7683453154 1.8293989384 2.9187509399
C -0.7242058257 2.6541572527 2.7755916124
H 1.6466930704 -0.7748615483 0.6493871968
H 1.2196202451 -0.7315447106 -1.0830225154
H 1.8172223925 0.7410218806 -0.2752792467
H 0.1873649655 0.3148255855 2.166125035
H 0.5892118042 2.9493311379 0.9480294332
H -2.3048364555 3.2209353006 0.7108295571
H -1.5496119303 2.0627651053 -0.4566623551
H -2.6441800337 -0.301358075 0.6000088823
H -2.4014582564 1.6180787965 3.7681113956
H -0.2586287925 3.3128468861 3.4947062561

