# b3lyp 6-31G(2df,p) opt Freq 

 titel

0 1
C 1.5370215629 0.3554018081 0.0313475337
C 0.0977047395 0.1404135629 0.0139361862
C -1.0939384986 -0.0380088657 -0.0114150047
C -2.5316390158 -0.2490490378 -0.0108678686
O -3.2501004539 0.9950807035 0.0216358007
C -3.1946480383 -1.0923550738 -1.1377515988
C -4.1711055386 -1.6732217906 -0.0726723993
O -5.4076496189 -1.0047571151 0.0085907601
C -3.1407861601 -1.2564696169 1.019459679
H 1.9674503687 0.1087637269 1.0081519084
H 2.0382013636 -0.265605889 -0.7192552308
H 1.7829775478 1.4003905146 -0.1868918855
H -2.9375538844 1.4887760541 0.7887779772
H -3.6346815706 -0.5181900482 -1.9555247069
H -2.5065784008 -1.8433923027 -1.5305977745
H -4.4000349314 -2.7380854579 -0.1461844384
H -5.2049836871 -0.0603852184 0.0437508242
H -3.5441300247 -0.8238613346 1.9387789282
H -2.4393175495 -2.0585420093 1.2619178297

