# b3lyp 6-31G(2df,p) opt Freq 

 titel

0 1
C 0.0269601681 3.5620880796 -0.5011604875
C 0.7344569321 2.6438072108 -1.5346230432
C 1.9263771463 1.9917547452 -0.8038963283
C 1.4022143412 1.4733840789 0.5679519769
C -0.0895025937 1.1823860465 0.3608877737
O -0.1561059022 0.4706751068 -0.8938034445
C -0.4023598457 1.5568976523 -1.7664007502
O -1.5714513974 2.1307484669 -1.2084835835
C -0.9362958179 2.4933081244 0.0295047273
H 0.7169444705 3.9874528477 0.2303552755
H -0.5486462318 4.3698340157 -0.9567028319
H 1.0257699599 3.1409641722 -2.4606886273
H 2.3281805495 1.1611446949 -1.389383927
H 2.7337300115 2.7182110459 -0.6705164245
H 1.9185365342 0.555132595 0.8603533259
H 1.5597969134 2.1984242295 1.3733056654
H -0.5396929401 0.5687637526 1.1428040825
H -0.5721445957 1.2000567509 -2.7808511578
H -1.6778348822 2.7806186442 0.7732444285

