# b3lyp 6-31G(2df,p) opt Freq 

 titel

0 1
O 1.0322173662 0.0992961094 0.8086808186
C -0.04583264 0.057004336 0.2777214123
C -0.7975209104 1.2436634376 -0.339499248
C -2.2223796477 0.7206499622 -0.5719470871
C -2.0228348998 -0.7763134773 -0.8636995389
C -3.2628242039 -1.6728877685 -1.0605620797
C -2.7599879004 -1.8244599051 -2.5088681891
O -1.6150769627 -0.986855476 -2.2481627157
C -0.9175552888 -1.1951213781 0.1057089384
H -0.7180673907 2.132831589 0.2893938621
H -0.3095565338 1.4714244993 -1.2952864546
H -2.8279252969 0.8322505659 0.3362231474
H -2.7477458311 1.2152919591 -1.3919259173
H -3.2693472734 -2.5893707827 -0.4677670434
H -4.221491174 -1.1632362473 -0.9440194047
H -2.4650673015 -2.8369360265 -2.8089480087
H -3.4086150412 -1.4016321696 -3.2853886134
H -1.34147581 -1.4456836637 1.0874828888
H -0.3363054502 -2.052633994 -0.2389579872

