# b3lyp 6-31G(2df,p) opt Freq 

 titel

0 1
C -0.1280279364 -0.0127510828 0.053071019
C 1.3743395778 -0.0512626305 0.0970061578
C 2.3610323657 1.1408894666 0.1216116232
C 3.2374367812 -0.1528400389 0.1326675352
C 2.3396279577 -0.7216706367 -0.9915766902
O 4.5256075621 -0.222168743 0.657314342
C 4.2726948649 -0.1689721404 2.0834649088
O 2.8567187839 -0.2671874559 2.347173766
C 2.3149743078 -0.774439761 1.1379900734
H -0.5258582453 0.5202703493 0.9227890485
H -0.4827664995 0.5006654432 -0.8470967299
H -0.5508496572 -1.0229707884 0.0543812645
H 2.4049913599 1.753778456 -0.781486064
H 2.3707179266 1.7418037849 1.0308079866
H 2.3633278773 -0.2202150582 -1.9608804654
H 2.2898794448 -1.80881398 -1.0915861432
H 4.8126822716 -1.0057421474 2.5444792612
H 4.6190478325 0.7864873574 2.4931286689
H 2.2313625044 -1.8675323543 1.1657177676

