# b3lyp 6-31G(2df,p) opt Freq 

 titel

0 1
C 0.0293596461 -1.6647874982 -2.3927218326
C 0.0899223524 -0.1818652683 -2.1507656777
C -1.0665472487 0.7904018523 -2.6338202278
C -0.2695040815 1.0746278776 -3.9261888579
C 0.9298340074 0.8712507505 -2.9891076524
C 0.6248213453 1.7362524319 -1.6967826545
O -0.7827666907 1.9652341713 -1.8452234518
C 0.6243733504 0.4380497455 -0.8488533419
O 1.8970943413 -0.1144084472 -0.5809290321
H -0.7572931211 -2.1296470603 -1.7863685127
H -0.1799635261 -1.8998590009 -3.4418031184
H 0.9816309949 -2.1304729046 -2.1220326972
H -2.1278361165 0.5466520424 -2.6024381629
H -0.3387180335 0.265837535 -4.6580239794
H -0.4386256998 2.0432888261 -4.402723444
H 1.9593741457 0.7232076355 -3.3025446615
H 1.1539481201 2.6477006974 -1.4191025094
H -0.0229471465 0.4500368162 0.0388702198
H 2.3074851309 0.4083437379 0.1150477247

