# b3lyp 6-31G(2df,p) opt Freq 

 titel

0 1
C 3.4129410442 -1.5364869192 -2.8944441104
C 2.3658713579 -0.8569128775 -1.9981482248
C 2.1558725126 -0.8238847974 -0.4775205655
C 3.2585733982 0.1902197654 -0.0481715526
C 4.4398307512 -0.3166007492 -0.8755323018
C 3.729605028 -0.2437918104 -2.2279067213
O 3.7753617961 1.0676737747 -2.7241562874
C 2.9136567572 1.8201679848 -1.8642299458
O 3.034873995 1.5488294411 -0.4768824846
H 3.9772445302 -2.4076462107 -2.5727930241
H 3.1355559815 -1.5494790361 -3.9438017082
H 1.5506217329 -0.4550195486 -2.5893414812
H 1.1487299351 -0.4768827049 -0.2323552685
H 2.3130418143 -1.7770327196 0.0415706391
H 3.4024587992 0.2624562425 1.033102068
H 5.3084519652 0.3416183819 -0.8407685407
H 4.732798804 -1.3328176911 -0.5959834112
H 3.1799428521 2.8719515103 -1.9932325176
H 1.8733250351 1.6548694439 -2.1807730816

