# b3lyp 6-31G(2df,p) opt Freq 

 titel

0 1
O -3.8995003496 3.3828917791 -0.4020695893
C -4.2339686719 2.3947709883 0.5298807303
C -3.6202602624 2.4315661909 1.9132769151
C -3.1552573442 1.4288235563 0.8823478614
C -3.2705366511 -0.1114301948 0.8839980582
C -1.8975868195 -0.1773388705 0.2007183334
C -0.8532923345 0.5348140187 1.0132211918
O 0.4834196198 0.452286874 0.6064767074
C -1.8050533262 1.3714070455 0.2055208832
H -4.3087879683 4.2080092045 -0.1214410037
H -5.2490812864 2.0034168314 0.4391788527
H -2.9518602165 3.2583887033 2.1332656838
H -4.2168258126 2.0854715711 2.7517111581
H -3.34211137 -0.600498407 1.8623011718
H -4.0865288202 -0.4687201903 0.2492880553
H -1.6110580688 -0.8763840123 -0.5768797371
H -0.8990318751 0.5362554641 2.1003358537
H 0.5173586249 0.5256719924 -0.3533188552
H -1.4633640374 2.0556849355 -0.5625272508

