# b3lyp 6-31G(2df,p) opt Freq 

 titel

0 1
C 0.4783233224 0.7892615546 -1.0359071901
C 1.0360075992 1.2201619953 0.3332424422
O 0.2801563118 2.4525200353 0.5548873978
C -0.8612277079 1.5680955581 0.7100070211
C 0.0895045275 0.5693671604 1.4034298948
O -0.2239318619 -0.7857272635 1.5056316303
C -0.8129248014 -1.4106010754 0.3658974003
C -1.712456011 -0.4796271259 -0.4543871614
C -1.0396741724 0.8860783141 -0.6714059911
H 0.7638362752 1.5211430449 -1.7942561105
H 0.8030241142 -0.198366878 -1.3689088999
H 2.1122480859 1.3265558934 0.4658649928
H -1.7280960062 2.0215394074 1.1906148848
H 0.3718407071 0.9093841558 2.3999369873
H -0.0213379626 -1.8276835067 -0.2715272976
H -1.3863201281 -2.2568974133 0.7561667748
H -1.9391472529 -0.9671719905 -1.4091649673
H -2.6689071628 -0.3324019419 0.063140619
H -1.6036499459 1.5010382058 -1.3752696675

