# b3lyp 6-31G(2df,p) opt Freq 

 titel

0 1
O 1.0461367918 2.0874253782 -3.9536221463
C 1.2552845352 1.2812534788 -2.8117783907
C 1.6282376137 -0.2140830505 -3.0912720444
C 0.5051684579 -0.9087942189 -2.2931566408
C -0.7402160124 -0.0764116765 -2.7156875649
C -0.0067151859 1.0608496411 -1.9451211401
C 0.4604087972 -0.083446359 -0.9730563353
C 1.660342061 0.1105971192 -0.0899935892
O 2.7311026471 -0.4279772349 -0.2292142238
H 0.4022177251 1.6506132169 -4.520548978
H 2.0395698197 1.7981422388 -2.2522736713
H 1.5663999899 -0.4311919245 -4.1625846926
H 2.6242484241 -0.4790784939 -2.7374721541
H 0.4922393506 -1.9978142786 -2.2792759183
H -0.9266020767 0.0558730013 -3.7870107631
H -1.661745288 -0.3919483544 -2.222004034
H -0.5197535162 1.9516684902 -1.5838357343
H -0.3813384847 -0.3724993492 -0.3308912829
H 1.4876854507 0.8164728061 0.7572186941

