# b3lyp 6-31G(2df,p) opt Freq 

 titel

0 1
C -3.1966565099 0.1609802713 -1.4320247262
C -2.3526688508 0.0238679044 -0.1614927149
C -1.1152379202 0.8972797739 -0.1422575887
C -0.0068726255 0.2876295256 0.3121110888
C 1.3632020531 0.8385502638 0.5380307167
C -0.3768422795 -1.0981080508 0.6758562564
O 0.2356793739 -1.8892143613 1.3621864041
C -1.7636225395 -1.3800249677 0.0908635656
O -2.5337599174 -2.2003067322 0.9302747398
H -4.0626604546 -0.5060305842 -1.3921420745
H -3.564855666 1.185241662 -1.5525856177
H -2.6123136128 -0.0929196009 -2.3231249597
H -2.9785934968 0.2712454511 0.7066563937
H -1.1565683033 1.936692237 -0.4575397147
H 1.6773956138 0.6569810648 1.5713510162
H 2.0977461678 0.3362828965 -0.101680127
H 1.4075842837 1.9119556015 0.3382526495
H -1.6002361228 -1.8632843366 -0.8906969649
H -1.8949394833 -2.7177208181 1.4425038876

