# b3lyp 6-31G(2df,p) opt Freq 

 titel

0 1
O 1.2653676071 0.9421600728 -0.7053954197
C 0.4759943499 0.2422205825 0.2440296446
C -0.0575270228 1.14149217 1.3462266149
C -0.8468191919 0.4798011201 2.5077281762
C -0.0978907671 1.4229969564 3.5117842224
O 0.4804205615 0.8204490375 4.6539632898
C 0.9514509589 1.6902554269 2.3956884951
C -0.8860791828 2.5981779428 3.8710274492
C -1.5552632801 3.5429476498 4.1969557737
H 2.0298931912 1.3003817829 -0.2427449529
H -0.3551100694 -0.1918336016 -0.32346329
H 1.0366042143 -0.5960177282 0.6916420654
H -0.6282710924 1.9599307845 0.8981826956
H -1.9368787054 0.5234806475 2.4869598024
H -0.5191853444 -0.5491903623 2.6853000167
H -0.1731060016 0.8304372934 5.3618485696
H 1.3196679033 2.7119997417 2.2940997916
H 1.7935368494 1.0065586265 2.5474674638
H -2.1371110178 4.3855397066 4.4794122117

