# b3lyp 6-31G(2df,p) opt Freq 

 titel

0 1
C 2.5042451842 -0.7148438147 -1.3940526636
C 1.8141312617 0.1283446771 -0.3088647062
C 2.396975234 1.5252589063 -0.2354163676
C 3.0583049905 1.9427987339 0.8426488407
C 3.204140719 1.0021456701 2.0257464155
O 2.042762973 1.0530253543 2.8462477656
C 1.0910626447 0.2258607739 2.1704562389
C 1.9269686728 -0.5152315111 1.0869688082
O 3.2617158357 -0.3338387601 1.5724475661
H 2.0187416679 -1.6905762334 -1.5023861076
H 2.4678892595 -0.2113325855 -2.3653134466
H 3.5536036053 -0.8781471421 -1.1336620221
H 0.7462944475 0.2064035877 -0.5594510783
H 2.2723642394 2.1677264617 -1.1037801024
H 3.4612872733 2.9466568648 0.9279462428
H 4.0784438326 1.208714292 2.6460925718
H 0.6557382051 -0.4617550292 2.9015887527
H 0.291407642 0.8309386838 1.7271700626
H 1.7235934417 -1.5879436797 1.0529939197

