# b3lyp 6-31G(2df,p) opt Freq 

 titel

0 1
C 0.070083724 0.2053625137 0.2715580607
C 1.4474047326 -0.2467965869 -0.1486050799
O 1.9448006629 -1.1771608658 0.7976638979
C 2.9338480893 -1.9744275453 0.130274964
C 3.1661429296 -1.2020041565 -1.1612379055
O 3.7007933095 0.0774535303 -0.734115222
C 2.4885768237 0.8408740952 -0.6345476111
C 1.9000426142 0.6872719558 -2.0560333171
C 1.7362066281 -0.7790644001 -1.5916795787
H 0.1151003105 0.633313071 1.277858721
H -0.3361687029 0.9637573275 -0.4016166556
H -0.6179889678 -0.6447924889 0.2985566389
H 3.8410639242 -2.0186028977 0.7399829092
H 2.5566585252 -2.9951662001 -0.0357800347
H 3.8185530396 -1.6676205838 -1.9011486126
H 2.6780036872 1.7911016535 -0.1368832896
H 0.9455904892 1.1909770867 -2.2126751299
H 2.5882131778 0.8957574112 -2.8765708547
H 1.1146349732 -1.5199655398 -2.0932964503

