# b3lyp 6-31G(2df,p) opt Freq 

 titel

0 1
C 0.3814363103 -0.7892827849 0.1128142305
C 0.6726148552 0.7000434847 0.1460373136
O 1.9761840936 0.9008122396 -0.3868501882
C 2.4194727791 2.1801439914 -0.4404049762
C 3.6400978664 2.5483619695 -0.9204033797
O 3.7745632944 3.9078315788 -0.8342452237
C 2.6327589358 4.4039916006 -0.2966281762
C 2.5599253505 5.8772982915 -0.1103683718
C 1.7595930023 3.390673773 -0.0323193812
H -0.6160498155 -0.9875544917 0.5158597943
H 0.4238506268 -1.1664629385 -0.9126813905
H 1.114082058 -1.3376398292 0.7113456395
H -0.0650210952 1.255847977 -0.4508591018
H 0.6261375192 1.0844440906 1.1753023724
H 4.4697666362 2.0011008492 -1.3307319823
H 1.5971881011 6.1499184632 0.3274995064
H 3.3532134064 6.2381796372 0.554298966
H 2.6658637142 6.4086756888 -1.0631217896
H 0.7767012313 3.4967357093 0.3966283785

