# b3lyp 6-31G(2df,p) opt Freq 

 titel

0 1
C 0.1035975225 2.435327844 3.9052829561
C 0.0804903977 1.688109783 2.5953499726
O -0.4094447536 2.3663549922 1.4418943185
C 0.9621250151 1.9353333191 1.4197082938
C 1.9509754744 3.0635526413 1.4984030858
O 3.1056067607 2.963861671 1.1696911082
C 1.3133783555 0.8312572054 0.4690323437
C 0.8325503674 0.8997015458 -0.9601670664
C 0.2619488258 -0.1289174916 -0.0168136428
H 0.7733181142 1.9352621201 4.6125564939
H 0.4282445422 3.4703650998 3.7892558791
H -0.8997349567 2.4417859165 4.3437461354
H -0.2716503846 0.6573632345 2.668610933
H 1.5255188812 4.0166304218 1.8783650111
H 2.3165150201 0.4485614139 0.6213517756
H 0.1876421969 1.7282072771 -1.2311022425
H 1.5116980252 0.5777972707 -1.7409022763
H -0.7563667123 0.0315481206 0.319295962
H 0.5422890084 -1.1683065452 -0.1443757408

