# b3lyp 6-31G(2df,p) opt Freq 

 titel

0 1
C 1.4337052103 0.0648161604 -0.0868662385
O 0.025974128 0.0372145298 0.0356304789
C -0.4346848636 0.6252717459 1.2203517297
C -1.946076122 0.8762783573 1.2658380863
C -1.802123878 2.069834647 2.2684569207
C -2.6521895519 3.007615545 1.3861805882
C -1.8472989889 2.1655838536 0.3744392222
C -0.5758506649 2.1641502676 1.2803538112
O 0.3910953559 3.1518305541 1.2159021067
H 1.9211631749 -0.4706983083 0.7438036637
H 1.6880929951 -0.4374257458 -1.0232870902
H 1.8198939997 1.0926646973 -0.1135065518
H 0.0139348328 0.1412269577 2.1052928835
H -2.7534494846 0.1485096613 1.2525453693
H -1.7551011488 1.9862434167 3.3555972003
H -3.7351228429 2.8518559138 1.4054806611
H -2.413252076 4.0735602707 1.4337657281
H -1.8533170071 2.1887518028 -0.713607307
H 0.9333281921 3.102299293 2.0109162878

