# b3lyp 6-31G(2df,p) opt Freq 

 titel

0 1
O -0.0074970681 -0.6067452241 0.6877206969
C 0.3745136029 -0.1393846505 -0.3553300496
C -0.4510267974 0.776094217 -1.2299343823
C -1.348900564 1.7620814315 -0.4839576417
C -2.4889149934 2.0661533158 -1.4737172037
C -2.7392825233 0.7157259286 -2.1756281766
C -1.3496590401 0.0811757312 -2.3170779135
C -0.3786933715 0.7432955115 -3.3150520067
O 0.3603304689 1.3920029128 -2.2567221112
H 1.3791819461 -0.3674671211 -0.7771257143
H -1.7236375781 1.2586028305 0.4138646054
H -0.7916406984 2.6492509223 -0.1712889245
H -3.3830442787 2.4606964343 -0.9844097157
H -2.1574736728 2.8162771734 -2.1997146314
H -3.3662645998 0.0751206975 -1.5453357198
H -3.2468740218 0.8196177446 -3.1402522628
H -1.3646262576 -1.0090442906 -2.3358435203
H 0.2533485418 0.0495522969 -3.8825560098
H -0.8243426248 1.4676750284 -4.0082322586

