# b3lyp 6-31G(2df,p) opt Freq 

 titel

0 1
C 1.8048547897 -1.2673326253 -0.7833256234
C 1.3360021633 -0.0761583733 0.0395215755
C 1.2671740477 -0.2400966556 1.5764033486
O 2.2138674645 0.8384884192 1.774475223
C 2.3590034214 1.019841201 0.369275136
C 3.7481086822 1.2010938943 -0.3005886108
C 3.8364197518 2.6175777676 0.3142087949
C 2.4198853165 2.4268345728 -0.2751553196
O 3.0214534386 1.7701142014 -1.4617499429
H 2.7149549812 -1.7066866112 -0.3603272261
H 1.0390606449 -2.0496403139 -0.8124904842
H 2.0215270939 -0.9599244577 -1.8099115433
H 0.4156280499 0.3374913505 -0.3814618519
H 0.3040966039 -0.0238619652 2.0512342875
H 1.6556404012 -1.191248524 1.9605993208
H 4.5379221478 0.4783392495 -0.5054640906
H 3.9294622594 2.6968397641 1.3987665952
H 4.4714566884 3.3151489862 -0.2334417373
H 1.6276146635 3.1555077796 -0.4498835315

