# b3lyp 6-31G(2df,p) opt Freq 

 titel

0 1
C 2.8888413733 1.6325288003 -0.4321049888
C 1.8825268295 0.5462295974 -0.0230760579
C 1.7068497486 -0.4847890693 -1.0900610813
O 2.7834488846 -1.4316767581 -1.3391168533
C 1.4778780976 -1.963407716 -1.1035643014
C 1.2733350216 -2.9262256258 0.0194314585
C 0.7868249489 -1.9363691682 -2.4805772837
C 0.9885833549 -0.3920431841 -2.4353312077
O 0.5808476053 0.5173482227 -3.0963788333
H 2.9964087546 2.3787952595 0.3599692296
H 3.8716851258 1.1937863713 -0.6263421127
H 2.5573732934 2.1425446363 -1.341076845
H 2.2099716756 0.0507043972 0.8980100251
H 0.9058987407 1.0004786188 0.183507678
H 1.6587617872 -3.9161943928 -0.2480786235
H 1.7984121991 -2.5891312539 0.9168956523
H 0.2084960561 -3.0308292552 0.2496880044
H 1.2971716994 -2.4886689881 -3.2723362898
H -0.2793342863 -2.1846242019 -2.4757284796

