# b3lyp 6-31G(2df,p) opt Freq 

 titel

0 1
C -0.095740073 1.5324604932 0.1771887827
C 0.0287374652 0.0323784937 0.0103819858
O -1.1799606771 -0.7009449563 0.4105175578
C -0.390397904 -1.6771923015 1.1417552916
C -0.6638056075 -1.9283885998 2.6221731482
O 0.5545655492 -2.4444048829 3.1543130747
C 1.6527401404 -1.5407002674 3.1696792878
C 1.7131187314 -0.6179861158 1.9753047929
C 0.7981463019 -0.772429161 1.0322148775
H 0.8440802676 2.0227289157 -0.0986593319
H -0.8850442902 1.9210560984 -0.4736880917
H -0.3363975868 1.7868289965 1.2125261422
H 0.277492315 -0.2183602559 -1.0319120497
H -0.3372002957 -2.6266590609 0.5928027511
H -0.9673745055 -0.98930846 3.1076164703
H -1.4206352212 -2.6928906252 2.8146888988
H 1.6145454079 -0.9152366919 4.0796456943
H 2.5475346631 -2.1691290072 3.254276125
H 2.4242297195 0.2028438784 2.0014900924

