# b3lyp 6-31G(2df,p) opt Freq 

 titel

0 1
C -2.8852501018 3.3374787552 -1.9864145566
C -1.4450461606 3.0988382727 -1.6411830084
C -0.2704918401 3.62665929 -2.4479027925
C -0.3832775462 3.9627074233 -0.9947377224
O 0.1231259938 2.8905523809 -0.1929983606
C -0.9404327187 2.0186025898 -0.6758574661
C -0.4383139266 0.6723684596 -1.1936534539
C 0.319912484 -0.091721656 -0.126278742
O 0.0057645806 -1.1798907627 0.284110243
H -3.5236455491 3.2777964991 -1.0978904356
H -3.0240957283 4.3278079638 -2.4312519675
H -3.2503190533 2.6001711569 -2.7114046446
H 0.536119924 2.983209254 -2.7879878603
H -0.5371622469 4.4239845649 -3.1355764784
H -0.3996942747 4.956425111 -0.5621079115
H -1.6648975292 1.8593971242 0.1347617933
H -1.2805594956 0.0607609752 -1.5315189474
H 0.2425842747 0.8418889251 -2.0371437408
H 1.2123670739 0.4398531929 0.2680358323

