# b3lyp 6-31G(2df,p) opt Freq 

 titel

0 1
O 0.4334380278 -0.0856215557 0.6748471507
C -0.3792772036 0.9496632566 1.1367342777
C -1.0148488288 0.8085224869 2.5400435454
O -1.627785096 -0.4950913665 2.4261689809
C -2.4860404508 -0.2786547421 1.2588177942
C -3.8609678391 0.0991294801 1.807306612
C -3.5535020182 1.4285903569 2.5594321104
C -2.1397899666 1.7805248704 2.0754925848
C -1.8759588517 1.0376871747 0.7207131029
H 0.1004877638 -0.8858312292 1.1042838958
H 0.14263184 1.8968868435 0.9850704504
H -0.4715523229 0.8819942866 3.4815868821
H -2.4481303572 -1.1552226676 0.6100027182
H -4.5734546832 0.2533825115 0.9888110478
H -4.2571746378 -0.6837712542 2.4584250988
H -4.2663198866 2.2172437456 2.3029820671
H -3.587204267 1.30116113 3.6452107127
H -1.8553542152 2.8318351508 2.1129240937
H -2.2178140668 1.3984662617 -0.2481555055

