# b3lyp 6-31G(2df,p) opt Freq 

 titel

0 1
O -5.3023816959 -2.5738224225 3.8955901402
C -5.0232208688 -2.2844475955 2.5359752044
C -3.6611817894 -1.6053933682 2.4765523399
C -3.2599479735 -1.2350918168 1.0359644763
C -1.9563139915 -0.5884458903 0.9536508754
C -0.8742222494 -0.0612696409 0.899868358
C 0.413525198 0.5760888843 0.865271011
C 1.008104369 1.0704408966 -0.3927007857
O 1.4890884591 -0.1222428137 0.2118977214
H -6.157686947 -3.0106073446 3.942202865
H -5.0079811239 -3.2029020723 1.9255295422
H -5.7897259753 -1.620286808 2.1022126351
H -3.6844962526 -0.7046601617 3.098392907
H -2.9094224262 -2.2720119787 2.9108327699
H -3.2505361394 -2.1390695414 0.4118461874
H -4.0224504842 -0.57594061 0.5986493579
H 0.7156392616 1.0696510733 1.7886521569
H 0.456334992 0.9380205666 -1.3214494217
H 1.6838782672 1.9245477039 -0.3611439004

