# b3lyp 6-31G(2df,p) opt Freq 

 titel

0 1
O 0.47077554 0.2179737409 0.6163541057
C -0.9254413376 0.283447589 0.6922534085
C -1.5666643821 0.1444958224 2.0516781024
C -3.0055064403 0.6232533763 2.2734098561
C -3.9123424746 -0.272330654 1.4188074014
C -3.8276507394 -0.23619942 -0.0824060426
O -4.9264709504 -0.6098217724 -0.8642714536
C -3.0288350245 -1.2735803001 0.6669633277
C -1.5897574122 -1.0121854439 1.056133307
H 0.8234342498 1.0583642215 0.9281415647
H -1.3856715355 0.9356558472 -0.0491585257
H -0.8887288577 0.1203459936 2.8983840355
H -3.2675526281 0.5008164484 3.329436792
H -3.1343015652 1.6870862675 2.0383093099
H -4.8647413213 -0.5810687672 1.8412719893
H -3.3185656259 0.5860699661 -0.5722532534
H -5.3642847598 -1.3559014157 -0.4422246146
H -3.3303483405 -2.3101356055 0.5504411471
H -0.9310799848 -1.8633770741 1.1812300824

