# b3lyp 6-31G(2df,p) opt Freq 

 titel

0 1
O 1.1799663879 -0.1096705247 0.4293119201
C 0.4553582545 -0.5933527257 -0.6863655827
C -0.565209588 0.3818848471 -1.2868279059
O -1.4777653127 -0.0406212253 -1.9624183924
C -0.3691440558 1.8494229151 -1.0514770631
C -0.5200066267 2.6425519622 0.2954593544
C -0.1570809218 3.6995009469 -0.7857236588
C 0.9221235446 2.7019840984 -1.2969362962
C -1.1746803834 2.9914149644 -1.7280676818
H 0.5847322882 -0.0849014145 1.1845765997
H 1.1981197415 -0.7958788488 -1.4686837334
H -0.0627298799 -1.5405665375 -0.485909225
H -1.5299814562 2.689668806 0.712205384
H 0.2324082487 2.4451179729 1.0615814614
H -0.03917996 4.77290175 -0.6360857081
H 1.2320159358 2.8070819328 -2.3402751611
H 1.7670484248 2.4976312561 -0.6374585785
H -2.2312582611 3.0653790031 -1.460778116
H -1.0232528104 3.1170184813 -2.8028147167

