# b3lyp 6-31G(2df,p) opt Freq 

 titel

0 1
C 3.1182525102 -4.4474739554 -2.4449569749
C 2.7711694296 -3.0777520787 -1.86017115
C 1.4102308806 -3.0759206362 -1.1349322276
O 1.3622963438 -4.0428970127 -0.0866349075
C 1.0663900894 -1.7348264531 -0.6509804654
C 0.805992201 -0.6381813565 -0.2247522713
C 0.5230976638 0.7069252664 0.2529610574
C 1.6358580973 1.6988106711 -0.096678426
O 1.4351511751 2.8403519575 -0.4078772354
H 3.1114759885 -5.2123237292 -1.6645353479
H 2.3918096985 -4.7445213101 -3.2095553247
H 4.1077272569 -4.4350498231 -2.9108850931
H 3.5410300218 -2.7579290601 -1.1458279707
H 2.7434790957 -2.3151938055 -2.6470288657
H 0.6397046126 -3.4059770856 -1.8436616792
H 1.9069389521 -3.7103153996 0.6356937228
H -0.4214860082 1.0995420219 -0.1374818393
H 0.436431767 0.7060714499 1.3506881627
H 2.6620882245 1.277031209 -0.025030054

