# b3lyp 6-31G(2df,p) opt Freq 

 titel

0 1
O 1.3179873348 0.0179340217 1.1305149601
C 0.6219266918 0.2943388595 -0.074520008
C -0.464799287 1.3303303486 0.1270140645
C -0.0935371667 2.7352518776 0.6285717129
C -1.5602271145 3.221830443 0.5011121121
C -1.7839776235 2.8589940467 -1.0010662473
O -1.0638137918 1.6338968283 -1.1725830499
C -2.2800107711 2.1349410259 1.2816492415
C -1.6247878102 0.9897621003 1.060870534
H 0.6828399349 -0.329192589 1.7653783039
H 1.3635471728 0.6778898088 -0.7807137176
H 0.1849360113 -0.6144038723 -0.5160144717
H 0.2774260989 2.7463370712 1.652962076
H 0.6073878928 3.2435417878 -0.0402355838
H -1.7866807543 4.2561013015 0.7576480117
H -2.841925624 2.7130583774 -1.24750909
H -1.3660435537 3.6267126911 -1.6644650264
H -3.2222065077 2.2687833915 1.798742974
H -1.9270788926 -0.0122874695 1.3431726038

