# b3lyp 6-31G(2df,p) opt Freq 

 titel

0 1
C -2.1014285543 -0.0172376483 -2.3312449511
C -2.1345532062 -0.0140201034 -0.8126395031
C -1.231523228 0.9467376523 0.0158466448
C -1.3331402181 2.4145324825 0.2657165312
O -1.385416333 0.0054498664 1.1700912271
C -1.195294727 -0.9350809253 0.0206404857
C -1.2403621492 -2.4044076726 0.2779938793
C -0.0278863074 0.0277618474 -0.3310548467
O 1.13875427 0.0496392302 -0.5592202938
H -2.5927331363 -0.9106447566 -2.7301067841
H -2.6264323025 0.8547387108 -2.734578058
H -1.0762701674 0.0013578207 -2.7163302777
H -3.1453051213 -0.0324111109 -0.3932173158
H -0.5664387398 2.7358308462 0.976407091
H -1.1830496584 2.962014265 -0.6700411013
H -2.316435568 2.6773538381 0.6670963151
H -0.4619299849 -2.6923305236 0.9902359195
H -2.2128507618 -2.7028355231 0.680805523
H -1.0692189965 -2.9504660257 -0.6549777152

