# b3lyp 6-31G(2df,p) opt Freq 

 titel

0 1
O 0.0394982124 -0.0529792176 0.2892445185
C -0.6337865931 0.8749151588 1.1390383485
C -1.285567038 2.013090151 0.3456679153
C -2.4119753359 1.4872544937 -0.5571358759
C -3.3071399178 0.5125433903 0.1630301584
C -2.9836112999 -0.0673336718 1.3222153167
C -1.6810580364 0.1685995457 1.9912791097
C -1.2279393128 -0.6993059717 3.0878756009
O -1.7604905741 0.5929796171 3.3726580252
H -0.6295061059 -0.5595522491 -0.1839836579
H 0.1367328688 1.2725780911 1.8055199277
H -1.6973237083 2.7345301927 1.0616459308
H -0.5249841647 2.5288580424 -0.2473696465
H -3.011429858 2.322442753 -0.9376562565
H -1.9898970845 1.0093202422 -1.4536184943
H -4.2648416763 0.2846863242 -0.2989548079
H -3.6775061122 -0.7377490347 1.8219208275
H -1.8462333597 -1.5397366503 3.4024991697
H -0.1586348736 -0.8197563571 3.25693526

