# b3lyp 6-31G(2df,p) opt Freq 

 titel

0 1
O 1.1970639364 -0.7262497909 0.0080310917
C 0.0983778102 -0.2369399825 -0.0330900397
C -0.4172504878 0.6473655027 -1.1466635582
C -0.9077434508 2.0059675225 -0.6147456079
C -1.5036523628 2.8947900187 -1.7011440142
C -0.5796600815 3.597216229 -2.7499400053
C -1.3055063696 4.9550016861 -2.5013277915
C -1.9753524403 4.302050295 -1.2817852426
O -2.5404852457 4.7190305288 -0.3131181957
H -0.6361656521 -0.4085270539 0.7894262299
H 0.3740544957 0.7644691197 -1.8927203595
H -1.2598464501 0.1237130986 -1.6220857494
H -1.6645569595 1.8519709832 0.164340249
H -0.0738230723 2.53235835 -0.1336715915
H -2.3322450186 2.3750502826 -2.2012999697
H 0.4633927477 3.6203964243 -2.4239311483
H -0.6214448487 3.2082546871 -3.7676608377
H -0.697251653 5.8397404836 -2.2986476134
H -2.0368635774 5.2080942654 -3.275983776

