# b3lyp 6-31G(2df,p) opt Freq 

 titel

0 1
C 2.4550930582 1.5997507778 -0.525899893
C 1.7167629385 0.2818415055 -0.2514917447
C 2.033050417 -0.7652430246 -1.2718955321
C 1.3931665093 -0.960730044 -2.6103467033
C 1.4675554152 -2.1250953192 -1.6376364022
C 2.9187960659 -2.6060958812 -1.5744359573
O 3.3890279649 -1.2576511409 -1.3215502729
C 3.1844148453 -3.4979648203 -0.3764535373
O 3.2603414958 -4.6964510765 -0.4394072376
H 2.2313075052 2.3390995331 0.2482737208
H 3.5367286664 1.4387484105 -0.5410442677
H 2.163675917 2.0200750511 -1.4935066271
H 1.9854821365 -0.0943758247 0.7430326622
H 0.6329265101 0.4458639423 -0.2490165837
H 0.397443415 -0.5409366097 -2.7180621949
H 1.9988077443 -0.955341292 -3.5123129701
H 0.6025117053 -2.6672597338 -1.2806070079
H 3.3465417311 -3.0505761714 -2.4797526468
H 3.285200529 -2.9386362517 0.5807310556

