# b3lyp 6-31G(2df,p) opt Freq 

 titel

0 1
C 1.8759097048 2.2735171515 0.3769587515
C 2.0416026876 0.9304137522 1.0414229399
O 2.4897926519 1.0433222226 2.3707796939
C 2.6026896608 -0.2811544879 0.3528027038
O 3.5223136959 -1.0569539874 1.0279792155
C 1.1040455605 -0.2663748253 0.7468843984
C 0.0626022563 -0.176344232 -0.3587632097
C 0.70827331 -1.0097248386 1.9068319994
C 0.3724669242 -1.574986966 2.9171930583
H 1.0639000932 2.8426439651 0.8418192403
H 2.7999022402 2.8494593761 0.4893894452
H 1.6648088836 2.177216864 -0.6901797713
H 1.8259796537 0.6453403302 2.952497509
H 2.7913469374 -0.2394800431 -0.7171291859
H 3.6512987962 -0.6198088501 1.8840386395
H -0.2577278386 -1.179570734 -0.6549528068
H -0.8220854628 0.3796024297 -0.0323380228
H 0.4663769185 0.3191061206 -1.245229598
H 0.0768620665 -2.1204679877 3.7791746999

