# b3lyp 6-31G(2df,p) opt Freq 

 titel

0 1
C -3.1972074455 0.0616729992 -1.0616648169
C -1.678471512 0.0424026778 -0.9703231693
C -0.9628527892 1.0947267629 -0.0668207413
O -1.5518816549 0.880368732 1.22565395
C -1.5400693344 -0.5670163722 1.3451859588
C -0.9407598127 -0.9844813219 -0.0101079321
C -0.7406527937 -2.4451004275 -0.316121321
C 0.1921436132 0.0708910659 -0.0741771493
O 1.3737417914 0.0540474025 -0.2427949405
H -3.6531922148 0.2991888417 -0.098323091
H -3.5239870528 0.8206646504 -1.7793412281
H -3.5841906658 -0.9043390381 -1.4028628365
H -1.2192519464 0.0073382211 -1.9639430139
H -0.8798448798 2.1562223259 -0.2847004825
H -0.9141713872 -0.8710171064 2.1929540998
H -2.5591252086 -0.9358689609 1.5084999348
H -0.1263530542 -2.9249302501 0.4531613331
H -1.6964659638 -2.9788605264 -0.3605404222
H -0.2316739189 -2.5773604758 -1.2755447121

