# b3lyp 6-31G(2df,p) opt Freq 

 titel

0 1
C -1.0348491681 2.121962848 1.0955971245
C -1.1029832104 1.0851430798 -0.0270845574
C -2.2334925403 0.0170090593 0.0783467281
C -2.5890896721 -0.6433616675 -1.2571486846
O -1.4777116572 -1.567072253 -1.1568245439
C -1.1692475937 -1.1361906936 0.1992728732
C -1.0887792257 -2.2636094275 1.1879807667
C -0.0647570259 -0.0523307785 0.1322273685
O 1.1259037761 -0.0717664717 0.2458956935
H -1.099407116 1.6481759551 2.0811168535
H -0.0886326512 2.668308831 1.0504644571
H -1.8553663221 2.8413496003 1.012915996
H -1.0542711804 1.5836245761 -1.001835374
H -3.0181667906 0.1963792023 0.8116194321
H -3.5448097198 -1.1819482797 -1.2675101353
H -2.52395104 -0.0103281739 -2.1502434909
H -0.2583644269 -2.9254956358 0.9216590052
H -0.9075066817 -1.8836505012 2.1984621104
H -2.0125637937 -2.8495588096 1.1895979372

