# b3lyp 6-31G(2df,p) opt Freq 

 titel

0 1
C 0.4613013131 0.3033840561 -0.9700787172
O 0.0408719313 -0.004563122 0.360397747
C 1.4127713 0.3353598233 0.149901018
C 1.8677515084 1.6265663064 0.7513667474
C 3.3662163843 2.0149149884 0.722446991
C 3.2638917829 2.4696311682 2.2129922473
C 1.7832098944 1.99987475 2.2681991574
C 0.7617232682 3.0437356353 1.8035025169
O 1.0134495416 2.7409734008 0.4081549462
H 0.4783288289 -0.5369320527 -1.6626659134
H 0.088958276 1.2462922249 -1.3612959707
H 2.1058100606 -0.4989877456 0.2704954504
H 4.0361730833 1.1623881006 0.5759769574
H 3.6042337386 2.7848953793 -0.0140262445
H 3.9246388014 1.9177402416 2.8846233994
H 3.4105522892 3.5381057334 2.3921832084
H 1.4894613823 1.3047468883 3.0530059338
H -0.2760399479 2.8136875411 2.0720175736
H 0.9790954334 4.0919459926 2.0437357416

