# b3lyp 6-31G(2df,p) opt Freq 

 titel

0 1
C 1.5890298996 0.1670485101 0.1329301162
C 0.1383330533 0.0483356691 0.1127953649
C -1.0607826866 -0.0501264797 0.0854477934
C -2.5105034888 -0.1859463391 0.066518964
C -2.9658253014 -1.6707043777 0.0317510253
O -2.5002976274 -2.3071442956 -1.1206712547
C -4.4934004938 -1.7842687009 0.107971802
C -5.2118908858 -1.2134083872 1.3083797143
O -5.0823761539 -2.3346643917 -0.7986919843
H 1.9877949031 0.0392044455 1.1454372032
H 2.0565781567 -0.5905216684 -0.5056162362
H 1.912832043 1.1495657379 -0.228166931
H -2.9392947823 0.3066807911 0.9484488677
H -2.927837706 0.3142254901 -0.8168885542
H -2.5585645612 -2.1641283075 0.9305572222
H -3.2999969613 -2.6176397771 -1.5771522011
H -4.652870805 -1.3866224436 2.2325030296
H -5.3174381657 -0.1284518319 1.190068134
H -6.2087540164 -1.6504472233 1.3802162647

