# b3lyp 6-31G(2df,p) opt Freq 

 titel

0 1
C -0.2064740554 1.3436803453 -2.2241880295
O 1.1933080026 1.6419810285 -2.3129341887
C 0.7245080552 0.8931321309 -1.1865828341
C 1.1834845528 -0.5533125028 -1.0072431755
C 1.8470939411 -0.5792401852 0.387832248
C 1.0456772524 0.459590148 1.1963341208
C 0.7989518497 1.5622538656 0.1782199358
C 1.2817058135 2.9407421895 0.3265940292
O -0.1096293254 2.61794925 0.4735750341
H -0.8520660546 2.194703793 -2.018260926
H -0.5776319434 0.6293598291 -2.9587842868
H 0.3152276363 -1.2221745746 -1.0220543886
H 1.8500758951 -0.8563186898 -1.8178230836
H 1.8398118956 -1.5721156256 0.8434124424
H 2.8927236178 -0.2605609571 0.310690305
H 0.0815701095 0.0389370826 1.5089279833
H 1.55901637 0.8143225143 2.0929775526
H 1.7895992709 3.2341529259 1.2445168863
H 1.5338100661 3.5087215824 -0.5652932246

