# b3lyp 6-31G(2df,p) opt Freq 

 titel

0 1
O 0.3361401705 0.4166490506 0.0181801662
C -0.8986831782 0.4362893619 0.6942435166
C -2.1021404044 -0.0492839666 -0.173008693
C -2.4434036485 -1.0877148203 0.9175452792
C -1.2864676402 -2.0469174512 1.1107997867
C -1.2157994078 -0.6729833826 1.7063439883
O -1.5076955237 -0.457674015 3.0510872946
C -2.8128661966 -1.0163131576 3.2926103555
C -3.5711736747 -1.0636020271 1.925733388
H 1.0338950776 0.5767118414 0.6627971217
H -1.1030656669 1.4145669303 1.1497778784
H -2.8663926547 0.7172260849 -0.3151083194
H -1.8236654062 -0.4622386906 -1.1463384113
H -1.4359173715 -2.855810991 1.8169348774
H -0.6611961844 -2.3003748112 0.260005414
H -2.7086536547 -2.0279119301 3.7072621325
H -3.3098834186 -0.3961298229 4.0441616064
H -4.2562584987 -1.9165396401 1.8914664049
H -4.1665654882 -0.155450073 1.7840139832

