# b3lyp 6-31G(2df,p) opt Freq 

 titel

0 1
C 5.328516072 -2.5328721212 0.3117465501
C 4.9121065829 -2.5944156885 1.7903505003
C 3.4095589543 -2.7355648324 1.9728929841
O 2.8959645424 -3.6964401096 2.5062225872
C 2.6054760115 -1.6380625704 1.4617616494
C 1.9291548473 -0.7325663976 1.0339762988
C 1.1149321275 0.3800008729 0.5359985638
C 0.1739585213 -0.0626547775 -0.5872922021
O 1.9145711978 1.4364768629 0.0141764982
H 5.0466744857 -3.4507505807 -0.2128562568
H 4.8526039821 -1.69052654 -0.198035716
H 6.4121303265 -2.4142209469 0.2272357953
H 5.3761007807 -3.4443605123 2.2976974873
H 5.2322832275 -1.6754087871 2.2980590824
H 0.5045295181 0.7452665435 1.378652212
H -0.504470445 -0.8426291314 -0.2348175768
H -0.4089077245 0.7984854143 -0.923000026
H 0.7527610741 -0.4469628017 -1.430326763
H 2.5608579678 1.6810026437 0.6847446819

