# b3lyp 6-31G(2df,p) opt Freq 

 titel

0 1
C 0.9477092231 -0.551358513 -0.8850812242
C 0.9201928889 0.1734521368 0.4425709972
C 1.8215668224 1.383011897 0.6580350505
C 1.37723353 2.4423499195 1.6628448302
C 1.4140657565 1.7183854426 3.0063415247
O 2.722435135 1.2797022679 3.3939182044
C 1.8100035821 0.3158838205 2.8308118673
C 2.0899489365 0.0679168923 1.3771248898
O 3.1283103624 -0.7957109954 1.0404953564
H 0.5712867312 -1.5744346684 -0.7818124016
H 0.324428404 -0.0357328441 -1.6233254066
H 1.9659713691 -0.6148733197 -1.2752146653
H -0.0612801488 0.2224801039 0.912325962
H 2.4618359402 1.664719993 -0.1704674538
H 2.0500062258 3.3065809511 1.6754837158
H 0.3664611502 2.8167008538 1.4581150486
H 0.7779074839 2.0417241164 3.8264453052
H 1.5077161095 -0.4880766158 3.4978115051
H 3.9395461081 -0.4214696583 1.4042158541

