# b3lyp 6-31G(2df,p) opt Freq 

 titel

0 1
O -0.5988329688 -2.4413116313 -0.7773707361
C -0.9692434011 -1.4042416117 0.093160572
C -2.4651382947 -1.0774257691 -0.0132471504
C -2.8144705041 0.0081188211 1.0396467786
C -2.3313078718 1.0515551468 -0.0038163686
C -2.7114620423 0.0078402877 -1.1013068785
C -0.8003993642 1.1954853644 0.0737680294
C -0.1447886212 -0.1446712546 -0.2251735745
O 0.9295770943 -0.2583227699 -0.7730644441
H 0.2877557249 -2.2072657755 -1.0928793127
H -0.7478627412 -1.6806319947 1.1425288832
H -3.0501835934 -1.9981799128 -0.0404552472
H -3.8922740259 0.0722143534 1.2080141871
H -2.3022942865 -0.0265236022 2.0075820913
H -2.819888454 2.0279555095 -0.0211063513
H -3.7675555264 0.0763932439 -1.3713807179
H -2.1103743262 -0.0356069903 -2.0148641507
H -0.4075828248 1.9191138335 -0.6471640018
H -0.4931252828 1.5373717419 1.0714706722

