# b3lyp 6-31G(2df,p) opt Freq 

 titel

0 1
C 6.7990469942 -1.158604174 -1.8811041078
O 5.8554271941 -1.1413088582 -0.826238904
C 4.6883619264 -0.4665847706 -1.157243999
C 4.6322569202 1.0253418775 -1.0056451266
C 3.9250249102 0.1173275717 0.0067449726
C 2.4952723352 0.0471776894 0.0473837689
C 1.290737192 -0.0183519767 0.0663894178
C -0.1686217652 -0.0467040023 0.1285139269
O -0.7712324021 1.2383458074 0.0303908732
H 6.4024688701 -1.6719154863 -2.7697050628
H 7.1001942984 -0.1424639666 -2.172936435
H 7.6736714132 -1.7031013085 -1.5187103617
H 4.104567732 -0.9189424446 -1.9593454011
H 5.5278871188 1.5232281093 -0.6518987946
H 4.0116831005 1.5972925608 -1.6850820779
H 4.4383164921 0.0141229162 0.9582848044
H -0.5730336726 -0.6268729438 -0.7087406588
H -0.4813349269 -0.5643236536 1.049939298
H -0.3293388607 1.808882493 0.6678359575

