# b3lyp 6-31G(2df,p) opt Freq 

 titel

0 1
O 1.4216507655 0.7102570042 -0.5284780585
C 0.1168553206 0.3384728176 -0.1025490321
C -0.8141051539 0.4244816208 -1.2825089389
C -2.2474571566 0.8284652966 -1.0350165325
O -3.2391897659 0.4261029023 -1.9477280874
C -3.1164051253 1.1524564832 -3.1498782214
C -1.9626878261 0.8528519486 -4.0698574339
C -1.8767806113 2.0110566843 -3.0918747545
C -1.305935073 1.7970364018 -1.7065699953
H 2.0242102131 0.5805972783 0.210253079
H 0.1079683611 -0.6871063326 0.2994500717
H -0.241524369 1.0048840216 0.700070258
H -0.626512385 -0.3136937238 -2.0539967671
H -2.6228087169 0.9282516678 -0.0209960452
H -4.0742955698 1.4720785567 -3.5463709383
H -1.3725157842 -0.0406171338 -3.908919295
H -2.0967269741 1.1127623266 -5.1151425133
H -1.8609607991 3.021838728 -3.4804723888
H -0.9079485003 2.663311872 -1.1920421066

