# b3lyp 6-31G(2df,p) opt Freq 

 titel

0 1
O 0.565446588 -0.9945394922 0.4553105758
C 0.4631492724 0.0125454382 -0.1999334506
C 0.3763003219 1.405314518 0.3575809994
C -1.0417308249 2.0583547982 0.2055820538
C -1.1027946644 2.2511810188 1.7463140275
C -0.8159286352 3.6709181776 2.2493757841
O 0.5919065374 3.8502246275 2.1342724478
C 1.1760423587 2.6092763976 2.5198297207
C 0.2857312732 1.53526619 1.8974716077
H 0.3942331441 -0.0369080353 -1.3121316127
H 1.1621978391 2.014073861 -0.1045970465
H -1.0638551751 2.9793524472 -0.3816535625
H -1.8017670593 1.3766439099 -0.185439097
H -1.9637857139 1.7980017418 2.239259215
H -1.3016123129 4.458328224 1.6655329102
H -1.132339576 3.7703219229 3.3008961324
H 2.2089478226 2.6000865719 2.1597283564
H 1.1867266349 2.5105013928 3.6178748504
H 0.3118727295 0.5775036901 2.416551308

