# b3lyp 6-31G(2df,p) opt Freq 

 titel

0 1
C 1.3139490726 0.7949396876 0.2465414256
C -0.0489929227 0.2324834732 0.0380905043
C -1.2579928839 0.8001725209 0.0547394161
C -2.2605669423 -0.3455813899 -0.0536345196
C -3.640783899 -0.0795575336 -0.5954205086
C -2.1494462052 -1.1142320825 1.3082461096
O -0.83383152 -1.6714155787 1.2397394545
C -0.3656615401 -1.2629648116 -0.0712095441
O -1.522035901 -1.2945697975 -0.8646653914
H 1.7776980801 0.3612210471 1.14138932
H 1.9768400288 0.5622589228 -0.5962232556
H 1.2873543565 1.8808118954 0.3701368804
H -1.5170496994 1.8327994255 0.2496707233
H -4.1838873776 0.6042238381 0.0644939483
H -3.581728374 0.375418059 -1.5877666344
H -4.2100102263 -1.0103699523 -0.6718517351
H -2.2495465805 -0.4600010378 2.1804201622
H -2.8896413312 -1.921052955 1.3605496564
H 0.4005779453 -1.9571444608 -0.413382492

