# b3lyp 6-31G(2df,p) opt Freq 

 titel

0 1
C 1.3828094156 0.7705328417 0.146596987
C 0.0315735906 0.1398361714 -0.0878060698
C -0.1159895451 -1.1796414728 0.1131200323
C -1.2351379515 -2.1364842523 -0.0928219267
O -0.9968301315 -3.3113731448 -0.2335590202
O -2.5330510281 -1.7472798255 -0.1118940796
C -2.9310230571 -0.4006315496 0.1440024046
C -2.3935533001 0.5785137757 -0.8953403457
C -1.0141891625 1.1275246899 -0.5356240732
H 1.3066655472 1.5972875976 0.8639086573
H 2.1112074241 0.0510233527 0.5250743216
H 1.7752832499 1.2018176815 -0.7828123118
H 0.7667839157 -1.7401076275 0.4067312864
H -4.0220533403 -0.4415170036 0.1130874419
H -2.6331699349 -0.1049242245 1.1587539257
H -2.3749060933 0.065300712 -1.8631067134
H -3.0899604016 1.4179994257 -0.9979021332
H -0.6086528587 1.6986717226 -1.3819886008
H -1.1199337185 1.8689324399 0.2713807377

