# b3lyp 6-31G(2df,p) opt Freq 

 titel

0 1
C 1.6821300051 -6.2869832383 -1.7276170432
C 0.3034724872 -5.7646031474 -1.3670045134
O -0.6309440458 -6.5073820048 -1.1640608979
C 0.1580682181 -4.2536447314 -1.2728599438
C -1.2512174065 -3.8130619582 -0.9112224999
O -1.2571010569 -2.3994281013 -0.8548252243
C -2.5305407317 -1.8825306687 -0.5230481776
C -2.4828122757 -0.4269093978 -0.4782019767
C -2.4719060325 0.7729573119 -0.4347160309
H 1.6678814064 -7.3768748284 -1.7602694573
H 1.9968116374 -5.892410482 -2.7003255112
H 2.4229662111 -5.9484563334 -0.9946037117
H 0.8736691167 -3.8702461014 -0.5339168747
H 0.4598696638 -3.8041885102 -2.2278352139
H -1.9705551728 -4.1795943787 -1.659572989
H -1.5513429759 -4.2463141307 0.0552096906
H -3.2835499373 -2.2064636816 -1.2621312702
H -2.8633853329 -2.2730537962 0.4541344806
H -2.4569186979 1.8341287487 -0.3985362054

