# b3lyp 6-31G(2df,p) opt Freq 

 titel

0 1
C 1.3156566693 0.7171569526 -0.6531285572
C 0.0595043002 0.1158021487 -0.1147411203
C -0.2130143313 -1.1577793767 0.2013107
C -1.622213775 -1.3814581851 0.7019028424
C -2.3917534208 -2.3805699963 -0.1795258958
O -3.7332625468 -2.5618075996 0.236551947
C -2.237547095 0.032584069 0.7053985663
C -1.1408740248 0.9541115627 0.1607914719
O -1.2232195022 2.1491188716 -0.0098318266
H 1.6895646784 1.4933573841 0.0234145986
H 2.0985167074 -0.0313260886 -0.7977330472
H 1.1225260004 1.2148687432 -1.6096943626
H 0.4874478837 -1.9821731553 0.0987154687
H -1.5900713094 -1.8021328089 1.718567339
H -2.4473765107 -1.9950808913 -1.2035593031
H -1.8479427917 -3.337940206 -0.2188188874
H -3.7231088614 -2.9523310437 1.1165200534
H -3.1348670355 0.0973525313 0.0832468992
H -2.5286979048 0.3709647581 1.7042297635

