# b3lyp 6-31G(2df,p) opt Freq 

 titel

0 1
C 0.4210020835 0.6933385273 1.3330652185
C 1.4750604981 0.0536107308 0.4649733946
C 1.373735319 0.1162436518 -1.0597111591
C 2.4967838782 0.8102895481 -0.3406534547
O 3.7561823288 0.1855184482 -0.2928284115
C 3.5820183763 -1.1329839241 0.2115497662
C 2.239980786 -1.1487001863 0.9549637499
C 2.0625872929 -1.7655464848 2.2739741484
O 1.5971237296 -2.4170290605 1.0837545249
H 0.8313393707 1.0162079338 2.296056807
H -0.0070470426 1.5719436821 0.8412958616
H -0.4006503332 -0.0051425097 1.5296890599
H 1.585859866 -0.7741134363 -1.6415006541
H 0.5818449883 0.7380326277 -1.4641323054
H 2.5795842036 1.8910815214 -0.3383944455
H 3.5481741955 -1.8703628866 -0.6030470298
H 4.4358413554 -1.3723426261 0.8519256453
H 2.9141468669 -2.2379530297 2.7635245672
H 1.2821765972 -1.415234467 2.9474040864

