# b3lyp 6-31G(2df,p) opt Freq 

 titel

0 1
C 2.2390970448 -0.9154217943 -1.4154318127
C 1.4815445514 -0.3961377066 -0.2137116467
C 1.8626117159 0.9303890974 0.3953828434
C 0.8013264346 1.6390253481 1.2134932578
O 0.2476904323 0.6440889621 2.0854105005
C 1.2408891262 -0.3451904536 2.3404588522
C 1.9876805252 -0.046394332 3.640675925
O 3.0759289982 -0.4799047328 3.9155008454
C 2.1576609182 -0.3587838443 1.1330688042
H 2.1793084842 -2.0070857303 -1.4809631711
H 1.8367698905 -0.5014174749 -2.3463335398
H 3.2987863648 -0.6442804146 -1.3616530112
H 0.4190855869 -0.6325690006 -0.2019189798
H 2.6553251061 1.5187752243 -0.0524548139
H 1.2509171535 2.4624914807 1.7901474424
H -0.0312904836 2.0433914091 0.6283515715
H 0.7051793648 -1.2943876026 2.494302102
H 1.4143486633 0.6096366358 4.3349775945
H 3.1629605027 -0.7384527109 1.2655622665

