# b3lyp 6-31G(2df,p) opt Freq 

 titel

0 1
C 2.654498524 0.9912029001 2.4036088947
C 3.1792927913 -0.0782905076 1.4474912091
C 4.7088119569 -0.0618736358 1.3825201373
C 2.5739681212 0.0871244198 0.0290991306
C 1.1204640654 -0.0001711986 -0.0146882257
C -0.0782396541 -0.0798058464 -0.0512572354
O 2.7142085388 -1.3286668924 2.0568083086
C 2.9495353816 -2.5113222762 1.4833091906
O 3.5439335383 -2.7311861311 0.4611318306
H 3.0563524689 0.8305080782 3.407356159
H 2.9613309328 1.9839372885 2.0617201328
H 1.5640479048 0.959522018 2.4522673994
H 5.1277228343 -0.2355651192 2.3777402639
H 5.0854336542 -0.8263148956 0.7025803151
H 5.0509026582 0.9186450689 1.0374068041
H 2.8968237475 1.0658528171 -0.347377747
H 3.009079852 -0.6696068026 -0.6285351359
H -1.1369804452 -0.1503080853 -0.0910146903
H 2.4983516292 -3.2919332298 2.1170111284

