# b3lyp 6-31G(2df,p) opt Freq 

 titel

0 1
O -0.2392037798 0.7362218335 -3.8301698554
C -0.4079697049 1.0291922215 -2.4488194129
C -1.687818562 1.8344947676 -2.2672951089
O -2.4079777398 1.7892225925 -1.3031157631
C 0.8099305528 1.8550003225 -1.9842853867
C 2.1321145358 1.0763952883 -2.2490554379
C 2.505046999 0.5435494664 -0.8874727493
C 1.7764592596 1.0891685531 0.0838059452
C 0.773411082 2.0862441503 -0.445028952
H -0.8903604787 0.0747430359 -4.0841866646
H -0.4739955838 0.1163708286 -1.8396323374
H -1.9061620917 2.4944398973 -3.139161745
H 0.7958315562 2.7990450876 -2.5374319032
H 1.9956682139 0.2981924438 -3.0054819039
H 2.9130666864 1.7446746353 -2.63657162
H 3.3001385116 -0.1800079398 -0.744286759
H 1.8832412354 0.881727682 1.1427410112
H -0.2290177534 1.9441200112 -0.0270825263
H 1.0675516714 3.1130828722 -0.1892142909

