# b3lyp 6-31G(2df,p) opt Freq 

 titel

0 1
C -2.5971071146 2.2015496135 -5.6442083535
O -1.9043741526 1.8360418684 -4.4733200393
C -2.3050486147 2.6089011117 -3.3581997128
C -1.5670186984 2.2006679896 -2.1708801318
C -0.9703626075 1.8820183344 -1.1744310992
C -0.2374589049 1.4766207536 0.004399844
C 1.3116315489 1.3562437118 -0.0724951657
O 1.2744920377 0.0346792695 0.4962691809
C -0.1567665945 -0.035165798 0.3621382307
H -2.2307285153 1.5611213037 -6.4493888039
H -3.6843991999 2.0566339632 -5.5393981321
H -2.4171086122 3.2542893314 -5.9153832655
H -2.1336323062 3.6823992527 -3.553899414
H -3.3894193939 2.4945340174 -3.1817722453
H -0.5458787801 2.0718782089 0.8686399738
H 1.6993232313 1.3563972259 -1.0986591241
H 1.888977992 2.0565877961 0.5402174465
H -0.4658117416 -0.6950397671 -0.4578141636
H -0.6467095735 -0.3461603968 1.2908148349

