# b3lyp 6-31G(2df,p) opt Freq 

 titel

0 1
C 0.8028860458 2.025158654 -1.8495714906
C 0.8976018935 1.9155508731 -0.3571978991
O 0.042491871 2.8106915729 0.3302700806
C -0.2126578346 2.2596928379 1.6269032774
C 0.8778134881 1.21654394 1.7980492959
O 2.1548056107 1.9223710036 1.7105046741
C 2.2214933974 1.5816559404 0.326436262
C 1.0595503502 0.6103512479 0.3801736501
C 0.8189216944 -0.7976793744 -0.0711666922
H 1.5347290351 1.3726699148 -2.3351358824
H -0.1957060071 1.7478288715 -2.2024658741
H 1.0032559171 3.0532861429 -2.1661473899
H -0.1390926372 3.0581715919 2.3711971866
H -1.2185303985 1.8115168735 1.671915434
H 0.8153515219 0.5660522261 2.6723496746
H 3.1975721988 1.5448544286 -0.1473736029
H 1.4067577802 -1.5141822219 0.5133101392
H -0.238344609 -1.071935697 0.0265316806
H 1.0920902022 -0.9241104856 -1.1235469639

