# b3lyp 6-31G(2df,p) opt Freq 

 titel

0 1
C 2.5011475991 -1.1311248574 -1.8960330797
C 2.2993003492 0.0785416262 -1.0097005814
C 0.867629806 0.6360918529 -0.7825975702
C 1.3064757721 1.4321406331 0.4557672861
O 1.6485799354 0.3212978353 1.3009305399
C 2.7834472098 -0.0535089229 0.5413572439
O 3.6337635533 1.0605631941 0.744232581
C 2.7846951967 1.9826071892 0.041228181
C 2.9833322488 1.423939831 -1.3759112404
H 1.9564633074 -2.0004208119 -1.5113311332
H 2.1435998305 -0.9414097808 -2.9140705043
H 3.5606818229 -1.4017281039 -1.9631418698
H 0.5078965964 1.2188792763 -1.6336947506
H 0.1192706518 -0.1071676346 -0.5027515215
H 0.6231977639 2.1144050813 0.9561144514
H 3.2274609823 -0.9834621899 0.8897941302
H 3.037118372 3.0133214404 0.2791603332
H 2.465966169 1.9480531618 -2.1827896275
H 4.0481754433 1.3558626696 -1.6045262982

