# b3lyp 6-31G(2df,p) opt Freq 

 titel

0 1
C -1.5135834443 -3.9519016922 0.930148439
C -1.2134508407 -2.7547403335 0.0202023603
C -1.9986305065 -1.4618073569 0.3735345983
C -1.0506214294 -0.285609954 0.0660735948
O -1.2116417585 0.7429121263 1.0224692917
C 0.317470514 -0.9498653398 0.0983843801
C 1.5527618981 -0.1749154809 0.1399074126
O 1.5767965674 1.0407334466 0.2014014627
C 0.2205159465 -2.2854410149 0.0600481589
H -0.9283369277 -4.8309579688 0.6405256475
H -1.2805021037 -3.7171112062 1.9739536185
H -2.5726653372 -4.2222286969 0.8749185725
H -1.4405073533 -3.0548755937 -1.0149724226
H -2.957049553 -1.3896177042 -0.1449922342
H -2.1957122593 -1.4359463336 1.4506467859
H -1.2309987179 0.1093395286 -0.9488499682
H -0.4822990109 1.3605697969 0.8745655274
H 2.4965340701 -0.7609637623 0.1199758156
H 1.0641710363 -2.9708339104 0.0414000193

