# b3lyp 6-31G(2df,p) opt Freq 

 titel

0 1
C 0.8800413428 1.6591642346 1.6710195957
C 1.9424229464 0.5548289417 1.5597698602
C 2.2454398648 0.0645310502 0.1476635061
C 2.9624488022 0.9189320104 -0.8807515302
O 2.9537044744 2.3075033852 -0.6692210454
C 1.5948079495 2.7235850342 -0.5400586538
C 1.2203795812 2.9568128526 0.9279272771
O 0.7858436214 1.706234081 -1.1207975894
C 1.5448637099 0.5233253944 -1.1293977502
H -0.0700433815 1.2757913225 1.2851435208
H 0.720789868 1.8873884273 2.7306494193
H 2.8780455567 0.8940933275 2.0238822445
H 1.6018143311 -0.302701797 2.1507283945
H 2.5371743288 -0.982682878 0.0924143492
H 3.8319802748 0.5855196548 -1.4335675117
H 1.468609052 3.6403110267 -1.128121896
H 2.0598010271 3.4815674714 1.3981666518
H 0.3573261686 3.6318781893 0.9653593236
H 1.2018601216 -0.1783424291 -1.8793568261

