# b3lyp 6-31G(2df,p) opt Freq 

 titel

0 1
O -1.0257664017 -4.3122328472 -1.0903516935
C -1.2134849054 -2.972674565 -0.746075401
C -1.7368006181 -2.0751524812 -1.8227082657
C -0.3085903237 -1.9202092013 -1.3339306079
C 0.092806536 -0.7276031443 -0.5154778068
O 1.1815510259 -1.0964040054 0.3154498102
C 1.6601312268 -0.0130571068 1.0866294947
C 2.7776585982 -0.4447261059 1.9159864238
C 3.7002607326 -0.7737035142 2.61052482
H -0.2485273928 -4.6286642434 -0.6173127948
H -1.5747846856 -2.8000949363 0.2683924007
H -1.8750848508 -2.5202256982 -2.8009563685
H -2.4671952598 -1.3184239893 -1.5565404696
H 0.4600965234 -2.2952781459 -2.0030331152
H 0.381554813 0.1163575339 -1.165446086
H -0.7567629805 -0.3812610889 0.098940676
H 1.9826497855 0.8159836597 0.4328077747
H 0.8575974825 0.3901717599 1.7289138462
H 4.5162659145 -1.0703489402 3.2220200228

