# b3lyp 6-31G(2df,p) opt Freq 

 titel

0 1
C 1.3942435915 0.4032010895 -0.0218152453
C -0.0490838715 0.2116862473 -0.0000701167
C -1.2414915242 0.0478063138 0.0260570041
C -2.6892461802 -0.1280512685 0.0347737667
C -3.4084125216 0.7882420244 -0.9760498649
C -4.915842301 0.5627025748 -0.9543596638
O -5.579898354 1.3647385589 -1.95633674
C -5.9160842168 2.610806835 -1.596035822
O -5.7212583848 3.1221571832 -0.5273094606
H 1.7702431253 0.7132947117 0.9594883644
H 1.9155541915 -0.519792552 -0.2990830375
H 1.6825176712 1.1748445929 -0.7443087094
H -2.9342717813 -1.176661886 -0.1843544597
H -3.0788879138 0.0678315264 1.0429095958
H -3.1958400803 1.8337693657 -0.7357373256
H -3.0248811915 0.5973617704 -1.9834559881
H -5.1676103367 -0.4688557284 -1.2142990278
H -5.3353255596 0.8027406706 0.0262056242
H -6.4128976218 3.0989682601 -2.4488307239

