# b3lyp 6-31G(2df,p) opt Freq 

 titel

0 1
C -0.085225772 -0.1238261648 0.0801714704
C 1.4077077034 -0.0123500663 -0.0179531667
C 2.216816479 1.3083843059 -0.0922160221
C 3.3553596098 0.3484418786 -0.5057694371
C 2.2889383972 -0.5200329165 -1.2251734743
O 2.661768407 -1.8771713519 -1.2070184601
C 3.5784255305 -2.0224013585 -0.1062540881
C 3.4256570866 -0.6981840234 0.638588983
O 2.0527745176 -0.6792801971 1.0921207656
H -0.4416191244 0.2908797035 1.0284826765
H -0.5665760243 0.4187385508 -0.7385793902
H -0.3889990817 -1.1738262213 0.0301303314
H 1.9119676279 1.9628139599 -0.9125614457
H 2.3144069591 1.8687193809 0.8392962939
H 4.2887117732 0.6625041352 -0.9697701054
H 1.9574992666 -0.2229449601 -2.2196018568
H 3.2723204314 -2.8696120922 0.5140874311
H 4.5987020104 -2.1935705434 -0.4812198837
H 4.1136493628 -0.5240956094 1.4670820084

