# b3lyp 6-31G(2df,p) opt Freq 

 titel

0 1
C -1.3073261084 1.4974317287 2.4854419462
C -1.8605906145 0.889269069 1.1988654618
C -2.074482685 -0.6683460374 1.2591561445
C -1.1824703917 -1.1108825324 0.0874960571
O -1.0890284887 -2.4685038891 -0.1347968459
C -1.5545166781 -0.0299895974 -1.013912227
C -0.8936979633 0.9728796086 -0.0127956404
C 0.0469472925 -0.2097518598 0.2624825783
O 1.226873249 -0.4161940748 0.3028810309
H -0.363676443 1.0218635731 2.7758276908
H -1.1172338435 2.5694677174 2.3666951695
H -2.0133390165 1.3716916589 3.3128208007
H -2.8000003291 1.3881331277 0.9387228359
H -1.7353756577 -1.1023093453 2.2043070837
H -3.1147906305 -0.9654673511 1.1024203638
H -0.2029898976 -2.6527981526 -0.4705890234
H -0.9991217031 -0.1552819679 -1.9450379335
H -2.6215913616 0.1068175497 -1.2024345627
H -0.5253799392 1.9492019049 -0.3181907605

