# b3lyp 6-31G(2df,p) opt Freq 

 titel

0 1
C 1.4166073466 -0.0991808478 -0.2412243029
O 0.0276983673 -0.1414714439 0.0104207109
C -0.396413258 0.6154975052 1.130061078
C -1.9152852113 0.7205885931 1.0575446518
C 0.0361281074 -0.0469592196 2.4286332629
O -0.1461826288 0.7180352574 3.6161468558
C 1.2014753015 0.4233400278 3.2098790566
C 1.9689575666 -0.4646121076 4.0401799852
C 2.6340296179 -1.1981824382 4.7215249604
H 2.0047448135 -0.5811000207 0.5519913076
H 1.5868139869 -0.6368637016 -1.1770073062
H 1.774375928 0.9357663739 -0.3581343947
H 0.0451552118 1.6262308845 1.0951868518
H -2.2941955794 1.2902299667 1.9098229255
H -2.2135163128 1.2186676144 0.1317886767
H -2.3654772009 -0.2768744032 1.0715992243
H -0.2375756295 -1.0994958189 2.5178414883
H 1.7426769356 1.2903662994 2.8312157395
H 3.2155856176 -1.8484359408 5.3275026585

