# b3lyp 6-31G(2df,p) opt Freq 

 titel

0 1
C -2.4616398504 -2.6523934587 1.3485739266
C -1.1984236696 -2.3482538575 0.5755754709
C -1.2197268632 -2.250013398 -0.9311505155
C -1.0611650364 -1.0063762719 -0.1009515502
O -2.0478595308 0.0264130119 -0.0200357798
C -1.0392992772 1.0793653496 0.0403045903
C -1.1086374392 1.9153701881 1.3033330919
C 0.0503995991 -0.0092448196 -0.0416441852
O 1.2461133419 -0.0393946121 -0.0385578241
H -2.3790141671 -2.3084608595 2.3844976523
H -3.3231895673 -2.1497363256 0.9013880137
H -2.6590945773 -3.7292449732 1.3641109996
H -0.2754697885 -2.7237081333 1.0113856939
H -0.3618406187 -2.5891414406 -1.5023016799
H -2.1804604544 -2.357546873 -1.4250895303
H -1.084128602 1.7058826823 -0.8600551062
H -1.0463697827 1.2840104917 2.1940440652
H -0.2795109108 2.6295724391 1.3210997478
H -2.0485930652 2.4737544503 1.3385479791

