# b3lyp 6-31G(2df,p) opt Freq 

 titel

0 1
C 1.1332729894 0.4014693184 -1.2533280353
C 1.7242722285 1.0435871594 0.0225218572
O 0.3532391179 1.0894668046 0.5918717864
C 0.5018099961 -0.2620839901 -0.0065575948
C 1.8982541319 -0.3608732424 0.6664223827
C 2.9847678904 -1.3523943163 0.2019568275
C 3.3445598293 -2.0868665804 1.5032616734
O 3.1437512779 -1.1326071623 2.5313048273
C 1.9437683474 -0.4440197382 2.2074708521
H 0.4560887499 1.0462395766 -1.814122429
H 1.7871575158 -0.1930130103 -1.8944315874
H 2.345623711 1.9338621555 0.1339130387
H -0.3517365112 -0.9384091531 0.0681209329
H 2.6441417473 -2.0331262736 -0.5823154575
H 3.8573687139 -0.8119167554 -0.1786532728
H 2.687031547 -2.9612648721 1.6477069308
H 4.382170914 -2.4263860462 1.5508303732
H 1.0677239728 -0.9959011067 2.585581868
H 1.9661037606 0.5308725227 2.6965857466

