# b3lyp 6-31G(2df,p) opt Freq 

 titel

0 1
C 1.1420897929 0.3464093501 -0.7006680425
C -0.2506094018 0.1660725633 -0.3187632244
C -1.4059550852 0.0209007586 -0.0120571964
C -2.8062483702 -0.1830369042 0.3726257595
C -3.6680707546 1.0933379693 0.26670308
C -4.1040705211 1.0937063552 -1.2128317998
O -3.2423015846 1.8406416149 -2.0599167988
C -3.9689613716 -0.3929523458 -1.6152273451
O -3.4855974836 -1.1065649495 -0.4805813591
H 1.7210075148 0.7971385938 0.1131744398
H 1.6128379947 -0.6111384976 -0.9493554128
H 1.233880063 0.999714841 -1.5753511291
H -2.844577994 -0.6150810339 1.3781419457
H -4.5410499363 0.983517516 0.9171746839
H -3.1341359838 2.0049622262 0.54320214
H -5.1385966774 1.4471275211 -1.3185171018
H -3.2948330326 2.7652616261 -1.7983883645
H -4.9191078143 -0.8492291187 -1.9061088924
H -3.2675500245 -0.4548213559 -2.4566970624

