# b3lyp 6-31G(2df,p) opt Freq 

 titel

0 1
O 0.4684934033 0.2084133491 0.8188025126
C 0.2343729849 -0.1568348055 -0.3047688175
C -0.459379971 0.6768874639 -1.3632419568
C -0.9735031219 2.0069502825 -0.7924428315
O -1.8788259466 2.6378686306 -1.682518589
C -3.1088717776 1.9389290353 -1.7506538326
C -2.9293269333 0.5128067395 -2.2343173193
C -2.0455175986 0.2457538082 -3.4229751173
C -1.5739240589 -0.13247009 -2.0385887714
H 0.5344489155 -1.1742865114 -0.6500991605
H 0.3180225724 0.8827194721 -2.116024532
H -1.4549730111 1.8271908889 0.1802308895
H -0.1505463916 2.7062264726 -0.6310101381
H -3.5919272765 1.93558227 -0.758506792
H -3.7464449652 2.5090500296 -2.4345588828
H -3.8035222231 -0.1187674408 -2.1061840384
H -2.3212354793 -0.5474137549 -4.1090220614
H -1.5689866304 1.104542776 -3.885268152
H -1.570648351 -1.1950698757 -1.8093327694

