# b3lyp 6-31G(2df,p) opt Freq 

 titel

0 1
C 0.7148859073 -1.0224761366 -0.1510729428
O 0.6264987004 0.3864964091 -0.0801989932
C 0.1096966746 0.8744425828 1.1456869646
C 0.2917024318 2.3991331719 1.1415110168
C 1.7659627277 2.8134699487 1.0161877349
C 1.9407997281 4.3068447189 1.1765190965
O 2.5032025832 5.0268795009 0.3935821891
C -1.3001951293 0.5082796207 1.3417703399
C -2.4562402067 0.2183881275 1.4981804044
H -0.2722158302 -1.496261098 -0.070008687
H 1.1507172708 -1.2631522098 -1.1229839965
H 1.3638527926 -1.4252045782 0.6419407886
H 0.6949597721 0.4507424815 1.9821164181
H -0.289284338 2.8101879625 0.3096388619
H -0.1412806514 2.7965193273 2.0663819161
H 2.3428690699 2.333178603 1.8215332652
H 2.1889283274 2.499696688 0.0607522508
H 1.4949351867 4.7198409478 2.1135913136
H -3.4771016068 -0.0401016481 1.6382111491

