# b3lyp 6-31G(2df,p) opt Freq 

 titel

0 1
C 1.4245232666 -0.1817285408 -0.1706889562
O 0.0276822365 -0.0174461617 -0.0137822778
C -0.3849537961 0.6301858149 1.1907391088
C 0.0249654141 -0.1303730552 2.4260141186
C 0.8240619672 0.3446372675 3.3786813202
C 1.4434145987 1.7158839707 3.374356143
C 0.9298816415 2.6122889833 2.2711652189
O -0.4772294533 2.8754036145 2.2720694934
C 0.058255713 2.0841682762 1.2105167847
H 1.8678931313 -0.7683365626 0.6447518649
H 1.568522176 -0.716357501 -1.1125949157
H 1.9538801094 0.7803267986 -0.2304152824
H -1.4805016689 0.6225928145 1.1165655697
H -0.3729225202 -1.1390694293 2.5013434172
H 1.0618442471 -0.2807223213 4.2362213339
H 1.2772765595 2.2053944343 4.3440418828
H 2.5352419849 1.6261322235 3.2768296381
H 1.5409804273 3.4887315121 2.0530925185
H 0.0499997951 2.5631914818 0.2307862594

