# b3lyp 6-31G(2df,p) opt Freq 

 titel

0 1
O 0.1255622151 0.2023527588 0.0968924036
C -0.7929350597 0.6514571353 1.0421888854
C -1.1094044555 2.152002006 0.8944041189
C -2.6341086515 1.8620663542 1.0193412923
C -2.3629033305 0.3372023458 1.0959525432
C -2.1801703791 -0.1572079885 2.5312557767
O -1.8774651496 -1.5683722542 2.5846884099
C -0.4632349544 -1.3107200887 2.7069861668
C -0.6551890373 0.1993576004 2.5205492051
H 0.2054189359 -0.7551582427 0.1670374768
H -0.6619653307 2.8161703281 1.6392954017
H -0.8265339895 2.5009502448 -0.1009387653
H -3.1198606761 2.2816489293 1.9056023861
H -3.2125070672 2.1643934259 0.1445803536
H -2.8941079332 -0.3254022298 0.4123418233
H -2.8973783664 0.1482999567 3.2988826949
H -0.0864825081 -1.5947465901 3.69820803
H 0.1313356106 -1.8494618926 1.9542658228
H -0.1444893728 0.8681948812 3.2140330141

