# b3lyp 6-31G(2df,p) opt Freq 

 titel

0 1
C 1.4628067984 -0.0545290681 -0.0723000296
O 0.0646568452 0.149084281 -0.0123109752
C -0.3898599458 0.758008976 1.1838827563
C 0.0896158975 2.1416365216 1.3248060601
C 0.4897481188 3.2686673224 1.4493090773
C -1.932500131 0.666526644 1.159930485
C -2.4357975063 -0.7698249008 1.2994280477
C -2.4704556964 1.3468849063 -0.0941449501
O -3.3854556399 0.9235062404 -0.751340824
H 1.8099122788 -0.6906136901 0.7561017725
H 1.6671965588 -0.5591811238 -1.0186794981
H 2.0132568704 0.8947805598 -0.0411319988
H -0.0251306532 0.1847691025 2.0533898287
H 0.8409241818 4.2655184693 1.5582811639
H -2.2910505084 1.2761669038 2.0028863516
H -2.1691496276 -1.1825337611 2.2769972599
H -3.5209984221 -0.8008231271 1.1873332804
H -1.9985445921 -1.4004475104 0.5222583429
H -1.9665844669 2.3020816743 -0.3539138706

