# b3lyp 6-31G(2df,p) opt Freq 

 titel

0 1
C 0.1107075699 -0.065458957 -0.1646116738
C 1.6163856151 0.0053612048 -0.0062149256
C 2.1714638307 -0.116453959 1.392056584
C 2.1797361937 1.2271744551 0.6804743989
C 3.734882271 1.2760180645 0.7949566867
O 4.4344317195 2.4482323767 0.995080114
C 4.4288261099 0.0975320312 0.1690499995
C 3.7279555644 -0.0676311145 1.5044201811
O 4.3825359929 -0.462219094 2.6548370973
H -0.4000797425 0.3897840443 0.6906064454
H -0.214322811 0.462179128 -1.0676048799
H -0.2278810518 -1.1042832738 -0.2409557969
H 2.1569935994 -0.4373326788 -0.8365402459
H 1.5598133585 -0.4046381625 2.2388483346
H 1.5663104497 2.0939161452 0.8999755162
H 4.1376312956 2.8369977026 1.8260561689
H 4.1297837927 -0.3775414896 -0.7601446766
H 5.5046826171 0.1760466793 0.3028642634
H 4.6508247751 -1.3828625724 2.5542397489

