# b3lyp 6-31G(2df,p) opt Freq 

 titel

0 1
C 4.1986539123 0.910592041 -1.3889435019
C 3.2453876547 1.7752212317 -0.5944284528
O 3.4738510897 2.9553438624 -0.39591281
C 1.9955551426 1.1158505964 -0.0578568859
C 0.6985944532 1.8464111819 -0.4716781222
C -0.4799683938 1.2391057392 0.2325339798
C 0.3889500447 2.2170857212 0.9725911774
C 1.6685578608 1.5198255755 1.4590168161
O 2.6028282752 2.3281017468 2.1008298516
H 4.5606824912 0.0884325543 -0.7600615918
H 3.6790469716 0.4507184635 -2.2374328811
H 5.0420434773 1.503913547 -1.7437217951
H 2.005115139 0.0419373519 -0.2698038238
H 0.5976539112 2.4432043133 -1.3698624277
H -1.4497045342 1.6166629213 -0.0754355313
H -0.4789483219 0.1846271978 0.502141955
H 0.0119746838 3.144837665 1.3852334452
H 1.5048079387 0.6546509611 2.1108880155
H 2.8877928538 3.0000196886 1.460540223

