# b3lyp 6-31G(2df,p) opt Freq 

 titel

0 1
O -0.6432846449 1.0201367457 0.4536575337
C -1.8156669959 0.2962652612 0.6942763213
C -3.0709451706 1.0290704269 1.1233376654
C -2.9230414612 0.4924051135 -0.2812029617
C -3.7336341038 -0.6128067193 -0.9930385151
C -3.6467906433 0.2337442293 -2.2754090569
O -3.4175770699 -0.2954033679 -3.5329158848
C -4.2114933285 1.6110642204 -2.066799001
C -2.8167899423 1.2929871542 -1.5614480145
H -0.2978650627 1.3174658999 1.3018307314
H -1.6609317282 -0.7099175377 1.0880718996
H -3.7493525954 0.5310422418 1.8093008947
H -2.9913016568 2.1040636525 1.2534589607
H -3.167750081 -1.5437829046 -1.0869518738
H -4.7366203336 -0.8314263547 -0.6090952273
H -4.269286965 -0.4427972737 -3.9587356616
H -4.2310022313 2.2173416822 -2.9673508757
H -5.0246085004 1.7983945655 -1.368394833
H -1.9378550952 1.8288598048 -1.8935932314

