# b3lyp 6-31G(2df,p) opt Freq 

 titel

0 1
O 0.6738058446 0.5652291023 0.6542562963
C -0.6809229907 0.8128387245 0.452491989
C -1.5214151306 1.7698950625 1.3497919459
C -2.438279874 1.8126300381 0.0933437983
C -1.1198024392 1.7074339322 -0.7425577766
C -2.9550707323 0.3638419059 -0.0437391121
C -3.4836792135 -0.385946874 1.1959452807
O -2.1834513773 -0.9711846412 1.4564726319
C -1.632707861 -0.3840376955 0.252573845
H 0.7576906048 -0.0454104486 1.3952574302
H -1.9141444655 1.3860810251 2.2922846569
H -1.0021481064 2.7169810638 1.5063470587
H -3.1473992249 2.6241277547 -0.0619480586
H -1.1720428835 1.2539484231 -1.737453372
H -0.5564229565 2.6415629212 -0.7774211585
H -3.4743832074 0.1756910635 -0.9839728367
H -3.8425493956 0.2232535654 2.0340357033
H -4.2271087057 -1.1609023543 0.9730600631
H -1.236792575 -1.1407456189 -0.4321597648

