# b3lyp 6-31G(2df,p) opt Freq 

 titel

0 1
O 1.362592277 -0.2648777351 1.1976486555
C 0.5685479217 0.2347699358 0.1363840332
C -0.4456971793 1.2118883358 0.6498729723
C -1.6555587694 1.9148795166 -0.0215270908
C -1.7503149862 2.1079414868 1.5138773206
O -1.392635394 0.6742369541 1.6810684254
C -0.2589392201 2.4489209658 1.5467183538
C 0.5501054684 3.6941775617 1.4445884896
C 0.6934511222 2.7525781434 2.6411865189
H 0.7499435007 -0.4957351952 1.9069148348
H 1.2433641971 0.7299643938 -0.5705372575
H 0.0505766606 -0.5739660122 -0.4032763397
H -1.4569904026 2.7941347837 -0.6382764835
H -2.4015233858 1.2415644944 -0.4459876489
H -2.5723106241 2.4921647229 2.1175477672
H 1.3636142389 3.730369576 0.7265761911
H 0.0598997885 4.6488699149 1.6080839657
H 1.5932530613 2.151193197 2.7054642028
H 0.3012283248 3.0884287196 3.5958180697

