# b3lyp 6-31G(2df,p) opt Freq 

 titel

0 1
O 1.2643313775 0.7827409749 -0.1871734172
C -0.0670370666 0.2686876175 -0.0468724496
C -0.6902249163 0.2282052037 -1.4135095105
C -0.7335117899 -1.0380614169 -2.2226074396
C -2.022560153 -0.4552824612 -1.6625701296
C -2.7659455322 0.4617449251 -2.5727808132
C -2.0491674257 1.5421351152 -2.8918893032
C -0.6990568015 1.5505651815 -2.2139174416
O -0.5642159407 2.700202481 -1.3904266416
H 1.6472704852 0.8638011324 0.6920262939
H -0.0561117549 -0.7374336125 0.3972430298
H -0.6563729873 0.9262296572 0.6066722274
H -0.5808443421 -0.9802743063 -3.2960924078
H -0.3426199138 -1.938133944 -1.7564181713
H -2.548032417 -1.0051450984 -0.8880289784
H -3.755275505 0.2312425471 -2.952447825
H -2.3477779167 2.3280819862 -3.5752191399
H 0.1075778435 1.5396683546 -2.9648540686
H 0.3135298666 2.6287263431 -0.992088254

