# b3lyp 6-31G(2df,p) opt Freq 

 titel

0 1
C 1.3249202198 0.9198158119 0.6256628653
C -0.0294386729 0.3580085011 0.3535953904
C -1.20967042 0.9473086669 0.1623102585
C -2.2843502269 -0.0837096466 -0.0781499164
C -2.9010079431 0.024380359 -1.4775259802
C -3.3579413039 -0.0811838659 1.0161864221
O -1.5678520082 -1.3378757755 0.0000809422
C -0.2434261847 -1.1139164698 0.2520568067
O 0.5605611694 -1.9985043495 0.3617100746
H 1.7143349667 0.5387017476 1.575785676
H 2.0336404776 0.6026245787 -0.1467462231
H 1.3093699611 2.0114132678 0.6635460351
H -1.422261171 2.0098373182 0.1681932772
H -3.606008947 -0.7952328537 -1.6411259188
H -3.4385013696 0.9714315198 -1.5857725241
H -2.1230451716 -0.0250043191 -2.2433090102
H -4.0621553835 -0.9014622845 0.8525367374
H -2.9007379796 -0.2036331865 2.0011018923
H -3.9138404425 0.8613324 1.003534455

