# b3lyp 6-31G(2df,p) opt Freq 

 titel

0 1
C 0.0674122038 2.470376592 0.4635645658
C -0.7825231544 1.3030951318 -0.0209723245
O -1.0240836685 1.5253002573 -1.4298543627
C -2.0965775773 1.2042051266 0.7176901356
C -2.6325356446 0.0579802876 1.1416325374
C -1.9928757732 -1.2923360408 0.9623516696
C -0.8748830568 -1.268132069 -0.099967019
C -0.0116720635 -0.033752624 0.0878709802
O 1.1751619985 -0.0840643261 0.3024856544
H 0.3278574896 2.3511451483 1.5181373261
H 0.992719228 2.5175487075 -0.1131723778
H -0.4847935639 3.4048644093 0.3327069656
H -1.8836632199 1.1467942577 -1.6409337191
H -2.6151351545 2.1464447401 0.8828226575
H -3.586586071 0.0789384612 1.6638237889
H -1.5797180479 -1.6269491101 1.9243902183
H -2.7533515716 -2.0355925126 0.6956762018
H -0.2452009377 -2.1584511572 -0.052115027
H -1.3281871651 -1.2188006495 -1.0972508909

