# b3lyp 6-31G(2df,p) opt Freq 

 titel

0 1
C 0.9380900187 -0.3465671634 -1.0193946052
C 0.9838188936 0.2439119529 0.3837879028
C 1.7854775764 1.5508634604 0.5111537045
C 1.8892325305 1.9888060484 1.9388216367
O 2.473551934 3.22403017 2.2329974573
C 2.789645543 0.8722604947 1.4694319453
C 2.0043832583 -0.4521869255 1.342087747
C 1.5170466612 -1.0127417461 2.6514367766
O 0.3696571093 -1.0057313059 3.0235629262
H 0.5152729286 -1.3567215743 -1.0038124156
H 0.3185090672 0.2665892722 -1.6825213491
H 1.9405872612 -0.4048160448 -1.4587033513
H -0.024523834 0.2974259738 0.8057174797
H 1.9841075993 2.2388854774 -0.3047027445
H 1.0788971495 1.7960089279 2.6374495875
H 3.108624277 3.4408399717 1.5421095729
H 3.8679008662 0.9666135298 1.5312457456
H 2.5993345155 -1.2164432187 0.8280005794
H 2.3255579947 -1.4201216006 3.3034093844

