# b3lyp 6-31G(2df,p) opt Freq 

 titel

0 1
C -4.0037474463 0.0031557535 -1.7823010662
C -2.5685616395 -0.0071683766 -1.3043639357
C -2.1961554271 -0.7319200735 -0.0367677795
C -0.7649762378 -1.2247102544 0.0629987403
C 0.0981227906 0.0151267407 -0.2259901944
O 1.2465741865 0.012484468 -0.5779275955
C -0.761773083 1.2860775283 0.0297974075
O -0.4655995439 1.8135953236 1.3205198677
C -2.1868905541 0.7979617874 -0.0846085881
H -4.6995218409 0.0307927028 -0.9371168965
H -4.2077503287 0.8776808442 -2.4091409999
H -4.2302835008 -0.8923472473 -2.3707233065
H -1.831892863 -0.0440408733 -2.1068067715
H -2.9764522346 -1.2595087438 0.5004793073
H -0.5326682233 -1.5806274612 1.0759956217
H -0.5038825275 -2.0326903659 -0.6265151423
H -0.4884963155 2.0718251817 -0.6793625433
H -0.8229997915 1.204963636 1.977182717
H -2.9564148795 1.3829707699 0.4082057579

