# b3lyp 6-31G(2df,p) opt Freq 

 titel

0 1
C 1.4621775655 -0.5167895767 1.7070612662
C 1.0986890555 0.0497346549 0.3465240614
O 1.7563118392 1.3049256048 0.2016404452
C 1.4562866561 1.9565588759 -1.0210240631
C 1.8459316798 3.3588712388 -0.9283335455
C 2.181578111 4.5123573593 -0.9066474051
C 2.1956119908 1.2852029154 -2.2200529173
C 3.6834784467 1.080266172 -2.0470702222
O 1.5795379021 0.9576606125 -3.2031905378
H 0.9630955832 -1.4779257148 1.861421557
H 2.5421263889 -0.6703535663 1.7860962063
H 1.1543790536 0.1684059754 2.5015959901
H 1.4004311016 -0.6418954087 -0.455635869
H 0.009987461 0.1911979624 0.2580855743
H 0.382521694 1.8840600525 -1.2509760097
H 2.4657003253 5.5353958952 -0.8728183972
H 3.8896455194 0.5811263662 -1.0965219369
H 4.0788888127 0.5037458147 -2.8834418489
H 4.1780251437 2.0566671165 -2.0014088278

