# b3lyp 6-31G(2df,p) opt Freq 

 titel

0 1
C 1.5297146132 -0.1122498771 0.2069018489
O 0.1726649149 -0.3792682081 0.5803397805
C -0.4927477771 0.662232227 1.123959418
O -0.0017622633 1.7526651786 1.280657835
C -1.8877315562 0.2394253607 1.525151738
C -2.8038325439 1.4264283556 1.9593036778
C -2.8601912463 0.8580044282 3.3819103814
C -3.3803727031 -0.5513988827 3.3588106829
C -1.9500363607 -0.2989530334 2.9727157291
H 2.1168332965 0.196236318 1.0757553015
H 1.9149008019 -1.0463875498 -0.202327202
H 1.5742587296 0.6811877723 -0.543550226
H -2.2771060919 -0.4524797143 0.7729154792
H -2.2534248827 2.365774792 1.8946180829
H -3.7597694285 1.520192068 1.4346001645
H -2.8435923699 1.4463077895 4.2907240066
H -3.517207871 -1.0162370967 4.3302003921
H -4.1071425085 -0.8611553843 2.6104125774
H -1.119348213 -0.7506288935 3.5010009023

