# b3lyp 6-31G(2df,p) opt Freq 

 titel

0 1
C 3.5379404617 -1.2427153046 -0.5229303003
C 2.5320285006 -0.3152861253 0.1503559385
C 3.1557253422 1.0056472956 0.6618269951
O 2.1549237448 2.0099040466 0.9480599677
C 2.0261148037 1.5706380591 2.3244763102
C 0.7281099583 0.820009351 2.5877865206
O 0.8960191835 -0.5013455778 2.0710946263
C 2.2320119309 -0.7069157375 1.6410994557
C 3.1007010218 0.4881304257 2.1238328981
H 4.4401174783 -1.3669930217 0.0885532401
H 3.107904523 -2.2372500228 -0.6807135973
H 3.8510037389 -0.8493422392 -1.4955539956
H 1.6371022237 -0.1783393142 -0.4621944493
H 4.0285904029 1.4220546916 0.153248029
H 2.2113220502 2.3906142706 3.0249679393
H 0.5198812051 0.7699891814 3.666565172
H -0.1176775179 1.3070412985 2.0891756036
H 2.535262895 -1.7195538541 1.9209491586
H 3.9285582834 0.3608052071 2.8158768679

