# b3lyp 6-31G(2df,p) opt Freq 

 titel

0 1
C 0.0695243298 0.3596603597 -0.0777091179
C 0.9912765865 -0.831619951 -0.0717204707
O 2.1904869008 -0.7166150603 0.7250266504
C 2.3244175607 -0.817143849 -0.6818951509
C 3.0710622657 0.263480408 -1.4922733269
C 3.8741618591 -0.8563639309 -2.1740238056
C 2.9592872442 -1.8396684328 -2.8367748559
O 3.5051274581 -2.854676443 -3.6269034625
C 3.1201952309 -1.9234822198 -1.3374000969
H -0.4748165905 0.4315528702 0.8698572638
H 0.6289854315 1.2877017812 -0.2207930131
H -0.6684120269 0.2681632098 -0.8822390054
H 0.4999317497 -1.8016524227 0.028611275
H 2.4797549035 0.9134865455 -2.146373102
H 3.6810436063 0.8790498071 -0.8266372252
H 4.926069975 -0.8076324089 -2.4314732423
H 2.0179219348 -1.5142771538 -3.2745757526
H 4.3403527243 -3.1356569824 -3.2378709798
H 3.4785471566 -2.8236874471 -0.8511823314

