# b3lyp 6-31G(2df,p) opt Freq 

 titel

0 1
C 0.0215738733 -0.6231820115 -0.073137968
C 1.4869946336 -0.263475139 0.0645469462
C 2.1476482579 -0.7518300083 1.339211031
C 2.3316001617 -0.2072051331 -1.1847870258
O 1.741908921 -0.540754101 -2.399105139
C 1.9712298696 1.0966158454 -0.4921587207
O 3.0612879473 1.7266326666 0.1332578398
C 1.0428765912 1.9872653978 -1.1337898778
C 0.2902665006 2.7611901888 -1.6666892064
H -0.5675585629 -0.1587834618 0.7251493388
H -0.3833837375 -0.3071175952 -1.0340479747
H -0.1051298778 -1.7088711633 0.0042073745
H 2.1320112104 -1.8467496091 1.3758248414
H 3.1843730057 -0.4183529752 1.4117558005
H 1.6108354849 -0.3848447464 2.222015318
H 3.3826133808 -0.4808169657 -1.0829587687
H 1.8787489756 0.1891239293 -3.0135494812
H 2.7185783803 2.2422375893 0.8724597706
H -0.3795224156 3.4429068424 -2.1297575685

