# b3lyp 6-31G(2df,p) opt Freq 

 titel

0 1
O 1.8410900111 2.4616050305 -0.7837497872
C 2.4029937562 1.1937961648 -0.802545945
C 3.7557243619 1.0078593341 -1.484286231
C 2.5222853461 0.499155002 -2.1515386504
C 2.2014396207 -0.94856832 -2.5615383636
C 1.8514222774 -0.4136902089 -3.9828580449
C 1.9085664791 1.048126252 -3.4445225958
C 2.1090648761 0.3927972598 0.3961103415
O 1.4105700806 0.8197110528 1.2917752633
H 1.3478007039 2.4973091943 0.0517160771
H 4.2013660159 1.9246680525 -1.8566216642
H 4.452929109 0.2955307403 -1.0512159559
H 3.028397017 -1.6610524977 -2.4986106648
H 1.3383614315 -1.3708374571 -2.0389865395
H 2.6362203811 -0.6232281428 -4.7129735329
H 0.8957608988 -0.7385613352 -4.3985116164
H 2.5170418861 1.7583268833 -4.0091892962
H 0.9239902428 1.4925186632 -3.2777606033
H 2.5580555946 -0.6198563979 0.4344084791

