# b3lyp 6-31G(2df,p) opt Freq 

 titel

0 1
C 4.3704506323 2.0163358171 -0.334233979
C 3.519019151 0.7781869625 -0.0809083308
O 2.6412472925 0.6655710776 -1.1967202795
C 1.5428981534 -0.2094982505 -1.0566006372
C 0.7593397016 0.0816049938 0.2168149486
O 0.6096169378 1.5206965866 0.4075483626
C 1.4610385133 1.4554830432 1.549882713
C 1.5885104733 -0.044625733 1.5039324157
C 2.8023520751 0.8197520217 1.262322053
H 5.1369054823 2.1226625106 0.4398398904
H 4.8654575473 1.939746839 -1.3060021894
H 3.7420033026 2.9112105294 -0.3341615666
H 4.1751129467 -0.1120934312 -0.0560688812
H 0.924189081 -0.0436420634 -1.9441771775
H 1.8532528185 -1.2696969314 -1.0471757607
H -0.2118501526 -0.421729495 0.2326062963
H 1.2680074433 2.1478991114 2.36111489
H 1.4945846121 -0.8076502376 2.2645753581
H 3.4812440585 0.8668475991 2.1114834641

