# b3lyp 6-31G(2df,p) opt Freq 

 titel

0 1
C 0.3273741967 0.541483652 -0.0135682185
C 0.9414499448 -0.7684707703 -0.463919647
O 2.3931241835 -0.6588537919 -0.606188938
C 2.6126197079 -1.6693724488 0.3824644381
C 1.1012906055 -1.8707583751 0.617218119
C 1.259275507 -3.3257066139 0.1120296689
O 1.7860790624 -3.270133601 -1.2172615348
C 2.7105046616 -3.1488688499 -0.1315559971
C 3.8846545833 -4.0702163197 -0.0912261337
H 0.7498412357 0.8697055269 0.9414048156
H 0.5156992612 1.3226023568 -0.7565937103
H -0.7569191981 0.4328810697 0.1026313455
H 0.4956316118 -1.1189375079 -1.3997982497
H 3.3319551073 -1.3891827739 1.1573918453
H 0.6279369736 -1.7267328053 1.5871003879
H 0.680614183 -4.2038558366 0.3779400487
H 4.3495810982 -4.0660666206 0.8999518709
H 3.5779765555 -5.0920571624 -0.3308752513
H 4.6418523392 -3.760450638 -0.8203522797

