# b3lyp 6-31G(2df,p) opt Freq 

 titel

0 1
C 1.5188517191 1.1190708004 0.5051811258
C 0.9602475286 -0.2486282221 0.1015208657
C 1.6332533655 -0.8501251261 -1.1338728023
C 1.4106665666 -0.1303348352 -2.4852952305
O 2.4921448354 0.6718778737 -2.9357150731
C 1.1997690532 -1.2569906921 -3.4683122661
C 1.0547411814 -2.4461574258 -2.8767829638
C 1.193232759 -2.3020974085 -1.4071525874
O 0.9920599886 -3.1467567665 -0.5657845611
H 1.0322084563 1.4921722296 1.4113964126
H 2.5952436163 1.0656434715 0.7031713755
H 1.3591322073 1.8729141086 -0.2759375393
H 1.0754653167 -0.9617938304 0.9242952493
H -0.1196970979 -0.1684659378 -0.079284921
H 2.7210510784 -0.884756523 -0.9803348481
H 0.4880245189 0.4739808479 -2.4379063734
H 2.5632698486 1.4312441956 -2.3489869719
H 1.1604070162 -1.0571845543 -4.5334023314
H 0.8496673017 -3.3965922853 -3.3528727996

