# b3lyp 6-31G(2df,p) opt Freq 

 titel

0 1
C 0.7373010156 1.207645209 0.5268021637
C 1.7445172852 0.1666791286 0.1319571834
C 1.8072717518 -0.8210535264 -1.0553777232
C 2.2546478655 -1.9534934753 -0.1361354935
C 2.334601902 -0.9301480513 1.0456173923
O 3.6386129428 -0.6708816013 1.5505899157
C 4.3450794903 0.2617722278 0.765797378
O 4.1313932044 0.0848681559 -0.6157764326
C 2.7803816548 0.3196793683 -0.9404529021
H 1.1526036943 1.9029321 1.2661946977
H 0.4185850638 1.7972812943 -0.3391555704
H -0.157758486 0.7526521993 0.9661485408
H 1.1350449488 -0.9025815986 -1.9013446419
H 1.4739314472 -2.6995833361 0.0294925938
H 3.1936606279 -2.451252801 -0.3884752384
H 1.7142489753 -1.2000465385 1.9021851681
H 4.0576530963 1.288035891 1.0508881682
H 5.4089690696 0.1040016438 0.9557677788
H 2.6476540504 1.1401196903 -1.6419371984

