# b3lyp 6-31G(2df,p) opt Freq 

 titel

0 1
C 1.5673391572 0.0744332823 0.0687280462
O 0.2198340303 -0.3733786764 0.0936011273
C -0.3217591585 -0.409637166 1.3556061178
C -0.7936328525 0.8359832715 2.0871175366
C -1.7648091047 -0.2757178837 1.7993715601
O -2.938866109 -0.0022162261 1.1291647011
C -1.593018079 -1.5167943157 2.7322021422
C -0.4748133244 -1.4080392777 3.7378034355
C -0.1475545031 -1.6528035948 2.2879528564
H 2.2226406123 -0.5824710805 0.6574011302
H 1.8896654242 0.0571541007 -0.9747328607
H 1.6537227767 1.0971382441 0.4601183637
H -0.4809277087 1.1397086042 3.0812304803
H -0.9410148107 1.6606471072 1.3946163907
H -3.1334899612 -0.7452620106 0.5463095419
H -2.3453429882 -2.2948207343 2.783536628
H -0.2325437122 -0.4772479309 4.2375929288
H -0.3631946265 -2.278383926 4.3795884145
H 0.3489755381 -2.5492253474 1.9381574792

