# b3lyp 6-31G(2df,p) opt Freq 

 titel

0 1
C 1.5215652956 -0.9424927285 1.0082199699
C 1.1338221734 -0.054747973 -0.1755342296
C 1.6348772175 1.3932330646 -0.0217735842
O 3.0510034166 1.4387569934 0.1663414991
C 1.2107265167 2.2642365053 -1.1602231842
C 0.4211379498 3.3645958137 -1.2760983304
C 0.4310343365 3.7331516108 -2.6625975632
C 1.2318172536 2.8318620439 -3.2842582612
O 1.712549839 1.9263508719 -2.388138567
H 1.1932400051 -1.9741652664 0.8507604742
H 2.6049722241 -0.9406829001 1.1505492439
H 1.0634698064 -0.5840338439 1.9370419989
H 1.5410581608 -0.4636957873 -1.109129135
H 0.0442250356 -0.0320350475 -0.299416108
H 1.2117307609 1.8225880853 0.8935201263
H 3.4549442558 1.2336306972 -0.6845267361
H -0.1024338961 3.8578575182 -0.4720665445
H -0.0851280684 4.5596345455 -3.125157583
H 1.551881127 2.6957653868 -4.3039918459

