# b3lyp 6-31G(2df,p) opt Freq 

 titel

0 1
C 1.6161567064 0.3548764309 -0.6398247616
C 0.4020692672 -0.3793491124 -1.2904312676
C 0.2984620036 -1.1960124956 0.0331057653
C 0.5358466165 0.2762466458 0.4827372267
C -0.5069791104 0.6750916411 -0.6061592763
C -2.0201469806 0.4452462388 -0.3763587031
O -2.6514053513 1.574002907 -0.9624441176
C -1.6893093664 2.5949666931 -0.901062261
O -0.4444248951 1.9879877949 -1.1426857807
H 2.5094449372 -0.2546283844 -0.4812419651
H 1.8573377093 1.3446826382 -1.0242297868
H 0.3168186506 -0.753212612 -2.3116898061
H -0.6609983832 -1.6588903789 0.2767909815
H 1.1243608236 -1.8839465556 0.2249168859
H 0.6055313641 0.6538771269 1.5042845883
H -2.4040512547 -0.4509580465 -0.8689807535
H -2.2483804351 0.3828447656 0.6986873087
H -1.8934567297 3.3312239736 -1.6834208996
H -1.697141422 3.0824247895 0.0923136727

