# b3lyp 6-31G(2df,p) opt Freq 

 titel

0 1
C -3.2664526462 0.138773408 -1.1252757116
C -2.1579075419 -0.0442934448 -0.1239971207
C -1.0822574601 1.0633400534 0.0536001406
C -0.0059694291 -0.0400956356 0.0388342959
O 1.1909561087 -0.0338157542 0.076237087
C -1.0383217486 -1.1607481844 -0.1585263522
C -0.7897496693 -2.2101441108 -1.2163736319
C -1.6614520849 -1.5800242158 1.1969705077
O -2.6267127697 -0.5107389023 1.1641333749
H -3.8378743064 -0.7856772129 -1.2486992589
H -3.9558709657 0.9186967037 -0.783624157
H -2.8702106251 0.4394164469 -2.1003767273
H -0.9764567407 1.7325488838 -0.8076878275
H -1.1637482384 1.6607602386 0.9647298103
H 0.0600338112 -2.8398641331 -0.9316210009
H -1.6633847411 -2.8570937488 -1.3470544807
H -0.5508801704 -1.7580369012 -2.1842358324
H -2.149544577 -2.562522608 1.1555433313
H -1.0124856553 -1.5413806225 2.0797715632

