# b3lyp 6-31G(2df,p) opt Freq 

 titel

0 1
C 2.1685521185 -1.404249343 -1.9672606328
C 1.0932548187 -2.4073042367 -1.5462057545
C 0.4192501763 -2.0387233983 -0.2188449815
O -0.2545136678 -0.7686181513 -0.4144217043
C -0.3044251509 0.0674860174 0.6526762743
C -1.0795536677 1.3138901337 0.3012643573
O 0.2003603507 -0.1675183577 1.7193222678
C -0.5453365545 -3.0469329181 0.2131977119
C -1.3268718846 -3.8956689819 0.5476051568
H 2.9624317356 -1.333756799 -1.2156708508
H 2.6288374216 -1.7065889207 -2.9121714784
H 1.7424758835 -0.4067237515 -2.1025983079
H 0.3182080596 -2.4896887427 -2.3156223624
H 1.5260508594 -3.4060008757 -1.4251204956
H 1.1684426179 -1.8973066456 0.5668346633
H -1.0158853399 2.0241838989 1.1246101476
H -0.6905650361 1.7601617879 -0.6174823133
H -2.1266626148 1.0537588217 0.1191092335
H -2.0170285856 -4.6406151072 0.858788219

