# b3lyp 6-31G(2df,p) opt Freq 

 titel

0 1
O 0.337750146 0.2793654792 0.5998905013
C -0.5905784841 1.2920659739 0.6640474626
C -2.0229733296 1.0735128124 0.3449626314
C -1.6752680336 1.6553655493 1.7036499359
C -1.3392148789 3.1442267991 1.5492092202
C -0.5798462992 3.7755978788 2.7201002226
C 0.8226470333 3.1700314327 2.5935507849
O 1.0473066773 3.0143989925 1.1889480189
C -0.1955528588 2.7605375419 0.5419588654
H 1.1653280536 0.6622367827 0.9219446177
H -2.5433448425 1.669610483 -0.4043030394
H -2.3199025202 0.029222042 0.3682437148
H -1.9720830321 1.1649641282 2.6236864511
H -2.1463786895 3.7785020892 1.1711947363
H -0.5356449923 4.8618590302 2.5927597155
H -1.038441274 3.5660267087 3.6907137069
H 1.6186635475 3.8087153174 2.9852982654
H 0.8780280048 2.1982917547 3.1053262316
H -0.1479054379 3.2055639143 -0.4568187531

