# b3lyp 6-31G(2df,p) opt Freq 

 titel

0 1
C 0.6980773455 -0.3486571102 -0.9135891354
C 1.031570899 0.3187853954 0.4171470871
C 1.7076189029 1.7090755629 0.3109918365
C 2.647101194 1.735067237 1.4865348743
C 2.7899605608 0.539022751 2.0530355742
C 1.9988548518 -0.5338027679 1.3237406875
O 2.8610356479 -1.3751045342 0.5916235735
C 1.182417127 -1.3844725379 2.2793070843
O 1.2771548617 -2.5879014521 2.3171023957
H 0.1916745754 -1.3078175774 -0.7642179452
H 0.0362842348 0.2903011701 -1.5071413051
H 1.6076960237 -0.5409857401 -1.4869546352
H 0.1033558926 0.4616603227 0.9863066703
H 2.2637463465 1.8227132219 -0.6298748856
H 0.9715016834 2.5207089925 0.3340744551
H 3.1730713454 2.6322229662 1.7957612782
H 3.4540061482 0.2932596998 2.8736606627
H 2.6438504077 -2.2793309011 0.8721529347
H 0.4842283616 -0.8317226685 2.9404822525

