# b3lyp 6-31G(2df,p) opt Freq 

 titel

0 1
O -1.9180863897 1.5221514309 0.7507548562
C -0.6366115409 1.016648625 0.9746392344
C -0.1481273365 0.3585495765 -0.2906754738
C -0.9890432129 -0.715342343 -0.9336101788
C 0.3439717154 -1.0703647194 -0.3358399532
C 0.2991442278 1.9542957988 1.8163144785
C 1.1061257752 0.7424569672 2.3152562198
C -0.3941713029 0.3948228487 2.4017601125
O -0.6359823271 1.7563294678 2.9624157918
H -2.1551861633 1.9576928362 1.5840934528
H 0.3311344192 1.0497242619 -0.9786291108
H -1.8831391206 -1.0234175258 -0.4042348221
H -1.0915770235 -0.7040038696 -2.0125539165
H 0.3470335766 -1.6428032947 0.5855617592
H 1.1705362468 -1.3014466915 -0.9990483841
H 0.6208136939 2.9766971588 1.6117692652
H 1.7337741608 0.2026559448 1.6072869457
H 1.5799312058 0.895457177 3.2845167884
H -0.8936373041 -0.4365052796 2.9016376648

