# b3lyp 6-31G(2df,p) opt Freq 

 titel

0 1
C -3.7797703268 1.8551823313 -1.2189367247
C -3.3803574103 1.273836232 0.1514827204
C -4.2124254167 0.0196749466 0.4836708681
C -1.915025401 1.0017810306 0.2305325193
C -0.9141609038 1.4924917639 1.0164724648
O -1.0917255396 2.4333611012 1.9890768894
C 0.3015504578 0.841494371 0.6223452768
C -0.0506595172 -0.0039289167 -0.3814346783
O -1.3774373597 0.0762487866 -0.633072532
H -3.5620785232 1.1409002996 -2.0193337325
H -4.85127784 2.0788098449 -1.2464737117
H -3.2304896917 2.776983424 -1.4312966502
H -3.5786841346 2.0319571501 0.9184153828
H -3.9703166466 -0.3614280339 1.4799955429
H -5.2831083671 0.246806575 0.4527692906
H -4.0142070406 -0.7776030131 -0.2397232887
H -0.2428219122 2.6167952117 2.400283136
H 1.2899947671 0.9868581873 1.0315248382
H 0.5056642762 -0.6977572422 -0.9898550311

