# b3lyp 6-31G(2df,p) opt Freq 

 titel

0 1
C 5.5988314658 -1.2706092601 1.0703951248
C 4.2849304718 -1.9467068116 0.8683976793
O 4.2321076456 -3.1557494875 0.0915230009
C 3.3644685359 -2.0646441134 -0.2598932507
C 2.1255344382 -2.0446529298 0.6952297935
C 0.8905321511 -1.2513005345 0.4047015898
O 0.1021836711 -1.8278252204 -0.6297568904
C 2.2100644565 -3.1689169728 1.7004998752
C 3.0838103673 -1.9545092193 1.8781159032
H 6.1876813648 -1.7865911598 1.8375119997
H 6.1724749962 -1.2674478953 0.1399641524
H 5.4541491848 -0.2360204856 1.3986966211
H 3.4013873304 -1.6978005232 -1.2791963916
H 0.3110225601 -1.1215030881 1.3332921968
H 1.1489184948 -0.2487320792 0.0433072881
H -0.060005765 -2.7452624118 -0.3852169409
H 1.3725970239 -3.2241841583 2.3903868158
H 2.6521181035 -4.1183448626 1.4268561105
H 3.0180697832 -1.2969610367 2.7358117225

