# b3lyp 6-31G(2df,p) opt Freq 

 titel

0 1
C -3.1379119469 -1.0479733944 1.3750005546
C -2.4088404529 -0.7611205953 0.0514648175
C -2.1583275301 0.7191002095 -0.1374865549
C -0.865424753 1.0683428303 -0.0731921931
C -0.0574009176 -0.1393175209 0.1610486105
O 1.1048879729 -0.2365874612 0.4922706689
C -0.977852157 -1.364691787 -0.0306408311
C -0.7029058546 -1.9859026361 -1.4099174542
O -0.7212214953 -2.3093712912 0.9894446863
H -3.2953445403 -2.1214756595 1.4969694515
H -2.5523395185 -0.6973442672 2.228268709
H -4.1110867131 -0.5466111525 1.3913472157
H -3.0342712062 -1.1369537595 -0.7684771989
H -2.9817238701 1.4145717539 -0.2707369494
H -0.4510824071 2.0669158553 -0.124059724
H -1.3105440806 -2.8876647669 -1.5275237345
H -0.9403193857 -1.2905759905 -2.2218131475
H 0.3525478343 -2.2632575845 -1.4887278247
H 0.2159230119 -2.2033903623 1.2092288282

