# b3lyp 6-31G(2df,p) opt Freq 

 titel

0 1
C 1.0497172697 -0.8212091102 -1.4375479527
C 1.6368908603 -0.0364459673 -0.2850675876
C 0.8130673279 0.2215672292 0.959005244
C 1.9869580197 -0.7210405466 1.000228134
C 3.2203420383 -0.5756678699 1.8695647413
O 4.1768670654 -1.547145495 1.4095704128
C 3.1373188479 -1.9851456067 2.2888158405
C 1.8831803985 -2.2221453708 1.4053558296
O 0.7065884188 -2.6037681295 2.0723127512
H 0.38964643 -1.6163604757 -1.0761985259
H 0.4609394267 -0.1734453042 -2.0960993181
H 1.8364765705 -1.2875596982 -2.0401490959
H 2.3054116073 0.7701033787 -0.5785624125
H 0.9017894665 1.1822147314 1.4568731037
H -0.1787800556 -0.2199428807 1.0048464606
H 3.6066610861 0.2999015337 2.37980661
H 3.4157036777 -2.4797212306 3.2129226031
H 2.0413951788 -2.949828612 0.6059968477
H 0.4768460454 -1.9008716955 2.6910466842

