# b3lyp 6-31G(2df,p) opt Freq 

 titel

0 1
C -0.0139941232 0.1460873283 -0.1019892827
C 1.4988913032 0.1274561852 -0.2711931554
O 1.9543227656 -1.2369606571 -0.2842157203
C 2.7834487902 -1.5011215801 -1.4076988107
O 3.9334738201 -0.6649309741 -1.3664785641
C 3.5698471887 0.7138000811 -1.4750031463
C 2.0303923559 0.8312682871 -1.551721981
C 1.5931366477 0.0300837272 -2.7521013637
C 2.0087295232 -1.2345432504 -2.6788016635
H -0.2921832755 -0.4317513921 0.7838119468
H -0.378612908 1.1708858763 0.0268164192
H -0.5075341669 -0.3002301866 -0.9692624799
H 1.9680767615 0.6196945149 0.593882004
H 3.1405693787 -2.5243925308 -1.2969854189
H 3.9464917369 1.2399019542 -0.5878405034
H 4.044055046 1.144817692 -2.3659203624
H 1.7201825603 1.877740855 -1.5752147891
H 1.0179614247 0.455768722 -3.5660795175
H 1.8339552309 -2.0104615923 -3.4140747911

