# b3lyp 6-31G(2df,p) opt Freq 

 titel

0 1
C 1.3515602871 1.0749656661 0.1110510063
C 1.1626774638 -0.4383401864 -0.0537176743
C 1.8839966774 -1.0141702142 -1.2437551033
O 1.3385484941 -2.2244217405 -1.8044334995
C 1.4085120014 -1.0267897903 -2.6324708832
C 2.6108134671 -1.0132464754 -3.5242462155
C 3.7229782253 -1.0455049123 -2.7881068468
C 3.4248679873 -1.0764769552 -1.2947842752
O 3.9239193112 -2.2385552966 -0.6529637581
H 0.8042503221 1.4370043008 0.9860765058
H 2.4041328085 1.3411881437 0.2502667435
H 0.98305453 1.6188174027 -0.7648952563
H 1.5181554175 -0.9594397553 0.8447189246
H 0.0992224734 -0.6788119835 -0.15554608
H 0.4448593611 -0.6340634059 -2.9424742923
H 2.5521707854 -1.0184109504 -4.605945239
H 4.7377422365 -1.1198435338 -3.1617533508
H 3.8825331228 -0.2300400866 -0.7707206257
H 3.3988582981 -2.9683419569 -1.0094469504

