# b3lyp 6-31G(2df,p) opt Freq 

 titel

0 1
C -3.3707362554 -1.7474374814 -2.8151315192
C -2.0908623465 -0.9114385557 -2.8255443688
O -2.3200026633 0.1983498681 -3.6881787266
C -1.6988356047 -0.4773970597 -1.4390743842
C -1.772954493 0.7475066722 -0.9003338466
C -1.2810838289 0.8143807397 0.5241437357
C -0.8466746765 -0.6301766323 0.8392828498
C -1.1339423316 -1.4247779128 -0.4425367939
O -0.9356602055 -2.6078787504 -0.6110840463
H -3.2326444759 -2.6305517814 -2.1872982782
H -4.2045545046 -1.1554790063 -2.4263262005
H -3.6122652443 -2.0656449761 -3.8324970248
H -1.2799000976 -1.545376225 -3.2181419392
H -1.4858298052 0.6682123009 -3.7902651215
H -2.1521219547 1.6189101965 -1.423305029
H -0.4579944797 1.532705854 0.6224040252
H -2.0722402732 1.1725460079 1.1941038028
H 0.2152694729 -0.7155257485 1.0878856522
H -1.4000774224 -1.0743466498 1.671771063

