# b3lyp 6-31G(2df,p) opt Freq 

 titel

0 1
O -0.0471977958 0.3366606026 -0.457439853
C -0.9331217304 0.42696074 0.6480524424
C -2.2745822418 -0.2525325139 0.2666260497
C -3.069049823 0.8092832558 -0.5623307659
C -2.5946835477 2.1357167424 0.0029829089
C -2.5788501175 2.3546820356 1.5069938533
C -1.3513539195 1.8724265222 0.8171956149
O -0.5992806217 2.945002418 0.217535438
C -1.7329486757 3.2054755431 -0.6768568142
H 0.4008258309 1.1911198155 -0.5164957918
H -0.4802040268 -0.0329148616 1.5382267363
H -2.0847030943 -1.1725374231 -0.291265562
H -2.8225748293 -0.5295957848 1.1734917722
H -2.7852590163 0.7443254694 -1.6173443333
H -4.1497533155 0.6467370549 -0.5033486584
H -2.576866317 3.3673456253 1.8973763732
H -3.1348785943 1.6397692419 2.102943514
H -2.0560065052 4.2506325787 -0.614476711
H -1.4717745191 2.955033488 -1.7105381634

