# b3lyp 6-31G(2df,p) opt Freq 

 titel

0 1
C 2.2420263347 -0.6233075955 -1.0148575672
C 1.1055240331 0.375341418 -0.901559604
C 1.0421106673 1.2046661304 0.3744986324
C 2.2503614616 1.4233745968 1.2784885784
C 2.7180485612 0.1917965745 2.0614015755
O 3.1477649795 -0.8997349047 1.26029618
C 2.199515294 -1.3866870476 0.33138462
O 0.8725926386 -1.269870028 0.809044248
C 0.2908015556 -0.1041221674 0.26593401
H 2.0492895319 -1.3122985533 -1.8437487404
H 3.2307553208 -0.1816845438 -1.159980218
H 0.6496246716 0.759002181 -1.8065857949
H 0.4002813003 2.0772019907 0.2817229075
H 3.086943017 1.825069462 0.6923860542
H 1.9963374662 2.1901322071 2.0205099752
H 3.5901246071 0.4527836394 2.6679667669
H 1.918626605 -0.1326927909 2.7387811017
H 2.4244853411 -2.4514589057 0.2265924332
H -0.7911718166 -0.1455435831 0.2961972813

