# b3lyp 6-31G(2df,p) opt Freq 

 titel

0 1
C -2.9006027602 1.199730075 -2.0509489418
C -3.1276194675 0.1716314559 -0.9547939505
C -4.1048923604 0.4908864849 0.2160889018
C -3.098180883 -0.1758868211 1.1951861191
C -2.0203897256 -0.0615135435 0.1030167417
C -0.7891021086 -0.9600111526 -0.0623669668
C -0.0069379445 0.3346685452 0.1482179497
O 1.1263297642 0.6894704793 0.1960185122
O -1.1322547246 1.1053627722 0.2936834515
H -2.5935519097 2.1596525857 -1.6272592331
H -2.1204832255 0.8779073018 -2.7496408387
H -3.8184537231 1.3549361161 -2.6274621817
H -3.3855722544 -0.8010858446 -1.3913939826
H -4.185818358 1.5675063284 0.3882462155
H -5.1087746055 0.0657796784 0.1598764718
H -2.8772850484 0.3361285908 2.1336773472
H -3.3457554201 -1.2203972114 1.4051469933
H -0.6321973946 -1.7113137609 0.7143471442
H -0.6521991905 -1.4153629495 -1.0456267429

