# b3lyp 6-31G(2df,p) opt Freq 

 titel

0 1
O 0.6530217318 3.737243296 0.3844556387
C 0.5689540121 2.829814359 -0.4106020602
C -0.7713460387 2.3873925164 -0.991909086
C -1.1849059004 0.9417331569 -0.6525069139
O -0.2545073785 -0.0322968283 -1.1048422194
C 0.7753937207 -0.2678906317 -0.1914618949
C 2.1265284859 -0.5777870936 -0.7513723952
C 1.8833793826 0.7524053321 -0.0634725472
C 1.7922612661 2.0406548823 -0.8725237201
H -1.5405661679 3.0755155679 -0.6290548392
H -0.7160889575 2.4735592338 -2.0846005026
H -1.3501802638 0.8393068629 0.4295320134
H -2.1301820675 0.7199518791 -1.1571490025
H 0.4545991747 -0.7897877075 0.7107939771
H 2.7337564377 -1.3253815947 -0.2534151919
H 2.2174284499 -0.5626604965 -1.8320782327
H 2.2996807589 0.8808456953 0.9309539453
H 2.6849468222 2.6521269797 -0.7200721211
H 1.7021006017 1.8082916712 -1.9374835176

