# b3lyp 6-31G(2df,p) opt Freq 

 titel

0 1
C 1.0970779029 0.0162676258 0.9711143434
C 0.8285996093 0.1425917546 -0.533692256
C 1.7526939186 -0.7035672059 -1.4023379699
O 3.1273776528 -0.4210352077 -1.1870492111
C 1.5148185651 -0.7541586228 -2.9095070116
C 0.4957736006 -1.8886253056 -3.1110562611
O 0.1109884084 -2.3844879894 -1.8231092653
C 1.5145446339 -2.254992516 -1.4642766204
C 1.9372532774 -2.2193818925 -2.977179829
H 1.021132304 -1.0240295583 1.3077957994
H 2.0904142325 0.3918769082 1.2427685649
H 0.3708468823 0.5979126761 1.5458562105
H -0.199361042 -0.1606121334 -0.7507904164
H 0.9335248701 1.190215838 -0.8415303815
H 3.315254961 -0.5749570618 -0.2551189616
H 1.6812724262 0.0321492909 -3.6348374748
H -0.2054061417 -1.9521738759 -3.9324034253
H 1.8401591601 -2.9349160973 -0.6781682647
H 2.6542046284 -2.7532446473 -3.5829746195

