# b3lyp 6-31G(2df,p) opt Freq 

 titel

0 1
C -0.03822865 0.1722159401 -0.2973816291
C 1.4601813528 0.0935841653 -0.0157081105
O 1.8200819071 0.8906575714 1.1283883403
C 2.7054336478 1.9131067095 0.6954305275
C 1.99909187 2.9319010964 -0.2591609832
C 2.5221197901 2.0798547112 -1.4165963677
O 2.7850257741 2.5426687116 -2.6921364749
C 3.5078528192 1.3675984512 -0.5141818828
C 2.3787292674 0.5853067563 -1.1280245675
H -0.6070551411 -0.1151643919 0.5914143947
H -0.3407911266 1.1817407789 -0.5882141525
H -0.3050816263 -0.5141124211 -1.1088261567
H 1.7154911734 -0.9499012027 0.221689522
H 3.228982611 2.3124248273 1.5623384185
H 0.9228392036 3.0735737887 -0.1204322169
H 2.5055690891 3.9020274983 -0.2527798869
H 1.9698742171 2.5040895509 -3.2044977663
H 4.5652862608 1.1644120013 -0.6092320167
H 2.5974627108 -0.0640598224 -1.9680705411

