# b3lyp 6-31G(2df,p) opt Freq 

 titel

0 1
C 1.6041519732 0.0172569844 -0.1199261235
C 0.1509050289 -0.0538314731 -0.0887464397
C -1.051981463 -0.1204147047 -0.0749588582
C -2.488588016 -0.1846705579 -0.0692385378
O -3.0390837614 -0.7535690749 -1.2206843101
C -3.2900185015 0.9344234963 0.6041769797
C -3.2502102316 -0.4371469515 1.2306488594
C -2.5455371783 -0.6817916858 2.540352657
O -4.3644657505 -1.2771552465 1.0176966932
H 2.05746955 -0.6753696419 0.5981354901
H 1.9847457416 -0.2417623673 -1.1141168246
H 1.9616319637 1.0254815188 0.1175529982
H -3.7575597459 -1.3221158818 -0.9057114912
H -2.7519498798 1.7384472124 1.0938672648
H -4.1924433417 1.2245356456 0.0754137733
H -2.311227408 -1.7449118421 2.6502551757
H -1.6128164086 -0.1161582854 2.5906873898
H -3.1800160241 -0.3812142016 3.3822479845
H -5.1588008369 -0.815175703 1.3049943093

