# b3lyp 6-31G(2df,p) opt Freq 

 titel

0 1
C 1.606869021 1.0023092955 0.1662576448
C 0.2419206379 0.4173822405 0.2703993925
C -0.9837137775 0.943749017 0.1393916173
C -1.8940885908 -0.2412199668 0.4406738713
C -3.3810529382 -0.186805197 0.2544838151
O -1.2060221421 -1.3440248823 -0.2827422021
C -0.1028625145 -1.0280156308 0.6321401777
C -1.1941365397 -0.8180816111 1.7416945395
O -1.7632821971 -1.9733894759 2.2641261773
H 2.1677081689 0.8777474443 1.1011943898
H 2.1938299199 0.5079946519 -0.6179854889
H 1.5664718229 2.0708763607 -0.0621674501
H -1.2895691889 1.9579424651 -0.0767449832
H -3.7941795641 0.6976243882 0.7495862595
H -3.6335815148 -0.1362875635 -0.8089866132
H -3.8552670828 -1.0729119789 0.6858111356
H 0.6729390909 -1.7918284258 0.6889785145
H -0.9832221134 -0.1325637945 2.565001646
H -1.9088844977 -2.5564782466 1.5053333067

