# b3lyp 6-31G(2df,p) opt Freq 

 titel

0 1
O 0.4058819914 0.227883738 0.7724761913
C -0.6078135557 1.1402382877 1.1592644672
C -1.4265449599 1.5784919584 -0.026933854
C -2.7186391745 1.6732349856 0.2794583974
C -2.9889428382 1.280459425 1.7145258305
C -1.6864414616 0.5752356766 2.1324215562
C -1.2294861678 0.4785210957 3.6003133281
O -0.882675704 -0.9146544286 3.4282060112
C -1.6651713277 -0.969391269 2.2104758204
H 0.8332135831 -0.0943341051 1.5749506802
H -0.1376859932 2.024513389 1.6298784565
H -0.9663300802 1.8273022176 -0.9756113629
H -3.4985962209 2.024267404 -0.3869820437
H -3.1765250157 2.1697484632 2.3345367999
H -3.8687064707 0.6368455654 1.8317179516
H -0.3685739433 1.0873357794 3.9040890796
H -2.0371436608 0.6076404608 4.3355907753
H -1.1520244982 -1.508452394 1.4118240131
H -2.6569012622 -1.4078103996 2.390763582

