# b3lyp 6-31G(2df,p) opt Freq 

 titel

0 1
O 1.0255789311 0.6517393472 0.5666050265
C 0.0699964676 -0.05566469 -0.2128767452
C -0.6728146885 0.9567643613 -1.0637692387
C -1.9217926333 0.3818826749 -1.7354222708
C -2.8584733828 1.5213239597 -2.0913542539
O -2.3314595385 2.8207203894 -2.2470497722
C -1.8164553664 3.2115338236 -0.9640026291
C -1.6073661156 1.892920352 -0.2252156131
C -2.8282433153 1.0433119013 -0.6844529123
H 1.4950101543 0.018069888 1.11651305
H 0.5579639198 -0.7997534196 -0.8633407732
H -0.645958536 -0.5975289178 0.4267292691
H 0.0399437836 1.4731353265 -1.7176794489
H -2.0096961619 -0.5983143564 -2.193687468
H -3.6959997138 1.3146371929 -2.746828678
H -0.8883279158 3.7696138587 -1.1232559972
H -2.5393119658 3.8606373735 -0.4462676507
H -1.3736605992 1.9800311383 0.8342910908
H -3.6577123936 0.6681551365 -0.1001133951

