# b3lyp 6-31G(2df,p) opt Freq 

 titel

0 1
O 1.238828681 1.5710628549 -0.12755634
C 0.547919592 0.3313028076 -0.0553018478
C -0.3653442388 0.1331008874 -1.226322891
C -1.6140236603 -0.3420054082 -1.244868689
C -2.2407437206 -0.3448689603 -2.6216374229
C -1.2189315155 0.4389317955 -3.4657028433
C -1.2714756315 1.9827484188 -3.3913026606
O 0.0071276375 2.0542541876 -2.7123698139
C 0.0535395691 0.5977318317 -2.5997738753
H 0.7309535139 2.1607653655 -0.6996754847
H 1.3172831522 -0.454994638 -0.0357874087
H -0.0200483313 0.2422348692 0.8841287441
H -2.1486694479 -0.6931352903 -0.3673391775
H -2.3852838377 -1.3655022296 -2.9996466167
H -3.2332728674 0.1242673982 -2.6247903988
H -1.0805007501 0.0478426882 -4.4732975809
H -1.2423750833 2.5190654747 -4.3456055001
H -2.0874848113 2.3836164907 -2.7765026911
H 1.0208187999 0.2169454864 -2.9428606519

