# b3lyp 6-31G(2df,p) opt Freq 

 titel

0 1
O 0.4728833815 -1.0124716212 0.1106707548
C 0.4582850448 0.1791254755 -0.0588589779
C -0.2714370238 0.8796108114 -1.1913435343
C -1.1322619529 2.0156924498 -0.688508961
C -2.3747220135 1.745149745 0.1486541404
C -3.0700293527 3.1239212944 0.2516196786
C -2.6552597041 3.8929135651 -1.0276258382
C -1.3060647557 3.3020907517 -1.3789666265
O -0.41817096 3.1911811324 -0.2532111956
H 1.0041582527 0.8683573008 0.6230288096
H 0.4920020865 1.2902876693 -1.8649336446
H -0.862251381 0.1393305319 -1.7390423233
H -3.0009373252 1.0160013726 -0.3804594411
H -2.1397232261 1.3186925453 1.1292386678
H -4.1538658927 3.0385105305 0.3558254251
H -2.6949567638 3.6535105346 1.1294506109
H -3.3484918369 3.7038451942 -1.8568078316
H -2.6165856376 4.9754037863 -0.8728194203
H -0.8243516293 3.5239483903 -2.3288027926

