# b3lyp 6-31G(2df,p) opt Freq 

 titel

0 1
C -1.0613750102 0.8387412145 0.1681000864
C -0.5657060973 0.3982126594 -1.1772061696
O -1.2684289464 0.9909112638 -2.2331314713
C -1.1089289637 0.1968351459 -3.4138300933
C -0.7096216571 -1.2203410935 -2.9459744921
C -0.1198520283 -0.9573682993 -1.5728526131
C 0.950139109 0.1369098335 -1.474848405
C 1.9130269441 0.0665859374 -0.3640314389
O 1.7523824149 -0.567370942 0.6582022937
H -0.468114857 0.3850342047 0.962185503
H -1.0066425485 1.9278872159 0.2578351757
H -2.1076493881 0.5411794355 0.2897048014
H -2.0514671909 0.2262649482 -3.9666512814
H -0.3307618698 0.6354942011 -4.0523170306
H -1.5874068348 -1.866673295 -2.8425971102
H -0.0191705711 -1.7008535145 -3.6447838294
H -0.0361615886 -1.7504346171 -0.8387661473
H 1.3284237628 0.5829213518 -2.3888331913
H 2.840120151 0.6620839397 -0.5166536068

