# b3lyp 6-31G(2df,p) opt Freq 

 titel

0 1
O 1.3589027724 -0.509294815 0.0125718656
C 0.2333162293 -0.0925787255 -0.0705472344
C -0.3009075201 0.744631673 -1.2113668164
C -0.9536734755 2.0424973827 -0.7101952341
C -1.5988015219 2.8352690036 -1.8388737436
O -2.177274533 3.998174182 -1.2853163845
C -2.787931313 4.8184216798 -2.2625843703
C -3.3677265261 5.9971517443 -1.633111736
C -3.8548141342 6.9775937924 -1.140216337
H -0.5178694241 -0.3080422872 0.726193698
H 0.5169623855 0.9399217145 -1.9112158044
H -1.0562252249 0.1376647765 -1.7332745581
H -1.721018917 1.8154605765 0.0393620948
H -0.2072162258 2.6747851914 -0.217297736
H -0.8464083832 3.1030386125 -2.6008298391
H -2.3669906272 2.2249475609 -2.3458589333
H -2.0495152894 5.1281854328 -3.0221870888
H -3.5744306606 4.2596773524 -2.7989123964
H -4.2831657611 7.8429578523 -0.698061816

