# b3lyp 6-31G(2df,p) opt Freq 

 titel

0 1
C 1.4156333724 -0.1251887584 0.7337548833
O 1.7160405035 1.1118262747 1.3840583277
C 0.6628528106 2.0330431094 1.1228582774
C 0.8386010061 2.7806615055 -0.239626768
C -0.1810346165 2.0475865235 -1.1255413748
C -1.4005915495 1.9508316537 -0.1974022269
C -0.6143904598 1.1842950021 0.8729566664
C 0.0678862936 0.0714193417 0.0439207992
O 0.227948516 0.6739957153 -1.2578216569
H 2.1955020872 -0.3746828424 0.0054963057
H 1.3649631872 -0.9254093715 1.4848074045
H 0.6080933798 2.7112544251 1.9766334069
H 0.5897310071 3.8438514887 -0.1551745142
H 1.8643668295 2.6893328917 -0.6019715375
H -0.3311246296 2.4504943078 -2.1270450607
H -1.7716392755 2.9217258251 0.1416003174
H -2.2215519321 1.3754725761 -0.6323239789
H -1.1373796649 0.8442643549 1.7659168599
H -0.497301195 -0.859486203 -0.0631596703

