# b3lyp 6-31G(2df,p) opt Freq 

 titel

0 1
C 1.4565057585 -0.0189212315 -0.1103064024
O 0.0685028972 -0.1066618863 0.1179293398
C -0.3651428696 0.6560391597 1.2181695533
C -1.8521132081 0.4437102188 1.4385876479
C -1.6025330964 -0.6953224774 2.4163854648
C -0.1749379078 -0.0407275917 2.6035935012
C -0.7945412825 0.975983242 3.6063190939
C -2.1195955074 0.6284489478 2.9324928727
O -3.3921974418 0.9858837629 3.3242556238
H 2.0458770675 -0.4166497017 0.7296223222
H 1.675836987 -0.6119318041 -1.0014325935
H 1.7740783911 1.0205998537 -0.2886801892
H 0.0157944682 1.6878996257 1.1348611528
H -2.6579477926 0.5428004996 0.7234536649
H -1.9784833661 -1.7065026378 2.4494738186
H 0.7426540939 -0.572509448 2.8435484309
H -0.7574869543 0.6043413439 4.6360839689
H -0.4343955884 2.0112128569 3.5732246146
H -3.5656823083 0.5842463375 4.1829073148

