# b3lyp 6-31G(2df,p) opt Freq 

 titel

0 1
C -4.696652919 -1.5922804572 0.4689063559
C -3.3951686191 -1.6923511694 -0.3011967534
O -3.249821895 -2.4633271683 -1.2224102858
C -2.2779263879 -0.740648952 0.1198188408
C -2.3397507343 0.5824795043 -0.7092130561
C -0.9305471065 1.1747571517 -0.5803742534
C -0.0022726872 -0.0351162669 -0.4013532707
O 1.1998439608 -0.0080168761 -0.431874575
C -0.8680033959 -1.2724077142 -0.1627303835
H -4.5407504693 -1.9419361556 1.4967020465
H -5.0287325775 -0.5504386592 0.5381987605
H -5.4658159936 -2.2006312788 -0.0078598796
H -2.3926186714 -0.4902294355 1.1812050897
H -2.5493017451 0.3324452578 -1.7551924502
H -3.1276882953 1.256110882 -0.3642000451
H -0.6127051132 1.7924680446 -1.4235501459
H -0.8382219398 1.7917384645 0.3230430015
H -0.8931130524 -1.86425294 -1.0871434602
H -0.4460777482 -1.9070109316 0.619533414

