# b3lyp 6-31G(2df,p) opt Freq 

 titel

0 1
O 1.4820444504 0.9232966946 -0.1594441028
C 0.1898681966 0.4500458737 0.1896567363
C -0.8248272375 1.1835751935 -0.6799457176
C -2.2612851073 0.7308392417 -0.4405546107
C -2.9003317774 1.2447823099 0.8564658765
C -4.3896374096 1.4192119823 0.5064477505
O -4.5874906746 0.9641982246 -0.8316820554
C -3.326471201 1.6207706165 -1.1430570473
C -3.4276494244 2.5002136973 0.1618487192
H 2.1280244718 0.4659199347 0.3864624783
H 0.1037936682 -0.6363029788 0.0223650032
H -0.0261505381 0.6331347069 1.2544990937
H -0.7292141756 2.2604510039 -0.4953735543
H -0.5562868321 1.0151143349 -1.7305048117
H -2.377156801 -0.339162246 -0.6542076822
H -2.5545212745 1.1425742215 1.8775435889
H -5.2071696421 1.3590389518 1.2123721594
H -3.2401175875 1.9391327502 -2.1805107081
H -3.3712540046 3.5564931868 0.3823831041

