# b3lyp 6-31G(2df,p) opt Freq 

 titel

0 1
C 1.373059726 -0.7713861335 0.3051616786
C 0.7632676698 0.4681661586 -0.3725453464
C 1.4624127729 1.7373197786 -0.0254229836
C 1.0737523452 2.8706898656 0.6219784846
C 2.222520252 3.729585845 0.6429212687
O 2.3338831549 4.9787699055 1.1821890168
C 3.2338753561 3.0707452418 0.0127979411
C 4.6440583838 3.4222425648 -0.2828032126
O 2.7660905361 1.844041452 -0.3985446452
H 0.8430497657 -1.6793519332 0.0017271698
H 2.4255724612 -0.8817921623 0.0307583961
H 1.3163168107 -0.6883797221 1.3948033642
H 0.7801064429 0.3269859175 -1.4614833685
H -0.2885809823 0.5744811115 -0.0880700252
H 0.0948310582 3.0726280106 1.0311724239
H 1.4818379412 5.2332395992 1.5460836593
H 4.8481105689 4.4252121527 0.0995247395
H 5.3495165145 2.7274122735 0.1891581111
H 4.8514878723 3.4186059542 -1.359809262

