# b3lyp 6-31G(2df,p) opt Freq 

 titel

0 1
C -0.0434068795 -0.3184897331 -0.1305628939
C 1.4313080337 -0.1088507602 0.0590803963
C 2.3035024381 0.6621995457 -0.8989780924
C 2.6003797703 -0.7945914721 -0.6292242091
C 3.263002723 -1.0784135752 0.7546412696
O 3.8415985666 -2.2993394424 1.042682328
C 3.510212593 0.1723325563 1.5735842827
C 2.1134223493 -0.3766073158 1.4482774709
O 1.389929585 -0.6575916955 2.5910286211
H -0.6265377934 0.4878889297 0.3292726468
H -0.2964992892 -0.3502207364 -1.195004376
H -0.3822490404 -1.2617903043 0.3152066243
H 1.8421675451 0.8539314563 -1.8651205312
H 2.9682519223 1.4584093113 -0.5836193611
H 2.5572117806 -1.5566245805 -1.3984210276
H 4.7842867482 -2.2445652416 0.8477678839
H 3.9274957441 -0.070436879 2.5473499619
H 3.840634135 1.1250188371 1.1718928744
H 0.9377590383 -1.4991813803 2.4650523014

