# b3lyp 6-31G(2df,p) opt Freq 

 titel

0 1
O 0.6369497652 3.5245700795 -0.1996894641
C 0.8922873666 2.9833058656 0.8355288452
C 1.638149843 3.5911411316 2.0004188481
C 3.0253374613 2.9407280277 2.2261219809
C 2.9917446577 1.4263880091 2.503702386
C 2.7256783186 0.5739908458 1.2689615122
C 1.6600402297 -0.5073851215 1.3082400094
C 1.4214541997 0.7473125599 0.5340255803
O 0.5083559094 1.6705294695 1.0897686856
H 1.7480395907 4.6624633428 1.8170209402
H 1.0286163534 3.450278355 2.9007720987
H 3.6669056497 3.1451830252 1.3602450728
H 3.4855886066 3.4518781692 3.0788609375
H 3.9513969776 1.1222703882 2.9365789199
H 2.2346782736 1.221975488 3.2689294875
H 3.5969835778 0.3805936322 0.6490197996
H 1.8128989703 -1.4265809638 0.7539002292
H 1.1085262099 -0.6199348205 2.2352591318
H 1.4027210391 0.7150414566 -0.5520467408

