# b3lyp 6-31G(2df,p) opt Freq 

 titel

0 1
C 1.3347039789 -0.3756173514 -0.1356677498
O -0.055068107 -0.0800617982 -0.0397948764
C -0.3944193657 0.6218766636 1.0741883943
C -1.7101271145 0.6841611438 1.8110797218
C -1.7608525179 2.2062734197 1.7412453097
C -0.2140755352 2.1426560494 1.5902249945
C 0.6175926801 3.2684307764 1.0603543862
O 0.2167801563 1.6369539578 2.8901071055
C -0.3658479751 0.3867700045 2.5473993934
H 1.6796723774 -0.9363591276 0.7420820356
H 1.4659265704 -0.9833341588 -1.033170332
H 1.9342752226 0.5386538301 -0.2297236519
H -2.5170217652 -0.0368555338 1.791917561
H -2.2446830868 2.5500945685 0.8232177024
H -2.1277755488 2.7662276679 2.6071531818
H 0.5223160668 4.1456508476 1.7105818498
H 1.6745542006 2.991069673 1.017289157
H 0.2863175863 3.5501196593 0.0564946362
H -0.1892226434 -0.4775984719 3.172960411

