# b3lyp 6-31G(2df,p) opt Freq 

 titel

0 1
O -5.5388025149 -1.3307528994 3.9702898491
C -4.2924584545 -0.9957164278 3.4316508593
C -3.7356104187 -1.8479380991 2.3232210888
C -4.2165260926 -0.43358382 2.0330118925
C -3.2333192327 0.7164484579 2.0314146305
C -1.7609984643 0.4617182404 2.3200085589
C -2.6879161283 0.8810887928 3.4290390673
O -2.5500072708 2.1652579737 3.9653663759
C -3.3423154209 -0.1824891602 4.3218529519
H -5.4371004238 -2.1468247877 4.4719973545
H -2.6790156827 -2.0892811918 2.2862148275
H -4.3877347326 -2.641847977 1.974276042
H -5.118324188 -0.3324550095 1.4413101186
H -3.4742285222 1.5906114511 1.4386416811
H -1.3583770589 -0.5445679514 2.2840518424
H -1.0786069832 1.2287870537 1.9689156384
H -1.727691334 2.1923095507 4.4664612273
H -2.6145260678 -0.8039573196 4.8577562519
H -3.952008069 0.339776973 5.064914302

