# b3lyp 6-31G(2df,p) opt Freq 

 titel

0 1
C 2.4411598662 -3.5262833337 0.4403149745
C 2.0948734873 -2.2226766984 1.1179315891
C 0.6654042301 -1.7499247066 0.9535665594
O 0.4223647601 -1.5382863648 -0.423828154
C -0.9188168193 -1.1721474847 -0.6861870354
C -1.1111391735 -0.9750523544 -2.1165064474
C -1.2972564139 -0.8063863912 -3.2905879901
C 3.1329076484 -1.2281808492 1.4196910923
O 2.5857070578 -2.05390281 2.4539838657
H 3.4914346581 -3.7804525739 0.6006506919
H 1.8261533677 -4.3397104809 0.8412475494
H 2.2478483033 -3.4531429199 -0.6332439693
H -0.0255990875 -2.5119085983 1.3542626744
H 0.5119213815 -0.8269575897 1.5337885304
H -1.6089819023 -1.9524071351 -0.3216100417
H -1.1780265469 -0.2458496619 -0.1453741387
H -1.4557032842 -0.6584058889 -4.3302231408
H 4.1681832097 -1.438420943 1.1557098245
H 2.8744387272 -0.1717295454 1.4771392362

