# b3lyp 6-31G(2df,p) opt Freq 

 titel

0 1
C 3.0725450942 -2.2710065956 2.99878269
C 2.0306206601 -2.7466605593 1.9658599031
C 2.6091493388 -3.6722596596 0.9933585243
C 3.0961758307 -4.4080521492 0.1767590796
C 1.4131966939 -1.555775546 1.2434313325
O 0.4968895712 -0.7675960909 2.0009044305
C -0.0072018151 -1.5043104586 0.8798794163
C -0.5359338175 -0.7013868105 -0.2929409851
O 0.3995133187 0.1922361783 -0.8632604401
H 3.4858932677 -3.1187846491 3.550419794
H 3.8982601413 -1.7516979698 2.5033190489
H 2.5997516185 -1.5833960931 3.7048662383
H 1.2214419018 -3.257745744 2.5034952618
H 3.5219059394 -5.0722381624 -0.5340489568
H 2.1143175937 -0.9663454976 0.6525603901
H -0.6358254054 -2.3543121115 1.1561680667
H -0.9398551736 -1.4043216691 -1.038519588
H -1.3719788831 -0.0842852711 0.0555305088
H 1.0371136049 -0.325895011 -1.3641782148

