# b3lyp 6-31G(2df,p) opt Freq 

 titel

0 1
C -0.188279599 1.2990752349 -0.0056415963
O 0.1626263452 -0.0636260561 0.0468939589
C 0.7448194092 -0.5549399978 -1.1359122391
C -0.3413811994 -0.9592561082 -2.2038313105
C -0.7345623613 -2.3743165802 -1.7784610466
C 0.2735907427 -2.8961655856 -1.0927498069
C 0.697402001 -3.6315348495 0.1537073668
O 1.5367999878 -2.4849020044 0.4984981794
C 1.3867298779 -1.9358236159 -0.8462130191
H 0.685110884 1.933909854 -0.2230116222
H -0.9609345378 1.5107147095 -0.760403161
H -0.5829144955 1.5658442285 0.9776912747
H 1.4628385077 0.1765717364 -1.5373752839
H -1.1935917024 -0.2723884895 -2.1793460729
H 0.0723814165 -0.9104816189 -3.2202020402
H -1.7264637638 -2.7849026747 -1.9231079046
H -0.0783383128 -3.8276368638 0.9014536529
H 1.3069394044 -4.5329618554 0.0078867303
H 2.3194545458 -2.0653298334 -1.4129017698

