# b3lyp 6-31G(2df,p) opt Freq 

 titel

0 1
C -0.9105731996 -0.8690009747 3.0123401983
C -1.4465196828 0.268683629 2.1788737153
C -2.8863615669 0.7054848734 2.3684562605
C -1.7540211234 1.6326276416 2.7723692345
O -1.5060251838 1.9090125856 4.1167831102
C -1.3673237003 2.6269666667 1.7269398297
C -0.9337101128 2.0276164796 0.6153792214
C -0.8562944236 0.5226712763 0.7749353581
O 0.4694363267 0.0318171012 0.6064635459
H -1.2267899329 -0.7573359721 4.0527619987
H -1.2674612571 -1.8361978649 2.6420555875
H 0.1817148093 -0.8917952963 2.9871378142
H -3.4912347834 0.9757352833 1.5080285006
H -3.4236296729 0.2095538377 3.1727647695
H -2.2917600803 2.3191499697 4.4924130706
H -1.4859514149 3.6950581721 1.8745026403
H -0.6504322734 2.5161344604 -0.3095356559
H -1.4429930814 -0.0011972911 0.0105223355
H 1.0498065235 0.6045912426 1.120784405

