# b3lyp 6-31G(2df,p) opt Freq 

 titel

0 1
C -3.0310682702 -1.166969742 1.2420690008
C -2.4092727082 -0.8782911324 -0.1295730367
C -0.9381492293 -1.3355373406 -0.2069409699
C -0.1213987762 -0.1403487307 0.2991316954
O 0.962415512 -0.1844324222 0.821164694
C -0.9277479603 1.1298936495 0.0325272056
C -0.8273783321 1.6069230795 -1.4375979111
O -2.0626085834 0.9486090155 -1.7787116174
C -2.3307602501 0.6351692709 -0.389670988
H -3.0523242992 -2.2424200587 1.441658282
H -2.4588301877 -0.6958364029 2.0507030179
H -4.0577758817 -0.7914434255 1.2987863114
H -3.0163699297 -1.3417122958 -0.9136125171
H -0.7073409808 -2.2377420745 0.3631772634
H -0.6433119538 -1.5178177259 -1.2479093164
H -0.7975949114 1.8808142336 0.8099392455
H -0.897645162 2.6960414061 -1.5491212853
H 0.0213111569 1.2402216564 -2.026517049
H -3.2038200627 1.1831814697 -0.017384465

