# b3lyp 6-31G(2df,p) opt Freq 

 titel

0 1
C -2.6061366607 0.6197142382 2.5006792014
C -2.6437159842 -0.2056518632 1.225301391
O -1.6091501093 -1.2223904332 1.2702694286
C -0.9585877349 -1.2303200927 -0.0181259002
C -2.0481681277 -0.7513118269 -0.9803153722
C -2.3715975182 0.4980864471 -0.1198739153
C -0.9948445224 1.1953780121 -0.0682994939
C -0.0280900291 -0.0047829628 0.0325103419
O 1.1665572666 0.0236962003 0.147668545
H -2.7681308622 -0.0310225277 3.3646150954
H -1.6440738099 1.1191698067 2.6378313372
H -3.3991030006 1.3749784479 2.4910037888
H -3.619305257 -0.711888552 1.1673046038
H -0.4732053593 -2.1913270272 -0.176860192
H -1.6707827448 -0.5100875431 -1.9783183964
H -2.8793425822 -1.4555487126 -1.0628031005
H -3.1949783545 1.1234871585 -0.4661237408
H -0.7911016899 1.7361226791 -0.9994245217
H -0.8502728798 1.8998319616 0.7528529799

