# b3lyp 6-31G(2df,p) opt Freq 

 titel

0 1
C -0.8652845812 -2.4527973499 -0.4559976011
C -1.1165933485 -1.0243809319 -0.0488400189
C -1.8302011969 -0.7338265549 1.2963059865
C -1.8326635975 0.8386107311 1.2937468901
C -1.1247381236 1.1039816331 -0.0544188292
C -1.8113191236 0.0418034515 -0.9871504287
O -3.1986438227 0.0309660082 -1.164206856
C -0.0109806957 0.0458445662 0.0165197158
O 1.1847578772 0.0410355317 -0.0163339941
H -0.307718205 -2.990378434 0.3182456104
H -1.8084673129 -2.9848375727 -0.6217155893
H -0.2807612332 -2.5024296012 -1.3798453961
H -2.8375179923 -1.1638871757 1.3171232885
H -1.2834603507 -1.1525203438 2.1449625463
H -2.8409153402 1.2648806734 1.3176375717
H -1.2844725302 1.2616700637 2.1383251084
H -0.9451442226 2.1323384416 -0.3589050848
H -1.3764533777 0.0366395974 -1.9888602206
H -3.6309349028 0.080291906 -0.3058443689

