# b3lyp 6-31G(2df,p) opt Freq 

 titel

0 1
C -0.2148245484 0.1884907882 -0.0349718629
C 1.2913147685 0.0091818121 0.0340633668
C 1.9231523611 -0.8160353321 1.1883018307
O 1.2414967467 -2.0736198923 1.1067300711
C 1.7362977105 -2.4561608301 -0.1915562771
C 3.2467756536 -2.6418690725 0.0741135049
C 3.1747354593 -1.1136203599 0.2369966929
O 4.2481512391 -0.2378477758 0.2103208399
C 2.0323506328 -1.0299324273 -0.8279748269
H -0.5615196529 0.9050026251 0.7182631197
H -0.5193653827 0.5683941217 -1.0162510664
H -0.7267672442 -0.7606458013 0.1412815148
H 1.8216922008 0.9624402594 -0.0582422503
H 2.0009480257 -0.4701597829 2.2195731081
H 1.1054805552 -3.212743954 -0.6516595553
H 3.5260474345 -3.2820430274 0.9151659023
H 3.8068387301 -2.900279241 -0.828375436
H 4.7013719212 -0.2825572192 1.0596674818
H 2.2066285292 -0.9586066007 -1.9002749281

