# b3lyp 6-31G(2df,p) opt Freq 

 titel

0 1
O 0.4153761109 -0.0247885174 0.4523076819
C -0.8017272199 0.5548322202 0.8598197897
C -2.0933786257 0.0933099681 0.1097446555
C -3.3876004489 0.2265580556 0.9291759378
O -3.5368539159 1.6200187827 0.5689266653
C -2.379503858 1.5697585377 -0.295532167
C -1.0803808857 1.996002319 0.3798104075
C -0.7707380231 3.2970659341 1.0510569567
C -0.0397871501 2.9144792812 -0.2100833669
H 0.553458198 0.2016402035 -0.4743183392
H -0.8476035002 0.4066976715 1.9436102167
H -1.9831363572 -0.7419297154 -0.5806144194
H -4.2298434871 -0.370977601 0.5587572996
H -3.2957015322 0.0808399484 2.0134208112
H -2.5995860519 1.9423310374 -1.3006021666
H -1.5211515948 4.0788493859 0.9993175818
H -0.2215253646 3.2622263124 1.9865181629
H -0.2838208245 3.4372932362 -1.1296070716
H 0.9982960609 2.6093897898 -0.1226223556

