# b3lyp 6-31G(2df,p) opt Freq 

 titel

0 1
C -0.0140819487 -0.0119844642 0.3774222029
C 1.17280537 0.0378699944 0.198021615
C 2.615065383 0.0767755962 -0.0074437798
C 3.0977106096 -0.8486872492 -1.1306667713
C 4.6261085624 -0.9358909229 -1.2182145703
C 5.007499721 -1.7089158194 -2.4842629281
O 4.3711868761 -1.1458101645 -3.622958584
C 2.9792461174 -1.1128823393 -3.4540193078
O 2.581528274 -0.3359909639 -2.3549741351
H -1.0641183378 -0.0463224741 0.5300541475
H 2.9336897689 1.0982868347 -0.2483574968
H 3.128974373 -0.2060312083 0.9199224018
H 2.6872101164 -1.8594665072 -0.9639284577
H 5.0421200205 0.0765479575 -1.2703254073
H 5.0364694102 -1.4315480841 -0.3311030355
H 6.0829241689 -1.6698448863 -2.6745786107
H 4.7173051205 -2.7686300649 -2.3788936468
H 2.5572818071 -0.6451708396 -4.3453770341
H 2.5913776377 -2.1442232648 -3.3410960321

