# b3lyp 6-31G(2df,p) opt Freq 

 titel

0 1
C -2.4341392854 -4.5565038173 -0.7036148041
C -1.4184922735 -3.4506590784 -0.3711086899
C -1.8924645819 -2.0798841932 -0.9172170067
C -0.9424318876 -1.00969218 -0.6375741579
C -0.130610626 -0.1579334793 -0.3788840641
C 0.8879583489 0.8278855441 -0.016511299
O 2.1731891894 0.2581350913 0.1829359368
C -1.2434595688 -3.3690079353 1.1346560822
O -0.2512339488 -3.6820371975 1.7373727244
H -2.0728339633 -5.533478553 -0.3712412655
H -3.3989573727 -4.3683911603 -0.2186254953
H -2.6067933486 -4.6058749866 -1.7830514403
H -0.4414354551 -3.6943496116 -0.7982525281
H -2.0605823177 -2.1721354601 -1.9971554757
H -2.8696218523 -1.8363504976 -0.4768751939
H 1.0076464996 1.5618722329 -0.8213415667
H 0.5531304532 1.3857563196 0.8729292895
H 2.0697659949 -0.480292581 0.7929309709
H -2.1515384243 -3.0001333068 1.6717063636

