# b3lyp 6-31G(2df,p) opt Freq 

 titel

0 1
C 1.4264647191 -0.0869514391 -0.0720454253
O 0.0246462396 -0.0099937386 0.0405486226
C -0.3918181463 0.725660146 1.1653974242
C -1.9293820655 0.7290024848 1.2036127839
C -2.517251528 1.3320941375 -0.0979435511
C -2.4135677219 1.5980101123 2.3763382474
O -1.6960748953 2.2569327388 3.0795645853
C -2.4674696771 -0.6130006751 1.4288050045
C -2.9503390384 -1.6889343707 1.6619506389
H 1.8777736463 -0.5837091744 0.8006938217
H 1.6494132409 -0.6718774287 -0.9673465074
H 1.8831517824 0.9101100037 -0.1736601722
H 0.0022796309 0.2876636753 2.0943882483
H -0.0343991469 1.765595949 1.1156788264
H -2.2145888901 0.7183123171 -0.9469330018
H -3.6091848039 1.3623842115 -0.0544635441
H -2.1401315557 2.3490029783 -0.2449612261
H -3.51591949 1.5741744859 2.5177470971
H -3.3580375401 -2.6517756635 1.8489507777

