# b3lyp 6-31G(2df,p) opt Freq 

 titel

0 1
C -0.9747587666 2.0302127777 -1.19320488
C -1.0664559933 1.119450186 0.0282250221
C -2.2283285708 0.1005112274 0.0594454909
C -2.0882152088 -0.7775194324 1.2516998565
C -1.2376078366 -1.1057873467 0.0340641124
C -1.1842650774 -2.4379274479 -0.6680939791
O -0.1068501284 -3.2168800057 -0.1752231201
C -0.1309745241 -0.1140047852 -0.0826727466
O 1.0183556028 -0.2450137694 -0.4222535687
H -1.097368422 1.4628999456 -2.1218219155
H -1.7476230284 2.8043224213 -1.1625597678
H 0.0021975063 2.5198468286 -1.2281121134
H -0.967375943 1.7027259331 0.9508735344
H -3.1421411721 0.1897571734 -0.5143439072
H -1.6321064886 -0.396850292 2.1620882677
H -2.8815451327 -1.4991807641 1.4225683435
H -2.0995559197 -3.0135670552 -0.4954143513
H -1.0930594863 -2.2790271022 -1.7544416394
H 0.6927676698 -2.6928892425 -0.3120675184

