# b3lyp 6-31G(2df,p) opt Freq 

 titel

0 1
C -2.510243863 -0.9405013286 -2.4525429129
C -2.8103194573 -1.0996962009 -0.9845405357
C -1.3948149987 -1.2512490014 -1.4911443346
C -0.3702007174 -0.1893145201 -1.1616685696
O 0.6555905604 -0.0844615096 -2.1596854723
C 1.8358830324 -0.7633572776 -1.743171213
C 1.7423096386 -0.8623591258 -0.2382106834
O 1.4577246708 0.3956584863 0.3812047723
C 0.3711340422 -0.499199658 0.1258435318
H -2.8316287053 -1.7211366758 -3.1324957318
H -2.5449113514 0.0584429733 -2.8743257935
H -3.0528462803 -0.2068329734 -0.4169057239
H -3.3353895086 -1.9888541743 -0.6544850704
H -0.9980430888 -2.2630427323 -1.5204710473
H -0.860576192 0.7922090967 -1.117752057
H 1.9040389585 -1.7733957502 -2.1787508686
H 2.6976341944 -0.1800406154 -2.0854438265
H 2.3603652972 -1.5554016448 0.3257844536
H -0.1553742017 -0.8886837683 0.9923328928

