# b3lyp 6-31G(2df,p) opt Freq 

 titel

0 1
O 2.4206308537 0.0113441789 1.4643535312
C 1.5256481272 0.2993796593 0.7154980947
C 0.0577327034 0.0885311246 1.039506194
O -0.7045785562 0.6380203753 -0.0154538953
C -2.064722382 0.4219083237 0.1000084393
C -2.6893209841 -0.9059335827 -0.2291210507
C -3.0784066367 0.3257700281 -1.0232533645
C -4.0727574629 1.1643104413 -0.2090349677
C -3.0110051825 1.2924307147 0.9371984671
H 1.7009858758 0.7421606696 -0.2897948369
H -0.1297413687 -0.9911669238 1.1530225054
H -0.1670940304 0.5627165633 2.0069141517
H -2.0291746718 -1.5869732296 -0.7570367724
H -3.4030273106 -1.3854252694 0.4380072232
H -2.9251771298 0.3770120211 -2.0938072521
H -4.3089774782 2.1270105819 -0.6662651541
H -5.007903862 0.6601136825 0.0536608869
H -2.6412646177 2.3157332795 1.0347036449
H -3.2879227463 0.9153257616 1.9267809752

