# b3lyp 6-31G(2df,p) opt Freq 

 titel

0 1
C 0.7090115269 1.3201741099 -0.0536542531
C 1.5069920128 0.0322376658 -0.0371456199
C 0.0162203376 -0.0226149484 0.0648051308
O -0.6311641174 -0.5170238194 -1.073301501
C -2.0101350967 -0.1730859023 -1.1006566306
C -2.7898484572 -0.8913081528 0.0077921457
C -2.0625734187 -0.7917080828 1.3388157363
O -1.0075496457 -1.7395265158 1.5470316875
C -0.6508981001 -0.3698062821 1.357582068
H 0.7511451678 1.9704801309 0.8139269892
H 0.6082772027 1.8299548244 -1.0047510169
H 1.9296702451 -0.303899352 -0.9767600901
H 2.0931200557 -0.2097363384 0.8423614909
H -2.123737087 0.9173496438 -0.9954597484
H -2.376388945 -0.4587945629 -2.0902275303
H -3.7908950266 -0.4538310085 0.0920401122
H -2.9131529752 -1.950492601 -0.2414835912
H -2.6743296588 -0.6145801629 2.2230909951
H -0.2446144302 0.1257819543 2.239811636

