# b3lyp 6-31G(2df,p) opt Freq 

 titel

0 1
O -2.7943594829 0.0342784715 -1.2045854602
C -2.0438359983 -0.0365143309 -0.0079928411
C -0.8921851868 -1.1062614485 -0.0077476896
C 0.0957451224 0.0378670183 0.2657825275
O 1.2433812483 0.076318183 0.6025712485
C -0.9793593772 1.1040835611 0.0258330456
C -2.9148203442 -0.084382072 1.2326355023
C -4.2488332917 -0.7875419001 1.2394961714
C -4.1837820679 0.7201343903 1.3105301856
H -3.2500061079 -0.8058831406 -1.3235507023
H -0.9310377677 -1.9073935324 0.7349198991
H -0.7385433902 -1.538691109 -1.0020952048
H -1.0854181316 1.8771036685 0.7905188794
H -0.8744726977 1.5776673859 -0.9552858568
H -2.3395521743 -0.1635172734 2.1519136191
H -4.6185912287 -1.223607238 0.3169095225
H -4.5293721181 -1.3421829389 2.1277160769
H -4.4737654229 1.2632939604 0.4184930061
H -4.4332202627 1.2070720347 2.2463123307

