# b3lyp 6-31G(2df,p) opt Freq 

 titel

0 1
C -1.7488303754 -0.0835021906 0.6561605241
C -0.2134998574 -0.1743042068 0.6456189802
O 0.2421698066 -1.1348893101 1.5981772459
C 0.3772605222 1.1485262485 0.9288350915
C 0.8560489467 2.229142293 1.153425016
C 0.2844339395 -0.6413341213 -0.7323558958
O -0.0815439338 0.2353005579 -1.7614871732
C 0.2543796756 -2.0916173502 -1.0894882232
C 1.582403577 -1.3878288809 -0.8619266795
H -2.1048960799 0.31069062 1.6130089697
H -2.0953499847 0.5718589596 -0.1448869411
H -2.1637944668 -1.0832729108 0.5046387243
H 0.0029628572 -0.8148764482 2.474130011
H 1.2815350935 3.1795076881 1.3645745007
H 0.405032309 1.057450987 -1.6212747191
H -0.0748785267 -2.7956053309 -0.3351991645
H -0.0264708912 -2.3272147471 -2.1094206311
H 2.1306663148 -1.6259026124 0.0406973261
H 2.1817791939 -1.158446105 -1.735711982

