# b3lyp 6-31G(2df,p) opt Freq 

 titel

0 1
C -1.3759658215 2.4306823432 2.2446903611
C -1.3067799783 2.231076704 0.764307649
C -2.4294827756 1.9017408479 -0.257739974
C -1.1452437585 2.2686717087 -1.0314249936
O -0.92816046 3.3958984114 -0.0934555305
C -0.3235861461 1.3807967285 -0.0823470687
C 1.1992602021 1.4304339048 0.0558597601
O 1.2686099504 -0.0158656262 0.0464940882
C -0.1600288316 -0.1465965234 -0.0966859676
H -1.6675086448 1.498607961 2.7392430446
H -0.4039558572 2.7429953019 2.6386298736
H -2.1135474641 3.1995222993 2.4930178892
H -2.7944783303 0.8720813601 -0.3116546951
H -3.2290244294 2.6417358836 -0.3157167511
H -1.0018801454 2.4648276616 -2.0942122734
H 1.7414212123 1.8754439832 -0.7872265224
H 1.5858194729 1.854489577 0.990927185
H -0.4384650167 -0.6513886794 -1.0314224664
H -0.6121749684 -0.688104007 0.7453369022

