# b3lyp 6-31G(2df,p) opt Freq 

 titel

0 1
C 1.3697772285 0.8761152105 0.285680019
C -0.0300480018 0.3519676352 0.3008396482
C -1.1450955347 1.0164608404 -0.024220998
C -2.3991786246 0.1961885201 0.1110557198
C -3.2894022373 0.0797234134 -1.1473584897
O -4.4553882995 -0.6665088292 -0.8926044668
C -1.8475050682 -1.181378994 0.5004917524
O -2.4971196911 -2.2004770172 0.5507864805
C -0.3390790978 -1.0646833851 0.7282958977
H 1.8238512278 0.8231192664 1.2834051563
H 2.0086158992 0.2795361303 -0.3778315983
H 1.4052791029 1.9159366854 -0.0502598644
H -1.1629593326 2.0513356915 -0.3504663326
H -3.0519777567 0.5571078237 0.9199520337
H -3.6066598941 1.0795219776 -1.4637679227
H -2.6936035979 -0.3491814783 -1.9706898965
H -4.1651009186 -1.4960989116 -0.4866644625
H -0.10425811 -1.253300695 1.7857982963
H 0.1972387865 -1.8348074539 0.1594679778

