# b3lyp 6-31G(2df,p) opt Freq 

 titel

0 1
C 0.7173035431 -1.8933290604 2.2726313895
C 0.7974672799 -0.424339662 1.8046290789
C 1.837755635 -0.1764126953 0.7287750755
O 1.4523558049 0.7127327664 -0.3294912678
C 1.6112375808 -0.6715573367 -0.6405675229
C 0.3481625064 -1.4290258098 -0.9564287611
O 0.5157131747 -2.785250746 -1.3697384103
C -0.0700606857 -2.5397897881 -0.0830070428
C 0.7756391398 -2.9170404033 1.1184960384
H 1.5344305022 -2.1172703754 2.9679741333
H -0.2081753618 -2.0178028331 2.8465123906
H -0.1674474872 -0.1183171222 1.3889545155
H 0.9853767603 0.2295579123 2.6630526385
H 2.8688881187 -0.0477264743 1.0602858149
H 2.4643006839 -0.9036112876 -1.2787682149
H -0.4026837866 -0.8686407118 -1.5141649434
H -1.1340465363 -2.7739430604 -0.0301444445
H 0.4830556287 -3.9070589452 1.4846119281
H 1.8063928391 -3.0115472671 0.7633766445

