# b3lyp 6-31G(2df,p) opt Freq 

 titel

0 1
O 0.7573684515 0.0325809267 0.9368612502
C -0.5989053297 0.4343058704 0.8761586568
C -1.4319261281 0.1605516318 2.1723465586
C -1.447305473 1.6861212194 2.518325824
C -2.7411527726 2.4606798929 2.1456725476
C -2.1733233672 2.6603529872 0.7208500507
O -1.4367020665 3.8948868124 0.5567364821
C -0.157923547 3.2125116104 0.6574344548
C -0.8513794877 1.928488145 1.0852087914
H 1.1402568825 0.3793945853 1.7503526667
H -0.9806369694 0.0049595253 -0.0547752874
H -2.420376762 -0.2744190658 1.9991060183
H -0.8990415637 -0.4715402712 2.887866188
H -0.9255729599 1.9667688778 3.4354790908
H -3.6672977411 1.8813390172 2.2150323912
H -2.8760619593 3.4117459939 2.6659649468
H -2.7968364309 2.4330082498 -0.150423422
H 0.3434531284 3.1541920643 -0.3187048006
H 0.5141817355 3.6943259071 1.3779010923

