# b3lyp 6-31G(2df,p) opt Freq 

 titel

0 1
C 0.6477049794 1.4780620253 1.0108019984
C -0.4264238446 0.4980098373 0.6622734779
C -0.435274769 -0.8194815531 0.8852316162
C -1.7050891317 -1.478124312 0.4078359008
C -1.8647457367 -1.1742858805 -1.0916583084
O -1.8547548464 0.2437540436 -1.2752847055
C -1.7086692189 0.9331443824 -0.0204922084
C -2.8918631011 0.5173897175 0.8703191498
O -2.8443591063 -0.894946632 1.0737336657
H 0.2725185465 2.2637848109 1.6790449258
H 1.4912659774 0.9883872341 1.5052114042
H 1.0226817812 1.9848014233 0.1126510491
H 0.3711099135 -1.3779036931 1.3483183025
H -1.751344481 -2.5491399078 0.6081812627
H -1.0515857735 -1.625211086 -1.6756795736
H -2.823357001 -1.5719512715 -1.448459356
H -1.7381449376 1.9993506003 -0.2535880548
H -2.8556038283 1.03311042 1.8398578414
H -3.8345367818 0.7727496715 0.3695524521

