# b3lyp 6-31G(2df,p) opt Freq 

 titel

0 1
C 0.1674420656 1.6616555563 -1.3221236093
C 0.5046369119 1.999957127 0.149075007
O 0.2871353241 0.59041013 0.4781978491
C -0.7458540403 0.676050154 -0.5571596659
C -1.7911500377 1.611100279 0.093799012
O -2.5042738365 1.0513695987 1.1730778527
C -1.8000938434 1.2905896632 2.3930836364
C -1.0217952512 2.6047212358 2.1885003329
C -0.785309381 2.6685597469 0.6702848292
H -0.2831015005 2.4294700961 -1.9570902487
H 0.9874961055 1.1515131274 -1.8281694659
H 1.4701616677 2.3862004527 0.4770305785
H -1.0730472749 -0.2891007567 -0.9417673287
H -2.5164359474 1.9920467664 -0.6316004594
H -2.5459434934 1.3533501211 3.1918782165
H -1.1161865954 0.4633924505 2.6082298484
H -1.6236744228 3.4606992466 2.5069703062
H -0.0908627967 2.6186943874 2.7625295748
H -0.9171506336 3.6738775274 0.2653360943

