# b3lyp 6-31G(2df,p) opt Freq 

 titel

0 1
C 0.2273425969 -0.4052397432 -0.3568850478
C 0.8732884627 0.721476038 0.4241531555
O 2.2095390278 1.01786349 -0.0556202589
C 2.7658048575 0.8547204456 1.2778932259
C 3.0493683827 2.1535172611 1.9806089472
C 2.1120260157 2.4493391038 2.8805775857
C 1.0344522676 1.394183255 2.9824092688
O 1.0968438331 0.8119902769 4.283263411
C 1.3974090991 0.4139634767 1.848701357
H -0.7697929252 -0.6263276613 0.0406282508
H 0.1208602251 -0.1266417275 -1.409930664
H 0.83540265 -1.3135286488 -0.3029429691
H 0.2409939046 1.6213454498 0.3848447684
H 3.6114058174 0.1590809698 1.2607890168
H 3.9108995007 2.7678541626 1.7437322434
H 2.092532727 3.3317194447 3.510500881
H 0.0358552358 1.8331930514 2.8213667805
H 0.3182418529 0.2571224186 4.3956812704
H 1.2939534088 -0.627847323 2.1561649673

