# b3lyp 6-31G(2df,p) opt Freq 

 titel

0 1
C 1.4006154782 -0.1054798 1.139772499
C 0.9058731503 0.3337259449 -0.2463795738
C 1.6205987084 -0.3772755232 -1.3605623362
C 1.1671644818 -1.6856374689 -1.975797182
O -0.1182656679 -2.1499582471 -1.6840463631
C 1.3130007921 -0.4739960904 -2.8669258933
C 2.8077171672 -0.1622032057 -3.1619991135
O 3.6379970419 -1.1581648102 -2.5425988369
C 3.1129646036 -0.0900127307 -1.7368108889
H 1.2234369402 -1.1741261397 1.2922925169
H 2.47489884 0.0743575682 1.2540839084
H 0.8850111648 0.443964677 1.9333085691
H -0.1700664856 0.1361376374 -0.3218503247
H 1.0234406314 1.4200167635 -0.3573392233
H 1.8512537649 -2.5188228842 -2.0683633722
H -0.7550572991 -1.4452737248 -1.838896446
H 0.480372751 -0.0566448572 -3.4220274184
H 3.2129140208 0.361354438 -4.0196137015
H 3.823612426 0.5054528332 -1.1747231296

