# b3lyp 6-31G(2df,p) opt Freq 

 titel

0 1
C 1.7238719556 2.5249937022 0.7933468389
C 1.9016295571 1.062105829 1.0392269925
O 1.0099873086 0.4109823334 1.9534480084
C 1.1293332153 -0.1442965183 0.6356219378
C -0.1196216371 -0.3635420816 -0.1537981064
C 2.4425076035 -0.9922226763 0.6290479462
O 2.7573985431 -1.6953068328 1.8396950149
C 3.5243973173 -0.5685841704 2.34182275
C 3.2326967458 0.2585447385 1.0679181088
H 2.0825558858 3.1077079566 1.6497574176
H 2.2891553397 2.8423554435 -0.0889616932
H 0.6683935821 2.7653411819 0.6402714957
H -0.6767923941 -1.2207911955 0.2408099071
H -0.7701717865 0.5140454786 -0.1046435127
H 0.1144838533 -0.5680860356 -1.2036389264
H 2.6400454117 -1.5645177259 -0.2819626056
H 3.1145438859 -0.1786302811 3.2775537077
H 4.5780916546 -0.8411001547 2.4720743841
H 4.0641215983 0.6605726586 0.4914875243

