# b3lyp 6-31G(2df,p) opt Freq 

 titel

0 1
C -0.8292383945 -0.5367444469 3.2355056959
C -1.431398343 0.4054089091 2.2209486484
C -2.8911682015 0.7582203516 2.2919864899
O -3.7458510153 0.7637908842 1.1934469439
C -1.8543266187 1.8486839673 2.5589433433
C -1.4922638241 2.6546740721 1.366249949
C -0.9915216906 1.9003833701 0.3779855848
C -0.818996312 0.4566664291 0.8031969627
O 0.5376123852 0.0305318939 0.7413810649
H -1.334358763 -0.4393098498 4.2016976584
H -0.9244834866 -1.57840128 2.9106086376
H 0.2357428986 -0.3394291423 3.3907504591
H -3.4264234623 0.3928246336 3.1640911208
H -3.361830007 1.3422340818 0.5209045065
H -1.7806175863 2.2749044596 3.5541025714
H -1.6801139093 3.7213003996 1.3035569354
H -0.699619868 2.2448621372 -0.6074956205
H -1.353047798 -0.2326585622 0.1376048416
H 1.0679447564 0.7039158019 1.1821989867

