# b3lyp 6-31G(2df,p) opt Freq 

 titel

0 1
C 0.2686684523 1.1509026999 0.5991891319
C 1.6695526254 0.6623800575 0.3442874189
O 1.8462936986 0.2057832031 -1.0221694584
C 3.0051674391 1.0463367267 -1.2191768047
C 2.9896251511 1.5146657466 0.2404871691
C 3.6762084421 0.5218470358 1.1928678061
O 3.5620137729 0.9281077035 2.5694762905
C 2.4136666746 0.0738954905 2.7804685303
C 2.3724834833 -0.3351422918 1.2995338728
H 0.1565691977 1.5457437491 1.6130140052
H 0.0036686238 1.9401132345 -0.1103082148
H -0.4431215185 0.3275498958 0.4699169829
H 3.8850815153 0.4747057504 -1.5425249607
H 2.8070834029 1.8348324316 -1.9561743514
H 3.0851283921 2.575255361 0.4688963173
H 4.6753661923 0.1522649161 0.9425742143
H 2.6530555223 -0.7508429338 3.464026576
H 1.5529672379 0.6227839485 3.1810099461
H 2.2796573246 -1.3898453949 1.0453164985

