# b3lyp 6-31G(2df,p) opt Freq 

 titel

0 1
O 1.3925158356 -0.2247466665 -0.1765184833
C 0.2248795782 0.0342518115 -0.0467331813
C -0.3800787031 1.419732387 -0.1471571454
C -1.0575088357 1.7928287663 1.1872502309
C -1.7421056702 3.1718758821 1.1150506753
C -2.6902626308 3.2771295968 -0.0719827495
O -3.8230104944 3.6840507984 0.0322759136
C -2.0947413749 2.8351692568 -1.4020803478
C -1.4057299289 1.4603426481 -1.2983488227
H -0.5214054933 -0.7692143928 0.1659520375
H 0.4410780672 2.11567106 -0.3553325665
H -1.8067904681 1.0294564826 1.4365186953
H -0.3228809856 1.7876926031 1.9991733166
H -2.2981638855 3.3945561562 2.028655789
H -0.9719099236 3.9468555062 0.9946500112
H -2.8845335446 2.8346803132 -2.1568590002
H -1.3491621621 3.5866384111 -1.6982159763
H -2.1664016975 0.6860880556 -1.1304132018
H -0.9179346228 1.2194920044 -2.2485929845

