# b3lyp 6-31G(2df,p) opt Freq 

 titel

0 1
C 1.1972884117 -0.3790728104 1.0308999387
C 1.2348834534 0.263143519 -0.3456601112
C 2.1359728545 -0.3190228672 -1.4551374105
C 1.9660172733 1.0724746975 -2.2082855012
C 2.1091352515 1.5077355903 -0.7268173654
O 2.2477646583 2.6399246737 0.1487546729
C 3.346789531 1.9277086862 0.831389209
C 3.5152406519 1.0612336924 -0.4606743798
O 3.4513256276 -0.3259970581 -0.8059695244
H 0.5025509205 -1.226080078 1.0328812796
H 2.1796400994 -0.7510920138 1.3284790723
H 0.8445400652 0.3328411979 1.7846149075
H 0.21996534 0.4267917003 -0.7204595588
H 1.9627289958 -1.2696730923 -1.9539334313
H 2.7459473487 1.3894950872 -2.9020107971
H 0.975101354 1.1446074562 -2.6591020358
H 4.1717343684 2.6064678718 1.0596165163
H 2.9970834287 1.4257746095 1.7351741376
H 4.2642890961 1.5510430178 -1.0913032885

