# b3lyp 6-31G(2df,p) opt Freq 

 titel

0 1
O 0.4181255223 1.0297654638 0.1541713036
C -0.7496156288 0.7355825978 0.8537793773
C -1.7182247109 -0.3048533681 0.3085349795
C -2.0606920374 1.1576663756 0.2441997267
O -1.9538826775 1.7496479854 -1.0428537052
C -2.3873679371 3.1162490691 -0.939809249
C -3.391025692 3.142975207 0.1969734565
C -4.4399245055 2.0606325358 0.1951061858
C -3.1596077203 1.8654409547 0.9721589887
H 0.1316902799 1.4219232237 -0.6831721569
H -0.6087899916 0.8023127178 1.9290941622
H -1.4381464577 -0.7842370409 -0.6238407274
H -2.270249548 -0.9298105608 1.0031015248
H -1.5394561491 3.7794434402 -0.7141558355
H -2.7971628388 3.3917806284 -1.9168817126
H -3.5847630649 4.0861523841 0.6932791451
H -5.3435399569 2.2460061491 0.7648928985
H -4.5827371184 1.4778921578 -0.7095798335
H -3.1736651872 1.8356514594 2.0547487316

