# b3lyp 6-31G(2df,p) opt Freq 

 titel

0 1
O 0.1436885528 1.4144978066 0.0312714542
C 0.0636674966 -0.0016087144 0.0015031437
C 0.5443394491 -0.5677490964 -1.3688483898
C -0.7403224784 -0.6143312163 -2.1803788218
C -1.7938719184 -0.6124349296 -1.3662805476
C -3.2823075786 -0.4671780154 -1.4452485086
O -3.6893299883 -0.0839431028 -0.1255101717
C -2.5453692128 0.3042804207 0.6510239512
C -1.3916008915 -0.5302350116 0.0890146757
H -0.3104910435 1.7455195508 -0.7526820512
H 0.6844909669 -0.3389211521 0.8350234277
H 1.3201451466 0.0740797681 -1.8004024615
H 0.9862418502 -1.5673919991 -1.2518318381
H -0.7606013409 -0.635707118 -3.2641841325
H -3.5830078671 0.2927656796 -2.181902468
H -3.8007074994 -1.4004129814 -1.7015936286
H -2.3360157483 1.377487522 0.5405222636
H -2.7865363856 0.1038593937 1.6978199065
H -1.3958083595 -1.5283002444 0.5494777868

