# b3lyp 6-31G(2df,p) opt Freq 

 titel

0 1
O 0.2261786637 -0.1417240466 0.2401218537
C -0.9249454798 0.393934135 0.868642664
C -2.1219202795 0.2342731967 -0.1456640278
O -2.9975315604 1.3846815129 -0.0488637122
C -2.4186876205 2.192918699 0.9192724241
C -2.5858899245 2.0416426433 2.4722013918
C -1.3079696308 2.8803977517 2.2319253908
C -2.1355525502 3.6995410278 1.1593024576
C -0.9285797026 1.9167840484 1.046984893
H 0.9492360233 -0.117001969 0.8743034745
H -1.1443205231 -0.153990929 1.7926192597
H -1.7112879838 0.1798259654 -1.1598104951
H -2.7043662446 -0.6706518721 0.0506789413
H -3.4317866631 2.5652354975 2.9234872864
H -2.4612934589 1.0486331212 2.9055635588
H -0.6525792591 3.3095710982 2.9869344627
H -2.9493842192 4.3140113232 1.5520511705
H -1.5581033728 4.2184559853 0.3907424695
H -0.3101402742 2.3715124511 0.2655543667

