# b3lyp 6-31G(2df,p) opt Freq 

 titel

0 1
C -0.1518416542 0.2192280507 -0.0363310798
C 1.3549029147 0.0314373729 0.0664592003
C 1.8733257444 -0.9916560461 1.1201781221
O 0.9867616141 -2.1180791349 1.350789688
C 1.8098855132 -3.0092578371 0.5515033422
C 2.6015309114 -1.8246376437 0.0335428105
C 3.9776677837 -1.502983466 -0.5185606062
O 3.4208902529 -0.4180884464 -1.3073206181
C 2.0589757721 -0.8289071894 -1.0219098895
H -0.5388611595 0.7684863498 0.8282018459
H -0.4112030498 0.7836068431 -0.9380831755
H -0.6639643163 -0.7459810843 -0.0691970837
H 1.869115361 0.9934152073 0.1618710852
H 2.3233166197 -0.6311380386 2.0507790627
H 2.3767501738 -3.702278724 1.1890081407
H 1.2230458331 -3.5848922366 -0.1738283287
H 4.7413510257 -1.1590435067 0.1889813147
H 4.4087271186 -2.2826152152 -1.1623349936
H 1.5085328114 -1.1074009547 -1.927155627

