# b3lyp 6-31G(2df,p) opt Freq 

 titel

0 1
C 0.3673888124 0.1368061092 -0.4905728139
C 0.9187934544 -0.0101461778 0.919918621
O 2.2655494841 -0.5074063524 0.8795742844
C 3.0677932082 0.5410759936 1.4941364865
C 4.4902267786 0.4618019439 1.0195604465
O 2.3970887084 1.7212875393 1.087910683
C 1.1309451584 1.3571304138 1.6612168902
C 1.514393091 1.0010319127 3.0909166983
C 2.7388634651 0.484841677 2.990721845
H 0.4297906344 -0.8164330899 -1.0228212942
H -0.6832626373 0.4463944899 -0.4634504838
H 0.9449236406 0.8817986608 -1.0437504752
H 0.2989299895 -0.6923608018 1.5143429736
H 5.082920934 1.2590704457 1.4745330813
H 4.9210299608 -0.5030119893 1.298420256
H 4.5238990922 0.5610350908 -0.0674218899
H 0.3772117114 2.1231200284 1.4890536443
H 0.8555172397 1.0400196091 3.9472501807
H 3.3459339141 0.0007936471 3.7431159561

