# b3lyp 6-31G(2df,p) opt Freq 

 titel

0 1
O 0.2778086527 0.6132750055 -0.2042855208
C -0.9082702065 0.9117260897 0.4977373511
C -0.6193047867 2.1542411372 1.3464725459
O -1.3031349632 3.2534126889 0.6951819058
C -1.9538184908 2.8408324911 -0.525415349
C -2.1841687927 1.3821269614 -0.2620684583
C -3.0154167157 0.8530499662 0.9508869767
C -1.9523315021 -0.2384235378 0.6862067804
C -2.2963194245 -0.0533367911 -0.8518106162
H 0.1834846779 -0.2391488227 -0.6385085362
H -0.9691717338 2.0990917697 2.3813698068
H 0.4574637423 2.3453738983 1.3477856041
H -2.8508385782 3.4568960026 -0.6339591434
H -1.2997249908 2.9985503286 -1.395463655
H -2.9587662075 1.4009176246 1.8904490299
H -4.0454792172 0.5735367835 0.7194963682
H -1.8286152997 -1.1871803591 1.2139986765
H -1.555486696 -0.3537623598 -1.59520295
H -3.2933832173 -0.3831594067 -1.1526513264

