# b3lyp 6-31G(2df,p) opt Freq 

 titel

0 1
O 1.1899640194 0.0314098849 -0.4111340923
C 0.0250023029 -0.0360414896 -0.151909029
C -0.9553856147 -1.1874329417 0.14178552
C -2.1185342018 -0.1901813511 -0.1325669133
C -1.1212376077 1.0137000429 -0.0977600531
C -1.1062080055 1.8844100443 1.1807027217
C -1.7288902482 3.2013915391 0.6908090533
C -1.2076858389 3.2563682845 -0.7445005956
O -1.2093578783 1.8999619407 -1.1925239662
H -0.8691373484 -2.0598757886 -0.5095371177
H -0.8868672498 -1.5228300372 1.1818041134
H -2.5346648222 -0.3049692127 -1.1352280281
H -2.9297971083 -0.1651718086 0.5971762917
H -1.6452290735 1.4229215677 2.0107635679
H -0.0721216692 2.0542497051 1.4994125199
H -2.8219344558 3.1384502311 0.695556154
H -1.4310112578 4.0653207085 1.2895764389
H -1.8372010527 3.8362732493 -1.425472532
H -0.1877356494 3.6662829117 -0.7809841838

