# b3lyp 6-31G(2df,p) opt Freq 

 titel

0 1
O 0.8059624107 -1.0230547457 -0.4546431046
C 0.4346717378 0.0550452887 -0.058844889
C 0.156629767 1.2244897078 -0.9124588709
C -0.9519753561 2.1950130291 -0.4965104157
C -1.8519532467 2.8415671509 -1.5370148355
C -1.0471372604 3.6249239752 -2.5872427104
C 0.0701550691 4.4092114767 -1.9048605949
O 1.0138812973 3.540434718 -1.281005377
C 0.4679671933 2.6313392968 -0.3799026888
H 0.2745302163 0.241425792 1.0317314277
H 0.3317095015 1.079492127 -1.9726822509
H -1.443650271 1.939583865 0.4388555093
H -2.4949159223 2.0924896942 -2.0114657494
H -2.5173778096 3.5394051495 -1.0130562941
H -0.6029883402 2.9497991888 -3.3275648074
H -1.7062413453 4.3092785964 -3.1316891603
H 0.650173209 4.993142408 -2.6238051986
H -0.3541178624 5.1048195963 -1.1628776324
H 0.921067412 2.6958198354 0.6070314228

