# b3lyp 6-31G(2df,p) opt Freq 

 titel

0 1
C 2.0707529796 -0.3318574444 -2.9976056787
C 0.7845197704 -0.4695719096 -2.2389737738
C -0.3593809183 -1.4467222583 -2.6636802575
O -1.2638131401 -1.6730506745 -1.5694840932
C -1.3788832623 -0.4581263232 -2.3314908145
C -0.2941895341 0.5691999276 -1.8807190986
C -0.3678904088 2.0392406315 -2.1636564823
C 0.5920319554 -0.0501990459 -0.805949074
O 1.6335157365 0.758978243 -0.331458364
H 2.6662405446 0.4897175503 -2.593776233
H 2.6693706469 -1.248158915 -2.9213540134
H 1.8937324539 -0.1395951826 -4.0622430212
H -0.3086992165 -2.205542438 -3.4364600674
H -2.3438464521 -0.2362864836 -2.7737620725
H -1.2068462004 2.5049393479 -1.6302270529
H 0.5532956843 2.5331170592 -1.8426140346
H -0.504819575 2.2453137432 -3.2316800535
H 0.1775146306 -0.7409046181 -0.0774541791
H 1.2846485656 1.2946440204 0.3885582942

