# b3lyp 6-31G(2df,p) opt Freq 

 titel

0 1
C -1.0311773983 2.6906530047 3.537147091
C -1.4495893309 1.7840828393 2.416501981
C -2.7299849596 0.9843406247 2.4007190686
C -1.4268660832 0.249323418 2.2754426219
C -0.9556270951 0.3474660862 0.8079242941
O 0.3099339353 -0.1775268824 0.5193403691
C -0.9338712377 1.8882959005 0.9981788251
C -0.8473177641 2.9802099502 0.0304900872
O 0.3197782677 2.5229045296 0.7510678461
H 0.0477299834 2.8704424871 3.5104319094
H -1.5346949425 3.6630358617 3.4757485357
H -1.2838465408 2.2506184809 4.5068437202
H -3.2261128103 0.9088246278 3.3634100855
H -3.4143901795 1.0353579727 1.555623578
H -1.089109469 -0.4993452132 2.9807821242
H -1.6785994084 -0.0460102548 0.0813375064
H 0.9215186856 0.5727812314 0.5096423469
H -0.8445059808 2.7597219803 -1.035810658
H -1.1819950021 3.9810462153 0.2984293376

