# b3lyp 6-31G(2df,p) opt Freq 

 titel

0 1
C 3.1341907149 1.1889880784 -0.4355101761
C 1.957562619 0.2382636884 -0.2354050428
C 1.9907588561 -1.0620364534 -1.1145832107
C 2.416333704 -1.8515343385 0.1317561063
C 3.4807228846 -2.8381634228 0.3184984874
O 2.092550556 -3.1934857415 0.4324289734
C 2.0886981229 -0.6656698961 1.0072722942
C 1.3569808275 -0.654561426 2.2729912585
O 2.7577795665 -0.3346205238 2.2086770338
H 3.1660572128 1.9400124203 0.359291989
H 4.0871341313 0.6496368105 -0.416541263
H 3.0573023548 1.7070085918 -1.3967365095
H 1.0125243482 0.7855759832 -0.2883631845
H 1.0041610362 -1.3645461186 -1.4736991266
H 2.6925596655 -1.0572139154 -1.9517830574
H 3.9957026755 -3.2464312137 -0.549998851
H 4.0404965129 -2.8448036894 1.2518765808
H 0.6991909704 0.180842267 2.5091973761
H 1.118875891 -1.5997379503 2.7574027423

