# b3lyp 6-31G(2df,p) opt Freq 

 titel

0 1
C 1.0095970103 1.082992515 -0.2536812237
C 1.0238231432 -0.4082160043 0.061643236
C 1.7549155941 -1.3750290702 -0.9336370906
C 2.6587889428 -1.8747698646 0.1839608331
O 2.9658769746 -3.2101118309 0.2745443457
C 3.3937889249 -0.7881405731 0.8562119771
C 1.9111933414 -0.9036784313 1.2075069269
C 1.4550548672 -1.2000876576 2.559715668
O 0.3281278532 -1.0064548768 2.9620856867
H 0.569188798 1.6468206709 0.5745090901
H 2.0163175379 1.4771068483 -0.4312302626
H 0.4152409007 1.2841623323 -1.1513778539
H 0.002333318 -0.7524339757 0.240223423
H 1.1012211237 -2.1655076007 -1.3066824107
H 2.2747458593 -0.9135329531 -1.7807072216
H 3.8077643754 -3.3167086971 0.7280904853
H 4.0523576521 -1.1053452411 1.663561194
H 3.7544792677 0.0863355573 0.3180139933
H 2.2285532155 -1.6576480372 3.2216380438

