# b3lyp 6-31G(2df,p) opt Freq 

 titel

0 1
C -0.1233323073 1.9130804101 -4.6484052026
C -0.0025485041 0.5699178943 -4.0101649586
C -0.444978161 -0.7533557842 -4.554533539
C -0.9198475495 -0.3052547116 -3.1798430592
C 0.2388629766 -0.3872375803 -2.2273000402
C 0.8013496235 -1.4285437232 -1.3100093401
C 0.3522069234 -0.070629406 -0.7731634385
O 1.3021255004 0.8759154639 -0.4012781752
O 1.1076304084 0.3654019005 -3.1023688087
H -0.1545911222 2.7063322118 -3.89507828
H 0.7304041013 2.1017115126 -5.3090793507
H -1.0339757504 1.9673845406 -5.2514815497
H -1.2022079266 -0.7080522825 -5.3315457823
H 0.2688772223 -1.5664906068 -4.6488985951
H -1.9603007138 -0.1854427117 -2.9091371572
H 0.2004998572 -2.3033842313 -1.0821913832
H 1.8719345881 -1.5972713337 -1.3641489893
H -0.5488884946 -0.037682622 -0.1648324643
H 1.6088014183 1.2816466996 -1.2251748362

