# b3lyp 6-31G(2df,p) opt Freq 

 titel

0 1
O 0.4956555109 2.1413944613 -1.9006023635
C -0.2875697144 1.0322469877 -1.590577375
C -1.3567757467 0.5941888371 -2.5848232645
C -2.3744311304 -0.20954634 -1.7433426289
C -2.2612469605 0.3659009526 -0.3076741844
C -0.8353039871 0.8847811747 -0.2178231508
C 0.2811028835 -0.0691770752 -0.6828384269
C 1.6200962029 0.1233509334 -0.0869883256
O 2.4105846264 -0.7702671303 0.1070059564
H 1.0879835082 1.9032439621 -2.6227720886
H -1.8103716168 1.5059770127 -2.9910764601
H -0.9588099622 0.019228908 -3.4280942785
H -3.3893614007 -0.1375006767 -2.1410397756
H -2.1117723438 -1.2715846225 -1.7450994
H -2.9501649134 1.2081532566 -0.1731987526
H -2.5027769425 -0.3769163488 0.4588303627
H -0.5647212812 1.5974812295 0.5540547035
H 0.0391599105 -1.1050987013 -0.8976531681
H 1.8632488473 1.1747188993 0.1804498204

