# b3lyp 6-31G(2df,p) opt Freq 

 titel

0 1
C -0.2046970569 0.0615587043 0.0230614176
C 1.2869218297 -0.1788629729 0.1112841873
O 1.8502738757 -0.9986527846 -0.9624084637
C 2.6252061943 -1.7417686529 -0.0066944491
C 4.0434101331 -2.0550392126 -0.3547277054
C 1.7037696032 -2.5849630568 0.8476076535
C 0.4749943106 -3.2280493594 0.3173635464
O -0.042294861 -4.1934734456 0.8303773217
C 1.9291944042 -1.0869142425 1.1523544325
H -0.5147984837 0.7398368485 0.8250630286
H -0.4498681424 0.535590529 -0.9328180524
H -0.7839349709 -0.8593529926 0.1110854941
H 1.8136651059 0.7856388788 0.1072310984
H 4.5391140532 -2.5643030787 0.4761690625
H 4.0845009128 -2.7128677128 -1.2295858899
H 4.5971982621 -1.1408655507 -0.589676722
H 2.2124953099 -3.2021194196 1.583886652
H 0.0798892417 -2.7924422667 -0.6208688785
H 2.3019087487 -0.7876519024 2.1228411864

