# b3lyp 6-31G(2df,p) opt Freq 

 titel

0 1
O -3.3817562016 -1.9537467053 -2.0502047163
C -2.2936830518 -1.2034208054 -1.5778265227
C -0.914410228 -1.8964615282 -1.3938841419
C -0.7641101074 -1.1625853537 -0.0259987546
C -2.2648072469 -0.7641456883 -0.0776274228
C -2.3647554747 0.7421333876 0.2229490089
C -1.0038965568 1.3200205492 -0.2078491936
C 0.0003955296 0.1615198885 -0.0946953952
O 1.1986987994 0.275814469 -0.0597407339
H -3.4704485347 -2.7362811516 -1.4954685038
H -2.2301288415 -0.3410066745 -2.2494511754
H -1.029227773 -2.9755388544 -1.2500197273
H -0.1452192021 -1.7269319853 -2.1512617085
H -0.38282347 -1.7639853292 0.8012123567
H -2.9382871025 -1.3736959032 0.5307061429
H -3.2108335298 1.2084751726 -0.2908306058
H -2.5130723671 0.898247621 1.2973539559
H -1.0128660507 1.6420835315 -1.2574714478
H -0.6645881103 2.1781985898 0.3763270252

