# b3lyp 6-31G(2df,p) opt Freq 

 titel

0 1
C 1.5217904766 -0.014160178 -0.0857897272
C 0.0664569854 -0.0243888993 -0.0670395211
C -1.1385173984 -0.0240080188 -0.0431998828
C -2.5921720369 -0.0473196804 -0.0439113666
O -3.1152007201 -0.1081223793 -1.3607203836
C -3.2759945596 -1.0263947135 0.9558690432
O -3.9717518303 0.0460528054 1.6101168267
C -3.3178726865 1.0521752626 0.802503983
C -4.2902037998 1.9704273471 0.0956057074
H 1.9228530941 0.4132687013 0.839630419
H 1.9272218475 -1.0268005074 -0.1866615489
H 1.9038000015 0.5836967724 -0.9203567289
H -2.4986274282 -0.6176624399 -1.8959224096
H -3.9575559748 -1.7337138758 0.4693729432
H -2.5950805014 -1.5584202182 1.6306411956
H -2.6089150955 1.6287949054 1.4103886142
H -4.8853137414 2.5080560195 0.8404902088
H -3.7497650927 2.7042863098 -0.5105242059
H -4.9599078196 1.4060030071 -0.5551189065

