# b3lyp 6-31G(2df,p) opt Freq 

 titel

0 1
C 1.3335112757 -4.1028639109 0.3801622874
C 0.3166178572 -3.2638983568 1.129929085
O -0.5233580717 -3.7892833601 1.8467742872
C 0.3491071167 -1.795779838 0.9921547111
C 1.1986541379 -1.0497440244 0.2736315214
C 0.8845878837 0.4202305813 0.3687123003
C -0.1261338247 0.4920543083 1.539657325
C -0.7008300747 -0.9319123129 1.6829924153
O -0.8967641687 -1.2428107135 3.0471435079
H 2.3517212578 -3.8195026784 0.6664484629
H 1.16972688 -5.1557470646 0.6115603835
H 1.243770091 -3.9466590135 -0.6999117167
H 2.0106656402 -1.4332529023 -0.3360436648
H 1.7796006399 1.0315333443 0.5294326029
H 0.4457953258 0.7709657313 -0.5763617405
H 0.3964113963 0.7158166303 2.4743112311
H -0.8972481579 1.2512222176 1.3955556321
H -1.6536851772 -1.0278894621 1.1332566854
H -1.1021765072 -2.1882979357 3.0672564634

