# b3lyp 6-31G(2df,p) opt Freq 

 titel

0 1
O 1.6247508815 0.8871271611 -2.9095196671
C 1.2884825456 2.1451754116 -2.3233452386
C 0.5018381702 1.8445296724 -1.0346405599
C 1.5591725434 1.7193282704 0.1015109261
C 2.0464293182 0.2881132358 0.2517443931
O 2.0406262614 -0.3231109045 1.2905098659
C 2.7100882618 2.6087045139 -0.3730320126
C 2.3506693978 3.9936251816 -0.8534110932
C 2.5339185688 2.8785880789 -1.8518065544
H 2.2237714547 1.049091547 -3.6455912796
H 0.6889637409 2.7379437348 -3.0299057688
H -0.1877685664 2.66171271 -0.8093779768
H -0.0983720806 0.9405303403 -1.1624309608
H 1.1578720859 2.028330643 1.0713499685
H 2.4217570966 -0.1665044006 -0.6901061307
H 3.6926903805 2.4564470855 0.0598565815
H 1.3561192655 4.3835415718 -0.6633219055
H 3.131339781 4.7448348421 -0.8092266884
H 3.3815779132 2.9246942547 -2.5287192587

