# b3lyp 6-31G(2df,p) opt Freq 

 titel

0 1
C 5.8279669565 -2.645559119 0.5486311429
C 5.1051115488 -2.0125116095 1.7282922804
O 3.7429596095 -1.6681534555 1.3920988464
C 3.5659590539 -0.4794766604 0.7815181625
O 4.4539313606 0.2931492648 0.5083310809
C 2.1702730738 -0.2487039073 0.500613545
C 1.0215147115 0.0042134364 0.2369981363
C -0.3612708775 0.324510591 -0.0881553521
C -0.5208768823 1.6740374593 -0.8115622774
H 6.8267097323 -2.9695476947 0.8584190511
H 5.2813508102 -3.5187382626 0.1811597314
H 5.9372254897 -1.9258794922 -0.2657391016
H 5.00769849 -2.7137369024 2.5602062251
H 5.6228302434 -1.1132227264 2.0699001053
H -0.7748483384 -0.4831167257 -0.705727971
H -0.9504229018 0.3238234966 0.837935626
H -0.1434730228 2.4928554513 -0.1938248643
H 0.0337280539 1.6779088913 -1.7533270387
H -1.5758529514 1.8622830851 -1.0298692383

