# b3lyp 6-31G(2df,p) opt Freq 

 titel

0 1
O 0.2476173334 -0.5993994151 0.5755617575
C -0.3663134084 0.574668164 1.0576491534
C -1.6411635817 0.2457579192 1.8772183699
C -0.851287449 0.4263482597 3.2107188726
C -1.3740045388 1.4934567896 4.1862243624
C -0.7449490172 2.7672214239 3.6639277755
C 0.1314098893 2.5519200555 2.6806942723
C 0.2968623092 1.0897448096 2.3684147054
O 1.6361539405 0.6389317483 2.4510096602
H 1.1642079832 -0.5749747023 0.878565882
H -0.4751507536 1.3153027427 0.2532921746
H -2.4393979078 0.9828727856 1.7543361761
H -2.0341971325 -0.7523718618 1.680535702
H -0.5802440747 -0.5205312167 3.678711711
H -2.4702822544 1.5472199825 4.1778909123
H -1.08751436 1.3092831453 5.2307052284
H -1.0018939258 3.7444598219 4.0601614559
H 0.7007422151 3.3131820769 2.1577174842
H 2.0054120933 0.9155947913 3.2956706243

