# b3lyp 6-31G(2df,p) opt Freq 

 titel

0 1
C 2.795685874 1.3119189704 -2.0048285445
C 2.332099008 1.9544883203 -0.7115658352
O 1.4992096767 3.0714997853 -0.7056900443
C 0.2601950337 2.7560436787 -0.0594958287
C -0.2752712862 1.3561482544 -0.5095807131
C 0.1250783799 0.1471413539 0.3998949598
C 1.3947263339 -0.4329647806 -0.3087546474
C 1.6523453185 0.7198610447 -1.2496580182
O 0.3757058392 1.0690168709 -1.7487029862
H 2.5400823614 1.7966688031 -2.9401258319
H 3.7620114892 0.8197504942 -1.9830737078
H 2.9883531987 1.8603980563 0.1550400749
H 0.3748337943 2.7980823062 1.034873658
H -0.4346489583 3.5449830938 -0.3600738901
H -1.3522457836 1.4062818481 -0.6828939612
H 0.3409621252 0.4672535607 1.4230510867
H -0.6816973865 -0.5878229728 0.4464703884
H 2.2211338337 -0.6204609455 0.3804564157
H 1.1661967181 -1.3601247019 -0.8421632848

