# b3lyp 6-31G(2df,p) opt Freq 

 titel

0 1
C 0.1666784782 0.4575990163 -0.0377701405
O 1.2743285338 0.7272890835 0.8284708379
C 1.5500326283 0.2937600067 -0.5020033111
C 2.1909840776 -1.0471911171 -0.6332026663
C 2.1079017694 -2.0918286401 0.4476809513
C 3.4472089448 -1.4684205057 0.0800370854
C 4.2915526126 -2.1708689373 -0.9690104434
C 3.2787822675 -2.4422240403 -2.1050446975
O 2.2391762168 -1.4698457972 -1.9747478163
H -0.4147512968 -0.4268061706 0.2153628463
H -0.4064994834 1.3309434552 -0.3437220094
H 1.9686405879 1.0584066337 -1.1576210385
H 1.6802456679 -1.7717314147 1.391009582
H 1.9002908056 -3.1207357802 0.1725585468
H 3.9279416879 -0.8187986364 0.8016833462
H 5.0888687145 -1.4993557862 -1.3044774687
H 4.7590136062 -3.096560461 -0.6194919287
H 3.7062148532 -2.3443898333 -3.1066437775
H 2.857091768 -3.4526313452 -2.0162919877

