# b3lyp 6-31G(2df,p) opt Freq 

 titel

0 1
O 1.1799612163 0.0258485397 0.2447969962
C -0.0082215556 -0.0406975608 0.1278560325
O -0.8128229113 1.0666698131 0.1511515136
C -2.200230851 0.6538660601 0.0266349422
C -2.1004515962 -0.6555571994 -0.767325415
C -0.9038257655 -1.2720153782 -0.0327473749
C -1.3564413634 -1.7482063583 1.3699904921
C -1.894181644 -0.5766427132 2.2207896202
C -2.7872057814 0.3963587748 1.4209314494
H -2.7215355295 1.458061037 -0.4956008411
H -3.010507673 -1.2579561897 -0.7119183292
H -1.8721839276 -0.4574166803 -1.8187460975
H -0.3791588467 -2.0605591951 -0.5723801488
H -2.1313440126 -2.5116489448 1.2307223296
H -0.5223815128 -2.2282927998 1.8909491691
H -2.4375472165 -0.9596840407 3.0898356146
H -1.0423688699 -0.0137182425 2.617317855
H -3.79759852 -0.0108157552 1.2915496492
H -2.8904902893 1.3396302032 1.9662940128

