# b3lyp 6-31G(2df,p) opt Freq 

 titel

0 1
C 3.1043368177 -2.1662563401 -3.9511459976
C 3.3464195588 -1.6624482561 -2.5336114665
O 3.5118501384 -2.8053053462 -1.7082252781
C 2.1839893829 -0.7865197603 -2.0293901547
C 2.5150818791 -0.0748072332 -0.7255252473
C 1.6225523452 -0.191427155 0.4470328678
O 2.8228128732 -0.9582144194 0.3886944754
C 3.3819826193 1.0759725398 -0.8314929735
C 4.0959453266 2.0344839598 -0.957590896
H 2.1648737448 -2.7262741289 -4.0041386075
H 3.0601633689 -1.3350929111 -4.6615026966
H 3.9149038203 -2.8369008391 -4.2481794221
H 4.2647196728 -1.0502525072 -2.5278476852
H 3.4622240949 -2.5129303431 -0.7897777306
H 1.9264381039 -0.0312879295 -2.7793615752
H 1.3101085375 -1.430378181 -1.8827053529
H 1.6183068498 0.5979652946 1.1954547439
H 0.6962596693 -0.7547493166 0.3453012761
H 4.7316058166 2.8798215527 -1.0571558393

