# b3lyp 6-31G(2df,p) opt Freq 

 titel

0 1
C -0.7837637006 -0.4092522339 0.2132775962
C -0.2412079475 -1.6077706831 0.9751536306
C 1.2295181272 -1.6091560001 1.4737695293
C 1.3241590621 -3.1704082178 1.4647693193
C 2.6224547734 -3.1509757819 0.6279585559
O 2.9153174003 -4.2390041866 -0.2066076615
C 1.8109899875 -1.9656964525 0.0596316847
C 0.4666437277 -2.7475235702 0.2114963483
O -0.0109424202 -3.5835429133 -0.7938077277
H -1.0017168422 0.4228461102 0.8914490136
H -0.0721259065 -0.0518703176 -0.5375949872
H -1.7142298044 -0.6636545681 -0.3059121455
H -0.959242422 -1.9550974791 1.7306279781
H 1.6977642486 -0.9534437353 2.204207175
H 1.0105570169 -3.8374727015 2.2700954998
H 3.5448536913 -2.902252059 1.1612871716
H 2.1163437758 -4.4337764195 -0.7132681608
H 2.0681815711 -1.2684752928 -0.7376320088
H -0.7283440084 -4.1180189277 -0.4343312411

