# b3lyp 6-31G(2df,p) opt Freq 

 titel

0 1
C -0.9901208832 2.12130403 1.1625451192
C -0.8527376299 1.0116697794 0.1304508616
C -1.9991963 -0.0375551187 -0.0809351563
C -0.9426344305 -1.1894158155 -0.1043921402
C 0.0723573893 -0.1772559953 0.4463596489
O 1.1175899932 -0.2705661077 1.021537315
C -2.8644200389 0.1345647666 -1.2949312733
C -4.2025034046 0.7379846898 -1.2341392777
O -4.0401430667 -0.6744227468 -1.3739900537
H -1.2941624171 1.7186500493 2.1340765353
H -0.0337302158 2.6341601993 1.3002155281
H -1.7335949628 2.8626912555 0.8535346895
H -0.5548318047 1.4279320652 -0.8429555708
H -2.6299691928 -0.1094194693 0.809975832
H -1.1300950174 -2.0797500048 0.4991703304
H -0.6845676529 -1.5051806698 -1.1219995912
H -2.3190595293 0.2111291843 -2.2395421916
H -4.5981339132 1.0691335764 -0.2745447719
H -4.6065491127 1.2527664919 -2.1046928733

