# b3lyp 6-31G(2df,p) opt Freq 

 titel

0 1
C 1.3828514035 0.9548873822 0.2665029099
C 1.0989730172 -0.5021966446 -0.1170882637
C 1.8191523464 -0.9480469523 -1.3687906048
C 1.2512866443 -2.0178873528 -2.288844463
C 1.4453505185 -0.6224196935 -2.7987224255
C 2.7546391801 -0.3709642602 -3.5241722287
O 3.8003812753 -0.7701892435 -2.6212745331
C 3.3214151974 -0.9561043492 -1.3538244671
O 4.0484994517 -1.0963916857 -0.4119217597
H 0.8407847062 1.2289739087 1.1762728665
H 2.4498334442 1.1053718814 0.453761293
H 1.0746010257 1.6431555727 -0.527995844
H 1.4044615543 -1.1624901838 0.7027062139
H 0.0220643276 -0.6511713308 -0.2574504692
H 1.9033153045 -2.8079337345 -2.6491297593
H 0.2370898074 -2.3329255181 -2.0686711683
H 0.5881942707 -0.0050362457 -3.0383182934
H 2.8657181885 -0.955220176 -4.4429900851
H 2.8891264966 0.6900573255 -3.7633841282

