# b3lyp 6-31G(2df,p) opt Freq 

 titel

0 1
C -0.0433901196 0.3066487428 0.008854203
C 1.4212156594 -0.0267576676 0.0491769063
C 2.4175374563 0.510632915 -0.9447119538
C 2.2650634164 -0.9811548932 -0.8230158075
C 3.046196387 -1.4547519604 0.3846430726
O 2.4476112441 -2.5966992597 1.030941705
C 1.6733509463 -1.7774273414 1.9255394714
C 2.1883725691 -0.4702871865 1.2850293108
O 2.6168341021 0.5641520959 2.1118913699
H -0.2444307048 1.253752331 0.5223744509
H -0.3927906813 0.4097449818 -1.0233942374
H -0.6518618624 -0.4684472367 0.4880535697
H 1.9809572791 0.9480797218 -1.836822279
H 3.3242057137 1.0052427215 -0.6067050738
H 1.9308431932 -1.6123303226 -1.6374367571
H 4.1368454182 -1.5228607952 0.340707409
H 0.5971612911 -1.9809578271 1.8705572577
H 2.0014264969 -1.9023034104 2.96917969
H 3.0960168453 0.1881657309 2.8584501922

