# b3lyp 6-31G(2df,p) opt Freq 

 titel

0 1
O 0.4329894478 0.2907147713 -1.0094614613
C 0.2811072118 -0.0314385693 0.1413965985
C -0.6242110215 0.6714990551 1.104262479
C -1.1519226685 2.0318877452 0.7090429101
C -2.1839872679 2.5694161784 1.7086457346
C -3.276832106 1.5282794602 1.9743232822
C -2.7131635648 0.255413023 2.6288835411
C -1.3848563902 -0.1976784092 2.044496822
O -0.2159009615 0.4957151372 2.4727848575
H 0.8164627196 -0.8958039112 0.5947917007
H -0.3085816433 2.7234633873 0.6035228989
H -1.5944919732 1.9354327885 -0.2891740756
H -1.6831901718 2.8306341697 2.6477106355
H -2.6242340202 3.490079377 1.313037579
H -4.0638595599 1.9461480429 2.6102532468
H -3.7535917699 1.2648047452 1.0209667386
H -2.5540816996 0.4177675857 3.7019314687
H -3.4332352238 -0.565012437 2.5413678337
H -1.238610107 -1.27681632 1.9723833698

