# b3lyp 6-31G(2df,p) opt Freq 

 titel

0 1
C 1.4441551161 -0.2747237818 -0.0413195002
O 0.0359710561 -0.0659765632 -0.0063236189
C -0.3814733583 0.6129715507 1.0945175521
C -1.7400380066 0.7016497572 1.7074717121
C -1.7562033805 2.2291048768 1.6489689834
C -0.2033086517 2.1266469933 1.590539821
O 0.5774928131 3.0504521731 0.9131727941
C 0.1936574725 1.5727327214 2.9905834495
C -0.5031252686 0.2820256321 2.5640505125
H 1.7752086415 -0.8730271632 0.8182377601
H 1.6597335492 -0.8164838215 -0.9644726978
H 1.9846063677 0.6795529886 -0.0440172752
H -2.5650589491 0.0146434368 1.5748168446
H -2.160536198 2.5853103635 0.6977434399
H -2.1960106701 2.788215676 2.4836394071
H 0.4889133322 3.9074576537 1.3460512925
H 1.2764709587 1.4419339125 3.0692115058
H -0.1859569529 2.1109595086 3.8675147034
H -0.4807030913 -0.6876485348 3.0432819739

