# b3lyp 6-31G(2df,p) opt Freq 

 titel

0 1
O 0.3002494376 0.0498784482 0.2834695154
C -0.7580691055 0.7318498704 0.8944964302
C -1.5361946658 0.0933040734 2.0103587957
C -2.9840026023 0.5257506237 2.2977800391
C -2.9261374361 1.9778510482 2.7750717562
C -2.4608562035 3.0734530195 1.8281156089
C -1.4792228122 2.4447936447 2.7653369278
O -0.9408052991 3.2821902978 3.7426504357
C -0.617415539 1.2824440274 2.2912895121
H 0.7623431333 -0.4655495421 0.9522562418
H -1.2775783625 1.3115978976 0.1397120088
H -1.2447243752 -0.9166278917 2.2870960556
H -3.6336375011 0.3922416048 1.424549126
H -3.3966829533 -0.1014165681 3.0953073064
H -3.5905745249 2.2842538602 3.5757875741
H -2.4051872331 2.8951527115 0.7602748224
H -2.7682862863 4.0794451479 2.0925618083
H -0.7947131105 2.755558636 4.5367584182
H 0.3441706294 1.1720036206 2.7837746773

