# b3lyp 6-31G(2df,p) opt Freq 

 titel

0 1
C -1.7716456148 -3.243639169 1.2388466234
C -0.2909916074 -3.276930334 1.4736742566
C 0.7112860534 -4.3676256257 1.0825180043
C 1.7986553866 -3.3445808776 1.4915766322
O 1.628943259 -3.225530105 2.9343968386
C 0.4018401688 -2.5592211679 2.6484383842
C 0.7606488681 -2.1801010406 1.2419608631
C 0.7824847305 -0.897041519 0.4840397545
O 1.8315965893 -0.0284822172 0.8900247918
H -2.2077544645 -2.2918219621 1.561742675
H -2.0165201168 -3.3760764343 0.1789521165
H -2.2727930322 -4.0416776725 1.7987894207
H 0.7068287236 -5.3165410639 1.6291806979
H 0.7026088285 -4.5452084226 0.0032899703
H 2.8381332633 -3.4060895323 1.1778288344
H -0.1184148803 -2.0380127816 3.4431852083
H 0.951035168 -1.0772548042 -0.5841120726
H -0.2039667946 -0.4113442908 0.5734007311
H 1.7915707017 0.0389331104 1.8500441195

