# b3lyp 6-31G(2df,p) opt Freq 

 titel

0 1
C 1.24422499 -0.6161396344 0.9580020344
C 1.0376395778 0.2685517319 -0.2802069366
C 1.761466658 -0.2495815626 -1.4828368868
O 1.280157493 -1.4283823186 -2.134945661
C 1.4718561187 -0.2489897405 -2.9179728216
C 3.0091530218 -0.1212453844 -3.2442294348
O 3.6852777482 -1.227584567 -2.6437007796
C 3.3271670563 -0.1206113268 -1.8148314409
C 4.3740819092 0.5597709246 -0.9967054093
H 0.8987530285 -1.6351199463 0.7624197397
H 2.3005981193 -0.6690531019 1.2403796458
H 0.6878118894 -0.2230257688 1.8137468599
H -0.0296077701 0.3289472432 -0.5211834648
H 1.3742915443 1.2922798438 -0.0731021417
H 0.6342133778 0.1397965855 -3.4847110796
H 3.473738988 0.3757476342 -4.0874092547
H 4.6323905702 -0.0371446558 -0.1148571382
H 5.2823898431 0.7031800157 -1.5882389355
H 4.0259361766 1.5383670783 -0.6502132649

