# b3lyp 6-31G(2df,p) opt Freq 

 titel

0 1
O 1.5316973659 0.8910422702 -0.1886246151
C 0.2277362863 0.4553728433 0.1627372958
C -0.7622066618 1.2002810558 -0.7301343702
C -2.1862107732 0.8478742725 -0.4492910451
C -3.486871127 1.0180510554 -1.2377202896
C -4.1750946658 1.7089253692 -0.062040464
C -3.1458780962 0.9509073326 0.8130455405
O -3.5257370329 -0.4459935818 0.6664280502
C -3.0501364237 -0.3485602436 -0.6749321698
H 2.164376987 0.4280801577 0.3679680306
H 0.1106619496 -0.629723358 0.0171586644
H 0.005632317 0.6682371334 1.220772656
H -0.5993481459 2.2787454 -0.6074870064
H -0.5303205125 0.9719866857 -1.7777540934
H -3.6001149112 1.2004467198 -2.2992494916
H -3.9874417634 2.7857917922 -0.066556824
H -5.230396196 1.5012569556 0.1413897142
H -2.9070402563 1.2302818253 1.8375574164
H -2.9214754098 -1.2513585253 -1.2579769588

