# b3lyp 6-31G(2df,p) opt Freq 

 titel

0 1
O 0.4888377583 0.51445047 0.0959794808
C -0.5577141304 0.9636254984 0.951060763
C -1.1301081059 -0.2573764807 1.6881777903
C -2.6042327945 0.1085940213 1.8443633249
O -2.9445175986 0.8082083611 0.6494274482
C -1.8120217667 1.55228907 0.209008736
C -1.895777867 3.0491607003 0.6035389611
C -0.8207556672 3.2131426131 1.6487554934
C -0.1158695016 2.0985438338 1.8423406551
H 0.9442727459 1.2938350396 -0.2404050909
H -1.0129546671 -1.1304445459 1.0394668915
H -0.627697797 -0.4565146896 2.6379430856
H -3.2673894832 -0.7568988428 1.9248624503
H -2.7623891395 0.7449516516 2.7294671967
H -1.7276990591 1.4132829149 -0.8726288659
H -1.7335891958 3.720410046 -0.2498408618
H -2.8978131578 3.2713057341 0.986966485
H -0.6551768115 4.1503872543 2.17096163
H 0.7063557787 1.9781874604 2.5400728567

