# b3lyp 6-31G(2df,p) opt Freq 

 titel

0 1
O 0.4273506586 0.0606765213 0.5601511354
C -0.8566878274 0.5003236703 0.9382220047
C -2.0657507176 0.0583469965 0.0783382253
C -3.2085723236 0.817690978 0.8374015253
C -2.5345696731 2.1665707557 1.2488999645
C -1.0981566769 2.0128228342 0.6803031314
O -0.1680846602 2.8929056445 1.2444491227
C -1.2262284385 2.0056756117 -0.8418303847
C -1.7924712863 0.8455714038 -1.1968671
H 0.4957413414 0.2042168176 -0.3934589771
H -0.9629729469 0.2412438791 1.99570001
H -2.2291845564 -1.0132444847 -0.0363707497
H -4.08426798 0.9612299448 0.2011072946
H -3.5269641275 0.2484170823 1.7155961245
H -3.0449457762 3.0425949807 0.8440565743
H -2.4790557499 2.2815915339 2.3350311321
H 0.694532242 2.4677324171 1.1505900816
H -0.9814276093 2.8550180971 -1.4679736963
H -2.1146475025 0.546421146 -2.1871369385

