# b3lyp 6-31G(2df,p) opt Freq 

 titel

0 1
C 2.1594052188 -3.9839081019 -1.1064967347
C 1.3087123901 -2.7554947539 -1.018033802
O 1.7349233083 -1.6315182546 -1.8291743918
C 0.3924255144 -1.1120559999 -1.5589003143
C -0.1783171348 -2.5665487272 -1.4213827144
C -0.6126386733 -2.7966203818 0.0373270449
C 0.7692008025 -2.1859316563 0.3829596686
C 0.5692418525 -0.7175262454 -0.0709053908
O 1.6497433421 0.1505392484 0.1357678644
H 1.7143190764 -4.8009794607 -0.5304768037
H 2.2702286859 -4.3079919442 -2.1453953405
H 3.1566622576 -3.7875915257 -0.6980217999
H 0.0551160593 -0.3760156536 -2.2866765778
H -0.633874878 -3.0327077191 -2.2939746908
H -1.4996457239 -2.2849001096 0.4214075141
H -0.6840024239 -3.8642274342 0.2606998518
H 1.2762783007 -2.3567895737 1.3308680384
H -0.3147693344 -0.2590880362 0.3798635953
H 2.3351363396 -0.1558089204 -0.4760147868

