# b3lyp 6-31G(2df,p) opt Freq 

 titel

0 1
C 0.1636455266 -2.9375498661 0.052682504
C -1.0065462954 -2.5236532674 -0.8323478189
O -1.1839848223 -1.1167283515 -0.7949504428
C -0.1025442757 -0.3350377745 -1.2607368322
C 0.1089003659 0.7882328144 -0.2294351872
O 1.3250689743 1.4686919172 -0.5305239606
C 1.398496384 0.2223077917 0.1827497386
C 1.344068011 -0.8724362973 -0.9041296828
C 1.4588805476 -2.3516135314 -0.5232914299
H -0.0236168007 -2.5682577159 1.0678902449
H 0.2335254491 -4.0295893277 0.1071999771
H -0.8465768334 -2.8729613217 -1.8668866679
H -1.9516017739 -2.9463393196 -0.4796051805
H -0.263309912 -0.0360347469 -2.3050168301
H -0.6609664754 1.3168485514 0.3207511339
H 1.9085220297 0.227145406 1.1399987569
H 2.0697592148 -0.6358447777 -1.6874371996
H 1.7132169702 -2.9164263018 -1.4291170196
H 2.2986973258 -2.4902165112 0.1679292067

