# b3lyp 6-31G(2df,p) opt Freq 

 titel

0 1
C -0.2572878417 -0.1718456537 -0.1803457015
C 1.2330220397 -0.0307391974 0.0663227863
C 1.6984406547 -0.6409708283 1.350775595
O 2.8410412173 -0.6455907305 1.7429892986
C 2.0646507644 1.1938553124 -0.3059988759
C 1.5647915655 1.8398782043 -1.6037838428
C 1.8037475498 0.4802445158 -2.3475747846
O 2.7650428662 0.5110597112 -3.3754492513
C 2.2994571904 -0.1222228026 -1.0209392637
H -0.8286826354 0.2364631638 0.6607685275
H -0.5869342208 0.3513939364 -1.0790435026
H -0.5379185689 -1.2250056808 -0.2924633772
H 0.8877217006 -1.1094804974 1.9537214621
H 2.6771916464 1.6608329034 0.4552652027
H 0.5571466808 2.2667126358 -1.6055627725
H 2.2592389262 2.5934906263 -1.9849141436
H 0.9233243052 0.0100432742 -2.7938464603
H 3.5840856514 0.8648579015 -3.010067448
H 3.1190006782 -0.8237854444 -0.9158711881

