# b3lyp 6-31G(2df,p) opt Freq 

 titel

0 1
C -1.8445195298 0.2358747921 -0.9582549652
C -0.9416521232 1.0708157851 0.0119029112
C 0.1918913166 0.3323123741 0.7100686232
O 1.0126973306 -0.370929099 -0.2068340427
C 1.6678315423 0.4836967515 -1.1225371924
C 0.7109517235 1.3303473854 -1.946027251
O -0.1759324281 0.544182628 -2.7811043873
C -1.3476566384 1.0935912861 -2.1447843428
C -0.4825407394 1.9534706096 -1.1878484893
H -1.587571145 -0.8210320177 -1.0511267118
H -2.9134253689 0.3387715415 -0.7538043248
H -1.5211266488 1.6317637149 0.7499943753
H 0.8004922039 1.0457746196 1.2941907115
H -0.1992921977 -0.4209129009 1.40186821
H 2.3658863572 1.1586434263 -0.5940354254
H 2.2526815726 -0.1640889949 -1.7829651613
H 1.2851831911 2.043653297 -2.5533561015
H -2.0726496394 1.4753138887 -2.8677038397
H -0.526660849 3.0373933325 -1.0960424059

