# b3lyp 6-31G(2df,p) opt Freq 

 titel

0 1
C 1.5110997916 -0.1493089703 -0.0447658375
C 0.0576710405 -0.0800007146 -0.0262444344
C -1.1440010365 -0.0245833952 -0.0034112684
C -2.5969885877 0.0548090415 -0.0017440467
O -3.1148072175 -0.5125957995 1.1993200344
C -4.5044394344 -0.4764992645 1.2419297949
C -5.1778508588 -1.5042465335 2.1039865749
C -5.2978260328 -1.5731550638 0.5934803376
O -6.4897449826 -1.2006631599 -0.0317090544
H 1.8963908278 -0.5214070243 0.9108912056
H 1.8707825381 -0.8215093544 -0.831482055
H 1.9555523245 0.836774247 -0.2188425752
H -2.918683608 1.1060398436 -0.0879519267
H -3.0099034997 -0.4735685501 -0.8756099174
H -4.9509074714 0.5185897849 1.2052772938
H -4.541658652 -2.2352767454 2.5899906427
H -6.0475999701 -1.1856533459 2.6677833712
H -4.7230718992 -2.3560399077 0.0983525512
H -7.1487184818 -1.877806088 0.1548921795

