# b3lyp 6-31G(2df,p) opt Freq 

 titel

0 1
C -2.7770704938 2.5423587219 1.0992042013
C -1.8920828803 1.2932922103 1.1396017231
C -2.7411482889 0.0057137828 1.1933712715
C -1.8735156044 -1.2430599704 1.218485864
O -1.995136286 -2.1165261378 2.041520756
C -0.8088744117 -1.3078130699 0.1228058614
C -0.0489194441 0.0089749724 -0.0406150836
O 1.1534634271 0.0440377781 -0.1309883731
C -0.9233334325 1.2530957083 -0.0610638888
H -3.4401768489 2.5833966089 1.9689576585
H -2.1714619499 3.4539889432 1.0934321702
H -3.4029093724 2.5492606266 0.199171329
H -1.2866411541 1.33253133 2.0559698094
H -3.3922437468 -0.0100224083 2.0705050851
H -3.3802258273 -0.0348100878 0.2984173184
H -0.1181415958 -2.1310979564 0.3051128011
H -1.3369434152 -1.4914552945 -0.8250494121
H -0.2728042664 2.1305367947 -0.0821350431
H -1.5117730988 1.2473227079 -0.9909585984

