# b3lyp 6-31G(2df,p) opt Freq 

 titel

0 1
C -0.9348853572 2.2181464262 1.2247491449
C -1.0734050631 1.1484914923 0.143675881
C -1.0762069319 1.7864823645 -1.2567944417
C -2.1947583194 0.084841393 0.2604995544
C -2.0057765954 -0.8628569572 1.3812158794
O -1.4814115102 -0.4522756123 2.609375539
C -1.1486688247 -1.0811632908 0.1479139825
C -0.0673095875 -0.0354967498 0.1077673453
O 1.1191526975 -0.0866554663 -0.0576877992
H -0.9380624175 1.7824842074 2.222860735
H 0.0009789599 2.7692305756 1.08285104
H -1.7574281234 2.9395009479 1.1563000672
H -1.1812224784 1.035603044 -2.0466498693
H -1.9055275242 2.4960507005 -1.3493761399
H -0.1408626077 2.3273791321 -1.4255667951
H -3.1388096561 0.1545683869 -0.2671386502
H -2.7999093235 -1.6066748654 1.4687284835
H -0.9187300364 -1.1578113853 2.9463781964
H -1.1672146208 -2.0152802933 -0.4009268632

