# b3lyp 6-31G(2df,p) opt Freq 

 titel

0 1
C -1.2350071996 3.4869243791 0.3191557407
C -1.5280878321 2.4686972751 1.3788490992
O -2.9046799375 2.0882244045 1.3428043965
C -2.7336659289 1.559645561 0.0005298135
C -1.2715310706 2.0117941326 -0.0428184895
C -0.1550840997 1.2646111058 -0.6986488879
C 0.1106117771 -0.2027659419 -0.2747722205
O 1.4925624199 0.0866688281 0.0147311188
C 1.2934105779 1.4954640198 -0.2032478631
H -2.022895362 4.1624436826 -0.0043119041
H -0.2401205419 3.9214849047 0.3506477386
H -0.9904430278 2.34847841 2.3126965084
H -2.855128135 0.4696600583 0.0020257693
H -3.4286824966 2.0072483995 -0.7202007337
H -0.228399707 1.3637631431 -1.7869062972
H -0.4372868767 -0.5215373678 0.6223669276
H 0.0058348847 -0.9686273116 -1.0515973232
H 1.3732813774 2.0669653325 0.732064186
H 2.0021252884 1.9065000546 -0.9308298394

