# b3lyp 6-31G(2df,p) opt Freq 

 titel

0 1
C 0.8310217152 -0.4693237203 1.1184186806
C 0.6966709419 0.1791881009 -0.2668124238
C 1.5714477815 -0.4841439381 -1.2934237065
C 3.0635740533 -0.1602002209 -1.5256893706
C 2.1047013459 -0.1004640363 -2.6596203261
C 1.8072761284 1.0066055163 -3.6116212643
O 1.9153825846 -1.4711306501 -3.1480932496
C 1.330352016 -1.8241470761 -1.9395346232
O 0.796772634 -2.8516336118 -1.6672461763
H 0.5718731498 -1.5307999136 1.070753898
H 1.8568550194 -0.3891811759 1.4921019601
H 0.1669895954 0.01373145 1.8411045306
H -0.3483154456 0.1278098252 -0.5954606579
H 0.9530060057 1.2443164265 -0.2109281535
H 3.3663193105 0.7928691988 -1.0992383516
H 3.8164675146 -0.9414262641 -1.492379627
H 1.8695796015 1.9712763017 -3.1000828435
H 2.5294480963 1.0124554531 -4.4348190739
H 0.8047674815 0.8969914748 -4.0351711416

