# b3lyp 6-31G(2df,p) opt Freq 

 titel

0 1
C 0.3433011024 -0.2622631872 -0.7021612114
C 1.2330610573 0.303257009 0.3820694729
O 1.2945026023 -0.6243794876 1.4391581158
C 2.1246992152 -0.1645398893 2.4948059736
C 3.5323598077 0.1424266823 1.981139866
C 3.4134637685 1.096940769 0.7779921582
O 2.5072581601 0.5466640912 -0.1788965434
C 4.6937750418 1.3463014186 0.1269354087
C 5.7667325212 1.5535336238 -0.371000344
H -0.6545532596 -0.453531654 -0.3012932537
H 0.2712463822 0.4440324401 -1.5319243784
H 0.7669820703 -1.2005910021 -1.0678150113
H 0.8353186485 1.2612329814 0.7747393218
H 1.6847011893 0.7383730627 2.9526234356
H 2.136730094 -0.9537221821 3.2507950908
H 4.1451395204 0.5961933568 2.7663815315
H 4.0191158829 -0.7789569629 1.6489870603
H 3.0065825558 2.060148527 1.1364401402
H 6.7097783796 1.7384893434 -0.8231352135

