# b3lyp 6-31G(2df,p) opt Freq 

 titel

0 1
C -2.7630151574 -0.8855751633 -2.0167516756
C -1.2990949979 -0.8370493207 -1.5879514887
O -1.2353544704 -0.5480983303 -0.1778069682
C -0.4035091356 0.5404998121 0.1470022146
C -0.9175079572 1.8276345575 -0.5270085972
C -0.3934852562 1.6058706412 -1.9352302503
C 0.7815460022 0.676843098 -1.7479154602
O 0.9026588442 0.3517327056 -0.3774731541
C -0.4699489997 0.1541170585 -2.3942703258
H -3.3199969514 -1.565724274 -1.3662964486
H -3.2225679603 0.1055441982 -1.9565734705
H -2.8498244775 -1.244733805 -3.0479309508
H -0.8602633927 -1.8367082367 -1.7218471262
H -0.3369578101 0.5649475948 1.2347362288
H -2.0036027048 1.9001043717 -0.4425376641
H -0.4635059432 2.7175825672 -0.0787661029
H -0.3852585733 2.4094528298 -2.6608193746
H 1.7354828789 0.7543313427 -2.2528396734
H -0.4503613974 -0.0297555173 -3.4639565822

