# b3lyp 6-31G(2df,p) opt Freq 

 titel

0 1
O 0.1801112259 1.3616484262 -0.013371687
C 0.0501946654 -0.0532495677 -0.0124037383
C 0.1434157028 -0.568559118 -1.4754862365
C -1.426574186 -0.6445136855 -1.5183878209
C -1.3848094548 -0.5556648851 -0.0084900871
C -1.978125414 -1.0667287289 1.059960757
C -1.2479756737 -1.0166346331 2.3820197693
O 0.0059270983 -0.3460321756 2.3275459143
C 0.7859854929 -0.6652660272 1.1695791845
H -0.0900904306 1.6510795043 0.8673096944
H 0.6259799195 0.1196465099 -2.1709885193
H 0.6078680374 -1.5548750773 -1.5446609282
H -1.855710883 0.2454483863 -1.9884324051
H -1.8834170346 -1.5333646986 -1.9606129324
H -2.9239261218 -1.6029211392 1.0298433669
H -1.8301598143 -0.4902031913 3.147748191
H -1.1051734474 -2.050488958 2.7467903717
H 0.9021481742 -1.7536151967 1.057706805
H 1.7673233638 -0.2106733146 1.3317048806

