# b3lyp 6-31G(2df,p) opt Freq 

 titel

0 1
C 4.6973633634 3.5749370659 3.9069205077
C 4.0800613191 2.2505172843 3.5004827512
O 4.7056811599 1.2141590596 3.5225880563
C 2.6410309918 2.296075496 3.0199714729
C 1.8868311695 0.9544323306 2.8753915348
C 1.3365598389 1.4224439866 1.4923049116
C 2.4556449999 2.5083128979 1.4779864284
C 1.3576356563 0.4140793409 0.3778757271
O 0.4170957779 0.1236044714 -0.3157359682
H 4.2187205122 3.9365098868 4.8249760827
H 5.7674414206 3.455460492 4.0796852306
H 4.522744893 4.3372421813 3.1392975762
H 2.0724507285 3.0457621863 3.5778409367
H 2.6062071584 0.1364287533 2.7779688483
H 1.1487723182 0.6979643957 3.6367414606
H 0.3378486397 1.8580889321 1.5629446596
H 3.3359817847 2.1666821983 0.9237373447
H 2.177215503 3.5037216486 1.1283987523
H 2.352390595 -0.0729965975 0.2325697163

