# b3lyp 6-31G(2df,p) opt Freq 

 titel

0 1
C -0.5029424648 1.2573418712 -1.1617851869
C 0.5434434132 2.2492617505 -1.7285421217
C 1.8174988695 2.3251258734 -0.8762889086
C 1.6162239494 2.802363422 0.5627702818
O 0.6802806957 1.9979371105 1.2730287925
C 0.7568709062 0.624977723 0.9965053551
C 0.1135111379 0.1556476071 -0.3074335649
C 1.6175782389 0.1259250678 -0.1314975801
O 2.4245770435 1.028685203 -0.8332624613
H -1.2328707132 1.8002070037 -0.5517284235
H -1.0563013369 0.808742142 -1.9918215674
H 0.8592192229 1.9256812095 -2.7255140997
H 0.1042520197 3.2463057172 -1.8391959455
H 2.5535974397 2.9758109445 -1.3588452594
H 2.5941613853 2.7892575404 1.0662057486
H 1.2225033724 3.8232591482 0.5903660279
H 0.6480402505 0.0285632004 1.8973322015
H -0.4101495079 -0.7951468942 -0.2929818973
H 2.1257963481 -0.8264823301 -0.0269801212

