# b3lyp 6-31G(2df,p) opt Freq 

 titel

0 1
O 5.0384876092 1.5896424341 1.418400217
C 5.025235347 0.4256674127 2.2382092595
C 3.8671408401 0.413898926 3.2398087396
O 2.7213429817 -0.0299004838 2.5304027936
C 3.1062812048 -0.7135283174 1.332570634
C 2.5327613898 0.0298895899 0.1084466567
C 1.0773101726 0.0858801519 0.1008906986
C -0.1241854691 0.1136095988 0.0912122923
C 4.6490683314 -0.7579282935 1.3444686562
H 5.0800007015 2.3629067515 1.9899803228
H 5.9958026466 0.2891219019 2.734592169
H 4.0969659149 -0.2653048883 4.0769438767
H 3.6610962732 1.4065509351 3.65909767
H 2.6778326929 -1.7225166673 1.3636497845
H 2.9601742629 1.0380342036 0.0970480005
H 2.8829503429 -0.477508569 -0.8003376519
H -1.185062128 0.1478565451 0.0866644639
H 5.0027887018 -1.6892198568 1.7954357226
H 5.0931038538 -0.6649308844 0.3514839946

