# b3lyp 6-31G(2df,p) opt Freq 

 titel

0 1
C 1.8057426146 -0.0463930338 -2.9651647947
C 0.5405331309 0.2545983285 -2.220587353
O 0.3210553278 1.6894416623 -1.940068874
C -1.0595752761 1.3051414135 -1.8088989585
C -1.17519086 0.1212656717 -0.7430515849
C -1.7641504533 -0.7632048976 -1.8726287545
C -0.9238197766 0.1334140769 -2.8004154835
C 0.3150087216 -0.2955991444 -0.7824492485
O 1.1600221092 0.3076669934 0.1603628011
H 2.6730446882 0.1990835992 -2.3441917458
H 1.8524038172 -1.1124627467 -3.210012744
H 1.864593914 0.5276507077 -3.8938606641
H -1.779799195 2.1205808578 -1.836806897
H -1.6432436902 0.2304990225 0.2329998266
H -1.5622746596 -1.8376533159 -1.8310420875
H -2.8328544502 -0.5994915768 -2.0350997322
H -1.0573858821 0.2242393791 -3.8775525993
H 0.4479312034 -1.3774248184 -0.6968647185
H 1.1820172963 1.2431758813 -0.0898384377

