# b3lyp 6-31G(2df,p) opt Freq 

 titel

0 1
O 0.5141925846 0.5737613374 0.2249453852
C -0.81200123 0.7881254725 0.6509961701
C -1.2147142829 0.1235345742 2.0359252662
C -1.611933172 1.4317226413 2.6972445449
C -1.9316777758 2.1003549952 4.0292419813
C -1.223333592 3.3828832224 3.4551436397
C -0.5516402623 2.5050908298 2.338755544
C -1.2065034466 2.2736851665 0.976644333
O -2.4743440573 2.0283315019 1.6437368573
H 1.1116650197 0.8475628772 0.928286584
H -1.4454332814 0.4227817793 -0.1596434429
H -2.032020824 -0.5936255478 1.9367891709
H -0.3589226346 -0.3697544977 2.5064133535
H -2.9875720663 2.1705327274 4.2990723316
H -1.3694360983 1.6612160451 4.8587793429
H -1.9185127214 4.1318417936 3.078255366
H -0.5099542038 3.8585178756 4.1299764649
H 0.5194174105 2.330773294 2.4707261848
H -1.2456706661 2.9771137421 0.1424372724

