# b3lyp 6-31G(2df,p) opt Freq 

 titel

0 1
C 0.996151379 1.2876590108 0.0431628492
C 1.5731406801 -0.1169388825 -0.088462397
C 0.1049312098 0.0943990214 0.1090994931
O -0.4740440006 -0.264669895 1.3682767687
C -1.7943744052 -0.7329602247 1.0466779021
C -2.6049433938 0.4727404925 0.5493664743
O -2.0345682436 0.7335879552 -0.7506304877
C -0.9794715436 -0.2300599256 -0.9042620203
C -1.5776580573 -1.4964553828 -0.2708907435
H 1.1804597749 1.8126581593 0.9737187505
H 0.949627579 1.9204711418 -0.8368942126
H 1.9330440697 -0.4455716491 -1.0583316478
H 2.1252656815 -0.5076879563 0.7592668658
H -2.200445521 -1.2647459812 1.9059363083
H -3.6767745498 0.2586355835 0.4481559054
H -2.4667564007 1.3394436917 1.2042057178
H -0.6682280685 -0.2513609816 -1.9475530055
H -2.4962293018 -1.8221842015 -0.7619416603
H -0.8727763881 -2.3224285957 -0.1654869106

