# b3lyp 6-31G(2df,p) opt Freq 

 titel

0 1
O 1.5940473564 0.1853731684 -0.0121749567
C 0.2103028631 0.5226437893 -0.2057659168
C -0.0558696467 0.4791467602 -1.6918249988
C -1.3379460009 -0.2334645022 -2.1033733004
C -1.5401345699 -0.3076705247 -3.6439419071
C -0.4553784015 0.3415085938 -4.4659393583
C -0.1921807851 -0.9847533581 -3.8028967862
C 0.0187055435 -0.9077956847 -2.262975686
O 0.6071870346 -1.9544723704 -1.5842882735
H 1.7751971469 0.1802939734 0.9332564946
H -0.4305513521 -0.1995341583 0.3179609774
H -0.001609149 1.5222662256 0.1974300734
H 0.3186221335 1.3484939251 -2.2242808519
H -2.1390035298 -0.4029051071 -1.3944788504
H -2.486015242 -0.6046106118 -4.0780643886
H -0.6141405321 0.2757602593 -5.5391429939
H 0.041351129 1.2581153341 -4.1682020171
H 0.0440308858 -1.8859730488 -4.3536568218
H 1.2979470063 -1.565966663 -1.0266040182

