# b3lyp 6-31G(2df,p) opt Freq 

 titel

0 1
O -0.1486502599 2.369342179 -0.4890248493
C -1.0037110228 1.3554410055 -0.0414706051
C -1.9699420084 0.7874684559 -1.0889634522
C -2.3798372634 -0.5793273898 -0.483136204
C -1.1019550635 -1.0787611999 0.1884787251
C -1.0200574089 -2.2514735105 1.1465206514
C -0.3939542689 -2.3708136904 -0.2013304991
C -0.2393834023 0.1136117677 0.4181562425
O 0.9011743691 0.1464479169 0.8256738122
H 0.7121799869 2.1789348537 -0.0867534118
H -1.5967089426 1.694000309 0.8314965633
H -2.821802674 1.440697974 -1.2878799049
H -1.422061592 0.6459766269 -2.0272518702
H -3.175177557 -0.4373989823 0.25885366
H -2.7617634448 -1.271024528 -1.2381434892
H -0.3648030924 -2.1317068365 2.002751401
H -1.9445949713 -2.7850009485 1.3403898326
H 0.6874883337 -2.3224905875 -0.2653947163
H -0.8829572376 -2.9832062551 -0.9511691759

