# b3lyp 6-31G(2df,p) opt Freq 

 titel

0 1
C -0.0677557221 -0.0611976408 0.077153507
C 1.447394967 -0.0066382293 -0.1912106311
C 1.9904525915 1.3456106864 -0.1376514822
C 2.410885368 2.4725641571 -0.0660875705
C 2.9455742245 3.8269837111 -0.0770748737
O 3.9237179155 3.964987906 0.9419972029
C 4.2658807173 5.3154469507 1.2026691898
C 3.6011846634 4.0678521195 -1.4520544172
O 3.182460054 4.8260884921 -2.2833281047
H -0.3009752491 0.3352400894 1.0688323502
H -0.6145858676 0.5310408043 -0.6612160223
H -0.4246828931 -1.0937658437 0.0246114389
H 1.9758767992 -0.6312261298 0.5400676526
H 1.6650271182 -0.4439268783 -1.1739797256
H 2.1393907216 4.5673717934 0.0427890232
H 5.0130824994 5.3006906258 1.998499582
H 4.693153878 5.8184350603 0.3233567396
H 3.3920496534 5.8925005464 1.5393592314
H 4.5265796608 3.4671713894 -1.5922070805

