# b3lyp 6-31G(2df,p) opt Freq 

 titel

0 1
O -0.3259824087 -1.7858330694 2.727434427
C -1.2070689241 -0.7731098667 3.1067401045
C -2.5785405093 -0.7180025652 2.476684434
C -1.5419419743 0.3299352526 2.1466419466
C -1.5992648651 1.8273286684 2.396899007
C -2.3393142343 2.4721018179 1.2593260293
C -0.9046524011 2.0687036422 1.0471736717
C -0.7802285281 0.558833132 0.8194464808
O 0.5700485862 0.0909304125 0.8354922187
H 0.2253528504 -1.4311732142 2.0149313646
H -1.1356362089 -0.5125878642 4.162745801
H -2.7892212221 -1.4711045478 1.7239730564
H -3.4254556045 -0.4248486801 3.089496661
H -1.4429669945 2.3233234346 3.3477179542
H -3.1422141647 1.9342599761 0.7612183623
H -2.5024674384 3.5419864699 1.3439740628
H -0.1359911137 2.7840184476 0.777491216
H -1.2171114349 0.1466859177 -0.0948527846
H 1.0424441601 0.6016086964 1.5047391466

