# b3lyp 6-31G(2df,p) opt Freq 

 titel

0 1
O 3.3454206628 -0.7923860452 -0.2933214821
C 2.65653452 0.4489099462 -0.2550135581
C 1.39815211 0.4257870677 -1.1121341331
C 1.5518811119 0.4401342405 -2.6668772835
C 0.6030829857 1.6656982013 -2.7645086874
C 1.3226838768 3.0408335074 -2.7852037108
C 1.3015531601 3.0322362208 -1.2425011904
O 1.7082026019 3.7861107584 -0.4059910883
C 0.5132986751 1.7142316402 -1.1890978722
H 3.6678007435 -0.9224077793 -1.1909444583
H 2.3934652247 0.6166614038 0.7948111504
H 3.3134671024 1.2796056202 -0.5564455258
H 0.7867844626 -0.4232371095 -0.7944847529
H 2.5670910622 0.6352406387 -3.0319079339
H 1.1832698451 -0.46103698 -3.1608736872
H -0.2778502425 1.5660738602 -3.3960728773
H 2.3034977713 3.1030604524 -3.2661523606
H 0.6982593527 3.8539005022 -3.172771977
H -0.4062313063 1.725202104 -0.6019351215

