# b3lyp 6-31G(2df,p) opt Freq 

 titel

0 1
C 1.3933410152 -2.1487150548 -2.4512170724
O 2.1479931712 -1.1187182195 -3.1331612558
C 2.1084925563 -0.258774528 -1.9774991998
C 1.2305492696 -1.2792050909 -1.1948322668
C 0.0365232617 -0.2853966159 -1.2614326299
O -0.3212924276 0.2981443004 -0.0251422668
C 0.6239285067 1.3182633149 0.2834707591
C 1.0142141221 1.938118123 -1.0681170304
C 0.9344624538 0.7489508164 -2.0339505853
H 0.4724373787 -2.4165910061 -2.9863646115
H 1.9971052076 -3.0531603153 -2.3077670985
H 3.1001779248 0.1035320292 -1.6882643191
H 1.4629490953 -1.7097701024 -0.2217805034
H -0.8757873848 -0.6664897002 -1.727935342
H 0.1435119987 2.0191845208 0.9708432265
H 1.5050931475 0.8938574844 0.7899511282
H 0.2845996351 2.7002117598 -1.3572899229
H 2.0024750341 2.406716953 -1.0454474823
H 0.6467728642 1.024393631 -3.049140957

