# b3lyp 6-31G(2df,p) opt Freq 

 titel

0 1
O 0.3086322229 0.1400721742 0.1767828372
C -0.4737082373 0.6052058199 1.2375619728
C -1.8062503529 -0.0398930007 1.5084337426
C -1.7402959916 1.3662897739 0.9349554673
C -1.9105114633 2.5097218978 1.9302737059
C -0.6280190193 2.5043371798 2.7807056753
O 0.3855561926 3.3858909281 2.2424769313
C 1.3005750261 2.2899207413 2.0264482438
C 0.2290749808 1.2577066378 2.4191458911
H 0.6683666078 -0.7187752388 0.4247233238
H -2.1025945275 -0.828942327 0.8256758329
H -2.1390342979 -0.1736253832 2.5347012951
H -2.0486803815 1.4956394747 -0.0955938774
H -1.9917573335 3.4790057186 1.4300151069
H -2.8057622687 2.380391133 2.5496670266
H -0.8020521585 2.7102517042 3.8430991962
H 1.6568602947 2.2378188246 0.9927021117
H 2.1589064719 2.3397277355 2.7088601987
H 0.494018575 0.5605512062 3.2181276481

