# b3lyp 6-31G(2df,p) opt Freq 

 titel

0 1
C 1.5250653395 0.0211091685 -0.0755577672
C 0.0733165308 0.0375083214 0.0433474724
C -1.1269050371 0.0125223342 0.154398572
C -2.5803959451 0.0708907185 0.2640067404
C -3.0777017925 1.5343779026 0.3316457125
O -2.623760517 2.2888368404 -0.7747243798
C -4.5874923291 1.5861893538 0.3061356004
C -5.3445114049 2.5165407676 1.147373872
O -5.2393765336 1.1312691378 1.4919276641
H 1.9461215466 -0.8836526386 0.3763396457
H 1.841323194 0.0454709697 -1.1240949104
H 1.976931639 0.8826109492 0.4281310544
H -3.0398530716 -0.4178734852 -0.6051552358
H -2.9302341323 -0.4605429393 1.1564150289
H -2.7283697903 1.9686572552 1.2819954039
H -1.6840344767 2.0919386291 -0.8794050454
H -5.0360534092 1.2424856716 -0.6273988924
H -4.8086845504 3.2021844846 1.8020503812
H -6.3340703402 2.8450220389 0.8345234131

