# b3lyp 6-31G(2df,p) opt Freq 

 titel

0 1
C 0.0708560698 1.226383185 -0.9877990974
C -0.4215481379 0.0007582676 -0.2273116842
O 0.1256799031 -1.1365103566 -0.8921106611
C 0.0205416526 0.0195460174 1.2315263466
C -0.6976153101 0.9419996944 2.2836406036
C -0.0964010122 -0.016178746 3.3685362971
C -0.5942375008 -1.0041089763 2.2593639188
C -1.8351884357 -0.093682226 2.2227852977
O -3.0242257328 -0.1578824395 2.1885756916
H -0.3395792197 2.1438070412 -0.5564862611
H 1.1637432564 1.2812190705 -0.9541033211
H -0.2352471278 1.1652919544 -2.0351253531
H -1.5222965436 -0.0283521265 -0.2739650891
H -0.2344107576 -1.9267603932 -0.4770068598
H 1.1121971702 0.0685619402 1.3022333518
H -0.7422779017 2.0285893357 2.3044051113
H 0.9897128797 0.040705378 3.466848787
H -0.5940466718 -0.0555309285 4.3388181186
H -0.5207260399 -2.0902208517 2.2575303828

