# b3lyp 6-31G(2df,p) opt Freq 

 titel

0 1
C 0.324128185 -1.1155550928 -0.5277303486
C 1.4650451877 -0.2045265045 -0.093360887
C 2.2734193197 -0.8143348209 1.0585239339
O 0.9059181283 1.0505188384 0.3355363795
C 1.6988961973 2.1058963821 -0.1685538517
O 2.8462875589 1.5343137472 -0.7579918239
C 2.4308632483 0.2534371248 -1.2306078338
C 1.8302278987 0.3335338399 -2.5640745059
C 1.3583157559 0.4150952033 -3.6665422289
H -0.3222519613 -1.3286656666 0.3282592041
H -0.2731894286 -0.6421503694 -1.3083447873
H 0.7097382087 -2.065781487 -0.910031414
H 1.6384482787 -0.9054907873 1.9437216748
H 2.6459462045 -1.8100790113 0.7960205951
H 3.1254031287 -0.176286819 1.3083474196
H 1.1153574775 2.6758405804 -0.9092050386
H 2.0323983154 2.7685912965 0.6385824213
H 3.3246915938 -0.3757966195 -1.267526755
H 0.9446486027 0.4839461457 -4.6425768138

