# b3lyp 6-31G(2df,p) opt Freq 

 titel

0 1
C -4.7994738172 1.613891027 -1.7635778143
C -3.7995483879 1.5557799972 -1.1015186274
C -2.6057004713 1.4839140828 -0.2692623818
O -1.4512345904 1.4746562476 -1.088098207
C -0.2315322009 1.4800764186 -0.3567340602
C 0.1797358026 0.078765326 0.1447233739
C 1.0548846664 -0.4222101848 -1.0074645557
O 1.7846008498 0.726499614 -1.4144628844
C 0.8997227376 1.8371065029 -1.3516915897
H -5.6799265088 1.6669592163 -2.3549982181
H -2.5787807188 2.3473911449 0.4176350679
H -2.655719457 0.5826184588 0.3631241127
H -0.3052524485 2.2065087538 0.4643651998
H 0.7768431474 0.1667036058 1.0578108745
H -0.6812643201 -0.560117631 0.3543218318
H 1.773747117 -1.1945208444 -0.7232059126
H 0.4295151259 -0.8064385627 -1.8290689639
H 1.4794367939 2.7119290031 -1.0435865421
H 0.4390567203 2.0409499839 -2.3278561136

