# b3lyp 6-31G(2df,p) opt Freq 

 titel

0 1
C -0.6177567243 1.248967182 -0.3381605593
O -0.1197789811 -0.0427362597 0.0470831089
C 1.3042252749 -0.0202956585 -0.0950504151
C 1.5549689291 0.9529458338 -1.2484325011
C 0.5992375205 2.0790103702 -0.8063975573
C 1.2325462362 2.8783626742 0.3497353842
C 1.84048641 1.9754581008 1.4153521739
O 3.0788474615 1.323001712 1.090631409
C 1.9002140579 0.5205293466 1.2009915065
H -1.3453912027 1.1100048932 -1.1476355281
H -1.1380814142 1.7126212238 0.5094613338
H 1.6310436509 -1.0453890322 -0.2886654536
H 2.5954132274 1.2692544189 -1.3243813397
H 1.2380408965 0.5016106436 -2.1926563037
H 0.3246379765 2.7542091094 -1.620655703
H 2.0116501613 3.5497595082 -0.0312668182
H 0.4728990324 3.5133781071 0.8208635965
H 1.8104013927 2.3504014566 2.4379649244
H 1.8766530245 -0.1506176402 2.0586848918

