# b3lyp 6-31G(2df,p) opt Freq 

 titel

0 1
O 8.0426316144 1.395019151 4.3414343889
C 7.1182012487 0.6496722354 4.1475711982
C 6.4577507234 0.4188877812 2.8074361174
C 4.9485617939 0.6552065959 2.8615681246
O 4.3906805247 0.2004572559 1.6495200205
C 2.9961262151 0.4005924236 1.5668108763
C 2.5323085604 -0.1392168116 0.2098882101
C 1.0974667004 0.0191390582 0.0176295978
C -0.088321672 0.1625832866 -0.1139233567
H 6.6798745928 0.0542100434 4.983485248
H 6.9322273175 1.0518528136 2.0543555435
H 6.6188122878 -0.6324944009 2.530696725
H 4.5060572071 0.1142363945 3.7162092617
H 4.7331541389 1.7259701813 3.0101282725
H 2.4747842401 -0.1262972085 2.3815992156
H 2.747136394 1.4697591273 1.653590165
H 3.0833374024 0.3826909171 -0.5813698292
H 2.8123572782 -1.1969010052 0.1391405448
H -1.1351167577 0.2833504113 -0.2442581239

