# b3lyp 6-31G(2df,p) opt Freq 

 titel

0 1
C -0.5755075979 2.3324098461 1.1315517724
C -0.8494023847 1.2241713057 0.1179176176
C -2.3015165542 0.6855570276 0.0810708599
C -2.1588556293 -0.7815107351 -0.2868667652
O -1.3145376874 -0.9893116093 -1.4179960568
C -0.7669894873 -1.241453531 -0.0988126247
C -0.2996470777 -2.6283844891 0.2193316582
C 0.0098603172 -0.0283125248 0.3648253728
O 1.0911596653 -0.0574077588 0.8973892179
H -0.8648072698 2.0227824435 2.1414019339
H 0.4908430963 2.5706375259 1.1517073804
H -1.1325561938 3.2402922423 0.8820706275
H -0.5801163683 1.577417524 -0.8853330493
H -2.7673490864 0.7682412784 1.0707100961
H -2.9378432675 1.2235086535 -0.628108966
H -2.9963334721 -1.4695727221 -0.1953247723
H -0.2291782476 -2.7696791016 1.3019322504
H -0.9879395204 -3.3694296748 -0.1935342898
H 0.6960229555 -2.7987820706 -0.200673293

