# b3lyp 6-31G(2df,p) opt Freq 

 titel

0 1
O 0.8942549637 1.0243243613 0.1917226844
C 0.2465479533 -0.230464638 0.3721520681
C -1.0801804811 -0.1069103835 1.0531959903
O -2.2362714424 0.2411187419 0.2681744299
C -2.2841989336 -0.9610305165 1.0427268175
C -2.6473205965 -0.5696738992 2.486882641
C -1.3908154483 0.3367429126 2.4785527307
C -1.1900620442 1.6972683881 3.0683077252
C -0.4024384454 0.5146896056 3.5934770783
H 1.2447049136 1.305657379 1.0419889946
H 0.0896411808 -0.6436937857 -0.6283766468
H 0.8844477322 -0.930946297 0.9316648958
H -2.4896485488 -1.886613182 0.5166282698
H -3.6161885529 -0.0765561639 2.6002095841
H -2.5673297563 -1.4013212325 3.1926631364
H -0.6759713015 2.4400472679 2.4674595294
H -1.9761752837 2.1005201256 3.6981125401
H 0.6582648255 0.4553129623 3.3661250937
H -0.6584963044 0.1209051738 4.5719020175

