# b3lyp 6-31G(2df,p) opt Freq 

 titel

0 1
C -0.4508969551 2.0529149381 1.2197643774
C -0.7674745876 1.3141571124 -0.0923571937
C -2.1905249591 0.793403948 -0.1681840924
C -2.5635591326 -0.0427194148 -1.3802449926
C -2.1842833381 -0.7298925203 -0.1077556337
O -3.1965738442 -1.4567567156 0.5159240658
C -0.748317385 -1.2022940619 0.022578647
C 0.1118755138 0.0498337392 -0.2018353669
O 1.2969106179 0.0543105255 -0.410083589
H -0.6798574005 1.4312194379 2.0924910789
H 0.6084539105 2.3194102527 1.2589300562
H -1.0433938591 2.9694722664 1.297546125
H -0.5130305399 1.9723698879 -0.9320064251
H -2.9849243734 1.3472216998 0.3202458427
H -3.616238841 -0.0793427944 -1.6351430858
H -1.8878334357 -0.0768825841 -2.2308259321
H -3.0510591315 -1.4217046988 1.4682944915
H -0.5555767263 -1.5698213434 1.0407316823
H -0.4591120534 -2.0020605545 -0.6652087958

