# b3lyp 6-31G(2df,p) opt Freq 

 titel

0 1
C 0.3786353061 -3.0559179783 3.3921419476
C -0.111014143 -1.7214753502 2.8796780732
C -0.9962705041 -1.6286705354 1.6611224477
C 0.4323617362 -1.1516765909 1.5906893795
C 0.7472705706 0.3058238433 1.4929232335
C 0.0192406333 1.2146597317 0.5738705955
O -0.2416490893 1.2346416757 1.9689391973
C 2.1454159262 0.7311038971 1.8377206789
O 3.076029 -0.0234172525 1.9513665689
H -0.3625307857 -3.5239564718 4.0493571564
H 0.5721391777 -3.7474107737 2.5650627111
H 1.3099775469 -2.9468072001 3.9578829063
H -0.3265962139 -0.9839949589 3.6484414168
H -1.246803941 -2.5439999786 1.1350723546
H -1.7778521478 -0.8770008563 1.6686896667
H 1.144478582 -1.7740820863 1.0581038769
H 0.5036430827 2.1056812128 0.1761664201
H -0.7595186814 0.7779626208 -0.0481139402
H 2.2462254146 1.8307532014 1.9789813892

