# b3lyp 6-31G(2df,p) opt Freq 

 titel

0 1
C -0.6676474416 -0.285851321 -1.1607915037
O -1.8157764019 0.263742714 -0.508433729
C -1.4957540821 1.2660208453 0.4294563324
O -0.798884814 0.7237627533 1.5388715107
C 0.149566524 -0.2766640503 1.1780508617
C 0.5946072461 -0.1585883022 -0.2827133384
C 1.3724387965 1.1414062596 -0.5746256155
C 0.5149816932 2.3784204361 -0.6084463703
C -0.7457080332 2.4390146586 -0.1866528978
H -0.9090376423 -1.3386754423 -1.3392849502
H -0.5176915019 0.1996140612 -2.1352515301
H -2.4555733128 1.607883892 0.8248653662
H 1.00125946 -0.173961082 1.8600570131
H -0.2913676523 -1.2720949926 1.3384014018
H 1.2581236589 -1.0043997256 -0.4959416865
H 2.1826279087 1.2642624062 0.1595677542
H 1.8763648104 1.0431680386 -1.5461427769
H 0.978589096 3.2699236367 -1.0257164485
H -1.3037829618 3.3671238445 -0.2700981931

