# b3lyp 6-31G(2df,p) opt Freq 

 titel

0 1
O 0.9060433173 -0.7065764732 -0.5610415257
C 0.1043683591 -0.1159580873 0.1137654885
C -0.3273942544 1.3174616511 -0.1301358453
C -0.3651527915 2.1190799138 1.1569139431
O 0.0795611053 3.2302637562 1.2767913096
C -1.7538344902 1.2988811595 -0.7326184714
C -1.9428535928 0.700832454 -2.1561620569
C -2.933695738 1.8572546645 -2.4608267503
C -2.3498830052 2.6385117857 -1.2522324011
H -0.4136608212 -0.6182745417 0.9640570706
H 0.3661964276 1.7899385834 -0.8303260292
H -0.8829921155 1.6117887041 2.0043756385
H -2.4437041496 0.8238448164 -0.0249484838
H -1.0246015351 0.780693825 -2.7447457693
H -2.3105328145 -0.3250368604 -2.2273511844
H -2.8653076955 2.3296369519 -3.4426396722
H -3.9719304854 1.5597685143 -2.2906353853
H -1.560684564 3.3327537499 -1.5542172874
H -3.0444853466 3.1689661128 -0.597395648

