# b3lyp 6-31G(2df,p) opt Freq 

 titel

0 1
C -0.1099392607 -2.2096606109 0.9846708545
C -0.7568267054 -1.2312742792 -0.0077670715
C -0.8880897034 -1.8784681528 -1.4046933823
C -2.1398147838 -0.7699978902 0.4689042182
O -3.0059170783 -1.497313934 0.8824130968
C -2.2517779057 0.7539780078 0.3367699168
C -0.8069498269 1.2691780071 0.2834981715
C 0.0547061566 0.0665385949 -0.1230227862
O 1.2039490392 0.1278708509 -0.4776551144
H 0.0128003028 -1.758515984 1.9743361715
H -0.7427511872 -3.0940077011 1.0942057755
H 0.8770076193 -2.5081423524 0.6220312113
H -1.48364146 -2.7925718938 -1.3334420965
H -1.3732663278 -1.2099630209 -2.1236319681
H 0.1074331749 -2.1196410255 -1.7867452421
H -2.783864625 0.9650728495 -0.5995556775
H -2.8606124024 1.16138512 1.1461656254
H -0.6384258901 2.1053723718 -0.3985685103
H -0.4613643661 1.5950502127 1.2726007074

