# b3lyp 6-31G(2df,p) opt Freq 

 titel

0 1
C -1.2443101807 2.2082840094 -2.1113707959
C -0.5473770903 1.0302201343 -2.8042826336
O 0.7459242347 1.4696690855 -3.2628935431
C 0.6068617685 1.1146610552 -1.8941963122
C 1.4786721936 0.0757708428 -1.2538298678
O 1.2515829405 0.0266767717 0.1508368108
C -0.0616121515 0.3989547238 0.5510812146
C -0.2866129731 1.9037022063 0.3400955455
C -0.0238588839 2.2988830145 -1.1273379634
H -1.4402838428 3.0801870265 -2.7402475921
H -2.166485432 1.9100386444 -1.6039817835
H -0.9792975619 0.1802329348 -3.321439536
H 1.3012531729 -0.9077587338 -1.7177636573
H 2.5387515044 0.3209360876 -1.3895407476
H -0.8197579644 -0.1995781847 0.0206220951
H -0.1283836794 0.1457133898 1.6128022751
H -1.2966803865 2.1869436907 0.6593021072
H 0.4171050755 2.4315696407 0.9919540402
H 0.5444661264 3.2290282506 -1.1992103559

