# b3lyp 6-31G(2df,p) opt Freq 

 titel

0 1
C -3.211189995 -1.2247168635 -2.0109871827
C -3.1413775463 -0.0203621029 -1.0851710619
C -4.132046779 0.0295128951 0.0977889889
O -3.0538902784 0.1163518165 1.0532145795
C -2.0566723746 0.0215198155 0.0252352322
C -0.9808466904 -1.0923271669 0.1891099383
C 0.0898349095 -0.023381842 -0.0753043633
O 1.2567305172 -0.0630270951 -0.336343879
C -0.9441428962 1.1074285209 0.0250810077
H -3.2277275684 -2.163106467 -1.4467395786
H -4.1201725026 -1.1882701229 -2.6208632161
H -2.3567720891 -1.2564404646 -2.6954834271
H -3.1456852987 0.9036736305 -1.6707447307
H -4.794123804 0.9014474929 0.1466319809
H -4.7285482034 -0.881147827 0.2396155912
H -0.9507940531 -1.4536471419 1.2230525884
H -0.9977178038 -1.9511062276 -0.4860912339
H -0.894249133 1.6205258855 0.9920671581
H -0.9446482507 1.8537232644 -0.774353702

