# b3lyp 6-31G(2df,p) opt Freq 

 titel

0 1
O 1.1807436351 -0.0029959762 -0.1450741025
C -0.0230951593 -0.021944568 -0.0445043114
C -0.8655422146 1.2508563407 0.0444044184
C -2.2227917646 1.1584817014 -0.6918567022
C -2.8197210202 -0.250463085 -0.5663181309
C -1.8509126107 -1.2861437781 -1.1451323974
C -0.8228786607 -1.3216546194 0.0083414141
C -1.783650644 -1.3485184359 1.2133465053
O -2.9440850012 -0.6107433576 0.8182277417
H -1.0631339663 1.4078943197 1.1131573392
H -0.2605617451 2.0941116616 -0.2950412038
H -2.9181424114 1.8951153355 -0.278468549
H -2.0989634424 1.3942701255 -1.7558754733
H -3.8186036559 -0.2928871692 -1.0097661293
H -2.3300633909 -2.2624131028 -1.2654848672
H -1.4218240316 -0.9885532007 -2.105294851
H -0.1358233304 -2.1681969355 -0.0149425762
H -2.065941804 -2.3833746451 1.4503773518
H -1.3563516219 -0.898515181 2.1173366838

