# b3lyp 6-31G(2df,p) opt Freq 

 titel

0 1
C 0.8227009169 0.9725935224 -0.9342425829
O -0.0670966002 0.1727636816 -0.147025916
C 1.2872988807 0.2745948754 0.2679048031
C 1.6313055445 0.9547031192 1.6086989836
C 2.6737023652 -0.0288351359 2.1963036527
C 1.9444418318 -1.3438863508 2.517908404
O 1.6265023047 -1.8955112717 1.2251804416
C 2.1569077493 -0.9819487821 0.2557453608
C 3.4397685839 -0.4655450664 0.9227351877
H 1.0543842097 0.578339581 -1.9236498024
H 0.6461241257 2.0475233603 -0.8957101091
H 2.0615341654 1.950041543 1.4594240356
H 0.7399084576 1.0594825694 2.2332675979
H 3.267109395 0.365911472 3.0213524885
H 2.5795353685 -2.0504262356 3.0684675228
H 1.0210370613 -1.1884129097 3.0886952052
H 2.2279132458 -1.4973362299 -0.7017732489
H 4.1722003787 -1.2577522203 1.0943472318
H 3.9088644056 0.3664836384 0.3907629442

