# b3lyp 6-31G(2df,p) opt Freq 

 titel

0 1
C 1.2383501594 -0.573090293 -1.0479789575
C 1.0807592423 0.1803723473 0.2706216636
C 1.8758639073 -0.4107889725 1.4376012538
C 3.2051003763 0.3010545627 1.3894055793
O 3.185271586 1.2303469679 0.3119162132
C 1.779469582 1.5578444591 0.3261959253
C 1.5820310556 1.9987567576 1.7982990998
O 2.2665408151 3.1813770767 2.1372206714
C 2.1774258638 0.7301145892 2.4095291124
H 0.8716521083 -1.600925352 -0.95726328
H 0.6727052759 -0.087917078 -1.8504535551
H 2.2895933034 -0.6106170607 -1.3459113168
H 0.0200178621 0.2917789667 0.522528133
H 1.7777619771 -1.4409684508 1.7544413577
H 4.1723538993 -0.1326741492 1.5966203841
H 1.5630397085 2.290395655 -0.4485789016
H 0.5299306121 2.1553490143 2.049107984
H 3.1581483877 3.084410251 1.7785125906
H 2.3015308679 0.5961266386 3.4751310729

