# b3lyp 6-31G(2df,p) opt Freq 

 titel

0 1
C -0.0048085521 0.1449023171 0.0688671315
C 1.5081279117 0.1175301562 0.1206447211
O 2.0489158853 -0.885363291 -0.809099996
C 2.5263386473 -1.6410770499 0.2863985738
C 2.111568247 -0.6373891733 1.3055347298
C 3.6069667938 -0.8682960595 1.0746457281
C 4.5196542491 0.1257544197 0.3915595597
C 4.2128858494 -1.738969293 2.1151225882
O 3.5908890589 -2.4740640995 2.8491997716
H -0.393873884 0.8626892898 0.7991703161
H -0.3419169666 0.4487058179 -0.9263505873
H -0.4193633559 -0.842018606 0.2924602408
H 1.92816776 1.1068154327 -0.0939193441
H 2.4910348405 -2.7227558604 0.2452260277
H 1.6700081687 -0.7819787748 2.2820650429
H 4.6146572859 1.0556973458 0.9623736434
H 5.5232490444 -0.2975644934 0.2750763763
H 4.1483128656 0.3674378303 -0.6067277724
H 5.3242364309 -1.6929810385 2.1599457188

