# b3lyp 6-31G(2df,p) opt Freq 

 titel

0 1
C 1.7983129101 -1.2294198114 -2.1947290522
C 0.7942123416 -1.5059809188 -1.1008962687
O -0.220247361 -2.4660336874 -1.4378588066
C 0.741493346 -2.8225058923 -0.4378695101
C 0.2048835626 -3.0021417859 0.962960162
C -0.4908988969 -1.7820692964 1.4967321445
C -0.4998782325 -0.5974385609 0.8897003346
C 0.2486316029 -0.2770823634 -0.3751550986
O 1.2924884418 0.6674917415 -0.1005984793
H 2.0904838562 -2.1619817763 -2.6838029692
H 1.3622380412 -0.5669913553 -2.9506827435
H 2.6857467218 -0.7334689681 -1.7955963116
H 1.4525712941 -3.5835090477 -0.7639771034
H -0.4833523786 -3.8590769814 0.9750311095
H 1.0316009719 -3.2850719247 1.6311577922
H -1.0241771259 -1.9054014775 2.4364078359
H -1.0231032694 0.2426075479 1.3388555042
H -0.4123891784 0.2493992404 -1.0764764675
H 1.7639550323 0.3455735774 0.6761140075

