# b3lyp 6-31G(2df,p) opt Freq 

 titel

0 1
C -1.7904340341 -2.9936897737 1.174784072
C -0.5274730864 -2.3340788041 1.6961066209
O 0.042703945 -2.7300526224 2.6876146839
C 0.0156006471 -1.156134128 0.8929739533
C 1.0105978886 -1.6315411656 -0.1765457077
C 2.3498026948 -2.226932676 0.4000991657
C 3.0952710669 -1.0550106248 -0.2493602446
O 2.8158300473 -1.1015876948 -1.6561464139
C 1.8494669136 -0.4959264935 -0.797918879
H -1.9990380965 -3.9040640526 1.7376020707
H -2.6343791461 -2.3007390268 1.276745317
H -1.699819673 -3.2235133981 0.10727053
H -0.8023442841 -0.608477441 0.4098464406
H 0.5218967959 -0.4807264871 1.5903329471
H 0.5125564473 -2.2537416665 -0.9265064974
H 2.3594452811 -2.2133226872 1.4916480769
H 2.6445212527 -3.2162196676 0.0431699363
H 4.0168415624 -0.5712506016 0.0523055641
H 1.5520589276 0.5244943813 -1.0156657959

