# b3lyp 6-31G(2df,p) opt Freq 

 titel

0 1
C -0.1445408989 -0.0279775216 0.2051253099
C 1.3519249945 0.0109116482 -0.0301036597
O 2.0573963583 -0.5453441754 1.0673707837
C 2.1462807707 -0.2186550538 -1.2996931201
C 2.1646959247 1.1535408209 -0.5518489997
C 1.6330178281 1.8158127346 -1.8403343894
O 0.1974100248 1.9345254473 -2.0478960238
C 0.1800059535 0.7336085905 -2.8704626096
C 1.6745253823 0.479053356 -2.5933911192
H -0.3290886463 0.2929130802 1.2353361883
H -0.6893965885 0.6393334381 -0.45723621
H -0.5312856322 -1.0493895094 0.0976945692
H 1.7899668073 -1.4682522402 1.1411930548
H 2.9138939219 -0.9835577709 -1.2827978314
H 2.9442734478 1.5761228298 0.0712457876
H 2.1714342911 2.7124892124 -2.1566273872
H -0.5438112532 -0.0082957806 -2.5177247461
H -0.0401604508 0.9853554606 -3.914857589
H 2.3310681549 0.3218211233 -3.4480643585

