# b3lyp 6-31G(2df,p) opt Freq 

 titel

0 1
O 0.4514910518 -1.0911494202 -0.1518872388
C 0.4250624753 0.1135252448 -0.1300575709
C -0.2304809965 0.9728076365 -1.1898965344
C -1.1473815393 2.0530639525 -0.5845177852
O -0.4229248026 2.9321592757 0.284378635
C 0.0214622097 4.0703431281 -0.4585416455
C -0.9978387796 4.2602252658 -1.5639741429
C -2.4427744803 4.1958280283 -1.143072871
C -1.7545092021 2.9538743605 -1.6475319518
H 0.8953280978 0.687513648 0.6968652158
H 0.5649407258 1.4703392379 -1.7627196294
H -0.7843851613 0.3231421636 -1.8743867672
H -1.9086439508 1.5735497618 0.0431954218
H 0.084013251 4.905062741 0.2475721393
H 1.0239792261 3.9070240426 -0.8839033394
H -0.7132279232 4.8141572204 -2.4503362063
H -2.672786856 4.2603768095 -0.0837944416
H -3.1741361624 4.6576172989 -1.7965535713
H -2.0467190434 2.5179852744 -2.5953256864

