# b3lyp 6-31G(2df,p) opt Freq 

 titel

0 1
O -0.3514627318 -3.5829666551 -3.7388956399
C 0.1575234559 -2.4944036371 -3.7140914087
C 0.1431639028 -1.5848910275 -2.4978442113
O 0.7638824796 -0.3750204136 -2.8497326793
C 0.8854673149 0.5369236896 -1.7806816703
C -0.4302932627 1.3328770175 -1.4645743692
C 0.2633833083 2.6169348163 -1.9377592982
C 1.5160547009 2.8428093351 -1.1409242784
C 1.5376302272 1.8322344282 -2.2544802502
H 0.6912802118 -2.0591606339 -4.5875472948
H -0.9002221333 -1.4470459147 -2.1711294303
H 0.6729818462 -2.0922380544 -1.6728177512
H 1.367770311 0.0389781274 -0.9238555922
H -1.226966633 1.0101066585 -2.1389009431
H -0.8003884589 1.3245432464 -0.4338755994
H -0.2059272753 3.4118334138 -2.5039512878
H 2.0462537853 3.7663318309 -1.3493993842
H 1.5754149834 2.5228484364 -0.1022417056
H 2.2102678277 1.898751806 -3.1001618659

