# b3lyp 6-31G(2df,p) opt Freq 

 titel

0 1
C 0.5939672475 0.8286357259 -0.8655798651
O 0.0302146312 -0.0950565363 0.0598755535
C 1.4414859118 0.1904888056 0.1605874639
C 2.3451537073 -0.9737288004 -0.2045718211
C 3.7029997062 -0.5389260026 -0.7794103838
O 4.2346940875 0.6394074287 -0.2053531943
C 4.315339373 0.6591048939 1.2071130572
C 3.0344650919 1.0926296064 1.8813003151
C 1.803296086 0.9398203066 1.3952521501
H 0.6544280581 0.4854199798 -1.8986490979
H 0.2886574844 1.8667129353 -0.7414216513
H 2.4915052543 -1.5810426798 0.6959931681
H 1.8335695325 -1.6099177623 -0.9338297279
H 4.4194365523 -1.3719689239 -0.6871069129
H 3.6038182681 -0.3054910008 -1.8442922404
H 4.6603862143 -0.3145451207 1.597265672
H 5.101274736 1.3833670705 1.4511201029
H 3.1627053079 1.6163803625 2.8258975
H 0.9514408295 1.3476397117 1.9329134518

