# b3lyp 6-31G(2df,p) opt Freq 

 titel

0 1
C 4.9750629149 -0.3757708959 1.7388479005
C 5.284144317 -0.8360823151 0.3122382208
O 5.7575647732 0.2279357142 -0.4949012771
C 4.0844276044 -1.5289513002 -0.3390958625
O 4.4077405043 -2.498844266 -1.3519101699
C 3.8543987513 -2.977374534 -0.1264596821
C 2.4981067308 -3.6276336992 -0.1802523235
C 2.9835790554 -0.6442237131 -0.647259402
C 2.1151832157 0.1568919209 -0.8754217056
H 4.7225112823 -1.2219985502 2.3861013774
H 5.8475371964 0.1346500959 2.1541530627
H 4.1302642386 0.3214710274 1.7471574566
H 6.0963724733 -1.5702927613 0.3218392803
H 5.0282811109 0.8488808804 -0.6139221683
H 4.5848690074 -3.4801815654 0.512220107
H 2.085920582 -3.7306524071 0.8291209763
H 1.8054162833 -3.0391375003 -0.7849408913
H 2.5792075152 -4.6290611434 -0.6150601403
H 1.3300655938 0.8399634622 -1.089956519

