# b3lyp 6-31G(2df,p) opt Freq 

 titel

0 1
C 0.0335168702 0.0181027837 0.2492501497
C 1.5397038045 0.0963387521 0.172269001
C 2.219811129 0.8641742487 -0.985500789
O 3.0551235472 1.6031041148 -0.057641512
C 2.3961804641 0.9981870079 1.0865801243
C 3.081815866 -0.2284399495 1.7193778364
C 3.7933179495 -1.0269219779 0.6490514496
C 2.3022034363 -1.1316698556 0.7614823326
O 1.6639634789 -2.3233286397 1.0610725837
H -0.2924536639 -0.3176089394 1.2382876759
H -0.4195163566 0.9939700925 0.0467548945
H -0.3619846908 -0.6977440319 -0.4802389798
H 2.8078030354 0.2845619559 -1.7076338819
H 1.5443350151 1.5376149786 -1.5290122792
H 1.9761292751 1.7376214437 1.7730733214
H 3.3119070899 -0.3520163332 2.7704906105
H 4.290892917 -0.5154033499 -0.1674221051
H 4.3144607663 -1.8988981132 1.0321935007
H 1.8565664667 -2.9577686773 0.3620544668

