# b3lyp 6-31G(2df,p) opt Freq 

 titel

0 1
C 1.2181713744 -0.2525639627 0.1279165078
O -0.1710978291 -0.0882744947 0.3639278174
C -0.5098229375 0.7886240507 1.4421701414
C -0.3405051354 0.0714268923 2.825265721
C -1.7924453557 -0.4701565773 2.6676124376
O -1.873493046 -1.7726847492 2.138808209
C -2.0490819127 0.6600630628 1.629861755
C 0.0565486222 2.1204738331 1.280137767
C 0.5140057685 3.227069466 1.1670685265
H 1.7397712465 -0.6653915492 1.0023586194
H 1.3089931969 -0.9553471454 -0.702938052
H 1.6899791142 0.6981881663 -0.14642164
H 0.4539994342 -0.6744045781 2.8974612012
H -0.2442443476 0.7906319839 3.6419243416
H -2.4141952165 -0.4630888421 3.5648166944
H -1.369472214 -1.7660850157 1.314633556
H -2.6042558643 0.3915399932 0.7288892649
H -2.4725486279 1.5597600082 2.0804094465
H 0.9136185399 4.205957568 1.0647857354

