# b3lyp 6-31G(2df,p) opt Freq 

 titel

0 1
C 1.5584260067 0.1105082526 -0.0820311929
C 0.1043715829 0.0408299038 -0.045426407
C -1.0973560494 -0.0295360937 -0.0144132111
C -2.5539805163 -0.0776473504 0.0215782906
C -3.1934621076 1.320190303 -0.1088906625
C -4.7234869287 1.2627893938 -0.0491889472
O -5.0895407875 0.7188718462 1.2111675089
C -5.2854979993 2.6725692328 -0.2004799432
O -5.5781653969 3.1822707335 -1.2498462873
H 1.9902104489 -0.0137407416 0.9173281429
H 1.978751463 -0.6723991062 -0.72315115
H 1.9016174865 1.075183931 -0.4722765517
H -2.9262493745 -0.7194769335 -0.7885707791
H -2.897661358 -0.5339045266 0.9560465758
H -2.8268517292 1.9630695886 0.6993001346
H -2.8981399029 1.7827675128 -1.0554558831
H -5.0998402165 0.6533866256 -0.88416513
H -6.0305414932 0.5179508467 1.1990667124
H -5.394621358 3.2042503315 0.7737572596

