# b3lyp 6-31G(2df,p) opt Freq 

 titel

0 1
O -0.8399726605 -1.8488075255 2.2953400629
C -1.7828902937 -1.427752102 1.3138415343
C -1.1326588902 -1.3557395836 -0.0825640825
C -0.1698619459 -0.1854375776 -0.2027469359
O 0.9600812698 -0.3180743462 -0.6115986578
C -0.6949193325 1.1872858309 0.222477932
C -1.8799057963 1.1875536501 1.1824380686
C -3.2398024231 0.7013571076 0.7470430003
C -2.4311770895 -0.1187107122 1.7210694512
H -0.1899773744 -1.1468064993 2.4126008781
H -2.5338431711 -2.2257163378 1.3078858401
H -0.5912788906 -2.2803690759 -0.2906273509
H -1.9128238359 -1.2378593522 -0.8457965975
H 0.1566408378 1.7210710943 0.6553887452
H -0.9458201721 1.7312625346 -0.6996165359
H -1.8845786093 2.0291691398 1.8679507102
H -4.1137936696 1.2194924106 1.1255857924
H -3.354366731 0.3401196262 -0.2699907152
H -2.7716527321 -0.1247870219 2.7520401704

