# b3lyp 6-31G(2df,p) opt Freq 

 titel

0 1
C 1.3075809118 -1.056010254 -0.2470815008
C 1.2300791111 0.1621888317 0.6918151729
C 2.075196519 1.3053842706 0.219042622
C 3.2171490828 1.7889413067 0.7286024688
C 3.7930402718 2.9575134997 -0.0407312744
O 4.0807492653 4.0735639457 0.7931598202
C 2.747334764 3.2164840487 -1.1473395614
C 1.7088087392 2.1008654084 -0.9903606593
O 0.7598985441 1.8967794717 -1.7129909499
H 0.6647349052 -1.8619905763 0.1187305323
H 0.9787507937 -0.7840353763 -1.252712152
H 2.331024736 -1.4391484851 -0.3092988712
H 0.1875805755 0.4985246452 0.7419402377
H 1.5294654073 -0.1240272912 1.7057465881
H 3.7170068663 1.4190606121 1.6189917983
H 4.7645826155 2.6902658478 -0.471862153
H 3.2739174315 4.296854161 1.2712778674
H 2.2706630223 4.1914645677 -1.0033266624
H 3.1594200877 3.2120344159 -2.1599545732

