# b3lyp 6-31G(2df,p) opt Freq 

 titel

0 1
C 0.2239420051 -0.7611290086 0.0412825331
C 0.9898290758 0.5102962473 0.3636334055
O 1.6416774899 0.9519988094 -0.8140634108
C 2.327974002 2.1542841165 -0.6637516997
C 3.1221438543 2.6334479914 -1.8622380354
C 4.5117446317 2.0045199764 -1.6830040141
O 4.4779389309 1.1484025241 -0.5426519537
C 3.6951424567 2.184273957 0.1026810772
C 4.1797855714 3.2526140206 -0.9417020703
H -0.2883732565 -1.1353878874 0.9327334435
H -0.5218858454 -0.5731479248 -0.7363307508
H 0.906946054 -1.5353152684 -0.3190209324
H 0.3053534716 1.2933698122 0.7326904846
H 1.7266624108 0.3218269277 1.1603049228
H 1.6737126781 2.9523838432 -0.2784277611
H 2.7547455885 3.0022923049 -2.8104915121
H 5.1999009143 1.788871313 -2.4888475186
H 3.7862697941 2.195904115 1.1862630921
H 4.6054883327 4.2431957106 -0.8796958898

