# b3lyp 6-31G(2df,p) opt Freq 

 titel

0 1
C -0.9021475999 2.5160743337 0.2112039497
C 0.4101859263 1.9299507675 0.6100124626
O 0.7976214137 2.0198646046 1.9878162893
C 1.6795785204 0.8710814772 1.8023564135
C 3.0699661048 1.4250423296 1.5348892572
O 2.9023125476 2.2107712264 0.3468629532
C 1.6778363448 1.8214408097 -0.2331284565
C 1.0908403343 0.5878447814 0.3962570609
C 0.7138442947 -0.7246086747 -0.2207561526
H -1.7237024033 2.0680271641 0.7796717179
H -0.9083908418 3.5962328609 0.394096824
H -1.0873099291 2.3519096681 -0.8546544589
H 1.5825810306 0.1310062296 2.5987432465
H 3.4146636369 2.077438014 2.3425841419
H 3.8079161413 0.6231721495 1.3722891429
H 1.6288624306 1.9926742145 -1.3028805836
H 0.0080212461 -1.2797324228 0.4073183967
H 0.2421913288 -0.5754551963 -1.1973929594
H 1.5946007534 -1.3588789169 -0.3774850054

