# b3lyp 6-31G(2df,p) opt Freq 

 titel

0 1
C 0.3988160182 1.0198717272 1.168704463
O 0.1937984689 -0.2577953544 0.4990544258
C 0.3632454569 0.3984536778 -0.780400783
C 1.0708090658 -0.2648587448 -1.9122840437
C 1.5028791011 0.5169857283 -2.9047523623
C 1.2573283863 2.0206933682 -2.9771469296
C 1.7323426529 2.9223949138 -1.8102950496
O 1.0016796562 2.810605 -0.5889977958
C 1.134460172 1.5200280785 -0.0822482663
H -0.5523101899 1.5389293267 1.3502620359
H 0.9581620277 0.9125036908 2.1011539693
H -0.6152403159 0.7850690436 -1.1184977303
H 1.220377201 -1.3398658706 -1.9078189387
H 2.0127515359 0.0701688389 -3.7537368882
H 1.7497074378 2.4124226077 -3.8740736067
H 0.1824558335 2.2065735917 -3.1201180424
H 2.8006710846 2.7351708969 -1.6168882468
H 1.6197839154 3.9663904465 -2.1152846315
H 2.1950525516 1.2339929334 -0.0171257491

