# b3lyp 6-31G(2df,p) opt Freq 

 titel

0 1
C 0.973069413 1.3771372545 0.6231585871
C 1.6934496115 0.2411620871 -0.0429226722
C 3.1772506123 0.2535274974 -0.4177120475
O 3.3188582033 -1.15971307 -0.1010413467
C 1.9571732214 -1.2034352318 0.316075557
C 1.0402119534 -0.887269434 -0.8396446439
C -0.4168603377 -1.1270936205 -0.6424144785
C -1.2197434322 -1.8802832589 -1.6135481574
O -1.3180120565 -0.4574014639 -1.5369111753
H 1.5489583581 1.7650946621 1.4707046705
H 0.8125341831 2.2025877394 -0.0802359631
H -0.0094228138 1.0771285768 0.995861563
H 3.4427135078 0.4784993339 -1.4577149951
H 3.7887022795 0.8594304112 0.261676825
H 1.6999241419 -1.8241988828 1.1680732655
H 1.4077263259 -1.0970055262 -1.8429063473
H -0.7588732297 -1.131808106 0.3941009686
H -0.7424542533 -2.2686631476 -2.5126220409
H -2.0987340882 -2.4319030106 -1.2818246887

