# b3lyp 6-31G(2df,p) opt Freq 

 titel

0 1
C -1.9265237811 -1.2101245088 -0.8501745723
C -2.0682297126 -0.2260108384 0.2847502356
C -3.1184444885 -0.4875133976 1.3703196104
C -3.6307533609 0.8916772984 1.7394725749
C -3.0735483125 1.8530695192 0.9990624391
C -2.0537659367 1.2990722219 0.0745265004
O -1.8525591325 1.9198030022 -1.1512798701
C -0.8791859892 0.5952375912 0.7340704534
O 0.2714099608 0.4694655091 -0.067611801
H -1.5767342427 -2.1842069495 -0.4892856411
H -2.8911239299 -1.3616611204 -1.346244185
H -1.2132808591 -0.8616006857 -1.5991255269
H -3.9283570818 -1.1287215025 0.9946808136
H -2.6913415972 -1.0109223414 2.2362274944
H -4.3534905883 1.0499693946 2.531354382
H -3.2760707552 2.915774009 1.0614797159
H -0.9513834993 1.6930052353 -1.419584547
H -0.6897992241 0.7332758472 1.7992754657
H 0.8589751808 1.2002667862 0.1534037981

