# b3lyp 6-31G(2df,p) opt Freq 

 titel

0 1
O 0.821990998 1.5406061216 3.548228949
C -0.3356057972 0.7633425506 3.7534772829
C -0.3692111888 -0.6382660404 3.2067513818
C -1.1270210044 0.4868907243 2.5146160534
C -2.6069728639 0.4867317483 2.3886226646
C -2.9740026594 0.6013062546 1.1095392792
C -1.778006686 0.6973029781 0.1884598375
C -0.6352307761 1.0451545837 1.161576719
O 0.6098749304 0.5583804478 0.7131350372
H 1.5022397401 1.2213369177 4.1510489234
H -0.8619216189 0.9764979747 4.68394483
H 0.5162367775 -0.9935557378 2.68994178
H -0.9364485732 -1.3927631207 3.7415194326
H -3.2757149161 0.3676779808 3.2342146026
H -3.9964027067 0.5925571579 0.7497386523
H -1.5702451754 -0.2653880427 -0.2989996399
H -1.8903185393 1.4418912577 -0.6057167558
H -0.5948318439 2.1397904466 1.2673524498
H 1.2634083533 0.9220260372 1.3231386004

