# b3lyp 6-31G(2df,p) opt Freq 

 titel

0 1
O 0.5615759704 0.1025740377 0.783347668
C 0.1978958458 -0.1166000265 -0.3397371876
O -0.601973245 0.6555459119 -1.087715816
C -1.0791579303 1.8695395345 -0.51585973
C -1.7033929529 2.9017059621 -1.4779414625
C -1.4254871148 3.8504322649 -0.2726488752
C -0.1409790115 3.0036031076 -0.0254437609
C -2.3901317124 3.2964801521 0.7994636273
C -2.1214494833 1.7668133088 0.6138352563
H 0.4801281041 -1.0017741622 -0.9312959007
H -1.0609239622 3.1073727814 -2.3362825156
H -2.7385495665 2.74918216 -1.7957765313
H -1.3773286272 4.9299926315 -0.4024325646
H 0.6523745348 3.2221217303 -0.7433094828
H 0.2576314084 2.9335001496 0.9874406409
H -2.1365072922 3.6452402197 1.8041298047
H -3.4305707535 3.567290447 0.5998684295
H -1.7079401848 1.2899792246 1.5030258226
H -3.0070991468 1.210211405 0.2953131381

