# b3lyp 6-31G(2df,p) opt Freq 

 titel

0 1
O 1.3989046615 -0.0715341841 -0.8607597003
C 0.5061599013 0.1441037452 -0.0828176894
C 0.3598497158 1.4015883768 0.746453461
C -0.958784865 2.1267307261 0.3603760993
O -1.5235686869 2.8960460395 1.4143227377
C -1.2896186714 2.3623821141 2.7116395747
C 0.2260185934 2.4091765475 3.0353422551
C 0.3098594552 1.064904371 2.2573339452
C -1.1651809706 0.8138493039 2.6999140996
H -0.3001027602 -0.6096020889 0.085617516
H 1.2312636776 2.0309009186 0.5417322785
H -0.7920262225 2.8119662238 -0.4744456076
H -1.6924891481 1.3779177548 0.0225457965
H -2.0044520439 2.8483327488 3.3774935046
H 0.785231779 3.2660610153 2.6520365377
H 0.4246183532 2.2750377028 4.1018648871
H 1.0782060763 0.3417446904 2.539964669
H -1.8365020268 0.2380595356 2.0590451371
H -1.2107385177 0.4148480386 3.7156620785

