# b3lyp 6-31G(2df,p) opt Freq 

 titel

0 1
C 0.1978741451 0.7565419526 0.150319745
C 1.5768557408 0.1793167324 -0.0244200077
O 1.5794634826 -1.0148707867 -0.8481152097
C 2.5707540108 -0.4625040137 -1.7449108343
C 2.7744378892 0.7676389813 -0.8529305179
C 3.7339693953 0.5150604232 0.3465148035
C 2.5299354801 0.033169377 1.1721799047
C 2.2575813633 0.2308331394 2.5988871538
O 2.5317612605 -1.0667137653 2.0551622738
H -0.4347486632 0.0504798118 0.700174222
H 0.230964358 1.6968913593 0.7092739978
H -0.2699579035 0.9403283089 -0.8211846121
H 3.4357786719 -1.1250754432 -1.8706543071
H 2.137600552 -0.249277062 -2.7310434602
H 2.7742024385 1.7569200139 -1.3070401663
H 4.4973312543 -0.2474752705 0.1686477652
H 4.2177423669 1.4118667598 0.7414185628
H 3.0357095767 0.6462074544 3.2390315196
H 1.2370666907 0.3833158673 2.9476208671

