# b3lyp 6-31G(2df,p) opt Freq 

 titel

0 1
C 2.8907820761 -1.2842763847 0.2818048317
C 2.4868058303 0.1524286497 0.3649437284
O 3.3138885097 1.0400233229 1.1213638669
C 3.0345698165 1.3914231579 -0.2382400617
C 1.6214996491 2.0371085346 -0.2686356837
O 1.2702631149 2.8387350497 0.8672184263
C 0.715040793 1.6904305644 1.560066921
C 1.0380078929 0.7513479707 0.3682465467
C -0.0606452847 -0.0688134196 -0.2660481089
H 2.6669655814 -1.8057016131 1.2197053532
H 2.359998948 -1.7998614657 -0.5241296454
H 3.9658996477 -1.3623411282 0.0998858596
H 3.8888402076 1.5624866834 -0.8856302873
H 1.2939904772 2.4473394398 -1.228382326
H 1.2377232112 1.487496618 2.4986998084
H -0.3582319523 1.824864921 1.7442004773
H -0.3318687945 -0.9258403084 0.3618465975
H -0.9622114783 0.5334946289 -0.4166433792
H 0.2449739942 -0.4596631813 -1.2431112346

