# b3lyp 6-31G(2df,p) opt Freq 

 titel

0 1
O 1.5177626921 0.7494978402 -0.0515976441
C 0.142005332 0.4292962766 0.0950501846
C -0.6238457794 1.2160703044 -0.9456765642
C -0.5779424876 0.7698398884 -2.4275481295
C -2.0725785236 1.1606119521 -2.3542114553
O -2.046546026 0.8913078401 -0.9137346811
C -2.210052526 2.6558044467 -2.5541244652
C -1.4262176216 3.4165466184 -1.7905166552
C -0.4794910198 2.7450201786 -0.8184401749
H 2.0140316499 0.2555184522 0.6067801932
H -0.0499176538 -0.6427235329 -0.0585250585
H -0.2377550494 0.699501909 1.093952426
H 0.0634376557 1.3079122653 -3.1262870063
H -0.4305591542 -0.3091868463 -2.5086130788
H -2.8222613076 0.5588521253 -2.8710278097
H -2.9069944466 3.0574784957 -3.2816029315
H -1.4481233981 4.5017311121 -1.8307361942
H 0.5598670165 3.0397225199 -1.003359107
H -0.7098277626 3.0500008642 0.2119794216

