# b3lyp 6-31G(2df,p) opt Freq 

 titel

0 1
C 1.2538675739 -0.1226919084 -0.0936690629
O -0.1490747895 -0.0511983611 0.0630535429
C -0.6028455001 0.6381361301 1.1605220919
C -0.2382462287 0.3282700459 2.6619381496
C -0.8654248962 1.7328214289 2.8886216648
C -0.275082771 2.1395968295 1.5089379448
C -2.3491724216 1.4886163904 2.5523792456
C -2.1305369444 0.6728290143 1.2638323614
O -2.9373688275 0.1852073824 0.5235738264
H 1.7365460404 -0.6339508949 0.7506492293
H 1.4366345534 -0.6982124174 -1.0033455728
H 1.706170832 0.8720632224 -0.2082545971
H -0.7037516199 -0.5378464053 3.1399393314
H 0.8412480393 0.3214931271 2.8276389148
H -0.6382693227 2.3073258595 3.7839044948
H -0.7741819811 2.9253181898 0.9354581268
H 0.800531384 2.3237681543 1.5530683604
H -2.8877847337 0.9049976367 3.3054206091
H -2.9182183764 2.4018798559 2.3525743887

