# b3lyp 6-31G(2df,p) opt Freq 

 titel

0 1
C -0.0324613505 1.1829134025 0.7161418728
O 0.0180779552 -0.2010090533 0.31362983
C 1.1739670545 0.0404135487 -0.5271600828
C 0.8336335394 -0.0061859202 -2.0149168797
C 1.7786479468 0.8937228399 -2.8307411973
C 1.7119522785 2.3343717599 -2.3441894382
O 2.7683185288 2.7786326409 -1.4854780216
C 1.4674301633 2.6111551627 -0.9137696598
C 1.3340678755 1.4708025466 0.0591553423
H -0.8811413297 1.7136527409 0.2610673254
H -0.088611422 1.2945378744 1.804145145
H 1.9864132211 -0.6546740034 -0.2862250141
H 0.862375428 -1.0379066458 -2.3795604083
H -0.1966791966 0.3467922349 -2.1403842712
H 2.8141852067 0.5457238229 -2.7440268953
H 1.5147186568 0.8456843836 -3.8914385942
H 1.4000096751 3.0826080173 -3.072751842
H 0.9810965609 3.5466979289 -0.6310532759
H 2.1375686284 1.5270953687 0.797697115

