# b3lyp 6-31G(2df,p) opt Freq 

 titel

0 1
O -0.1903194903 0.4080664826 0.8955143043
C 0.6907572888 -0.0843712107 -0.1031638216
C 0.3576986901 0.4380089979 -1.4762350931
C 1.1130520865 0.1899324363 -2.8166426441
C -0.0777547961 1.1301391345 -3.1754900984
C -0.965766865 0.2202771898 -2.2781630441
C 0.232350657 1.9618771956 -1.8999675707
C 1.4313679991 2.8594041951 -1.81549503
O 2.2607142876 3.0149938092 -2.6797156312
H -1.0756327019 0.0952796866 0.6826939008
H 1.6933536212 0.2430759368 0.193495396
H 0.7043683434 -1.1865075802 -0.1267073869
H 2.1151325429 0.6031026315 -2.9165106921
H 1.0520891313 -0.8289267194 -3.208935419
H -0.3270277644 1.5304908738 -4.157260983
H -1.8767413701 0.6676413852 -1.8686048225
H -1.1427945936 -0.7950865129 -2.6439476134
H -0.622015931 2.4603669969 -1.4269923839
H 1.5107684945 3.4121919915 -0.8504562471

