# b3lyp 6-31G(2df,p) opt Freq 

 titel

0 1
C 2.4512941338 -0.0203784647 -1.666584179
C 1.8231327066 0.3557490974 -0.3361082729
C 2.4340058044 1.4848104094 0.5805663043
C 3.8491161678 0.9420071693 0.8161176357
O 3.5589081246 -0.4643420535 1.0349358259
C 2.1243826933 -0.4951081138 0.934092753
C 1.7124877247 0.750135976 1.728429275
C 1.4484455919 1.0316410537 3.1301074258
O 0.3948660584 1.033111764 2.1355310293
H 1.8914645144 -0.8360525399 -2.1361851636
H 2.4438575992 0.8265216646 -2.3613017688
H 3.4832132684 -0.3579412065 -1.5437265641
H 0.746602721 0.520064131 -0.4301619181
H 2.3063627013 2.5478072209 0.3829146307
H 4.5210271371 1.0581938846 -0.0411152598
H 4.3299630824 1.366016715 1.7051539828
H 1.7511968632 -1.501319409 1.1146827418
H 1.401013547 0.2173527308 3.8510241533
H 1.6861993904 2.0095651705 3.5461193389

