# b3lyp 6-31G(2df,p) opt Freq 

 titel

0 1
C 1.7858329674 2.0342865191 -0.6265590811
C 1.8891729471 0.9218917927 0.3728925475
C 2.2861616627 1.0228329516 1.8493192049
C 2.4241898803 -0.5262439948 1.807770109
O 3.3457723157 -1.2140467209 2.5810270121
C 0.963730271 -1.0301767725 1.6149932784
C 1.0354574658 -0.3828652023 0.2338013391
C 2.5475128413 -0.4127793671 0.2179980748
O 3.4919022265 -0.8045423557 -0.6909321399
H 1.637400551 1.6398451168 -1.6371595488
H 0.9453793693 2.7006628905 -0.4002166701
H 2.6989791542 2.6397422224 -0.6400253807
H 3.2637312584 1.501494873 1.9603214551
H 1.5711818704 1.4501192038 2.5641019653
H 3.1209592195 -1.090168617 3.5102425423
H 0.9283077179 -2.1218484995 1.5516577881
H 0.2111800359 -0.67066203 2.326924095
H 0.3523577192 -0.4890956015 -0.5994004964
H 3.4635252363 -1.7650096187 -0.7711716345

