# b3lyp 6-31G(2df,p) opt Freq 

 titel

0 1
C 1.5097832585 -0.0500078899 0.0276190711
C 0.0543161963 -0.002959012 0.0115401313
C -1.1510967203 0.0256520317 -0.0092899507
C -2.615789843 0.0703056421 -0.0023929053
C -3.1662356045 0.0424914212 -1.4506791607
C -3.0989916956 1.3408771608 0.7410052545
O -2.6301146901 2.5240525191 0.1272811465
C -3.1191939313 -1.1892831898 0.7131838919
O -3.8992965266 -1.185182694 1.6277519323
H 1.9098065372 0.3073015725 0.9825558017
H 1.8702788258 -1.0735518671 -0.1211326934
H 1.9367881922 0.5705885826 -0.7675681732
H -2.7895564552 -0.8228611361 -2.0021325036
H -4.26010552 0.0059991463 -1.437675011
H -2.8541885805 0.9533888077 -1.9647873942
H -4.1905385758 1.3805321741 0.7101161037
H -2.7981000402 1.2763967552 1.7947752113
H -1.6663155022 2.4907204422 0.150730154
H -2.7062951345 -2.1361949766 0.2996614936

