# b3lyp 6-31G(2df,p) opt Freq 

 titel

0 1
C 0.0119194999 0.0225202992 0.0611146838
C 1.5379279571 0.0373381191 -0.0075663631
O 1.9973514035 -0.5949401467 1.1861214029
C 3.3168313099 -1.0556132824 1.1953964136
C 4.5252430673 -0.1072236366 0.9903740819
O 5.1051772056 -1.0284521181 0.041396523
C 3.8587195511 -1.786321011 -0.0512183908
C 3.0905962486 -1.4531849034 -1.2904495141
C 2.0607539127 -0.6100004728 -1.2628768327
H -0.3239087757 0.4920238929 0.9890911981
H -0.415634105 0.5714903845 -0.78315923
H -0.3587288805 -1.0061368771 0.0371965838
H 1.8704929064 1.0912813349 -0.0043173263
H 3.4159075664 -1.6469608682 2.1075630868
H 4.2732243956 0.8582762325 0.5319001782
H 5.1792155669 0.0621225677 1.8519738582
H 4.0579746868 -2.859769938 0.03867984
H 3.4348327192 -1.8833169148 -2.2271693989
H 1.5461710042 -0.3327104318 -2.1800859643

