# b3lyp 6-31G(2df,p) opt Freq 

 titel

0 1
C 1.4043527546 0.0756104394 -0.3555360983
C 1.0805386286 1.5747372532 -0.0942434513
C 0.9335314304 2.2226179462 -1.4968899541
C 0.0876290805 1.088058712 -2.1359195456
C -1.3925950294 1.2166215897 -2.4800704594
O -1.9320790695 -0.0908421726 -2.2222991979
C -1.1872659942 -0.7371988645 -1.1779732174
C -0.0350404444 0.186660296 -0.880879183
O -0.2975893089 1.1767217886 0.1705378124
H 2.2008800355 -0.1945353312 -1.0541157746
H 1.4788823965 -0.4804782373 0.5795410491
H 1.5414586103 2.1464274527 0.7114614001
H 0.4034551526 3.1754116818 -1.4238542732
H 1.8851071763 2.3900713816 -2.0079680727
H 0.6149253849 0.5735962918 -2.9448444318
H -1.8764547409 1.9693582713 -1.8423885668
H -1.6002619267 1.4488475207 -3.5277190289
H -1.8159137279 -0.8802203332 -0.2908452262
H -0.8511219984 -1.7184885663 -1.5345520103

