# b3lyp 6-31G(2df,p) opt Freq 

 titel

0 1
C 1.4478398122 -0.0836699569 -0.1279483482
O 0.0431613571 0.0553665523 -0.0319104669
C -0.3656776734 0.6370097398 1.1615188866
C -0.4799769098 -0.2092223802 2.4181555256
C -1.7117151637 0.239774303 1.6868302437
O -2.508313381 1.1877243761 2.324281555
C -3.2759891069 1.9520319417 1.4024244291
C -4.0673223483 2.9413051369 2.1202842062
C -4.7300961673 3.766438537 2.6873802541
H 1.8498682657 -0.7087583813 0.6819524844
H 1.6587509307 -0.5594921228 -1.0883853326
H 1.9539919526 0.8928211265 -0.0949817473
H -0.0650522958 1.6765673363 1.304293297
H -0.2218002482 -1.2599259963 2.3498429149
H -0.265310364 0.2684247063 3.3673068463
H -2.2508136983 -0.5088593632 1.1041831704
H -2.6149091378 2.4522638707 0.6775013248
H -3.941436487 1.2919052297 0.8222006612
H -5.3149927468 4.4933533343 3.1945706558

