# b3lyp 6-31G(2df,p) opt Freq 

 titel

0 1
C 1.6004565939 1.1089354817 0.2578934062
C 1.1647536086 -0.3372896839 0.0115856499
C 1.7738589474 -0.9302579266 -1.2644210193
O 3.2120442591 -0.9281366546 -1.1843037908
C 3.7315560237 -2.2409969195 -1.3302775856
C 4.6388391278 -2.3053275124 -2.5615659333
O 5.5144836155 -3.1146422453 -2.7098192881
C 2.5211322597 -3.1229523219 -1.5191437356
C 1.4249600263 -2.3739221904 -1.5070610502
H 1.1664144681 1.4982662189 1.1834153379
H 2.6888756689 1.1731574757 0.3351203337
H 1.2825590827 1.7627155348 -0.5620668901
H 1.4517043056 -0.9723156653 0.8581658266
H 0.0717578559 -0.394713054 -0.073650154
H 1.4793830484 -0.2982309243 -2.1185441777
H 4.3316535516 -2.5282070097 -0.4543602352
H 4.3899108578 -1.5346080848 -3.3256332296
H 2.5964377792 -4.1932319717 -1.6563494406
H 0.40508157 -2.7187594664 -1.6220756843

