# b3lyp 6-31G(2df,p) opt Freq 

 titel

0 1
O 0.1110158219 2.3590550127 -1.0821379227
C -0.0035407243 1.1047227021 -0.4135861832
C -0.4459038219 1.2515168683 1.020398483
C 0.2992919157 0.8015730377 2.0330934015
C -0.1029607709 0.8749449972 3.4821022872
C -1.4679894505 1.5179326391 3.7177871555
O -2.1440310087 1.2428459469 4.6804297048
C -1.8899481711 2.5270654814 2.665353621
C -1.7722629794 1.9395756824 1.24730632
H 0.7792074142 2.8708398212 -0.6137550418
H -0.7547132991 0.5488665424 -0.9883349444
H 0.9362970046 0.535576527 -0.462506944
H 1.2515924804 0.3179325344 1.8220667862
H -0.1114948688 -0.1167356957 3.9493521201
H 0.6379318194 1.4568226839 4.0529255535
H -2.90171016 2.8719170017 2.8890024655
H -1.2102873922 3.3871760848 2.7453035727
H -2.5893504842 1.2252108454 1.0704595405
H -1.8967079951 2.7302843171 0.5007694745

