# b3lyp 6-31G(2df,p) opt Freq 

 titel

0 1
O 1.006728523 -0.372765768 -0.727491829
C 0.1983826204 -0.0608108886 0.1107053187
C 0.1684439639 1.2555312668 0.8309527076
C -0.9730278598 2.2196463004 0.4058343402
O -0.0328104427 3.2553457572 0.0779501306
C 1.1062088138 2.3997983811 0.3636228418
C 1.8930237995 2.8596134103 1.5848856276
C 0.9907293788 2.4792331082 2.7753806112
C 0.3706325457 1.1275710307 2.3587445346
H -0.609937218 -0.7685753487 0.4125134919
H -1.5530658029 1.8975843733 -0.4695183506
H -1.6655749045 2.5168780473 1.2037141158
H 1.7066203358 2.2197418927 -0.5313196117
H 2.839159116 2.3053520367 1.6243963473
H 2.1298041067 3.926017152 1.5386077604
H 1.5305718129 2.4153457934 3.7233927202
H 0.2048747697 3.2318297854 2.8961867989
H 1.0747657288 0.3127579697 2.5681805007
H -0.5594450574 0.8977117002 2.8875167235

