# b3lyp 6-31G(2df,p) opt Freq 

 titel

0 1
O 1.2683243134 0.8183108156 -0.2386085015
C 0.3709185316 -0.123192742 0.3316612393
C -0.7733349458 0.518808818 1.0505800014
C -0.7378887873 1.3287812782 2.3710843437
C -2.1718838964 0.808546394 2.64560967
C -3.3305893787 1.4946355436 3.2984135237
C -2.6949496636 0.2846546257 3.9500301912
C -2.1478702958 0.0583115123 1.3289035428
O -1.8824128699 1.0188734881 0.2935827553
H 1.6570474249 1.3297773221 0.4783349252
H -0.0196259136 -0.7141597889 -0.5017493416
H 0.8926997819 -0.8082374601 1.0192730984
H -0.0056509528 0.9547259133 3.0933755964
H -0.6206896558 2.407919731 2.2432626066
H -3.1535841976 2.4653112204 3.7498649189
H -4.3131938488 1.3834321597 2.8520888082
H -2.0928313416 0.4367344061 4.8401736615
H -3.2479975664 -0.649595466 3.9434936618
H -2.6681866875 -0.850523791 1.0449630488

