# b3lyp 6-31G(2df,p) opt Freq 

 titel

0 1
C 0.0166721985 -0.3501916271 0.2641584852
C 1.4426942445 0.0729638737 0.0133731268
O 1.7176385536 1.3110107545 0.7932725083
C 2.5204605969 0.5506259576 1.7603691895
C 2.7215323946 -0.4723987386 0.6553744268
C 3.5112379963 0.09704398 -0.5731143679
C 2.2105767963 -0.3413694158 -1.2787543816
C 2.3257745415 -1.8781812722 -0.9371685881
O 2.7510792589 -1.8725407082 0.4760782348
H -0.165356878 -0.5482440084 1.3251861327
H -0.6490013229 0.4667412638 -0.0358537561
H -0.2657898609 -1.240201956 -0.3028924997
H 3.3904680307 1.1153860171 2.106691841
H 1.9112304155 0.2207863504 2.6100916445
H 3.6628164508 1.172292404 -0.540206435
H 4.4263152137 -0.4387413733 -0.8327776709
H 1.9441991154 -0.107395876 -2.3122002713
H 1.3942174909 -2.4428595159 -1.0276162526
H 3.0995931339 -2.3565154297 -1.5446357262

