# b3lyp 6-31G(2df,p) opt Freq 

 titel

0 1
C 1.5054877353 -0.0709983808 0.0180623813
C 0.0510494233 -0.0156306914 -0.0054472304
C -1.1518864366 0.040215262 -0.0193358946
C -2.6253036133 0.0871808365 -0.0225090682
C -3.1465044753 0.8168317933 -1.2660791824
O -3.1151691791 0.796762878 1.1086513103
C -3.1596927089 -1.3516485949 0.0153576081
C -4.4690036672 -1.657220963 0.5973018466
O -3.2542263908 -1.9176365343 1.3223390188
H 1.9164783075 0.66801643 0.7145330963
H 1.8619169783 -1.0580769394 0.3321325315
H 1.9272361844 0.1363469868 -0.9715599492
H -2.8233692141 0.3067480857 -2.1772757667
H -4.2387803 0.8530941422 -1.2402365651
H -2.7584340928 1.8374957132 -1.2816742722
H -2.933453785 0.2299176482 1.8712643209
H -2.7435899242 -2.0174376077 -0.7399817494
H -5.0721177846 -0.8458592817 0.995623267
H -5.0089632768 -2.5439737628 0.2712603975

