# b3lyp 6-31G(2df,p) opt Freq 

 titel

0 1
C 1.5629694029 -0.3004074797 0.0706419374
C 0.1163595269 -0.1419525562 0.030758765
C -1.0814969398 -0.0113426752 -0.0073532265
C -2.5047763398 0.1478302143 -0.0386481214
C -3.31901288 0.1145644354 1.2504850802
O -4.6004899314 -0.4483669083 1.243101352
C -3.1801185974 1.4072461757 0.5180794082
C -4.3989935364 1.9691892075 -0.1895415072
O -5.3797512592 2.4255030599 0.7260735154
H 1.9276680754 -0.3666146659 1.1019086154
H 1.8770217333 -1.2132615976 -0.4479022691
H 2.0740604387 0.5432760389 -0.4068806218
H -3.0155202619 -0.2840864942 -0.8963723259
H -2.7597980945 -0.0150884232 2.1751994487
H -4.5197150761 -1.4074815625 1.2637509595
H -2.5226299056 2.1408668799 0.972529699
H -4.1138463919 2.8364398225 -0.7934770637
H -4.8140536316 1.214550854 -0.8722253275
H -5.6716144317 1.6456605648 1.2127179022

