# b3lyp 6-31G(2df,p) opt Freq 

 titel

0 1
C 1.5034357688 0.0180059011 -0.1274340984
O 0.1130675665 -0.1129007438 0.059063102
C -0.3887691686 0.6310110869 1.15259116
C -0.1308723373 -0.0367314728 2.5454150609
C -1.5630891255 -0.3395073481 2.9635477868
C -2.4063607811 -0.7451722376 1.7188658231
O -3.6007748577 -0.0856468819 2.2725272569
C -2.4876182808 0.836269718 2.5309626478
C -1.9065087271 0.5958372712 1.1076773335
H 2.078484506 -0.3576135489 0.7324673554
H 1.7695987093 -0.5708117429 -1.008565336
H 1.7915907607 1.067023694 -0.3002222888
H 0.0065347355 1.6580579325 1.1119349415
H 0.4747685123 -0.9411185144 2.4333192232
H 0.3784375021 0.6281367434 3.2501700013
H -1.7738265329 -0.8369339231 3.9094121735
H -2.5318515224 -1.7177557002 1.2443627109
H -2.7087048781 1.7748880584 3.0410647607
H -2.4274802196 1.008222318 0.2457084658

