# b3lyp 6-31G(2df,p) opt Freq 

 titel

0 1
O 0.2358974406 -1.1028221039 1.3352700042
C -0.8258427407 -0.4170165669 0.6938700984
C -1.5571798417 -1.4496814859 -0.1554557069
O -2.6681223755 -1.2899002168 -0.5877008201
C -0.3435249195 0.6992117661 -0.208308706
C 0.8955278772 0.5832304155 -1.0524687929
C 0.828875116 1.672478064 -0.0148110413
C -0.0357792716 2.8339114882 -0.5216289167
C -1.2285211586 1.8415889916 -0.7253104651
H 0.7148594041 -0.4646489432 1.8738098516
H -1.5480812654 -0.0120253678 1.4202561975
H -0.9521264421 -2.3579872243 -0.3714700991
H 1.5388578092 -0.2514644616 -0.7950457545
H 0.866950087 0.8299894544 -2.1117310233
H 1.554487152 1.7288782451 0.7897823047
H -0.2482165207 3.5813484392 0.2455968815
H 0.3388767889 3.3467996965 -1.4133615557
H -2.068482733 2.0598536993 -0.0617689145
H -1.6140240363 1.7212078706 -1.7415049818

