# b3lyp 6-31G(2df,p) opt Freq 

 titel

0 1
C 0.0421935097 -0.0453148793 0.0338303963
C 1.5412314825 -0.0166873079 -0.0797379258
C 2.2365402249 0.3454217076 -1.4140303842
C 3.3629438108 -0.6885516159 -1.090349991
O 4.5737810908 -0.1327292439 -0.6016329458
C 4.5309669996 -0.0031795493 0.8201149777
C 3.1197150819 -0.3687699998 1.2587584607
O 2.1655959936 0.6968292505 1.0264041589
C 2.5302707472 -1.20755092 0.1149202314
H -0.268859829 -0.463466472 0.995857263
H -0.3587393974 0.9720847042 -0.038702118
H -0.4000501603 -0.6430024572 -0.7695539894
H 1.6455024996 0.0365088457 -2.2822745831
H 2.5512288136 1.3845522244 -1.5290983029
H 3.6052945956 -1.3879871727 -1.8931226647
H 5.2682469566 -0.6813241222 1.2744602809
H 4.7783541741 1.0257748254 1.1054065343
H 3.0624388859 -0.7416397689 2.2861189381
H 2.2777953203 -2.2582814288 0.2341339736

