# b3lyp 6-31G(2df,p) opt Freq 

 titel

0 1
O 1.4194024136 -0.4969139117 -0.0585291781
C 0.2783429623 -0.1191981425 -0.0043300733
C -0.303234937 0.7229071863 1.1131075831
C -0.9562472546 1.9847940692 0.5753413623
C -0.1147794753 3.2090030328 0.2749924065
C -1.0674165992 3.2118979912 1.4299516881
C -2.2879574069 4.0954389173 1.6696470536
O -1.9711791168 4.1858616443 3.0756758852
C -0.7844582314 3.3773274154 2.9208562689
H -0.4482084695 -0.3720130728 -0.8123699739
H -1.05324179 0.1125025182 1.6377588487
H 0.4987013275 0.9524359012 1.8211138117
H -1.7925612327 1.8065614197 -0.0982214834
H 0.9480322585 3.156278327 0.493900967
H -0.3615067859 3.805343396 -0.5978051409
H -2.2687351026 5.0784700006 1.1801719303
H -3.2661837485 3.626939693 1.4968801641
H 0.1275779871 3.9329813381 3.1755764793
H -0.8284710587 2.4640061966 3.529226531

