# b3lyp 6-31G(2df,p) opt Freq 

 titel

0 1
O 0.1971390969 0.6876492739 0.1835078854
C -1.0780562143 0.3383619672 0.6441364538
C -1.3487418604 0.4246738909 2.1181698914
C -1.9846937224 1.4355843255 1.126255263
C -3.3965772566 0.9283695598 1.5181163217
O -4.3170640056 1.9091817554 1.8936668993
C -4.0398544818 -0.2355346167 0.719972036
C -3.3794705371 -1.2661679567 1.6969721621
C -2.7508339489 -0.0941637479 2.5106468939
H 0.534109433 1.4091599908 0.7255115507
H -1.4509047433 -0.4812059629 0.0386968299
H -0.5205767604 0.559202904 2.8071699774
H -1.7460323808 2.4751067934 0.9178247997
H -3.8648364512 2.5486956779 2.4556827927
H -5.1281499531 -0.2032633261 0.8024003664
H -3.7707769843 -0.3086733171 -0.3362165116
H -4.1083096245 -1.843088907 2.2696546646
H -2.6698055468 -1.9651323621 1.248794187
H -2.9709982983 -0.0460958426 3.5779432766

