# b3lyp 6-31G(2df,p) opt Freq 

 titel

0 1
C 3.1187037612 -0.5571871218 -3.9364766589
C 2.2362582097 -1.0167993283 -2.7909002624
O 1.8136215206 -2.1491083404 -2.7256025573
C 1.8910597143 0.0359922357 -1.74252975
C 0.6526344302 0.8823514412 -2.192323188
C -0.0034412871 1.2814432444 -0.8864292178
O 0.9140600105 1.8017143464 0.083583896
C 0.5007425267 0.4279526595 0.1941336866
C 1.5043864784 -0.5541073033 -0.3663298159
H 4.1284076684 -0.354710629 -3.5591991751
H 3.1688231296 -1.3276548963 -4.7066467589
H 2.7490204719 0.3811953909 -4.3638324507
H 2.7356685555 0.7202307172 -1.6302143899
H 0.9371856485 1.7413028526 -2.8070994201
H -0.0517147262 0.2718565558 -2.7708401036
H -0.9954537516 1.7263397636 -0.8812028256
H -0.0835462156 0.1899775684 1.0791609434
H 2.3757549737 -0.6875449811 0.2818176364
H 1.0350450613 -1.5339067655 -0.5045858184

