# b3lyp 6-31G(2df,p) opt Freq 

 titel

0 1
C -0.2819851574 2.3862968953 -2.1044071622
C 0.5372433522 1.1084982548 -1.9686414391
O 0.4334190694 0.6153384195 -0.6194199854
C -0.1681191564 -0.6423464587 -0.481422624
C 0.1961795292 -1.7779298237 -1.4204870858
C 0.9031093156 -1.281843855 -2.6719003167
C 0.1042738507 0.0087248235 -2.9479441046
O -1.2571554073 -0.3363428121 -2.6573902764
C -1.1759868215 -1.1212279981 -1.4881890852
H -0.0079649906 3.0910229754 -1.3151563947
H -0.0938231144 2.8618708192 -3.073451924
H -1.3483584652 2.162353254 -2.0257822162
H 1.5999163762 1.3343002309 -2.1427842491
H -0.3251900509 -0.8673839553 0.5677287164
H 0.3547997816 -2.7850520534 -1.0542143486
H 1.9664152088 -1.0735432538 -2.5223647211
H 0.7964697005 -1.9985037726 -3.4918143051
H 0.1499958669 0.3624436201 -3.979890651
H -2.1162299175 -1.5920075399 -1.2286470372

