# b3lyp 6-31G(2df,p) opt Freq 

 titel

0 1
C 1.0609520355 0.1825111653 -1.8797515535
C 0.8128242614 1.0202267395 -0.6235612284
C 2.1149637614 1.4506088732 0.0679922021
C 1.8808373027 2.2272128538 1.3219702143
O 1.1550100086 1.6152933269 2.4383433996
C 1.4537685213 2.9408556986 2.950840732
C 2.84585599 3.0381592179 2.2572410363
O 2.5730075862 4.3176532851 1.6194244805
C 1.277221707 3.6565314581 1.5786914612
H 1.6132996398 -0.7332018687 -1.6417337992
H 0.1187335212 -0.1106395981 -2.3525412544
H 1.646724745 0.738964527 -2.6199962996
H 0.2324604204 1.9144415493 -0.8831141658
H 0.2038874471 0.4558690301 0.0911910234
H 2.7197890108 0.5675661651 0.3117026247
H 2.7195676424 2.0752614842 -0.6022395176
H 1.125465765 3.2096021027 3.9539254624
H 3.8524285168 2.825222864 2.6168670278
H 0.4271799877 4.1771189759 1.1382764241

