# b3lyp 6-31G(2df,p) opt Freq 

 titel

0 1
C 1.3266279379 0.7087195465 -0.5451447849
C 0.0338075111 0.1071896119 -0.0948684324
C -0.236542879 -1.2007924522 0.0377511743
C -1.6091385973 -1.4192399828 0.5364672172
O -2.1490340835 -2.4797651655 0.7544704603
C -2.2307715305 -0.0307167827 0.7461980325
C -1.1609240883 0.9752016473 0.2782937638
C -1.6412875547 1.8529212307 -0.8938370708
O -2.807824066 2.5910145207 -0.5789591976
H 1.6914919685 1.4391122711 0.1878580071
H 2.0971615214 -0.0521529353 -0.6886094147
H 1.2056534225 1.2525177269 -1.489847918
H 0.4415051553 -2.0193781506 -0.1718239565
H -3.1641610453 0.0614055213 0.184419213
H -2.4913506308 0.0867544803 1.8022760031
H -0.8663800633 1.6546835126 1.0929204419
H -0.8302951855 2.5159812717 -1.231101904
H -1.9146576557 1.2119499703 -1.7396028995
H -2.5901109269 3.2083858778 0.1270485051

