# b3lyp 6-31G(2df,p) opt Freq 

 titel

0 1
C 1.4154157958 0.0261087644 -0.2049449765
O -0.0003626777 0.1995201039 -0.1656354702
C -0.4742003547 0.727682872 1.0488567058
C -0.1088844635 0.0293744608 2.2486240205
C 0.1963035442 -0.5374634363 3.2658596939
C -1.8521075704 1.3845092924 0.9483204986
C -2.6847993738 1.2796929123 -0.3091636219
C -0.62178749 2.2540300357 1.0330090372
O -0.1442342386 2.9336779242 -0.0823993117
H 1.7441404276 -0.6998257023 0.546962438
H 1.650013729 -0.3516418846 -1.2022917009
H 1.9399952872 0.9752897965 -0.0372931948
H 0.4592137239 -1.0412591749 4.1629341706
H -2.4179928166 1.3149283672 1.8730694843
H -3.2214961743 0.3268329139 -0.3424385166
H -3.4228546311 2.0877326902 -0.3375658642
H -2.0772704873 1.3479616391 -1.2124023055
H -0.4289734513 2.8068748905 1.9457522844
H -0.0205432183 2.2730077448 -0.776532341

