# b3lyp 6-31G(2df,p) opt Freq 

 titel

0 1
O 1.2835336787 1.2103710589 -0.8408884841
C 0.6509951715 0.2310438293 -0.5534540925
O -0.634107181 0.2022969074 -0.1762747272
C -1.2968823529 1.4740361816 -0.1019311776
C -1.8327709935 2.0803802128 -1.4222895582
C -3.1495134192 2.3489592154 -0.677214311
C -3.776684457 3.6974211421 -0.4728553839
C -4.5120164375 2.615312843 -1.2346339001
C -2.7360782316 1.3796931573 0.442373348
H 1.0417344014 -0.7987019803 -0.5573227756
H -0.6617016291 2.1714497193 0.4462456428
H -1.2844096473 2.9297594668 -1.8339366561
H -1.9386506351 1.3085447098 -2.1915274699
H -4.13157668 3.9526012672 0.5208702101
H -3.3807066014 4.5378045064 -1.034357625
H -5.3630650143 2.1411147578 -0.7558309514
H -4.6117521646 2.7254445445 -2.3099495669
H -2.9005767782 1.6854154429 1.4783942245
H -3.1405021286 0.3735847577 0.2936868742

