# b3lyp 6-31G(2df,p) opt Freq 

 titel

0 1
C -0.3691472332 1.482515563 0.3370020633
C 0.0413955288 0.0358129911 0.079808196
O -1.1338905869 -0.772288129 -0.1261798218
C -1.0038737492 -1.9785864914 0.5916141069
O -2.1011444573 -2.3134560802 1.4271800961
C -1.6522251392 -2.4453434419 2.785730148
C -0.1058099856 -2.6112974948 2.7373642569
C 0.1433622551 -1.7597085226 1.541007484
C 0.7448308997 -0.6134696643 1.2528456721
H 0.5130939465 2.1259984621 0.4188788495
H -0.984537311 1.8456621705 -0.4906559594
H -0.9503011646 1.5573539535 1.260515757
H 0.6503971429 -0.003881808 -0.8381785982
H -0.88979885 -2.8011618694 -0.1320481077
H -1.9136613571 -1.5460164923 3.3599107658
H -2.1655522151 -3.3033716678 3.229101252
H 0.3849366399 -2.2676283208 3.6497271921
H 0.1602018718 -3.6611183958 2.5672697239
H 1.5338506747 -0.1206543919 1.8074845435

