# b3lyp 6-31G(2df,p) opt Freq 

 titel

0 1
C -1.0222762087 2.0644127561 -1.2388636181
C -1.0782284066 1.1084393912 -0.047082189
C -1.0376384663 1.859091305 1.288976702
C -2.1779794261 -0.0136672318 -0.1167464399
C -1.0836550284 -1.0821033946 0.0279610515
C -1.0348696905 -2.2991596669 0.8572548164
O -1.065745204 -2.364913486 -0.5651266922
C -0.0076927507 -0.015007398 -0.1084074503
O 1.1806475561 -0.0240836223 -0.2490283189
H -1.0469821767 1.523785743 -2.1902036866
H -1.8715537224 2.7560424229 -1.2194584833
H -0.1000241554 2.6531418969 -1.2127668682
H -1.0817893109 1.1727483334 2.1410573621
H -0.1154818646 2.4422271491 1.3743613555
H -1.8865267168 2.5471783563 1.3673216327
H -2.9306553373 0.0080663629 0.673967668
H -2.6764082192 -0.0635751428 -1.0879783223
H -0.0941469753 -2.5936215593 1.3195775136
H -1.9431843261 -2.6215554648 1.3647806072

