# b3lyp 6-31G(2df,p) opt Freq 

 titel

0 1
C 1.5602551098 2.0027202502 -2.4920665941
C 0.5189408011 2.7864203122 -1.677220774
C 0.4656338049 2.3833571034 -0.1900745958
O 0.1823694719 0.9830138939 -0.0777040395
C 1.4319154672 0.3057614903 -0.0306247235
C 1.8525814828 -0.1651675694 -1.4612096473
O 1.3154879028 0.6057916493 -2.512479082
C 2.3747798973 1.3313411084 0.5650622797
C 1.8065826933 2.5293379374 0.4952567448
H 1.503637863 2.3286876223 -3.5365617826
H 2.5783900846 2.2146380061 -2.1352416745
H 0.7340602241 3.8602766529 -1.7668840216
H -0.47125574 2.6125677229 -2.1115904698
H -0.3436239275 2.9249349366 0.312996243
H 1.3192507984 -0.5800411526 0.6071435643
H 2.9538874816 -0.2031175807 -1.5161006011
H 1.4749465606 -1.1767001521 -1.6387707122
H 3.3627244 1.0875933839 0.934869682
H 2.2310672842 3.4809588252 0.7883018743

