# b3lyp 6-31G(2df,p) opt Freq 

 titel

0 1
C 3.561419132 -0.0324071461 -6.3645093195
C 2.7176008618 -1.0569380794 -5.6257234729
O 3.1454009895 -2.1531346202 -5.3396746616
C 1.3223630833 -0.6413038881 -5.2445921451
C 1.0607510928 0.3739782456 -4.06506367
C -0.3510797683 -0.2435147967 -4.1928581837
C 0.3368138823 -1.5932102649 -4.5022737012
O -0.7929718579 0.2110496345 -5.4844949884
C 0.3721808817 -0.0357011518 -6.2986538692
H 3.5108781877 0.947391548 -5.8780155071
H 4.5956703227 -0.3750042487 -6.4135710437
H 3.1795359845 0.097455016 -7.3843281109
H 1.5865730857 0.0890294604 -3.1527794344
H 1.161993945 1.4424089884 -4.269382154
H -1.146319329 -0.1057982932 -3.4628905459
H 0.8010048083 -2.0697470579 -3.6391374189
H -0.2252558524 -2.3160435071 -5.0968762051
H 0.129147852 -0.7353503282 -7.1069055528
H 0.7358537583 0.9028700094 -6.7330117055

