# b3lyp 6-31G(2df,p) opt Freq 

 titel

0 1
C -0.4811585203 1.4466057029 -0.0463178933
C 0.6505598212 2.5000076721 -0.075425942
C 1.200201928 2.8567835163 1.2827015904
C 2.0918622923 2.1835858123 2.0159226877
C 2.7512084753 0.8982923542 1.7041690157
O 2.6958348866 0.3718325866 0.3750238771
C 1.9756902285 -0.3293339523 1.3780272653
C 0.4448297271 -0.3417238891 1.2818754044
O -0.0528250784 0.1028288136 0.0407438051
H -1.1863654863 1.6765178124 0.7685868534
H -1.0321192167 1.4982396899 -0.9908244544
H 1.4339712931 2.1223102462 -0.7342485111
H 0.2351097482 3.4049672321 -0.5335276255
H 0.7977870482 3.7666904451 1.7240511786
H 2.3685237215 2.585711031 2.9886725246
H 3.7165337468 0.749740093 2.1905543643
H 2.4244112691 -1.2857114396 1.6528428008
H 0.1117832107 -1.3797849593 1.3968835855
H 0.011885065 0.2402449926 2.1087081933

