# b3lyp 6-31G(2df,p) opt Freq 

 titel

0 1
C 1.7155907944 -1.2189090584 -2.0458979463
C 0.3033148887 -0.7309271596 -2.3698808311
O 0.0464013574 -0.7786028832 -3.7717343127
C 0.0942204321 0.7235965097 -1.9500250781
C -1.3469666709 1.2303339634 -2.2379787775
C -1.4028654393 2.7265408336 -1.9141622574
O -1.1927945798 3.5897636131 -2.7222885342
C -2.3547847764 0.5111457102 -1.4684727577
C -3.1887911064 -0.0404086727 -0.8003781126
H 1.9108861889 -1.178774606 -0.9692490261
H 1.8472899963 -2.2578882351 -2.3681966281
H 2.4614850024 -0.6060463259 -2.5615967243
H -0.4275670228 -1.3542929516 -1.831775455
H 0.081287823 -1.6978018499 -4.0530456536
H 0.317888687 0.8288680997 -0.8831229478
H 0.7919027742 1.3571435851 -2.5084686997
H -1.5271716499 1.1165367686 -3.3111077398
H -1.6245294809 2.9584151928 -0.8488570831
H -3.933135898 -0.5371724638 -0.2283624848

