# b3lyp 6-31G(2df,p) opt Freq 

 titel

0 1
C 2.1303359591 -1.5944766283 -1.0848544258
C 2.2582103878 -0.4221533508 -0.1533570399
C 3.403543676 -0.2496815773 0.8391506606
C 2.8942206686 1.1033608413 1.372340916
O 2.7638373221 1.8924643317 0.1933450828
C 1.90552186 1.0213843142 -0.5213301388
C 1.0847058949 0.2978428074 0.5247073335
C -0.3660364541 -0.0562292409 0.4924051479
O 1.5586683748 0.8163733094 1.7632246817
H 2.0473315976 -2.5376481439 -0.5328210208
H 1.2440255677 -1.5081200691 -1.7220048528
H 3.0012696845 -1.6705615964 -1.7457991848
H 3.4244226971 -1.0166297644 1.6172085916
H 4.3830958773 -0.1645069518 0.3622201357
H 3.4318094555 1.6381968371 2.1504984066
H 1.5714849437 1.383949657 -1.4833608686
H -0.5931065059 -0.8536257401 1.2076389361
H -0.9792937481 0.8145100752 0.7446290887
H -0.6565062786 -0.40052387 -0.5037381296

