# b3lyp 6-31G(2df,p) opt Freq 

 titel

0 1
O 1.1190033825 0.480735407 -0.659573846
C -0.0591487077 0.033575461 -0.0191903084
C -1.1840432267 -0.2980360684 -1.0214089461
C -2.4554130829 -0.764354198 -0.3553237554
C -3.5094009632 -0.0037306156 -0.6477415291
C -3.1694517462 1.1149806781 -1.5986390992
C -1.6634817635 0.9310397165 -1.8234264158
C -0.969413817 1.4237838315 -3.0160947817
O -0.8530024413 2.1265576734 -1.7678082353
H 0.8893020512 1.3444653329 -1.0273524777
H 0.2041669517 -0.8731239646 0.5366903531
H -0.4292093644 0.7702127132 0.7098558502
H -0.7869274619 -1.0621690352 -1.7033003189
H -2.4723158167 -1.6265146789 0.3027288886
H -4.5138048488 -0.1559076754 -0.269075817
H -3.7354285894 1.0455178157 -2.5366774196
H -3.3739118079 2.1092032578 -1.1828426959
H -0.0602219606 0.9257951972 -3.3495554153
H -1.5250918371 1.9536859117 -3.7884918104

