# b3lyp 6-31G(2df,p) opt Freq 

 titel

0 1
C -0.1229168806 2.0589586528 -2.139570236
C 0.4465551733 0.9453879016 -1.2536258843
C 1.4297470377 0.0560319486 -1.9867913224
C 1.6984826217 -1.3503358856 -1.4770022865
C 2.9858804682 -2.018538691 -1.903327649
C 2.9142104994 -2.0598028868 -3.4359276264
O 3.7450264593 -2.4408446357 -4.2044556333
O 1.7083578015 -1.5625249038 -3.8527635083
C 0.9278970133 -1.1329355525 -2.7546283235
H -0.8311791859 2.6811995263 -1.5843976608
H 0.6734560262 2.7113861578 -2.5130919
H -0.6446991844 1.6443197278 -3.0080818879
H 0.9406345951 1.3831434877 -0.3769432097
H -0.3730433957 0.3296590246 -0.8608762052
H 2.2736538476 0.574344638 -2.4401647751
H 1.1977189944 -1.6783680615 -0.5739406419
H 3.8990166889 -1.4949182643 -1.6060211707
H 3.0663232415 -3.0455710028 -1.5332831769
H -0.1269191116 -1.340870521 -2.886337942

