# b3lyp 6-31G(2df,p) opt Freq 

 titel

0 1
C 1.3911366761 -0.1615812074 -0.1202524867
O 0.0231483114 0.1657582471 -0.0376678042
C -0.3679671217 0.7196519818 1.2078955844
C -1.9165623348 0.6956704517 1.2360500483
C -2.305653464 2.1083553602 0.9062572629
C -1.2572167638 2.9429137879 0.9533554414
C 0.0153855395 2.2218059049 1.3299503152
C -1.3307149993 4.3802506909 0.6904110476
O -0.3828171044 5.1335537314 0.7471237687
H 1.6829845687 -0.8772507278 0.6647401072
H 1.5524184833 -0.6233071533 -1.0973428482
H 2.044469411 0.7195834707 -0.039938674
H 0.0670070555 0.1220312538 2.0218237389
H -2.2946797711 -0.0398344113 0.518881477
H -2.3009910492 0.406723727 2.2235395871
H -3.3233236214 2.4077267592 0.6766939805
H 0.8522819942 2.4880842446 0.6784479787
H 0.3213283789 2.48189124 2.3506863366
H -2.3462196588 4.7513562786 0.4245771586

