# b3lyp 6-31G(2df,p) opt Freq 

 titel

0 1
C -0.6305113151 -2.1006430758 2.0222506312
C 0.1678988556 -2.2354962787 0.7421437132
O 1.2763512534 -2.7631608319 0.732366441
C -0.4395416441 -1.8001212604 -0.5151935962
C 0.4590235287 -1.4284378581 -1.7005926077
C -0.2441530887 -2.7220360801 -1.7831876992
O 0.3805413797 -3.9388876892 -1.8018837569
C -1.7225936713 -2.5675466306 -2.1250464524
C -1.9076936878 -1.5942525024 -0.9084437572
H -0.0171525657 -2.4085438393 2.8697409071
H -0.9757664182 -1.070448665 2.1604730205
H -1.5244646684 -2.7336854514 1.9785894888
H 0.1580747544 -0.5751804349 -2.305326205
H 1.518453119 -1.4935024572 -1.4789773667
H 1.0852755685 -3.8991468629 -1.133357923
H -1.9445835494 -2.1746209939 -3.1219071746
H -2.2611228298 -3.5058048766 -1.9819177277
H -2.185568267 -0.564789721 -1.1573538676
H -2.6199093737 -1.9773733805 -0.1752208776

