# b3lyp 6-31G(2df,p) opt Freq 

 titel

0 1
C 1.1079261128 2.6630903626 -2.8958400366
C 1.5238751106 2.0429958134 -1.5483755943
C 1.5466017906 0.4919515348 -1.6468519189
C 1.5451372744 -0.2995975402 -0.3389460453
O 0.7434461628 -1.1864342661 -0.1577865947
C 2.627075226 -0.0490219675 0.721282934
O 3.1676943829 1.2541670865 0.7818245732
C 0.656560189 2.4971919901 -0.4598331937
C -0.0357563805 2.854322027 0.4580705935
H 1.7848821332 2.32905428 -3.6881137507
H 0.090156252 2.3647783217 -3.1638515067
H 1.1432724389 3.7545255355 -2.8487491755
H 2.5384877772 2.3749643325 -1.3097313132
H 0.673172082 0.1402451596 -2.2029288645
H 2.4411705016 0.2053077992 -2.2158052453
H 2.2167647482 -0.3879058969 1.6814235534
H 3.4639522711 -0.7170614251 0.4763435997
H 2.4611588164 1.8488408457 1.0628437207
H -0.6677821693 3.1752016074 1.2494434848

