# b3lyp 6-31G(2df,p) opt Freq 

 titel

0 1
O 0.5180553817 0.1673091211 0.8151795999
C -0.7101143247 0.6863978127 0.39555252
C -1.8634682426 -0.2744040113 0.3875072828
C -1.8167303333 0.8340065354 1.3996303168
C -1.6827714817 0.7508150099 2.9138632422
O -2.5237651131 1.9221688263 3.0688360636
C -2.7440083901 1.9958408461 1.6564726725
C -4.0847166548 2.3195269812 1.085744119
C -2.9220482174 3.2977269248 0.9494109241
H 1.0074252126 0.8736784834 1.2509257504
H -0.6563981249 1.4184452113 -0.4115145348
H -2.580869202 -0.2109532103 -0.4245552365
H -1.6615490823 -1.2796552256 0.7435097357
H -2.1265044696 -0.1334524957 3.3868490461
H -0.6755624536 0.9105575809 3.3177498912
H -4.4187898035 1.7821980231 0.2035316556
H -4.8704564607 2.5724787638 1.7894447676
H -2.4658460917 3.4324114095 -0.0264318382
H -2.9461380883 4.1903957633 1.5653546419

