# b3lyp 6-31G(2df,p) opt Freq 

 titel

0 1
C 1.3651612362 -0.2635693132 0.0046969739
O -0.0457784355 -0.121114439 -0.0054030141
C -0.5338154459 0.5172074276 1.1307864087
C -1.9324935136 1.0648657455 1.0389146291
C -0.7732900116 2.0169771017 1.140299643
O -0.6778293334 2.6811811733 2.3663777862
C -0.3867067586 2.8502304132 -0.0769902178
C 0.9353101752 3.4501996169 0.0893429013
C 2.0190235431 3.9327591579 0.2910368841
H 1.6977329636 -0.8665044409 0.8628262856
H 1.640595425 -0.7800652676 -0.9176480407
H 1.8722704622 0.7096354751 0.042498808
H -0.2261783822 0.0772780441 2.0807910194
H -2.4274408392 0.9739309547 0.0779455945
H -2.5742832721 0.9714815448 1.9069360596
H 0.2290804985 3.0051198859 2.4440364675
H -0.4008698683 2.2110440606 -0.9656039682
H -1.1300583701 3.6429459101 -0.2273239867
H 2.9767665966 4.3693908892 0.4328827165

