# b3lyp 6-31G(2df,p) opt Freq 

 titel

0 1
C -0.9341056788 -4.2610427988 1.535517411
C -1.0195242417 -3.1732365548 0.4968509735
O -0.2736804171 -3.3762533952 -0.7104853456
C 0.1167297024 -2.3042486304 0.1565650229
C -0.0541755987 -0.9102215833 -0.3778564185
C 1.1652701111 -0.3970562946 -1.2360846587
C 1.4074171208 0.6795279497 -0.1703292523
O 0.2042080597 1.4498230657 -0.0673392445
C 0.269941798 0.2080848649 0.6370263811
H -1.3146791523 -3.9052549701 2.4991114808
H -1.5344667549 -5.1264945533 1.2362966334
H 0.0994706485 -4.5923689334 1.6673847524
H -2.019175563 -2.7687094113 0.3249154428
H 1.0581801593 -2.4877131443 0.6815326594
H -1.0335579967 -0.8053697843 -0.8514951195
H 1.9643096417 -1.1405075711 -1.294722349
H 0.94036193 -0.0208154872 -2.236095045
H 2.3309027724 1.1671263215 0.1195588578
H 0.0905082991 0.2319089702 1.7063541279

