# b3lyp 6-31G(2df,p) opt Freq 

 titel

0 1
C -1.3302693766 2.0405877615 -0.3330845339
C -0.4736292857 2.5014109999 -1.5625298547
C 0.7933167402 1.9764735039 -0.837680677
C 1.5099611694 0.7039286054 -1.2704172848
O 0.7446714623 -0.3485957508 -0.668098056
C 0.2693238092 0.1123888084 0.6078529328
C -0.0334732813 1.5878983874 0.3963589541
C 0.7902350966 2.6911746675 1.0971788874
O 1.5483851664 2.9717606968 -0.1134436633
H -1.9089488038 2.8188714289 0.1706270537
H -1.9962346768 1.2051604687 -0.561922545
H -0.7102800647 1.9916850045 -2.4995231419
H -0.4451503928 3.5783936079 -1.7369804026
H 1.5230656191 0.5143745312 -2.3467765391
H 2.54250651 0.7224471213 -0.8906109391
H -0.5949849933 -0.505588197 0.8661496633
H 1.0427198181 -0.0249639036 1.3804479705
H 0.2240288199 3.5679546833 1.4333614912
H 1.4422850436 2.3494751649 1.9106214344

