# b3lyp 6-31G(2df,p) opt Freq 

 titel

0 1
C -3.1034049477 -3.3312665715 1.1338211203
C -3.1756382114 -2.4912937172 2.4055615345
O -4.3526154505 -2.7601188628 3.1546326817
C -3.0734234293 -0.9701105195 2.1258144529
C -1.8060137422 -0.5656203768 1.5342156099
C -0.7450856732 -0.2684503517 1.04516685
C 0.5320650527 0.0895344868 0.491535533
C 0.6508826224 0.8952889223 -0.7403445538
O 0.902913505 -0.5028281226 -0.7668894351
H -3.1714460504 -4.3944463509 1.3787331321
H -3.9318767075 -3.0803178206 0.4579423124
H -2.1691611764 -3.1502472659 0.595679232
H -2.3497065701 -2.7662646919 3.0706884955
H -5.1044709886 -2.6972741578 2.5550340053
H -3.904223857 -0.6752969763 1.4685369463
H -3.2282456189 -0.4468803287 3.0764519294
H 1.3542057484 0.1420245725 1.2047151274
H -0.2571681664 1.2199848359 -1.2447903738
H 1.5213911011 1.5370158268 -0.8722143502

