# b3lyp 6-31G(2df,p) opt Freq 

 titel

0 1
C -0.8287566386 3.6503638077 -1.7806359008
C -1.7663227139 2.4796427061 -1.48448459
C -3.2574832578 2.8824040212 -1.3032552474
C -3.7381515153 1.9994985956 -0.1807244963
C -2.7418553816 1.3486676263 0.4152176024
C -1.4135920191 1.6829790206 -0.1991554974
O -0.7114081232 0.4408075646 -0.505665676
C 0.6251689926 0.4714812125 -0.4998881236
O 1.3254990537 1.4280023839 -0.300647787
H -0.8694020946 4.3941985634 -0.9764465454
H 0.2074788069 3.3148684335 -1.8684225158
H -1.1119077972 4.1527449452 -2.7114311146
H -1.7092854104 1.7551487355 -2.3046426406
H -3.345932266 3.9423621777 -1.0261035842
H -3.8425605222 2.7590089264 -2.2220379898
H -4.7803241743 1.9452786356 0.1152294635
H -2.826590153 0.6802817754 1.2638708182
H -0.7633374255 2.2518551507 0.4731519539
H 0.9987072595 -0.5437884719 -0.7088160192

