# b3lyp 6-31G(2df,p) opt Freq 

 titel

0 1
C 0.2842510508 2.5088257669 0.4772468363
O 0.6271568513 1.3679466732 1.2988969071
C 1.0560398082 0.252225753 0.4527103718
C 1.4078858928 0.9321341892 -0.8685899565
C 0.1554315006 1.7999050603 -0.8541252013
O -0.609545383 2.0309372082 -2.0182842586
C -1.098754662 1.0733341945 -1.041707652
C -0.9282442332 -0.4329587529 -1.0788517069
C -0.0833779168 -0.779625435 0.1940529324
H -0.6475602004 2.9495296797 0.841334794
H 1.0835484476 3.260569932 0.5198214638
H 1.8877297644 -0.2194457319 0.9807857899
H 2.3210814261 1.5297826967 -0.8015419734
H 1.4802141446 0.2610628025 -1.7223890621
H -1.9763977034 1.4425191253 -0.5134623668
H -1.8877604901 -0.9565361534 -1.0615105543
H -0.4112006243 -0.7483344271 -1.9886671753
H -0.7279707432 -0.7951114047 1.0787445215
H 0.3476167904 -1.7824499364 0.0952697105

