# b3lyp 6-31G(2df,p) opt Freq 

 titel

0 1
C 0.0656265989 0.4204667814 -0.1793856335
C 1.4755784688 -0.042680189 0.1701762316
O 1.3231444565 -1.1341450847 1.0806779983
C 2.4954738413 -1.5871960835 1.6899206133
C 2.673026636 -1.2653939419 3.1585453781
C 3.5215122091 -0.5806804201 2.0993232784
O 4.8568967026 -0.999992924 1.9725002595
C 3.2456957314 0.8194298642 1.6806277293
C 2.3195757053 1.0681323086 0.7588436919
H -0.4404757062 0.8029700968 0.7118343262
H 0.0990627795 1.2136911666 -0.9323363909
H -0.5164846734 -0.4148655811 -0.5764801051
H 1.9673684568 -0.4051533852 -0.7503691288
H 2.8566247744 -2.5479003964 1.3287561134
H 1.8812584423 -0.6939548214 3.6290497245
H 3.1668927716 -2.0060452676 3.7788250454
H 5.3465921182 -0.6551313736 2.7276234904
H 3.8483204989 1.6126627515 2.1169310941
H 2.133387948 2.0757474993 0.3972843238

