# b3lyp 6-31G(2df,p) opt Freq 

 titel

0 1
C 1.5166347095 0.5617413851 0.0738894173
O 0.1743867383 0.9470350528 0.2503378198
C -0.563787938 0.0217283613 1.0230182361
C -1.9708135376 0.5182914695 1.1417033957
C -2.5414745565 1.8026630603 1.7832599129
C -3.8046337724 1.0930758358 1.246798166
C -3.0473072353 0.5329004665 0.0052139051
O -3.4595140171 -0.8528316442 0.2154945558
C -3.2244032547 -0.3225623081 1.5532813497
H 1.5995833959 -0.406694468 -0.4445480276
H 2.0007120373 1.330306035 -0.5335632576
H 2.0490519853 0.4808349093 1.0351993852
H -0.5728304012 -0.9723255573 0.5443242577
H -0.1089293898 -0.0965067918 2.0221890739
H -2.4530944762 1.885639615 2.8705514473
H -2.266723345 2.7453491144 1.3041938632
H -4.8517583633 1.3902483431 1.2918100744
H -2.9791228427 0.914457412 -1.0127488857
H -3.3784663968 -0.9752105907 2.4132421905

