# b3lyp 6-31G(2df,p) opt Freq 

 titel

0 1
C -0.0232456932 1.5725897128 -0.0921047088
C -0.0178663789 0.0463132193 0.0153679855
C -1.4176980094 -0.5636710667 0.1655432502
C -1.3205944731 -1.6553649437 0.9110930596
C -1.8652749747 -2.4385312031 2.0783625042
O -0.549169497 -2.3434105132 2.7088936311
C 0.0473772883 -1.8807110748 1.4593666047
C 0.7248035419 -0.4980391474 1.3048001597
O 0.4428386579 0.2706742462 2.4543780307
H 0.996432023 1.9735741064 -0.1321786482
H -0.5360423341 1.8967862496 -1.0029214339
H -0.5396846416 2.0227229437 0.7610470328
H 0.4985647435 -0.3592500662 -0.867435615
H -2.3158911119 -0.070038076 -0.1875037796
H -2.6531742982 -1.9607723723 2.6703184036
H -2.1315754799 -3.4860038936 1.8851772624
H 0.661858738 -2.6766538519 1.0160829904
H 1.8099079357 -0.5710741765 1.1377113068
H 0.9148877238 1.1048792274 2.3744770338

