# b3lyp 6-31G(2df,p) opt Freq 

 titel

0 1
C 2.0505186993 4.3624657035 -0.429215833
C 1.2561432243 3.3922835586 0.4315054791
O 1.4759375584 2.0231190718 0.0252414185
C 2.5463713207 1.4047143089 0.5487299606
O 3.3308294847 1.9121047597 1.3090101497
C 2.6665741353 -0.031552221 0.0229283345
C 2.9822924181 -0.021519486 -1.4911560868
C 1.4720564037 -0.8165169415 0.32008282
C 0.4986885936 -1.4799367016 0.5564558296
H 1.8136497755 4.2276644946 -1.4885610308
H 1.802891927 5.3915931735 -0.1501890092
H 3.1232222949 4.2163584194 -0.2828501003
H 1.5235376209 3.4912873945 1.4859216639
H 0.1804020766 3.5406798579 0.3137590397
H 3.5189392114 -0.4558526219 0.5628173461
H 3.1266019687 -1.0440366796 -1.8471594702
H 2.1587582082 0.4301552545 -2.0472540224
H 3.8960077913 0.5484309614 -1.6832409087
H -0.3635425427 -2.0608769765 0.7723555395

