# b3lyp 6-31G(2df,p) opt Freq 

 titel

0 1
C -1.4220298679 -2.0782412877 -1.2780637029
C -1.5545606909 -0.8622049587 -2.1925636083
O -0.328812823 -0.4947570496 -2.802248378
C 0.1256026815 -1.4105569837 -3.7671054616
C -0.1706770602 -1.1729195339 -5.221303942
C -1.4828698124 -0.4007081876 -5.3348378295
C -2.167535071 -1.4796768461 -4.4201099913
O -2.5988984262 -1.0536460154 -3.1410780134
C -0.8700072072 -2.3003075031 -4.4394230776
H -1.1295139391 -2.969716793 -1.8378495531
H -0.6719840504 -1.883017043 -0.5058384247
H -2.3832975405 -2.2754034863 -0.7959932424
H -1.8417042683 0.0145111627 -1.6029546352
H 1.0975140093 -1.8354901994 -3.5325959883
H 0.5991736458 -1.2566038273 -5.9780905463
H -1.4865588521 0.6213084778 -4.9493101111
H -1.8986889054 -0.416259662 -6.3448983887
H -3.0295561384 -1.955484378 -4.8885445217
H -0.7784423636 -3.3782152658 -4.495300414

