# b3lyp 6-31G(2df,p) opt Freq 

 titel

0 1
C 1.4719017637 -0.3944532838 0.7509735301
O 0.0978527205 -0.2506207715 1.0270359606
C -0.4890572997 0.8347743211 0.3410862402
C -1.9501605221 0.8913550249 0.683929711
C -2.7949884654 -0.3585564393 0.8976887942
C -2.7164805427 0.62382507 2.0116182763
C -3.6893594823 1.7809771943 1.7346647477
C -2.847276188 2.0701863641 0.4625990049
O -2.7823877332 3.0123423972 -0.2781906344
H 2.0429875543 0.4978904836 1.0507571994
H 1.8310117502 -1.253256606 1.3228354287
H 1.6552158059 -0.5758113737 -0.3194819551
H 0.0009786435 1.7823784104 0.6215822299
H -0.3613792771 0.7204288229 -0.7490267539
H -3.7251283711 -0.4967593472 0.3523714573
H -2.1866804369 -1.2498686746 1.0027694838
H -2.2631558748 0.3972671557 2.9667778189
H -4.7434617442 1.5174522088 1.6064687458
H -3.6112296403 2.6230035031 2.4283058846

