# b3lyp 6-31G(2df,p) opt Freq 

 titel

0 1
C -0.1277946275 -0.0229813608 -0.0483010792
C 1.4031481985 -0.0122411059 0.1426366502
C 1.941958977 -1.3427188638 0.7336975213
C 1.9760449807 -2.4384018658 -0.3331635444
O 2.6826327428 -1.9851877686 -1.4788407509
C 2.0797047182 -0.8345089266 -2.0024584705
O 2.0780138534 0.2488195422 -1.1058271929
C 1.760489374 1.0975342302 1.0312720712
C 2.028666675 1.9862242669 1.7933715379
H -0.6230507084 -0.0861197491 0.9240855049
H -0.4394807596 0.9013398687 -0.5395376807
H -0.4592447951 -0.86956064 -0.6541365626
H 2.9608550126 -1.1679708585 1.0890818698
H 1.3313397429 -1.6476231543 1.5893580644
H 2.5044028529 -3.3217628089 0.0344532247
H 0.9581930913 -2.7513249134 -0.6189432787
H 2.6785518256 -0.5156179631 -2.8578748719
H 1.0520099854 -1.0707760076 -2.3333676299
H 2.2746928104 2.7781990984 2.4569122373

