# b3lyp 6-31G(2df,p) opt Freq 

 titel

0 1
O -0.8148120588 3.3525594536 -2.1161493707
C 0.2712066455 3.8052678124 -1.324802754
C 1.5706549893 3.4212328734 -1.891707292
C 2.6350783829 3.109807258 -2.3545109004
C 0.1139823385 3.289038083 0.1249093642
O -0.0068167362 1.8722051508 -0.0009725104
C -1.0934350915 3.8904748622 0.8024299093
C -1.2233896616 3.7956590509 2.3063734937
C -0.9487657514 5.1257783617 1.6512806864
H -0.8595962509 2.4001592491 -1.9537184749
H 0.2005100458 4.8986904936 -1.3055183839
H 3.5727736272 2.8331869005 -2.769193176
H 1.0217366156 3.5451915481 0.6929197724
H -0.4448280641 1.5482125308 0.7923554537
H -2.0056055081 3.7986704162 0.2212910276
H -2.2064478975 3.618816302 2.7278746686
H -0.411519075 3.3360911207 2.8623649257
H -1.7441047529 5.8614691106 1.6207741121
H 0.0435587231 5.5485022023 1.7706398485

