# b3lyp 6-31G(2df,p) opt Freq 

 titel

0 1
C -3.2875173354 1.4371023603 -1.2833071064
C -1.8856199961 0.8338289358 -1.3337169941
C -1.866017802 -0.737077746 -1.3286132813
C -1.0746410396 -0.9782205075 -0.0260636969
C -0.9313854194 -2.3510518562 0.5574388259
O -1.6578850108 0.0442931775 0.8706246225
C -1.0853252359 1.0488901603 -0.0293582561
C 0.0792067102 0.0486378553 -0.1585243242
O 1.2701378943 0.0461591096 -0.1316872145
H -3.8140467957 1.1002580483 -0.3854233668
H -3.250336836 2.5315268316 -1.269571046
H -3.8742965086 1.1319792446 -2.1561023233
H -1.3340549319 1.2356996857 -2.1904751969
H -2.8728278908 -1.1589243615 -1.2544017878
H -1.3722260432 -1.1684364413 -2.2039511699
H -0.3595303695 -2.3201939774 1.488146319
H -1.9125233323 -2.7917650572 0.760801473
H -0.4056229054 -3.0002165713 -0.1493762402
H -0.9991630218 2.0448961795 0.4015109041

