# b3lyp 6-31G(2df,p) opt Freq 

 titel

0 1
O 0.6907158656 0.4698849611 0.1801454539
C -0.660415029 0.8533771619 0.3124612857
C -1.5726568837 -0.2373546799 0.9212678839
C -2.9154305339 0.4464646582 1.281028869
O -3.5682877818 0.9749798468 0.1365594601
C -2.7400880762 1.7527763862 -0.7146021982
C -1.4009948494 1.0415023946 -1.0324098744
C -1.6737697404 -0.4115995781 -1.4049857004
C -1.7717082916 -1.1411745355 -0.2904323255
H 0.7012608088 -0.3380108526 -0.3477085086
H -0.645097077 1.7684749678 0.912820718
H -1.1401218398 -0.7179891564 1.8030957906
H -3.6209813937 -0.2661407476 1.7188251923
H -2.728401283 1.2398119465 2.0245151978
H -3.3274085962 1.9209511315 -1.6223723519
H -2.527648049 2.7354915739 -0.2604081999
H -0.8267145784 1.6168515942 -1.7637721748
H -1.8405566982 -0.7583998672 -2.4178286299
H -2.0328613932 -2.1909409253 -0.2293691677

