# b3lyp 6-31G(2df,p) opt Freq 

 titel

0 1
O 0.33635476 0.1411081707 -0.1586579628
C -0.744331643 0.3456484235 0.7157351315
C -2.1418302267 0.1704936996 -0.0124284109
C -2.2563581794 -1.1843622928 0.7099681976
C -2.8586401823 -2.1826995163 1.744329333
C -1.2587234017 -2.3315022785 1.8405438475
C -1.2689166525 -2.3254734193 0.2996613586
C -1.2139435313 -0.7716900025 1.7690137722
O -1.5695341182 -0.0375161668 2.9199739209
H 1.1486093852 0.2158518888 0.3534204253
H -0.6465239291 1.2968661089 1.2522932143
H -2.8506564586 0.927042623 0.3313618069
H -2.1114032489 0.1589764533 -1.1043813762
H -3.3856179711 -1.7530062378 2.599466027
H -3.3888911051 -3.0641059565 1.3702273083
H -0.7205087029 -3.0240918894 2.4987808832
H -0.3492487536 -2.033764408 -0.2019172048
H -1.73961291 -3.1884672808 -0.1778901065
H -1.9533896306 -0.6373730791 3.5665111749

