# b3lyp 6-31G(2df,p) opt Freq 

 titel

0 1
C 1.0754028431 -0.6799344701 1.1083707014
C 0.9487481353 0.1007803913 -0.2022201075
C 1.8063989563 -0.4647183165 -1.3371948024
C 3.3408729642 -0.3153428379 -1.1697391421
C 3.8724769518 -0.1263327181 -2.5808309955
O 3.3878601362 -1.1077051268 -3.4915085103
C 2.7683254695 0.1949549628 -3.5062819627
C 1.5022783954 0.2099054776 -2.689470634
O 0.4611911339 0.7238313004 -3.0114603871
H 0.7783149842 -1.7261877941 0.9750575957
H 2.1029975551 -0.6740274878 1.4877229738
H 0.4353775467 -0.2484201878 1.8838796194
H -0.0927487536 0.1092663413 -0.5399043275
H 1.2207247908 1.1516079164 -0.0379795072
H 1.565715519 -1.52801551 -1.4695583549
H 3.5754942309 0.5746380676 -0.5727342273
H 3.8060029115 -1.1740160379 -0.6773530077
H 4.8856680014 0.2233419412 -2.7621848222
H 2.8611409585 0.7726138285 -4.4199603019

