# b3lyp 6-31G(2df,p) opt Freq 

 titel

0 1
C 0.000836139 -0.0131002716 0.1209124145
C 1.5031250826 0.0313195512 -0.0729178156
C 2.3532979038 -1.104509482 0.4574328996
C 2.1504661346 -0.9462692521 -1.0255925761
O 3.2579038506 -0.5345087486 -1.7746070021
C 3.1756683059 0.7696970231 -2.3180823528
C 2.8953394097 1.8185272654 -1.2599903104
O 3.4927062842 1.587757926 0.0179618948
C 2.0765524698 1.4251284939 -0.1061672206
H -0.2801443593 0.3669724361 1.1102109378
H -0.5200832433 0.5920407671 -0.6305470994
H -0.3747206893 -1.0372298838 0.0407774136
H 3.3408656376 -0.8492785196 0.8224843601
H 1.8523969765 -1.9197229197 0.9685633664
H 1.5096077174 -1.6542659832 -1.550274347
H 4.1451794868 0.9505642986 -2.793229162
H 2.3989744497 0.8427910893 -3.0989862447
H 2.9048508216 2.8533674309 -1.603065056
H 1.4933672421 2.1820117489 0.4191199001

