# b3lyp 6-31G(2df,p) opt Freq 

 titel

0 1
O 1.339120705 0.1877947416 -0.3376444673
C -0.0302625884 -0.1593932672 -0.1961306519
C -0.8014606729 0.4905905923 -1.339633308
C -2.3251524526 0.2226429232 -1.2380506533
O -2.7605521508 -0.2142096223 -2.5218175295
C -1.6718128295 -0.9085121325 -3.1249730825
C -0.4274408583 -0.0814642066 -2.7302949687
C -1.5989227062 -2.3067697939 -2.6765716243
C -1.5472114557 -3.4499620455 -2.3066753645
H 1.8407421077 -0.2853935519 0.3324121567
H -0.1745720522 -1.2502673897 -0.2349495662
H -0.4319833182 0.194723206 0.7677538474
H -0.5944392907 1.5637394601 -1.3110195988
H -2.5324112872 -0.5510320597 -0.4826371693
H -2.9075643158 1.1118537812 -0.9844944456
H -1.8524225636 -0.8920252562 -4.2044354105
H 0.4904022119 -0.669919637 -2.7026940827
H -0.2945518002 0.7231147728 -3.4570188567
H -1.5082267222 -4.4631637248 -1.9905739943

