# b3lyp 6-31G(2df,p) opt Freq 

 titel

0 1
O 0.5509707036 0.0595554272 0.7502143874
C -0.8469373831 -0.0515263166 0.922947388
C -1.5927860497 0.5663048676 -0.2755355391
C -2.8571710191 1.0898085565 0.3607722116
C -2.768871229 1.13118366 1.6915045196
C -1.4292331418 0.6688546178 2.1778012212
C -0.4580197863 1.6819820224 2.8426108193
O -0.07595705 0.6997650961 3.833456573
C -1.2297626126 -0.1033691147 3.5005195044
H 0.976250522 -0.2581130829 1.555536656
H -1.1373099095 -1.1122510348 1.0030099484
H -0.9928955638 1.3773818986 -0.7095533623
H -1.7725412598 -0.1578947999 -1.0765860056
H -3.7145990763 1.4146687867 -0.2182608179
H -3.5377410532 1.4976178894 2.3637141954
H 0.389621806 2.0191678051 2.2407685306
H -0.9659254295 2.5422723482 3.2992565869
H -0.9877386667 -1.1713337823 3.426821357
H -2.0428524012 0.0303510455 4.2289085562

