# b3lyp 6-31G(2df,p) opt Freq 

 titel

0 1
O 4.3627939163 -1.4386889468 -0.6818003672
C 2.9748605597 -1.3966765646 -0.364174884
C 2.597273754 0.0268010453 0.1143038536
C 1.1643459414 0.2331065023 0.2730619587
C -0.0223130413 0.3856716821 0.3885381996
C 2.5781915907 -2.4682831478 0.625579213
C 2.6211619455 -3.9333733189 0.2101971491
C 1.3053422008 -3.2615457609 0.4686981665
O 0.4895496393 -3.5899833311 1.5522777753
H 4.8528248134 -1.5120519085 0.1442228453
H 2.4659707862 -1.5822915719 -1.3171348236
H 3.1107687103 0.2250070723 1.0657442665
H 3.0055151903 0.7391025931 -0.6114161483
H -1.0695897061 0.5195109545 0.5003421213
H 2.869010723 -2.2615379667 1.6558383204
H 2.9055656356 -4.1674640046 -0.8104339631
H 2.9788570102 -4.650593506 0.9434454648
H 0.6833547863 -3.021815619 -0.3869858592
H 1.0377524344 -3.9541860228 2.2541819514

