# b3lyp 6-31G(2df,p) opt Freq 

 titel

0 1
C 2.771024455 -1.5688115583 -1.3601243451
O 1.6279866713 -1.7800991929 -2.1913533324
C 1.6981968536 -0.5688966358 -1.4337450745
C 0.683476767 -0.3943256527 -0.3396945786
C 0.905604957 0.8684507285 0.5606189443
C -0.4958045119 1.3826216649 0.1727579673
O -1.5357057681 0.8889706741 1.0427220701
C -1.8661391537 -0.1789491616 0.1218409467
C -0.6926793287 0.1836498031 -0.7986130126
H 2.8392294875 -2.2164531838 -0.4867020828
H 3.7093957315 -1.4005572814 -1.8868654352
H 1.8804156776 0.3193344732 -2.0441927078
H 0.5899324257 -1.3364068153 0.2086571294
H 1.0475303587 0.6923309295 1.628565119
H 1.7142300514 1.5095328208 0.1937489774
H -0.626523037 2.4405874409 -0.070719959
H -1.8363545347 -1.1677586165 0.5970079867
H -2.8581560544 -0.0258936793 -0.3225303592
H -0.8743497276 0.2610671526 -1.8699123437

