# b3lyp 6-31G(2df,p) opt Freq 

 titel

0 1
C 2.7862694643 -2.8156978692 0.1637502128
C 2.0510638029 -1.9039025241 1.1454854261
C 1.1088323755 -0.9695947753 0.3845343241
O 0.093996543 -1.6872521377 -0.3127584962
C 2.9672593851 -1.3405375685 2.30707059
O 2.9486627417 -2.683483452 2.89043793
C 1.5531009073 -2.6613808751 2.4505876642
C 0.9897792387 -1.5233863568 3.314765617
C 1.9617265503 -0.6125359606 3.2145166622
H 3.396194953 -3.5532667561 0.6850933349
H 2.0618635635 -3.3252329589 -0.4774359713
H 3.4385159455 -2.2234435014 -0.4891000358
H 0.6716742458 -0.214970617 1.0465983643
H 1.6779892533 -0.4412337049 -0.3890192556
H -0.5215681959 -2.0306856606 0.3425480391
H 3.9628194296 -0.9294346145 2.1408038466
H 1.0690321758 -3.6379848597 2.4327241988
H 0.0449413048 -1.498045878 3.8375572198
H 2.0503701858 0.3804196305 3.629674959

