# b3lyp 6-31G(2df,p) opt Freq 

 titel

0 1
C 1.1625198464 0.3068511533 0.3696151917
C -0.241708637 0.0695827928 0.0819873782
C -1.4043706537 -0.129005612 -0.1701525436
C -2.7751843033 -0.3378719473 -0.595592355
O -3.105021222 -0.2741417646 -1.751942053
O -3.6895267001 -0.6187075046 0.3540431698
C -3.3521407315 -0.6595070732 1.7626136539
C -4.2587353545 -1.7153982806 2.3812394206
C -3.5432191678 0.7280451015 2.3667817863
H 1.3195784644 0.5641276961 1.4221655235
H 1.7561473468 -0.5869908664 0.1490917437
H 1.5534278967 1.1250417475 -0.244345958
H -2.3056542424 -0.9655593355 1.8599215497
H -4.0464360296 -1.8154317265 3.4498166439
H -5.3100000022 -1.4370275965 2.2612480469
H -4.103412357 -2.6859302628 1.9031860323
H -3.3276374109 0.707138644 3.4396777389
H -2.8727972386 1.4527756982 1.8971791856
H -4.5745451138 1.0657246866 2.2266043546

