# b3lyp 6-31G(2df,p) opt Freq 

 titel

0 1
C -0.0417695996 -0.4473948909 -0.2042779641
C 1.3356823038 0.1040530516 0.0863342643
O 1.7878849577 -0.1817764996 1.3895672672
C 1.8442125577 1.4449779935 -0.3372342685
C 1.3302856823 1.8551844987 -1.724181296
C 1.977289069 0.5705224788 -2.2836361364
C 2.5996642083 0.364193882 -3.5896275318
O 1.3778853183 -0.3003779589 -3.2361231988
C 2.4689727682 0.150195108 -0.9237094141
H -0.7709659261 -0.0342902257 0.5001472161
H -0.3702998524 -0.2357089485 -1.2230442172
H -0.0403144075 -1.5382855546 -0.0884724774
H 1.8540482437 -1.1397589459 1.471063692
H 2.2838769778 2.1111051794 0.3932252594
H 0.2474053301 1.9487639711 -1.845057644
H 1.8089060321 2.7611819674 -2.1043571905
H 2.5114807712 1.1319051681 -4.3582179117
H 3.4718591487 -0.2829919583 -3.6801937781
H 3.4227771767 -0.3115070164 -0.6971971504

