# b3lyp 6-31G(2df,p) opt Freq 

 titel

0 1
C 1.3614271363 0.6898545183 -0.4397100597
C 0.029180497 0.0515344654 -0.1786772845
C -0.1071544933 -1.2771559286 -0.0122692061
C -1.3849967051 -1.916476719 0.3185376421
O -1.4811594529 -3.1065332528 0.5653102923
C -2.6186526091 -1.0092930604 0.4560310855
O -2.7394653949 -0.6485124641 1.8329850618
C -2.4874809964 0.2722806535 -0.352933547
C -1.1561478775 0.9784490766 -0.0714646547
H 1.5798117773 1.4489258839 0.3221590212
H 2.1733491632 -0.0407341491 -0.4441022815
H 1.356487428 1.2142038025 -1.403723282
H 0.7490883619 -1.9434642815 -0.0714448223
H -3.4931634934 -1.589646529 0.1305590052
H -2.7462409711 -1.4694104556 2.3389302341
H -2.5480640312 0.015318173 -1.4170477118
H -3.3302023698 0.9327348773 -0.1258871139
H -1.0225507269 1.8295998368 -0.7490992979
H -1.1716380619 1.3987103028 0.9435100692

