# b3lyp 6-31G(2df,p) opt Freq 

 titel

0 1
C 1.4351492628 -0.3826716891 -0.0362512152
O 0.1036391554 0.0753799004 0.0127875877
C -0.1846424117 0.8472009481 1.1439764573
C 0.2560784129 2.3377994333 1.1313743049
C -0.2020899866 2.7712876831 2.5481059879
C -1.6198501433 2.5664173174 1.9829835509
C -1.1199860481 2.9373657701 0.5692369584
O -1.8724783268 1.8999534262 -0.061055431
C -1.684998681 1.1945780241 1.1969203743
H 1.691276104 -0.9901544527 0.8466208064
H 1.5286736149 -1.0038467754 -0.9301512219
H 2.159022024 0.4430270836 -0.1045451516
H 0.1655229106 0.3398736502 2.0564393533
H 1.2325123681 2.5922721397 0.7250567526
H 0.137010191 2.1713356522 3.3977955614
H -0.0189611821 3.8297054787 2.7527999944
H -2.5373746434 2.9477271894 2.4275152514
H -1.1493026558 3.9123173352 0.0855087492
H -2.4156145248 0.4080147354 1.3771723796

