# b3lyp 6-31G(2df,p) opt Freq 

 titel

0 1
C 1.3638691249 -0.1371906522 0.0206541621
C -0.0908122027 -0.1130850707 0.072226446
C -1.2961540444 -0.0627645094 0.0857240599
C -2.7494993597 -0.0487530647 0.1584546446
O -3.3948414111 -0.8191826238 -0.8820840682
C -3.8672930354 -1.8275225381 0.0544723631
C -3.2327346688 -3.185395569 -0.1716031968
C -3.3496098771 -0.9882642027 1.2576217953
O -2.4836114373 -1.5669444756 2.1841503509
H 1.7971554908 0.1011909264 0.9979769171
H 1.7356893054 -1.1230063526 -0.278202799
H 1.7431290385 0.5957674683 -0.6994182385
H -3.1228727325 0.9821526552 0.1741562092
H -4.9609030798 -1.9025823405 0.0039855915
H -3.581698413 -3.8976661349 0.5827922792
H -3.5053844698 -3.5643668927 -1.1610727514
H -2.1422977507 -3.1298321309 -0.1158687485
H -4.1563683616 -0.5125843682 1.8198438861
H -1.6015776857 -1.5899252938 1.7887396474

