# b3lyp 6-31G(2df,p) opt Freq 

 titel

0 1
C -2.8573195769 -2.4785805664 0.3617902436
C -3.3890649182 -1.1062182543 0.098213123
O -4.6874579715 -0.9609832752 -0.5978402463
C -4.230488685 0.4094177582 -0.3488691352
C -3.7760206646 0.0420979679 1.0896335594
C -2.5410956397 0.8580152084 1.4471970744
C -1.7788564551 0.8146270696 0.0822727607
O -0.5697142705 0.0653516783 0.1266071138
C -2.7793101811 0.0470790746 -0.7640358763
H -3.5209749186 -3.0329458737 1.0325598427
H -2.7661033465 -3.0362388795 -0.5753507919
H -1.8652589124 -2.4047511431 0.8155553319
H -4.8655044752 1.2275871143 -0.6904909513
H -4.5435661996 -0.1633453216 1.8354618567
H -2.7910849978 1.8776962054 1.7589792119
H -1.9386726055 0.399229179 2.2377877251
H -1.5873915739 1.8227899571 -0.3120656599
H 0.0615929115 0.5475185219 0.6698966989
H -2.5600716294 -0.1441503109 -1.8133862013

