# b3lyp 6-31G(2df,p) opt Freq 

 titel

0 1
C 3.6907794855 0.2893227189 0.6708691828
C 2.2915600397 0.0240452939 0.0992752296
C 2.2970082367 -0.6617371014 -1.2467333329
C 2.9332869929 -0.0099293197 -2.468994958
O 2.6941695191 -0.9942469409 -3.4988761689
C 2.0077927976 -2.0009391634 -2.80670096
C 1.0153304422 -1.4048853628 -1.7697227944
O 1.2464732493 -2.5325412173 -0.8629208082
C 2.5799541276 -2.2038828519 -1.3743996339
H 3.623366909 0.7414309139 1.6646867538
H 4.2613387383 -0.640438842 0.7674785498
H 4.2686474641 0.9704261766 0.0375942469
H 1.7230954975 -0.6116713818 0.7869770247
H 1.7422877754 0.9713758847 0.0178516208
H 2.4569115882 0.9394547946 -2.7446125078
H 4.0115769554 0.157370109 -2.3658831384
H 1.7392520114 -2.8416331819 -3.4419828842
H -0.0040630128 -1.0348936971 -1.8837853181
H 3.4267855828 -2.7921430713 -1.0202490537

