# b3lyp 6-31G(2df,p) opt Freq 

 titel

0 1
C -4.8211961892 0.5566947524 -0.0451574178
C -3.6754264844 1.0138661616 -0.9535725417
C -4.0665789497 0.9350196773 -2.4440775121
C -2.4024795918 0.2571052928 -0.7056679553
C -2.1492767051 -0.8545035792 -0.0108413073
C -0.6885972497 -1.1796818594 -0.0958606091
O -0.1232769335 -0.1480519026 -0.9011434285
C -1.1078519091 0.7276774726 -1.2796905844
O -0.8862955879 1.6936864821 -1.956960366
H -5.0976240468 -0.4842918868 -0.2490696621
H -4.5533746024 0.6350630294 1.0132869277
H -5.7104851214 1.1708528066 -0.2148946045
H -3.4542671337 2.0684117598 -0.7391914157
H -4.3006483935 -0.0964984686 -2.7295698081
H -4.9519009295 1.54922689 -2.6353208219
H -3.2528148807 1.2961188839 -3.0763480047
H -2.8500269275 -1.4604391366 0.5483074467
H -0.1940945645 -1.1795757381 0.884084246
H -0.4940383592 -2.1507874971 -0.5691941711

