# b3lyp 6-31G(2df,p) opt Freq 

 titel

0 1
C 1.4439766334 -0.2847407341 0.0452947297
O 0.0448062839 -0.0446538522 0.122893913
C -0.3427582825 0.6346070268 1.2359688113
C -0.3351477054 0.3243371505 2.7261065502
C 0.2837097594 1.6746972343 3.0695244217
C -0.2652299371 2.1671804357 1.7013020146
C -1.8149131286 2.1330419117 1.8847926434
C -1.6564528838 0.6184634697 1.9596953052
O -2.6321071961 -0.3553204179 1.9656795306
H 1.7943051624 -0.8570669166 0.9138381191
H 1.617324406 -0.8612053213 -0.8658339178
H 2.0085199128 0.6557897188 -0.0115620898
H -0.2298478525 -0.6359491177 3.2143901213
H -0.0770447329 2.202618971 3.9595652908
H 1.3765730589 1.6299904762 3.0882566666
H 0.203414268 2.9852194699 1.1591206808
H -2.2279850026 2.6689403601 2.7468277299
H -2.3373364556 2.4368713111 0.9718307305
H -3.0059030477 -0.4114008659 1.0791337489

