# b3lyp 6-31G(2df,p) opt Freq 

 titel

0 1
O -0.0715846082 2.2115429528 -2.4685978603
C -0.575838216 1.318703677 -1.8177462999
C -1.6780950856 0.4740722446 -2.3602260783
C -2.6757938951 1.1471728242 -3.2956414273
C -1.6773331001 0.1983146615 -3.8582501694
C -0.112397263 0.9811327513 -0.4132734266
C 1.1322406469 1.7188615058 0.1059493101
O 1.8928886644 0.4895833292 0.1696883184
C 0.7794398784 -0.2895659201 -0.2911789996
H -2.0559019287 -0.305557533 -1.7077983288
H -3.7111475062 0.8370555084 -3.2154442357
H -2.5122894364 2.2048672454 -3.4666899537
H -2.0055616271 -0.7838052104 -4.178199021
H -0.8429904951 0.6190056055 -4.4073913041
H -0.9736958604 0.9729071774 0.2603289148
H 1.5548572016 2.4337552348 -0.6063706577
H 1.0308478608 2.1868325808 1.0918160016
H 0.9952476027 -0.8085912866 -1.2338991465
H 0.4472823272 -1.0243710485 0.452717664

