# b3lyp 6-31G(2df,p) opt Freq 

 titel

0 1
C 0.6095052912 1.3468239467 1.3372739438
C -0.6488338767 1.292852729 0.376283199
C 0.2915478793 0.5643363445 -0.6072167765
C 0.5258907573 -0.9263777594 -0.2619455475
O 1.9647299382 -1.0452754114 -0.2285653131
C 2.4384064158 0.2421204139 -0.6136390469
C 1.9601295459 0.4848055611 -2.0948794398
O 0.5100862057 0.6957679394 -2.0080521572
C 1.4840328391 1.2366700324 0.0448321316
H 0.7378309655 2.2608215606 1.9175823457
H 0.6728574548 0.4878259733 2.0056569033
H -1.5469118831 0.7712673547 0.7146334875
H -0.9151554505 2.2937840915 0.0296536132
H 0.1160322782 -1.2476551312 0.7012655149
H 0.1075048652 -1.5548832107 -1.0555517089
H 3.5187551706 0.2840313376 -0.4735057444
H 2.4237652851 1.3613744105 -2.5624219817
H 2.1639858022 -0.4032324689 -2.7003046892
H 1.6117954262 2.2392221964 -0.3713526139

