# b3lyp 6-31G(2df,p) opt Freq 

 titel

0 1
O -0.5097267361 -3.0658978206 -1.6341867878
C -0.8823482538 -1.7348081401 -1.4065649079
C -2.3934391725 -1.3730963735 -1.4578342776
C -2.3055518717 -0.7427102428 -0.0379274976
C -2.291167482 0.8037218493 0.0482981444
C -0.8441305412 1.2366474239 -0.2461774764
C 0.0200126453 0.0564507696 0.2188636638
O 1.1564805674 0.1201065303 0.6124065722
C -0.8200428858 -1.2027772272 0.0804234596
H -1.033176604 -3.6324965757 -1.0569302481
H -0.2652344541 -1.1465559609 -2.0919115732
H -2.7049206548 -0.7100547431 -2.2707004668
H -3.0209771355 -2.2690289153 -1.4949500869
H -3.0073815566 -1.1703599448 0.6798433222
H -3.0216973914 1.2595130057 -0.6266809401
H -2.5596463264 1.1094442584 1.0652532147
H -0.675167449 1.3607661952 -1.3249942624
H -0.5341654356 2.16572724 0.2351581936
H -0.5441842021 -1.9690977984 0.8058326244

