# b3lyp 6-31G(2df,p) opt Freq 

 titel

0 1
C 1.4014090764 3.4829004542 1.5781747453
C 0.8812556957 2.0908524709 1.2338513274
O 0.2802133385 2.1883961873 -0.0582847918
C -0.0861785164 1.5682202775 2.2470536733
C -0.7621503519 0.2013602698 2.4344719512
C -2.1486299655 0.8418753682 2.5011785008
C -1.3943615677 2.1179482184 2.9517637444
O -0.863588602 1.7583404205 4.2606007682
C 0.0254110235 0.8865768694 3.5676096496
H 1.9113547795 3.4747093375 2.5450384916
H 2.1010205143 3.8214456859 0.8096590454
H 0.5723975196 4.1950779134 1.6243442647
H 1.7347316809 1.3908566505 1.200203953
H -0.1057024566 1.329683211 -0.2608928295
H -0.4670667515 -0.7559803622 2.0218754757
H -2.5847644782 0.9619746317 1.5063491778
H -2.8871204594 0.4442635851 3.2041023396
H -1.8247266368 3.1160226663 2.9149211705
H 0.8623878974 0.4501765446 4.0971991327

