# b3lyp 6-31G(2df,p) opt Freq 

 titel

0 1
C -0.9126967718 -2.959786609 2.472018668
C -0.7512584128 -1.4781012253 2.2537892469
O -1.8528635802 -0.7897841043 1.6444299671
C -0.6269503097 -0.8795995089 0.9189022922
C 0.1201033965 0.4227818055 0.6839526891
C -0.4253411514 1.1971534493 -0.4263297429
C -0.8797358469 1.8175242551 -1.3535416384
C -1.4959976699 2.5744203961 -2.4423639336
O -2.477937099 3.5022463327 -2.001567478
H -1.5742015574 -3.1534909077 3.3227223248
H -1.3439075425 -3.4372204535 1.5881171168
H 0.0554240582 -3.4253607575 2.6860576407
H -0.3058650743 -0.929576405 3.0867486401
H -0.6689560611 -1.5427743479 0.0534397676
H 0.0904962677 1.0166276956 1.6053407053
H 1.1770997507 0.1944592943 0.4892550063
H -0.7394695248 3.1687735269 -2.9671321097
H -1.9133015507 1.8712352946 -3.1814092911
H -3.0762258306 3.0278917489 -1.4146367015

