# b3lyp 6-31G(2df,p) opt Freq 

 titel

0 1
C 0.0737605064 -0.0741380937 0.1870505435
C 1.5748973351 0.032837792 0.1279414096
O 2.0521204888 0.8306451961 -0.9958551008
C 2.8215460023 1.6884682956 -0.1141913016
C 2.4598047392 0.8280261907 1.1144357307
C 3.2802800993 -0.4438631136 1.406696887
C 3.8301400457 -1.0674421786 0.1358728599
C 2.3899998273 -1.2568879311 0.4361464887
O 1.8674860463 -2.5343070117 0.4979289098
H -0.2513138779 -0.5658291728 1.1114495907
H -0.3851701774 0.9172636083 0.1483161652
H -0.2990008698 -0.6614246577 -0.6588393074
H 3.8785645845 1.7403737291 -0.3987620445
H 2.4052722089 2.7028356301 -0.0906256023
H 2.0365900298 1.3267795046 1.9860420756
H 3.6896649256 -0.7066858893 2.3744846068
H 4.1516642166 -0.4718566641 -0.7117409344
H 4.4230639723 -1.9583863964 0.3166639715
H 1.1395790069 -2.5395939573 1.1291114521

