# b3lyp 6-31G(2df,p) opt Freq 

 titel

0 1
C 1.2858489847 1.0268423555 0.322125306
C 0.9347534496 -0.443937961 0.0805281987
C 1.690223649 -1.0208233016 -1.1053022539
O 1.3668549341 -0.3506559136 -2.3547028685
C 0.7231233265 -1.5289914612 -2.9006543612
C -0.7079444673 -1.3754300132 -3.1000913487
C -1.8861478436 -1.2396038287 -3.2934015675
C 1.1822625759 -2.373339119 -1.6776433029
O 0.1433533921 -3.0414638869 -1.0175929001
H 0.7056855785 1.4388753491 1.1529513449
H 2.3482876298 1.1504997114 0.5609484607
H 1.0717305004 1.6188865741 -0.5719065286
H 1.1741155058 -1.045238082 0.9681784348
H -0.1393029267 -0.5580362095 -0.0952512092
H 2.7740865389 -0.9796283763 -0.9291428784
H 1.1964405099 -1.8231514807 -3.8456971131
H -2.9292974979 -1.1217839261 -3.4539846168
H 1.9975187645 -3.0569253529 -1.9424034274
H 0.5259199458 -3.6317673774 -0.3615877789

