# b3lyp 6-31G(2df,p) opt Freq 

 titel

0 1
O 1.2752794224 0.5935182846 -0.7478775202
C 0.1088652044 0.1255896088 -0.0875673286
C -0.7912429275 -0.6220141611 -1.0188083855
O -1.4949839948 0.180629098 -1.9904974633
C -2.2609182896 -0.6976948731 -1.1544875417
C -2.1806551169 -2.1224406832 -1.7536022213
C -2.0468807243 -2.2267350192 -3.3017779826
C -0.4919314861 -2.1437946215 -3.1731025389
C -0.6229611382 -2.0400347442 -1.6260445073
H 0.9776050499 1.1532259091 -1.4738627118
H 0.4573947323 -0.5353588056 0.7128324616
H -0.4579168396 0.9489578139 0.3733907032
H -3.0592631601 -0.2398344309 -0.5788468533
H -2.7584410293 -2.8777250579 -1.2207880301
H -2.4030001776 -3.1807229414 -3.697323512
H -2.5139072621 -1.4144667648 -3.8610696878
H 0.0229158897 -3.0510598392 -3.497127389
H -0.0272307485 -1.2822304538 -3.654971711
H -0.0643708841 -2.7380268382 -1.0022180305

