# b3lyp 6-31G(2df,p) opt Freq 

 titel

0 1
O -2.1808662174 2.2081737138 -1.5633307121
C -2.4694761454 2.7181339568 -0.2676539467
C -2.7575704979 1.5967212184 0.744837035
C -1.3506534974 1.0831895485 1.22162549
C -0.3244224178 2.0983937086 0.6157178585
C -1.1562886749 3.3345335833 0.2461666627
O -1.3798957902 4.2188475971 1.3361562294
C -1.0775919787 -0.2957953421 0.8450288447
C -0.8551202266 -1.4346191005 0.5293946594
H -2.9061730601 1.636940527 -1.8336097852
H -3.2713986981 3.4676948296 -0.3023735022
H -3.3236450473 1.9934686794 1.5944143857
H -3.360586309 0.7955435373 0.3104875401
H -1.3117891629 1.1378917525 2.3160455009
H 0.4844852457 2.3410398741 1.3084007709
H 0.1115601811 1.6749837973 -0.2904483681
H -0.682984363 3.9380982315 -0.5313980535
H -1.6719383418 3.7074192431 2.0973622355
H -0.6544177784 -2.4394904658 0.2518392951

