# b3lyp 6-31G(2df,p) opt Freq 

 titel

0 1
C 1.4601920361 -0.1057883422 -0.0459881593
O 0.0567840324 0.0738576929 0.0204789079
C -0.3478590036 0.7779431995 1.1447160077
C -0.37539327 2.2746944317 1.1123142339
C -1.6708732822 1.4915051818 1.0134074477
C -2.6818322106 1.3554528326 -0.1357011881
C -3.8283724513 1.2044439713 0.9193901092
C -2.7756287081 1.4134368798 2.0284737704
O -2.8123270637 1.4935387521 3.2248274954
H 1.8346621454 -0.6749099578 0.8174521035
H 1.667029071 -0.6682114201 -0.9589735043
H 1.9894498832 0.856572634 -0.0846401107
H -0.1438384272 0.2873766658 2.0983044203
H -0.2007994347 2.8229058649 2.032592568
H -0.0393579043 2.7569819339 0.2001594252
H -2.7733206668 2.2441946844 -0.7636995028
H -2.5185621194 0.4845864588 -0.7719880278
H -4.6100516606 1.9686274193 0.8965880188
H -4.3062566858 0.221349857 0.9543058952

