# b3lyp 6-31G(2df,p) opt Freq 

 titel

0 1
O 0.1078813989 0.0308576 0.0145571768
C -0.9671025361 -0.1320153089 0.895506266
C -1.1057441723 0.8807287796 2.0870551497
C -1.6950885368 0.2666847962 3.3779513187
C -3.1364018746 0.4689040059 2.8168667326
C -2.5611655346 1.2404447941 1.5898917063
C -2.3115506971 0.3973459625 0.3503105039
C -3.1562487775 -0.0925078499 -0.7366428944
O -2.2604260561 1.0191538057 -0.9363708005
H -0.2243686657 0.5701928695 -0.7175083958
H -0.9877880881 -1.1765855985 1.2327335446
H -0.2932705056 1.6036350408 2.1546181807
H -1.391669835 -0.760859258 3.6018392564
H -1.5046857724 0.878153692 4.2632737648
H -3.6716401612 -0.4501303764 2.5604928264
H -3.7879801925 1.071482386 3.4527333827
H -2.9219100752 2.254454948 1.4156250867
H -2.8822149777 -1.0062641201 -1.2619783726
H -4.2138870605 0.1648364714 -0.7665512632

