# b3lyp 6-31G(2df,p) opt Freq 

 titel

0 1
O 0.3072495728 0.3291673411 0.1888850726
C -0.6529694289 1.211416976 0.6529191861
C -2.1246984973 0.9173193356 0.5886634097
C -1.5668000347 2.1004528771 -0.1734460143
C -1.3353569868 3.2685181729 0.7890612719
C -0.412428561 4.36908191 0.2610606806
O 0.8946237168 3.8165735163 0.2447461317
C 1.0094602461 3.017879222 1.4144630685
C -0.3566470379 2.3552279276 1.6300789824
H 0.2969003367 -0.4538690751 0.7503628998
H -2.3753645721 0.0634802045 -0.033441355
H -2.7778632784 1.0642699526 1.4471157999
H -1.6556977587 2.1808027745 -1.2503104886
H -2.2255543717 3.6619588645 1.2878519684
H -0.6500261145 4.6937284538 -0.7566027858
H -0.4595395909 5.2481562801 0.9261641258
H 1.8110194542 2.2942627339 1.244769434
H 1.2674721431 3.6388607947 2.2879252163
H -0.5755717867 2.1717517079 2.6864660257

