# b3lyp 6-31G(2df,p) opt Freq 

 titel

0 1
C -2.2849843026 -1.1829679028 -0.7131986303
C -2.1283314714 -0.3013624569 0.4914593173
C -0.8510905181 0.4300970066 0.7988147327
O 0.2503018901 0.0001912999 0.0514144461
C -1.3862257426 -0.529059497 1.8359521519
C -2.509365731 0.1503082637 2.5909238117
O -3.5398374457 -0.7547702959 3.0300578417
C -4.3190910977 -0.5296025679 1.8351055004
C -3.2578224929 0.4112407537 1.2354275502
H -2.9818281793 -2.0064923079 -0.5248767494
H -2.6693510921 -0.6096672688 -1.565805408
H -1.321009217 -1.6058320796 -1.0031956335
H -0.8713731581 1.5075873287 0.9876019233
H 1.0210041941 0.0022999925 0.628091313
H -0.8076191395 -1.3843163872 2.1666816797
H -2.2717697896 0.9009248034 3.3511749273
H -4.5236494666 -1.4568618033 1.286361901
H -5.2723475134 -0.0399134113 2.0714335479
H -3.5901397367 1.3865773902 0.8742463171

