# b3lyp 6-31G(2df,p) opt Freq 

 titel

0 1
C -1.1154803258 -3.3195454949 -0.7196567944
O -2.1235673685 -3.5885361393 0.2747357383
C -1.5805520746 -2.5964891987 1.1675469218
C -0.4484057841 -2.2441943282 0.1718218667
C -0.4140529861 -0.8270679953 -0.3651309056
C 0.7349539983 -0.5504770262 -1.4088083921
C 1.3356390649 0.4516035454 -0.4143638382
O 0.333269631 1.4401011303 -0.1521898621
C 0.2628284332 0.204039943 0.5625238184
H -0.5099768455 -4.2070731971 -0.9408144339
H -1.5500656847 -2.9444570258 -1.6558771046
H -2.2961113102 -1.7871909497 1.3675987825
H -1.2644081204 -3.0333352361 2.1229380479
H 0.5432746905 -2.5372290757 0.5303110949
H -1.4125977032 -0.5174085513 -0.691208128
H 1.3648842431 -1.4296681698 -1.5706323637
H 0.4414971079 -0.1281558168 -2.3724181605
H 2.3689124426 0.7483935773 -0.2768396314
H 0.2568375415 0.2553251592 1.646052934

