# b3lyp 6-31G(2df,p) opt Freq 

 titel

0 1
O 0.2336741427 -1.1306081228 0.1568029693
C 0.4070075818 0.0389454297 -0.0754431608
C -0.2820264002 0.8014133167 -1.1888450531
C -1.0255909262 2.0276080238 -0.6585883561
O -0.1285399486 2.9783926634 -0.0319306947
C -0.5338117819 4.0422828989 -0.9239484425
C -1.4748117403 3.094536862 -1.6597601649
C -2.8424960048 3.3604838884 -2.2021337577
C -1.7151116199 2.970000258 -3.1326681459
H 1.1043291729 0.6523947809 0.5341836364
H 0.4837631162 1.1423088188 -1.8980056836
H -0.9679217713 0.1223243856 -1.7051493815
H -1.8115000012 1.7160300948 0.0443159005
H -1.015092556 4.8668101373 -0.3822008868
H 0.311919321 4.4364543454 -1.5018209572
H -3.6198105332 2.627907244 -2.0078445063
H -3.1932747055 4.3875634368 -2.2202741191
H -1.7354136298 1.9773238648 -3.5708836259
H -1.2960005256 3.7333212635 -3.7808160802

