# b3lyp 6-31G(2df,p) opt Freq 

 titel

0 1
C 2.9995479763 -0.4129492188 0.7280903645
C 3.1924972408 -0.9139624939 -0.6969308383
C 1.967895136 -1.638395903 -1.2041741402
C 1.9697243932 -3.0139307175 -1.7300008405
O 1.7831031881 -1.8899212977 -2.5953920945
C 4.0755392837 0.0096669479 -1.5321654728
C 4.3871191912 -0.5916242954 -2.9024168247
O 4.7817818163 -1.8593799377 -2.2989591578
C 4.6122553569 -1.3030837474 -0.9966821624
H 2.7287513196 -1.2348398258 1.4000238533
H 3.9145988864 0.0462553529 1.1140882964
H 2.2035545579 0.3385117617 0.7776272627
H 1.0513557567 -1.3011442477 -0.7138556586
H 2.9193165333 -3.5263395369 -1.8561802725
H 1.0927264292 -3.6452375961 -1.5932262929
H 4.2806801851 1.0296484851 -1.2325977863
H 3.5733675551 -0.7101795677 -3.6171154696
H 5.2576718787 -0.1197460439 -3.3721616123
H 5.3529476055 -1.5504124879 -0.2421418435

