# b3lyp 6-31G(2df,p) opt Freq 

 titel

0 1
C 1.2721849201 -0.3956327844 -1.3369657958
C 1.0386653603 0.0981073794 0.0748549829
O 2.0338179783 -0.4459797923 1.002467329
C 2.5528326891 0.8631374882 1.2434411846
C 1.5093355149 1.763129884 1.8514846605
C 1.4898934084 1.5298909161 0.3706033984
C 4.0143440842 1.1123563592 1.3172557638
C 4.905739446 -0.1032757967 1.1893200351
O 4.4385516062 2.239563493 1.4675881617
H 1.1691674895 -1.4837832159 -1.3789886069
H 0.5380380178 0.0465005512 -2.0195434732
H 2.2746829942 -0.1271967951 -1.6836098349
H 0.025997764 -0.1509872021 0.4162788778
H 0.7577749448 1.3084361958 2.4906412415
H 1.8864342861 2.7314697431 2.1605674283
H 1.6243824314 2.3163045181 -0.3602259962
H 5.9502594678 0.2003221919 1.262553706
H 4.6649864002 -0.8297062628 1.9735005553
H 4.7199630266 -0.6110799406 0.2374925219

