# b3lyp 6-31G(2df,p) opt Freq 

 titel

0 1
C 0.7578787761 1.0897200093 0.0057399503
C 0.9232367578 -0.4112858181 0.0859201284
C 1.9772791633 -1.0450608578 0.9751631516
O 1.7186403319 -2.2334066055 1.6506636438
C 2.1124190277 -1.1195161949 -0.5338156737
O 1.8638008809 -2.4189211284 -1.0590952279
C 2.7923750575 -2.6879755452 -2.1176863698
C 3.5954779964 -1.4241581573 -2.2579591142
C 3.1938244022 -0.5373899826 -1.35032711
H 0.0722029609 1.445934457 0.7820470508
H 1.7114429552 1.6080183139 0.1528692505
H 0.3597964179 1.4012612665 -0.9661270187
H 0.0087896017 -0.9956584849 0.0142269439
H 2.6405611739 -0.3817364645 1.5268200022
H 1.7320829047 -2.9285827274 0.9770470243
H 3.4144979512 -3.5579007153 -1.8566813681
H 2.2337814717 -2.9465554044 -3.0294265115
H 4.380841066 -1.2991275008 -2.9914900561
H 3.5839277829 0.4592165606 -1.1962140457

