# b3lyp 6-31G(2df,p) opt Freq 

 titel

0 1
C 3.4198917368 2.2239753107 -0.6632967704
C 2.4920555946 2.1450939085 0.5628109394
C 1.9634941256 0.8045443154 0.7989922228
C 1.5086978783 -0.2947634454 0.9970112355
C 1.021151071 -1.6551010822 1.1920031927
C 1.5899846617 -2.6012312226 0.1121773079
O 2.9998239945 -2.6310044592 0.0948426935
C 1.1231121115 -4.0334133629 0.3284473723
O 0.0126089181 -4.329214633 0.6849223243
H 4.2866936832 1.5684752412 -0.5395476752
H 2.8921994053 1.9197683331 -1.5713101722
H 3.7818420443 3.2468366665 -0.8015843687
H 3.0338206028 2.484663946 1.4547362446
H 1.6560521638 2.8442025495 0.4337146314
H 1.3223351626 -2.0276801002 2.1787940545
H -0.0720662604 -1.7040762225 1.1538273726
H 1.1875480289 -2.2834484176 -0.8669620443
H 3.3004866973 -1.7144705958 0.0659095202
H 1.9057824802 -4.7935338693 0.1157429292

