# b3lyp 6-31G(2df,p) opt Freq 

 titel

0 1
C 0.6712503072 1.3699986838 1.1136617791
C 0.0032669601 0.2056924636 0.3896761726
O 0.8289848727 0.0456072492 -0.7532029461
C 2.1476316012 0.5012038038 -0.4264904946
C 3.1964268121 -0.6355775299 -0.3713537226
C 4.0424892514 -0.5024356316 -1.6590913211
C 3.6641611076 0.8599608559 -2.1891980343
C 2.6489561088 1.4055058841 -1.5260808268
O 2.044578623 1.1391237135 0.8446348893
H 0.3387189188 2.3363429921 0.7057063544
H 0.5237621756 1.3698085039 2.1966818271
H 0.0038122712 -0.7010583544 1.013023852
H -1.0183641003 0.4114068214 0.0589710341
H 3.8138146631 -0.4783788783 0.5159742008
H 2.7010630953 -1.603755797 -0.2759492335
H 5.1177997346 -0.5861121666 -1.4642145652
H 3.8030142243 -1.2827206211 -2.3927478789
H 4.1716199696 1.3115148456 -3.0352420243
H 2.1778817738 2.3596128622 -1.729162382

