# b3lyp 6-31G(2df,p) opt Freq 

 titel

0 1
C -4.4142189602 -0.0001496006 -0.8666762946
C -2.8981883217 -0.0001589276 -0.7331570046
C -2.3394581524 -1.0108822913 0.2980392612
C -0.857455756 -1.30114548 0.0708250095
C -0.1017563543 -0.0001660586 -0.2398848478
O 1.0106972023 -0.0001966439 -0.7060148727
C -0.8574300646 1.3008545406 0.0707153873
C -2.3394381193 1.0106398367 0.2979544644
O -2.4358381211 -0.0000764677 1.3420721396
H -4.8877939388 -0.0001031169 0.1198581737
H -4.7611745754 0.8842749859 -1.4112814422
H -4.7611919891 -0.884613555 -1.4112064106
H -2.4134940728 -0.0002049034 -1.7155374552
H -2.9297427693 -1.9025800837 0.528440665
H -0.4251101168 -1.737282031 0.979438042
H -0.6806838404 -2.0094999386 -0.7456278206
H -0.4250753035 1.737059617 0.9792911497
H -0.6806446067 2.0091363309 -0.7457975817
H -2.9297049699 1.9023686985 0.5282811377

