# b3lyp 6-31G(2df,p) opt Freq 

 titel

0 1
C -0.8668726291 -1.977609635 1.3609054681
C -0.991407584 -1.1387296776 0.0900124165
C 0.0068802321 0.0467876498 0.0572250831
O 1.2029928715 0.0334621227 0.1412287029
C -0.9690304528 1.2267114719 -0.0571991164
C -1.9289575272 0.7346216052 -1.1609725114
C -2.2698855818 -0.2654762877 -0.0244276716
C -3.6256112952 -0.8875625121 0.1479784014
O -1.9559277767 0.8131227385 0.9417826997
H -1.5226461225 -2.8530016169 1.3308990655
H 0.163154082 -2.3271915107 1.475121366
H -1.1220515697 -1.3779751605 2.2391980946
H -0.8411897031 -1.7660261278 -0.7969885162
H -0.5947149725 2.2429661455 0.0443571317
H -2.7377521574 1.4465239722 -1.3336600536
H -1.5178457531 0.3558110254 -2.1008398661
H -3.7023285537 -1.3948032213 1.1143050775
H -4.4080233894 -0.1256945438 0.0951213661
H -3.8043850075 -1.6267851178 -0.6399402177

