# b3lyp 6-31G(2df,p) opt Freq 

 titel

0 1
C 5.223856356 -0.4485436915 -0.6350282288
C 3.8058138535 -0.2123510267 -0.2100012184
O 3.6017980739 1.0373666724 0.421379424
C 2.2260194289 1.3902444239 0.2602088904
C 1.5418931491 0.087554665 -0.145383044
C 0.0924616644 0.1313675172 -0.5467896309
O 1.7938331449 -0.8463258826 0.9676118983
C 2.9205971299 -1.3567844499 0.2623138177
C 2.6081949465 -0.6227399398 -1.021130631
H 5.8974106352 -0.3609651227 0.2230690659
H 5.3379876858 -1.4509140478 -1.0584022965
H 5.5330987969 0.2827723534 -1.3885712953
H 1.841119946 1.7662082445 1.2133250073
H 2.1135092229 2.1686816201 -0.5109306609
H -0.5191556857 0.513712835 0.276823083
H -0.0491441911 0.7840709372 -1.4145074362
H -0.2634317113 -0.8703163134 -0.7997863746
H 3.2428559877 -2.3715827553 0.4714560254
H 2.5493745565 -0.906252719 -2.0642584656

