# b3lyp 6-31G(2df,p) opt Freq 

 titel

0 1
C -2.3292615832 1.3494528308 -1.7854729409
O -1.4301035613 2.4491622281 -1.9369704806
C -0.8886852728 1.1746155425 -1.5635372223
C -0.3034734262 1.0640923037 -0.1981971678
C 1.2089527198 1.2102333799 -0.0158397981
C 0.557332125 -0.1184839843 0.1416377666
C 0.4824299992 -1.0734425758 1.3276409149
C 0.6606927363 -2.1661735226 0.2506992393
O 0.7776495639 -1.1743064134 -0.797626668
H -3.0004435326 1.4096143899 -0.9287955466
H -2.7869593911 0.984108612 -2.7041510651
H -0.3122936331 0.6868401646 -2.3491860728
H -0.929154455 1.4597320804 0.5980877522
H 1.7996305478 1.3612598433 -0.9141296213
H 1.5761264962 1.7274329698 0.8646343434
H 1.3057713789 -0.9880170978 2.0395352053
H -0.4662633269 -1.0871359772 1.8672827058
H 1.565678773 -2.7777879385 0.3288971849
H -0.2053556278 -2.8192253653 0.094290251

