# b3lyp 6-31G(2df,p) opt Freq 

 titel

0 1
C 0.1445351981 -1.2010465019 -3.2055990125
C -0.1656583808 -0.5682779953 -1.8688448668
C -0.5850327826 0.9212354873 -1.8477049669
O -1.7705876536 0.6328471904 -1.0625850658
C -1.4724842794 -0.7695006912 -1.0392797527
C -0.6613477939 -1.1874244845 0.2131517097
C 0.6550674862 -1.0318158859 -0.6291434028
C 1.7511904111 -0.1712733319 -0.0672305089
O 2.277144842 0.7505893017 -0.6403931797
H 0.1952511021 -2.2931563272 -3.131192922
H -0.618234729 -0.9498470407 -3.9502273517
H 1.1113072775 -0.8486861789 -3.5836940855
H 0.0889873595 1.6258004862 -1.3551392901
H -0.8539894572 1.3116016167 -2.837578739
H -2.3211872623 -1.3922644502 -1.3367840117
H -0.7796422201 -0.4845596325 1.0411653087
H -0.8448994047 -2.2021972245 0.572489663
H 1.1029126733 -2.0192936143 -0.8044195873
H 2.0652131038 -0.4551789432 0.9651522321

