# b3lyp 6-31G(2df,p) opt Freq 

 titel

0 1
C 0.2974999023 -0.4463855923 -0.1119127997
C 1.00791463 0.8647950722 0.1564771648
O 2.4570100769 0.7037702153 0.138154039
C 2.5759651964 1.1201577732 1.507413431
C 2.840094568 2.6430473527 1.6543339855
C 1.3186313351 2.846576076 1.7700090083
C 0.5710815383 3.8540933475 2.5226459097
O 0.5826824272 3.8471202162 1.0879071006
C 1.0380610533 1.3504664861 1.6237375677
H 0.5780377813 -1.2033313769 0.6273326682
H -0.7885949579 -0.3064287008 -0.0762076652
H 0.5636504339 -0.8221009061 -1.1047763818
H 0.6893591936 1.6316628969 -0.5601471552
H 3.1648831105 0.4289785073 2.1138550928
H 3.3939239657 2.9261873947 2.5542512318
H 3.309655392 3.0923353298 0.7766983845
H -0.3816784721 3.593955079 2.983096381
H 1.1016010242 4.6837126062 2.9892689748
H 0.3699849916 0.863661503 2.3341645122

