# b3lyp 6-31G(2df,p) opt Freq 

 titel

0 1
C 1.3627375798 0.8842898974 0.0556269761
O -0.0273636752 0.9675117589 0.2659991358
C -0.5228787714 -0.0544987008 1.0992182671
C -2.0175214362 0.1120619013 1.2711947457
O -2.5338365802 -0.9163416235 2.0580959698
C -2.8588221439 0.6745972247 0.1689008595
C -2.595921011 1.515398076 1.4249040675
C -3.622431565 1.6928515544 2.4041326341
C -4.4604840314 1.7624750954 3.2675728708
H 1.6438521917 -0.0635225489 -0.4287303434
H 1.644367332 1.7135261018 -0.5974445388
H 1.9226390709 0.9669936366 1.0000255297
H -0.3234854954 -1.048738313 0.6650127991
H -0.0399731162 -0.0274192326 2.0901766396
H -3.0699242263 -0.5196536388 2.7582948382
H -2.3685544352 1.0080934091 -0.7374786683
H -3.8523939578 0.2576391415 0.0563254746
H -1.8908003027 2.3310826821 1.3074309947
H -5.2182051763 1.8691161283 4.0038112882

