# b3lyp 6-31G(2df,p) opt Freq 

 titel

0 1
C -2.4219354039 -1.6376604941 -0.7422831651
C -1.2379916221 -2.4924637351 -0.2201130826
C -0.3445894084 -1.2229531836 -0.3372594228
C -1.6497292095 -0.3692012375 -0.2851877835
C -1.9828105714 0.060815984 1.1371760882
O -3.0944782275 -0.5573657813 1.8095584442
C -1.7799223603 -0.8216279913 2.2940366368
C -1.2149537353 -2.2311368012 2.2243689437
O -1.4797449145 -3.0087188354 1.0807986697
H -2.5039084991 -1.6806081233 -1.8316738115
H -3.3894402449 -1.8299052171 -0.28012941
H -0.945494316 -3.3569472221 -0.8218020028
H 0.4230019757 -1.0412079916 0.4182777733
H 0.1239715064 -1.1899598846 -1.3243312501
H -1.6944213496 0.4964648893 -0.9498242636
H -1.9150133045 1.1337415054 1.3201096436
H -1.5548930756 -0.3538877202 3.2571826317
H -0.130836881 -2.146323798 2.4138947713
H -1.6327778985 -2.8119049624 3.0549072295

