# b3lyp 6-31G(2df,p) opt Freq 

 titel

0 1
C 0.8139520635 1.3972928662 -0.0254713133
C 1.4830014599 0.0443252195 -0.2301771004
C 0.0204583352 0.1485899515 0.119371771
C -0.5660408832 -0.397614131 1.4077726311
C -1.322124735 -1.6198111247 0.8949449324
C -2.1910017871 -2.4701950802 1.709526182
O -0.8889941242 -2.9159210107 1.3101941501
C -1.4903276627 -1.3990036979 -0.6141210855
O -0.9312245881 -0.1195747202 -0.8891555996
H 1.0503037065 1.9658995318 0.8677283973
H 0.6245073707 1.9965048913 -0.9089776198
H 1.7271005853 -0.2344887128 -1.2489727438
H 2.1787814135 -0.309392435 0.5233625298
H 0.1775607371 -0.676072908 2.1564718802
H -1.2607199012 0.3271430631 1.8480313524
H -2.3101087962 -2.2634134994 2.7730650445
H -3.0271666039 -2.9945358721 1.2471094825
H -0.9580050955 -2.1989632674 -1.1484911686
H -2.5337589848 -1.387194744 -0.9424306823

