# b3lyp 6-31G(2df,p) opt Freq 

 titel

0 1
C 1.3392200518 -0.1842542704 -0.1028323747
O -0.0734651461 -0.0778411382 0.0438202976
C -0.4632616778 0.5910074939 1.1664645328
C -0.3725481849 0.1561990491 2.6879755626
C -1.1406939661 1.5159142629 2.7268905363
C -1.9409375422 0.9990990898 1.4728067506
C -2.668360098 1.9673339069 0.5565321165
C -0.0916455098 1.9927472285 1.7078747678
O 0.6243954412 2.9194246868 1.4785339252
H 1.7776948993 -0.792224881 0.7001497663
H 1.5190198117 -0.6766566771 -1.0600329946
H 1.8127340858 0.8041844746 -0.1037203842
H -0.9823345701 -0.7154032883 2.9342572833
H 0.6106043746 0.1216172047 3.1596943306
H -1.5331793853 2.0253485081 3.6005535719
H -2.5544970748 0.1273069364 1.7210139068
H -3.5992118038 2.3136645343 1.0171819947
H -2.0593370651 2.8468900639 0.3244959845
H -2.9247157404 1.478578265 -0.3887475539

