# b3lyp 6-31G(2df,p) opt Freq 

 titel

0 1
C -0.2899656353 -0.4228250563 -0.5626444089
C 0.1934764253 0.3635918679 0.6623183334
C 1.1999104633 1.4612950492 0.2662117835
C 2.6021377496 0.9698724021 -0.1448705453
C 2.6488658467 0.5314655184 -1.5848205243
C 1.6233453152 0.7347733206 -2.4068555226
C 0.3610386456 1.4047415116 -1.9125741538
O -0.6552159151 0.4556865588 -1.6243159346
O 0.6240392834 2.2285540932 -0.798772168
H 0.4805348773 -1.1304135731 -0.8987646336
H -1.1915440245 -0.9949812487 -0.3278296713
H -0.6662272337 0.8614305908 1.1230772843
H 0.6250317128 -0.3159267877 1.4056728209
H 1.3011105055 2.160583036 1.1009289706
H 3.3329803746 1.7759961436 0.009024662
H 2.9198885677 0.1515440883 0.5138119197
H 3.5625785739 0.0584977785 -1.9366826136
H 1.6360258359 0.4026937171 -3.4400326326
H -0.0700672982 2.0588278897 -2.6747935758

