# b3lyp 6-31G(2df,p) opt Freq 

 titel

0 1
O 1.3389792829 0.8885434104 -0.0119559074
C 0.3190067636 0.0139476955 0.4552183059
C -0.8779279398 0.7797476739 1.0061048407
C -0.7058162318 1.3314496318 2.4456998964
O -0.9210983095 -0.0430590302 2.9318558012
C -1.8846089764 -0.0794685333 1.8127374951
C -2.9703012568 0.8920812122 2.3171216139
C -3.0699688126 2.2812802585 1.7393417746
C -2.0480598757 1.9976137522 2.8113808729
H 1.7569691349 1.2885245539 0.7566801894
H 0.0055654698 -0.56395081 -0.4215434209
H 0.6963912659 -0.6898032591 1.2063600771
H -1.2507553302 1.4510854529 0.2319053005
H 0.2137830918 1.7880184653 2.8155142109
H -2.178632106 -1.0883724696 1.5220262613
H -3.774172807 0.4943871633 2.9242276459
H -2.7827582955 2.4975816456 0.7179684039
H -3.9326604467 2.8549708723 2.0662771625
H -2.151364871 2.4404030544 3.794326636

