# b3lyp 6-31G(2df,p) opt Freq 

 titel

0 1
O -0.0002677896 0.7376968169 -0.0412123951
C -0.8274872505 -0.0192010557 0.8380958497
C -0.9918985699 0.7053575115 2.1705422316
O -1.9653140932 0.1042542889 3.0276374738
C -2.3458172115 1.2729162334 2.2744188197
C -3.1470326817 0.9533578117 1.0307535858
C -4.2318014638 -0.1550597629 1.1792721626
C -3.2158779816 -1.2051284678 0.6431683004
C -2.2451183851 -0.0554601918 0.2432875372
H 0.8917032088 0.7512921047 0.3210091024
H -0.4258838685 -1.0340161202 0.9804317033
H -0.121374262 1.1310859583 2.6689448929
H -2.5672997631 2.1481433537 2.8806386757
H -3.4490930265 1.8719529864 0.5215824212
H -4.6126113577 -0.3207670301 2.1890974518
H -5.0784463414 0.0016531738 0.5065337752
H -2.8134710582 -1.8422220933 1.4325312937
H -3.564311607 -1.8362374378 -0.1779927366
H -2.1888670176 0.1157038604 -0.8324920052

