# b3lyp 6-31G(2df,p) opt Freq 

 titel

0 1
C 1.5079957755 -0.0834870179 -0.0946982022
O 0.099567829 -0.038494831 0.0279809401
C -0.3418206351 0.6484167992 1.152232105
C -0.1537971112 -0.0003306399 2.5562318427
C -1.5639421493 0.5120617502 2.9404432335
O -1.5535148836 1.9233587054 3.2528101125
C -1.6024382491 2.2710561963 1.8506183303
C -0.2019434654 2.1996043977 1.1932054853
C -1.879406905 0.7965203705 1.4455913876
H 1.976666771 -0.5931326455 0.7596044114
H 1.732373419 -0.6428625613 -1.0054988908
H 1.9432799413 0.9227624082 -0.1796177267
H -0.1629913285 -1.0908542337 2.4533093877
H 0.6798409232 0.31353501 3.1894986803
H -2.1703111501 -0.0601294441 3.6438349139
H -2.240255975 3.1359642095 1.6636180893
H -0.2436067009 2.5921789553 0.1714080456
H 0.6286392686 2.6532213596 1.739881442
H -2.6939484843 0.4057753016 0.8436919827

