# b3lyp 6-31G(2df,p) opt Freq 

 titel

0 1
C -1.2441034195 -1.734288846 -1.4566632041
C -1.2913076068 -1.1145502179 -0.0494822659
C -2.4396115104 -0.0881610289 0.1116389398
O -3.5249632571 -0.2402459205 -0.7621336155
C -1.7420546666 1.2648249891 -0.0738022203
O -2.3248609263 2.2627225623 -0.4451053647
C -0.3213979517 1.050225981 0.2202299255
C -0.0584544886 -0.2707499395 0.2515249266
C 1.2666726002 -0.9075504163 0.5099002648
H -0.4130603143 -2.4400135092 -1.5471983935
H -2.1760785001 -2.2643094569 -1.6615794879
H -1.1252240541 -0.9607591231 -2.2208816989
H -1.3751271832 -1.9277816521 0.6820453
H -2.78089138 -0.1197169137 1.1617501208
H -3.7716581685 0.6617320907 -1.0184885523
H 0.3980101805 1.851386445 0.3361586721
H 1.2048275575 -1.5769235957 1.3773356353
H 1.5754134014 -1.5298969154 -0.3382905741
H 2.0473205676 -0.1669185129 0.6977392522

