# b3lyp 6-31G(2df,p) opt Freq 

 titel

0 1
O 2.9660664064 -2.4100456712 -0.1846550302
C 2.2000715571 -2.09188937 0.9425838078
C 1.1253496535 -1.0784727408 0.6534838367
O 0.2952344215 -1.6379795733 -0.3552314188
C -0.6521675493 -0.7186979937 -0.8640102178
C -1.4297573574 -1.3426647269 -1.9260895733
C -2.0820358012 -1.8344256476 -2.8060456314
C 1.9596696055 -3.1725700398 1.9693140165
C 2.9463505606 -2.0508363782 2.2365585479
H 2.334363154 -2.6708355404 -0.8666596035
H 0.5417735686 -0.8474570291 1.5584797078
H 1.579518898 -0.1426210262 0.2887294469
H -1.3267884308 -0.3778552325 -0.0604165157
H -0.1453595547 0.1809354134 -1.2528207103
H -2.6572909687 -2.2739860112 -3.5831207037
H 1.0218357245 -3.1810785427 2.5142048716
H 2.3703708873 -4.1497022659 1.7441989011
H 2.6887430994 -1.290904277 2.966706004
H 4.0019475657 -2.2903558769 2.1822436743

