# b3lyp 6-31G(2df,p) opt Freq 

 titel

0 1
O 0.5793578757 0.068738818 0.7466333217
C -0.7637050853 0.4613021822 0.8818709547
C -1.3234486431 0.4719548654 2.3204927224
C -0.3773140639 1.2448501655 3.2555694926
C 0.1113268045 2.5150991396 2.5996947897
C -0.2114710162 2.8358318666 1.3424971962
C -1.0985429747 1.92707015 0.5147320366
C -2.5514718633 1.9753526531 1.0143315652
O -2.5700667657 1.1621040885 2.1985227025
H 1.1229270365 0.7948369539 1.0774092954
H -1.3472412757 -0.2270521401 0.2627033967
H -1.5274558159 -0.5285215915 2.711950279
H -0.9178814023 1.4776243139 4.1809921747
H 0.4727757742 0.612152491 3.5475626631
H 0.7450753607 3.1736119299 3.1887884507
H 0.1450993059 3.7599336297 0.8968330785
H -1.0166677684 2.135052967 -0.553830392
H -2.8866097885 2.9854717166 1.2716036899
H -3.2412445345 1.5591087908 0.2658230224

