# b3lyp 6-31G(2df,p) opt Freq 

 titel

0 1
C 0.0362091976 -0.0567098459 0.3185390827
C 1.2319894404 -0.0431220757 0.2046676155
C 2.6877452576 0.0262648221 0.0923789064
C 3.1867316305 1.4414347923 0.4567254731
O 4.5854045377 1.527850046 0.5783071596
C 5.3309205522 1.243667604 -0.5985896584
C 5.5242986009 -0.2623024294 -0.8079571911
C 4.2896025601 -0.9855043445 -1.394058341
O 3.0642010443 -0.2851859925 -1.2459800152
H -1.021277922 -0.0853697794 0.4132896694
H 3.1378709781 -0.6944962382 0.7925166765
H 2.8061828672 2.1312613478 -0.3121205814
H 2.7762084845 1.7369445695 1.4267580403
H 4.8618316621 1.7106104549 -1.4765648797
H 6.3063609222 1.7148373376 -0.4426640662
H 6.3795818841 -0.4296527439 -1.4736318282
H 5.7980316135 -0.6862795393 0.1640866516
H 4.3968757056 -1.0999947668 -2.4766063892
H 4.2050937135 -1.9956423584 -0.9648142148

