# b3lyp 6-31G(2df,p) opt Freq 

 titel

0 1
C 3.1728028131 -5.0050262761 -1.2678243135
C 2.7604057531 -3.5612109226 -1.2338453975
C 3.2235874774 -2.5245054209 -0.1565264387
C 1.8686602376 -1.9236622432 -0.6341775653
C 0.9441938231 -1.0548890276 0.1739864696
O -0.3184188513 -0.9448419933 -0.4596125618
O 1.3803711382 -3.3092069473 -0.7722004509
C 2.1914981436 -1.5777190257 -2.1056206354
C 2.8028786506 -2.6892259617 -2.5120797492
H 3.0604087051 -5.4649622177 -0.2826303082
H 2.5575350099 -5.5622936347 -1.9813589487
H 4.2194927028 -5.0940374866 -1.5761209861
H 3.1737872399 -2.9264436774 0.8595260946
H 4.1397184443 -1.9577479686 -0.3327632563
H 0.8547508699 -1.4642707203 1.1918647765
H 1.3519103304 -0.0410507835 0.2538909989
H -0.5926572553 -1.8440187489 -0.6764376163
H 1.9606425743 -0.6558111011 -2.6183302253
H 3.2374262634 -2.958010633 -3.4644278167

