# b3lyp 6-31G(2df,p) opt Freq 

 titel

0 1
C -0.8618448073 3.819387037 -2.1333819654
C -1.7692233739 2.6811224929 -1.6569318063
C -3.1065556242 3.1111927035 -1.0929114847
C -3.4322916291 2.4420205151 0.0118875256
C -2.3749783033 1.4347011606 0.395959299
C -1.1815662906 1.8649578553 -0.4848040622
O -0.4209267013 0.7564421884 -1.0171215275
C 0.4402210917 0.1677497346 -0.1785531311
O 0.6239375841 0.4570157085 0.9726470906
H -0.6749300535 4.5364450801 -1.3266560684
H 0.1030824501 3.4297110081 -2.4736610047
H -1.3156037042 4.3633357091 -2.9679568262
H -1.9331033975 1.9945764721 -2.5010180538
H -3.7195332197 3.8633081336 -1.5778407085
H -4.3542359321 2.5609181115 0.5699458853
H -2.1214482882 1.4342703136 1.4596009895
H -2.6869034889 0.4118361275 0.1424009761
H -0.4983464941 2.483065037 0.1041274125
H 0.9649023118 -0.6359826887 -0.7187540099

