# b3lyp 6-31G(2df,p) opt Freq 

 titel

0 1
C 1.4027565803 0.1989279822 4.1905974876
O 0.9731723959 1.5588841797 4.2576523925
C 0.4159819695 0.7206466685 3.2361095758
C 0.7742422341 1.0688757618 1.8207586446
C -0.0198878354 2.2166758399 1.1081448732
C -0.3516333269 1.2639212862 -0.0758907128
C -1.6487181171 0.4664596752 0.1119653554
O -0.9846924792 -0.495464855 0.9694202081
C 0.3089967028 0.0944914011 0.7083998955
H 2.4339758211 0.0495949955 3.8712750008
H 1.0770758432 -0.437951001 5.0119963679
H -0.6289540885 0.4583098544 3.3956586917
H 1.8527073026 1.2441747599 1.7517460532
H -0.896991742 2.5776285539 1.6534273516
H 0.5954164475 3.0782882527 0.8439198069
H -0.0718119566 1.5754011413 -1.0807262345
H -2.477167301 0.9766491306 0.6189369522
H -2.0272129985 -0.0156728175 -0.7988696804
H 1.0205371281 -0.6350072994 0.3109526106

