# b3lyp 6-31G(2df,p) opt Freq 

 titel

0 1
O 0.3682184578 -0.1668990348 0.3063983104
C -0.7794894799 0.4406713542 0.8504533766
C -2.0433648664 0.1643280831 -0.0272699041
C -2.365309988 1.6458744428 0.1134852847
C -2.9336050427 2.8532662722 -0.6191714958
C -2.3685447158 3.9144966891 0.4067643854
C -1.7370188466 2.931222935 1.444881742
O -2.7830907747 1.9195212279 1.5109858695
C -0.9221416547 1.9889456621 0.5567954728
H 1.1145627688 0.0331327407 0.8808370207
H -0.9254075491 0.1776794556 1.9023405616
H -1.7276265074 -0.0947773442 -1.042010408
H -2.7828914315 -0.5521355282 0.3350530924
H -2.5272489169 2.9711014627 -1.6267249794
H -4.0245787383 2.860667201 -0.6704790435
H -1.6414656792 4.5973599402 -0.041937156
H -3.1612176458 4.5033913409 0.8726839839
H -1.4325433504 3.3364393478 2.412734152
H -0.1788660491 2.3717855022 -0.1458566855

