# b3lyp 6-31G(2df,p) opt Freq 

 titel

0 1
O 1.1295104631 0.7399988087 -0.6256205146
C -0.0088729182 0.3478573417 0.1315726525
C -1.2168647572 0.4968816146 -0.7401164648
C -1.5380597176 -0.2412710952 -2.0605552655
C -2.7259611662 0.6899306447 -1.8308582696
O -3.8087594175 0.7736963994 -2.6805446603
C -2.7123122097 0.4817215716 -0.264176352
C -2.7146617769 2.001725855 0.0052746918
C -1.8315176344 1.8512581891 -1.2510533396
H 1.9125307988 0.5901496803 -0.0876452955
H 0.0759662794 -0.6998247245 0.4635983528
H -0.1223521443 0.9686928793 1.035488342
H -0.8924807035 -0.0164459793 -2.9139728608
H -1.7348423608 -1.3160651639 -1.9858314756
H -4.4100127816 1.4525066971 -2.3533009624
H -3.1972206112 -0.3263786039 0.287165567
H -3.6687477728 2.5276651256 -0.1143066796
H -2.219951095 2.3435618318 0.9194872262
H -1.2969566944 2.6092612082 -1.824405752

