# b3lyp 6-31G(2df,p) opt Freq 

 titel

0 1
C -0.8901337836 -0.372212431 1.1231752305
C 0.4708209786 0.2468816154 0.9012905867
C 0.7190110069 1.2230405298 -0.1645918877
O 1.1504978278 -0.1325209989 -0.3003412504
C -0.7864619927 -1.7790904732 1.6409544263
C -1.8927636395 -2.7558597586 2.1216687804
C -0.506942335 -3.3310046388 2.4940165562
C 0.0174440237 -2.9859676182 1.0834029263
O -0.0997085598 -1.9814008079 2.9515654089
H -1.4559529802 0.2300260799 1.8453281873
H -1.4487773825 -0.3770457636 0.180517167
H 1.1122267904 0.2697698955 1.781950698
H -0.0990028143 1.5210814438 -0.8200685555
H 1.5134793777 1.9595343953 -0.0531281591
H -2.4888874432 -2.4008424371 2.9636971553
H -2.4842317726 -3.2772248282 1.364326591
H -0.2592960277 -4.1718526473 3.1411869134
H 1.0931484949 -2.829222413 1.0067861524
H -0.3986316189 -3.5264019039 0.2293875129

