# b3lyp 6-31G(2df,p) opt Freq 

 titel

0 1
C 0.1725850296 -0.4528982823 0.0008508211
C 1.0623911992 0.5601247682 -0.6856598819
C 0.3510516891 1.477028837 -1.6686957541
C 1.2437473914 2.2654015636 -2.6027650277
O 2.2190525052 3.1342773034 -2.0231723378
C 2.6796306947 1.9830086835 -2.734341831
C 3.3504156202 0.8893977458 -1.9331814173
C 2.5068192557 0.3029097485 -0.8218136992
O 2.0143285889 1.1974242088 0.1802743671
H 0.7436249555 -1.0269192442 0.7345922167
H -0.6475248726 0.0499186727 0.5258275585
H -0.2684439555 -1.1467923864 -0.7229628221
H -0.323231809 0.8678530116 -2.2850900406
H -0.2895458006 2.1700709437 -1.1069933909
H 0.7240066919 2.699447671 -3.4588506459
H 3.1674347177 2.2166976334 -3.6822482913
H 3.6248036339 0.0782501741 -2.6209409958
H 4.2908530713 1.2689583397 -1.5126041189
H 2.8916708832 -0.6365716519 -0.4190147691

