# b3lyp 6-31G(2df,p) opt Freq 

 titel

0 1
C -0.0467091456 -0.1574147894 0.2086489228
C 1.441770711 -0.0202666435 -0.0990061694
O 2.1731682509 -0.1828082325 1.1264892336
C 3.5475666444 -0.4009463967 0.7829848876
C 3.54849839 -1.0394519365 -0.630648315
C 2.0489631809 -1.1643103677 -0.9673767566
O 1.5192562007 -2.4230703174 -0.5989252126
C 1.7253075543 1.2872397848 -0.7143535729
C 1.9676434224 2.346686423 -1.2289636629
H -0.2575467956 -1.1469050597 0.6157302359
H -0.3455950453 0.6042371775 0.9320758835
H -0.6319103537 -0.0221162459 -0.7042265724
H 4.0914167359 0.5513798976 0.7889143382
H 3.9738012667 -1.045429254 1.556416063
H 4.0572235939 -0.3959588277 -1.3513322101
H 4.0187727006 -2.0241942474 -0.6590339669
H 1.8328202096 -1.0406111775 -2.029741136
H 1.6536998115 -2.5189476263 0.3519900888
H 2.1739192675 3.2873556393 -1.6773945086

