# b3lyp 6-31G(2df,p) opt Freq 

 titel

0 1
C 1.4542337897 0.1024285129 -0.0911551655
O 0.0562011425 -0.0282743726 0.0944155398
C -0.4086806677 0.5934023743 1.2408371232
C -0.6231011181 2.0868883994 1.2713968487
C -1.8107670537 1.1412492022 1.3277292592
C -2.215622261 0.4917638813 2.6677723418
C -1.0248075945 0.7196478629 3.6263483473
C -0.405073536 -0.2142221483 2.5635899856
O -1.7147446493 -0.8826678821 2.4880235687
H 2.0226436548 -0.3553612794 0.7312537776
H 1.7016551618 -0.4158635163 -1.0202280303
H 1.7540375035 1.1566662719 -0.1750570854
H -0.3398128706 2.7072426707 2.1134335644
H -0.4897794703 2.5711705494 0.3080016212
H -2.4892543062 1.0847044915 0.4860414761
H -3.2583142575 0.5435981732 2.9787040839
H -0.6234191329 1.716592709 3.8096204043
H -1.1786159717 0.1846597508 4.5629128907
H 0.4277744773 -0.890394311 2.7536437086

