# b3lyp 6-31G(2df,p) opt Freq 

 titel

0 1
C 1.4409813388 -0.1911408584 0.0877550414
O 0.0391375465 0.0259986727 0.0143753246
C -0.4565022798 0.74752014 1.0763037663
C -0.6514913155 0.1721374503 2.4458838636
C -1.8573820227 0.6889974409 1.6822268446
C -1.9420094095 2.232494317 1.6902947777
C -1.3467748035 3.0162960311 2.8799322469
O -0.0129902071 2.9513971047 2.3062911725
C -0.515717778 2.297932009 1.1152485752
H 1.7119852888 -0.7482500897 0.9947142679
H 1.7186025832 -0.7744702357 -0.7927981606
H 1.9984883242 0.75565711 0.0803929517
H -0.5962283389 -0.9117349573 2.4709626231
H -0.2684608595 0.6694942957 3.3301491234
H -2.6809983122 0.0298676862 1.4379076955
H -2.7974808148 2.6579867759 1.1688195021
H -1.692433817 4.0546816669 2.949046777
H -1.3993554915 2.5518738836 3.8712550618
H -0.2454428315 2.8058322271 0.1860293254

