# b3lyp 6-31G(2df,p) opt Freq 

 titel

0 1
C -0.4530226097 -1.8093251015 -1.4222767604
C -0.7197572704 -1.4363632066 0.0500714931
C -2.2027170756 -1.3054181615 0.3297188176
O -2.5431330419 -0.863948046 1.6447199821
C -2.8464113058 0.004627039 0.5450708055
C -2.0685762382 1.3062108786 0.5073773321
C -0.6225377581 1.1467950843 -0.0084372507
C 0.0367783187 -0.1560289845 0.4203314856
O 1.1162833358 -0.1943676468 0.9598339571
H -0.9367261718 -2.7599561115 -1.6678166381
H -0.8409533214 -1.0518317341 -2.1109985221
H 0.6196811468 -1.9194914591 -1.6010193843
H -0.3126166065 -2.2285346311 0.6881813166
H -2.8172369269 -2.1298219537 -0.0383112718
H -3.9143866818 0.0852994858 0.3401648775
H -2.600359432 2.0296971437 -0.1189828591
H -2.0616453444 1.7165175302 1.5231914254
H -0.6397084676 1.1448674257 -1.1067227483
H 0.0124961508 1.976166419 0.3087387821

