# b3lyp 6-31G(2df,p) opt Freq 

 titel

0 1
C 0.294496739 0.3128432834 0.1046628487
C 1.1509236332 -0.8227087069 -0.4193566841
O 2.5349352609 -0.4096078523 -0.5944162884
C 3.0041574938 -1.3867562333 0.3463784422
C 3.3747581937 -2.7104378981 -0.3041961265
C 3.1284220536 -3.8338289081 0.6814306955
C 1.9607554651 -3.232043123 -0.0495394238
O 1.1702567212 -3.9533976721 -0.9267483995
C 1.549406908 -1.9148148462 0.5985206849
H 0.6770945043 0.6830715543 1.0610824699
H 0.2916280725 1.1438758416 -0.6073591652
H -0.7391093094 -0.0223209757 0.2472152772
H 0.7382606855 -1.218448996 -1.3555575683
H 3.6696912522 -0.9600181837 1.1022643959
H 4.0052244049 -2.8280983457 -1.1765093909
H 3.4210306374 -4.8132011262 0.3163354689
H 3.272685781 -3.6867735918 1.7500883303
H 0.6700105779 -4.6043419755 -0.4222176654
H 1.0286912952 -1.9227041347 1.5588953187

