# b3lyp 6-31G(2df,p) opt Freq 

 titel

0 1
C -1.3055096042 3.2744568116 0.503116555
C -1.6342911101 1.7894701855 0.1316804641
C -0.1267843797 1.4736252707 0.1341264557
C 0.5528690971 0.221210446 0.6415895594
O 1.9101583474 0.3535775722 0.2298960345
C 1.8986032105 0.9425323037 -1.0692601447
C 0.7159874329 1.910391417 -1.0952708256
O 0.9934073322 3.2087511516 -0.5207783691
C 0.1987246547 2.903739995 0.6405085485
H -1.4831739356 4.0048632302 -0.2887752471
H -1.7778586536 3.6259932874 1.4232442797
H -2.1715540619 1.2689736961 0.9298530402
H -2.167614323 1.6155193091 -0.806798832
H 0.5454989402 0.1183344708 1.7307497972
H 0.0870030688 -0.6802246917 0.2049145024
H 2.8583471465 1.4398308986 -1.2290472852
H 1.7574465477 0.1702553557 -1.8438869635
H 0.2405148096 1.9905253067 -2.0787931312
H 0.7131811506 3.1424866138 1.5747025618

