# b3lyp 6-31G(2df,p) opt Freq 

 titel

0 1
O 0.5562157051 0.364446085 0.5400460864
C -0.7567163068 0.6533648761 1.0097827275
C -1.2244968582 2.0499078383 0.5800772001
C -1.5406435263 2.0843732151 -0.8965461443
C -1.8365857411 0.9928432708 -1.6048521776
C -1.8993157814 -0.3946571133 -1.0149132643
C -1.7502296505 -0.3790162348 0.4959350994
C -2.0887515598 -1.552253056 1.3021873861
O -2.9723604745 -0.424189748 1.2506470781
H 0.607904772 0.6708697421 -0.3727293964
H -0.7080958223 0.5910127788 2.1008882576
H -2.1121272554 2.329596958 1.1630621192
H -0.4445228609 2.779183943 0.8268721513
H -1.5260383107 3.0544922957 -1.3866222415
H -2.0486026701 1.0776788033 -2.6678319169
H -2.8517761826 -0.8749670785 -1.2679999586
H -1.113312296 -1.0232092656 -1.4579027535
H -2.4599089303 -2.453641847 0.8152950678
H -1.5893902203 -1.7146053929 2.2565484396

