# b3lyp 6-31G(2df,p) opt Freq 

 titel

0 1
O 0.6497085153 1.8870277732 -0.0810014811
C -0.4590231149 2.0418275559 0.7856652386
C -1.0011330363 3.4293340722 0.5857071189
C -2.0881264785 3.9617629504 1.1367975719
C -3.0554863281 3.336886917 2.1054839919
C -3.2352065873 1.8449484552 2.1527300594
C -2.6316499626 0.867153252 1.4768810061
C -1.4932097295 0.9332821377 0.4961829507
O -0.8062277597 -0.3280904654 0.4520606205
H 0.7740683099 0.9319299483 -0.1643358642
H -0.1399275951 1.9165167998 1.8378776908
H -0.3982131152 4.0299587785 -0.0895342858
H -2.3140300982 4.9985637494 0.8967300601
H -2.8135074693 3.6878856882 3.1235975544
H -4.0504689852 3.7684768761 1.9201385614
H -4.0293585209 1.5415906198 2.8339050087
H -2.9833241101 -0.150426986 1.6400403994
H -1.8587725747 1.0729546677 -0.5278083383
H -0.6059459597 -0.57868591 1.3622072063

