# b3lyp 6-31G(2df,p) opt Freq 

 titel

0 1
C 1.2631850035 -0.3435358984 1.0330430048
C 1.0296194818 0.1970490792 -0.3841876872
C 1.6880323028 -0.6487525119 -1.4526372948
C 1.1150207933 -2.0442099364 -1.8151613898
O 1.0115465013 -1.6877561964 -3.2188373274
C 1.5513050866 -0.3841377004 -2.9734854447
C 3.1008888197 -0.2547013281 -3.0733447499
O 3.670903737 -1.468684907 -2.5800064858
C 3.2310038344 -0.508813002 -1.6228261794
H 0.8589755386 -1.3554821313 1.1426594397
H 2.3303950051 -0.3864140251 1.2750270225
H 0.7779163787 0.2909596669 1.7804022876
H -0.0473666918 0.2544150566 -0.5851774558
H 1.4091614219 1.2254101327 -0.4532542403
H 1.7752354704 -2.9016379219 -1.6596157868
H 0.1244613097 -2.2452681096 -1.3879038579
H 0.9680588023 0.4361419721 -3.4019965147
H 3.7040875213 0.3289054253 -3.7601771759
H 3.9585680436 -0.1531526842 -0.9009825842

