# b3lyp 6-31G(2df,p) opt Freq 

 titel

0 1
C 3.1899216896 -0.7948857649 0.7550902886
C 3.2398460632 -0.8326583725 -0.7684767279
O 3.4876018921 0.5203447375 -1.2814331146
C 4.808715288 0.1382005306 -1.6747186951
C 4.7861674351 -0.8896828646 -2.7545677813
C 4.5940182282 -1.3121881895 -1.3082646811
C 1.9519763292 -1.4093157337 -1.3106904991
C 1.8101959749 -2.8372732129 -1.624481996
O 1.8993701398 -1.8600850328 -2.6607786506
H 3.0995502394 -1.8063511891 1.1660981135
H 4.1004520657 -0.3367106848 1.1485990258
H 2.3331336827 -0.2049146828 1.0949987968
H 5.6170029988 0.8297861719 -1.4685242618
H 3.9615744803 -0.9307769914 -3.4546975095
H 5.7611955916 -1.1512868942 -3.1559757384
H 5.2453853978 -2.0076761077 -0.7957169776
H 1.0612230658 -0.8626851314 -0.9949341606
H 2.6753302354 -3.4922554759 -1.5315294249
H 0.8415245921 -3.3226892918 -1.5166056561

