# b3lyp 6-31G(2df,p) opt Freq 

 titel

0 1
O -1.0932198114 1.9906239761 1.0920996602
C -1.0695189108 1.0601596642 0.045033325
C -1.1872863296 1.7812952028 -1.3196865475
C -2.0387014523 0.8892903453 -2.2393390968
C -2.9880589215 0.1441052854 -1.2780451799
C -2.1255112387 -0.12961267 -0.0454958225
C -0.9508809296 -1.1487057622 -0.2308004701
C -0.0027449289 -0.027686264 0.1988270578
O 1.0503912689 -0.0021971202 0.7772411606
H -0.3943916217 1.7467812212 1.7118500938
H -1.7112028653 2.7177158205 -1.1000848413
H -0.2142965749 2.0470371406 -1.7419363509
H -2.5746407283 1.4679154944 -2.996278889
H -1.4071820969 0.1761304174 -2.7808413962
H -3.8260433996 0.7942658319 -1.0002737962
H -3.411382728 -0.7653967092 -1.716166616
H -2.6793607049 -0.2954983596 0.8788348455
H -0.9350982032 -2.0267142261 0.4187785755
H -0.8072401035 -1.4766825185 -1.264605532

