# b3lyp 6-31G(2df,p) opt Freq 

 titel

0 1
C 0.1949617753 -0.3696814959 -0.6888834349
C 1.1338012068 0.2987900499 0.3099349418
C 2.2852971595 1.129406727 -0.3100672801
O 2.8270760565 0.5442426991 -1.4835815905
C 3.2956539946 1.1065121455 0.8327921877
O 3.2842270862 -0.2616183104 1.24344651
C 1.9131564165 -0.706085802 1.2234589927
C 1.3595015567 -0.7935030424 2.5733109148
C 0.8896353656 -0.8567376498 3.6779702677
H -0.5383607902 -0.9976759108 -0.1733014022
H -0.3529692208 0.378966957 -1.2690915218
H 0.7544787664 -0.989359697 -1.3941110473
H 0.5593040565 0.9682601227 0.9583926987
H 1.959629733 2.1352690388 -0.5880696147
H 3.3372338502 -0.2253317769 -1.2026875391
H 4.3113909553 1.3536201575 0.5154988034
H 2.9975961811 1.774952175 1.6544831059
H 1.9199612896 -1.7078760791 0.7769463266
H 0.4834802212 -0.9213913782 4.6571849312

