# b3lyp 6-31G(2df,p) opt Freq 

 titel

0 1
O 0.9189718329 -0.7142829535 -0.2612979261
C 0.0537599195 0.0242790109 0.1335738949
C -1.1393798145 0.4513164608 -0.6813684359
C -1.4683394843 1.9732001462 -0.5358410168
C -2.5734517363 1.6257104299 0.495873085
C -2.4958696729 0.1538743868 0.0470009242
C -3.6378344186 -0.5288573934 -0.7347658359
C -3.5225796607 -1.6266174573 0.3408198914
O -2.515939419 -0.8715275621 1.0514502718
H 0.0950950404 0.4565179012 1.1596812548
H -1.0360693777 0.0485078692 -1.6910830314
H -0.6534756878 2.6116463612 -0.1869269399
H -1.8603388498 2.3899585161 -1.4653730133
H -2.2245509532 1.7238571032 1.5279797023
H -3.5414565149 2.1252526175 0.4045167627
H -4.5787485251 0.0251576927 -0.7288359846
H -3.4011936628 -0.8303051706 -1.7564540007
H -4.410971249 -1.7992452636 0.9577222473
H -3.1358147262 -2.5903355652 -0.0094248799

