# b3lyp 6-31G(2df,p) opt Freq 

 titel

0 1
C -3.1971273857 -2.0728298971 -1.1974743191
C -2.1433064685 -0.9911268615 -1.0783090395
C -2.2039043217 -0.0441723924 0.0761160952
O -3.2502802141 -0.0025317273 0.9760047025
C -1.1780345495 1.0834946142 -0.1140072
C -0.0942471192 -0.0292498431 -0.1196539819
O 1.1049291506 0.0009879712 -0.0980068082
C -1.0963427913 -1.1316269924 0.0554821975
C -0.8587718921 -2.3981447968 0.8270482807
H -3.6429864868 -2.3114290938 -0.2293451718
H -4.0028759073 -1.7378975612 -1.8597766461
H -2.7820321312 -2.9915634534 -1.6234638111
H -1.797096381 -0.6077938487 -2.0375970687
H -4.015111026 0.3922373415 0.5414422049
H -1.2710858316 1.7230735804 -0.9977053124
H -1.063613153 1.7039666361 0.7801594596
H -0.2126479763 -3.0795800353 0.263069182
H -0.3607622929 -2.182931031 1.7772484907
H -1.7914983025 -2.9222300795 1.0468108056

