# b3lyp 6-31G(2df,p) opt Freq 

 titel

0 1
C -2.1400538967 -2.9737625483 -1.1536504662
C -1.4773550139 -1.6064962801 -1.2780841043
C -0.6312134327 -1.4948828123 -2.5363117309
O -2.4975377623 -0.5583460512 -1.2141054309
C -2.0690545802 -0.1315955081 0.0887022912
C -1.1184405374 1.0897969442 0.0331045082
C 0.062692599 0.0976423351 -0.0456509741
O 1.2502853554 0.2249003003 -0.1137217422
C -0.8651825031 -1.1219081131 0.0765201159
H -2.7388981014 -3.0367081363 -0.2407951266
H -2.801455017 -3.1443880446 -2.0089976083
H -1.3879627794 -3.7695673709 -1.1319386926
H 0.1773732317 -2.2326434573 -2.5224443604
H -1.2515659368 -1.6826189044 -3.4186589827
H -0.1863381936 -0.5024326309 -2.6364398775
H -2.8720730813 -0.1303132059 0.8276484486
H -1.2569695932 1.7716789479 -0.8090351206
H -1.0835876595 1.6666234555 0.9646768952
H -0.6265072275 -1.8796768196 0.822065758

