# b3lyp 6-31G(2df,p) opt Freq 

 titel

0 1
C 1.6013713067 -0.5878364703 -1.2081457527
C 1.2447618654 0.1183243409 0.1018306468
C 1.840522529 1.5565513421 0.210751292
C 2.2946509941 1.6464391465 1.6606206238
O 1.1318285897 1.4134992334 2.5261553329
C 1.5392002297 0.0567130166 2.7034829037
C 1.8155042315 -0.5882507683 1.3376641745
C 2.8612449883 0.2430831755 2.0251515138
O 4.1608962498 -0.1466171919 2.2489197489
H 1.1557011354 -1.5870466582 -1.2575088049
H 1.239012294 -0.01881866 -2.0711776374
H 2.6865673869 -0.6992582544 -1.3120325123
H 0.1541089946 0.1761729637 0.1860369108
H 2.7083904644 1.6694468607 -0.4521897569
H 1.1159543287 2.3352109265 -0.0439252452
H 2.8422456576 2.5432227078 1.9593547275
H 1.1949772754 -0.4762140135 3.5819412568
H 1.9361376773 -1.6668647147 1.3525441494
H 4.4713298314 0.2763545979 3.0578261487

