# b3lyp 6-31G(2df,p) opt Freq 

 titel

0 1
C -0.0431815448 0.0012436484 0.0704496603
C 1.4836997921 -0.0134231738 0.1307905606
O 1.9159409768 1.33547612 0.2432431586
C 1.9749326923 -0.8053900842 1.3681452311
C 3.4387872178 -1.1614761874 1.3128652389
C 4.0915428934 -1.3688330484 0.1687865711
C 3.386852126 -1.2638987872 -1.1317264567
O 3.2078930461 0.0643224489 -1.6927334136
C 2.065594173 -0.6228466057 -1.1668293766
H -0.452046151 0.435835327 0.9870889062
H -0.3766337503 0.6113398454 -0.7736904114
H -0.4462519152 -1.0106472311 -0.042970306
H 2.7327996541 1.3980745298 -0.2717577387
H 1.7706332594 -0.1870729037 2.2479163237
H 1.3848111344 -1.7254923801 1.4928541915
H 3.9636029535 -1.2633874284 2.2594450199
H 5.1447462364 -1.6323449503 0.1576877495
H 3.6360883894 -2.0051814193 -1.8898323567
H 1.3434548167 -0.9239845398 -1.9246114616

