# b3lyp 6-31G(2df,p) opt Freq 

 titel

0 1
O -0.3278184051 -0.3176467996 1.1477008826
C 0.3952978755 0.4604672406 0.1978694189
C -0.3555200189 0.5981498406 -1.0951028437
C 0.0563601179 0.319069678 -2.3499562309
C -1.0333690961 0.5684000445 -3.3717919528
C -2.0876254565 1.374431556 -2.5753785135
C -1.7953065041 1.0633832508 -1.0882517345
C 1.3648416357 -0.2032548162 -2.7469503145
O 1.6641870073 -0.4551653318 -3.8959239149
H -0.3981692219 -1.2119382155 0.7971499621
H 0.4997816185 1.4497038771 0.660842697
H 1.408227992 0.0673205377 0.0454996859
H -0.6580806778 1.0941422174 -4.2539227032
H -1.4312828734 -0.388092739 -3.7354211202
H -1.9429204095 2.4441701546 -2.7569965309
H -3.1135254113 1.1347140756 -2.8642275732
H -1.9498729336 1.9212728008 -0.4237870181
H -2.4370197909 0.2640623471 -0.694389641
H 2.0967631623 -0.3677927189 -1.9274730353

