# b3lyp 6-31G(2df,p) opt Freq 

 titel

0 1
C 0.006303362 0.4303915389 -0.0602735263
C 1.4707211367 0.0794363229 0.0451983846
C 2.0437118447 -1.0146923217 -0.9011204202
C 2.6344666641 -1.7821722153 0.3184930851
C 2.1499335813 -0.6672249779 1.2703529588
O 3.0864005876 0.409145163 1.4452464234
C 2.4905577065 1.186888471 0.3802223763
C 1.4162564489 -1.0281449081 2.5237797774
O 0.7194319168 -2.0085224898 2.6300263376
H -0.3085676478 1.1088405719 0.7395546443
H -0.2004354834 0.9226759206 -1.0184826801
H -0.6181872666 -0.4671036123 -0.0070778309
H 1.2702490579 -1.5713999507 -1.435134047
H 2.7693601287 -0.6476325946 -1.6317515091
H 2.1265866281 -2.7267053863 0.5238902516
H 3.7155098684 -1.9312186805 0.3346058729
H 2.0453678808 2.1124703301 0.7682937359
H 3.2135055591 1.4384688984 -0.4055413225
H 1.539514886 -0.2944199897 3.3510485483

