# b3lyp 6-31G(2df,p) opt Freq 

 titel

0 1
O 4.365292972 -1.7941020744 -0.4915728965
C 3.3016008417 -0.88842596 -0.632011827
C 2.1951917675 -1.5567499709 -1.4310459365
C 1.8763539496 -2.9770592891 -1.2391125673
O 2.6621120812 -2.5514998811 -2.3632093412
C 3.6593359702 0.6164067303 -0.9400154261
C 2.3318728867 1.0094199644 -0.2291903139
C 2.9600796707 -0.0985238358 0.6664023938
C 4.3178527713 0.6493525766 0.473244144
H 4.3881361499 -2.3001994574 -1.3167277018
H 1.4217656585 -0.9178048115 -1.8461584916
H 2.4220138422 -3.5427989182 -0.4881956855
H 0.8827248001 -3.3446556509 -1.4871420334
H 4.059876389 1.0239923575 -1.8696013488
H 2.3211582843 2.0080491336 0.2123533649
H 1.3832357344 0.8039092447 -0.7271954794
H 2.5561708856 -0.5151852495 1.5906476084
H 4.3826791817 1.6343828404 0.9417532541
H 5.2261488136 0.0666883414 0.6080950138

