# b3lyp 6-31G(2df,p) opt Freq 

 titel

0 1
C 1.3541758619 0.7046474616 -0.2358264894
C -0.0362251908 0.2336836172 0.0633720567
C -1.1108086064 1.0157365708 0.1968377788
C -2.452129067 0.394715181 0.5259688143
C -2.2674991244 -1.1173478039 0.6866026298
O -1.5159297501 -1.6296859895 -0.4618382588
C -0.2950416626 -1.2493077639 0.25692603
C -1.0606857744 -1.4885499317 1.5855822543
O -1.0736912381 -2.8201587315 2.0291373705
H 2.0563303069 0.4035243243 0.5526435469
H 1.7285001929 0.2652084843 -1.1693623247
H 1.3979224498 1.7932078602 -0.328376113
H -1.0533240016 2.092266889 0.0586612454
H -2.8675079483 0.8198148902 1.4500896808
H -3.1841729722 0.6037265766 -0.2658641422
H -3.2014370407 -1.6635247492 0.8487958584
H 0.5500658395 -1.8985143324 0.0132478711
H -0.818358638 -0.8581619708 2.4428914977
H -1.2965666063 -3.3651774223 1.2638562334

