# b3lyp 6-31G(2df,p) opt Freq 

 titel

0 1
O 0.9741728906 2.4471283096 -0.0193365315
C 1.1783583729 1.1782031305 -0.5484290451
C 1.7626394264 0.2877912067 0.5143440309
O 1.9816314657 0.7090215147 1.6295068139
C 1.8934209119 1.0809846884 -1.9531476718
C 1.0757239909 -0.217517456 -2.1934650262
C -0.0066648044 0.5299750433 -1.3675787983
C -0.3651571911 1.7000228742 -2.3066478297
C 1.0764808447 2.1179692591 -2.7511395853
H 1.2701821374 2.3948953557 0.9046667053
H 1.9873357192 -0.7610760282 0.2535007468
H 2.9798811119 1.1154001143 -2.0389692954
H 0.8226860777 -0.4476980528 -3.2312285298
H 1.4814169357 -1.1094319309 -1.7163319495
H -0.8247790409 0.012052782 -0.866199499
H -0.9883762405 1.3632728626 -3.1397415191
H -0.8849502437 2.5019024105 -1.780918969
H 1.2403544145 2.0090800249 -3.8268395079
H 1.318932011 3.1409373512 -2.4607328094

