# b3lyp 6-31G(2df,p) opt Freq 

 titel

0 1
C -0.5920376057 2.3266673297 1.0925132984
C -0.8764310748 1.2472086279 0.0702168209
C -1.1540952998 1.6792469519 -1.3852953565
C -2.2545522228 1.103752172 -0.5539443003
O -2.8157652637 -0.1486626599 -0.8057019073
C -1.8943265403 -1.1293408196 -1.2573447785
C -0.7303567017 -1.3118204423 -0.2805383163
C -0.0965015351 -0.01884349 0.2391540054
O 0.9494839627 -0.046750026 0.8500010963
H -0.8016953227 1.97343718 2.1070841901
H 0.4599932781 2.6217119436 1.0569983384
H -1.2076836726 3.211700005 0.9050557293
H -1.155962635 2.7482777874 -1.5679329742
H -0.7200121499 1.0992962837 -2.1900862775
H -3.0278672094 1.7748867044 -0.1952376159
H -2.4700798828 -2.0538282937 -1.3490535829
H -1.5259940887 -0.8781846385 -2.2623104542
H -1.0907150519 -1.8254148527 0.6207511067
H 0.0521105762 -1.9454929529 -0.708163762

