# b3lyp 6-31G(2df,p) opt Freq 

 titel

0 1
C -0.6764287295 0.0139675059 0.572359573
C 0.6824091253 0.5928579823 1.0874495874
O 1.8592709092 0.191060222 0.4205936562
C 1.886556834 0.8163810295 -0.8567273503
C 1.13195169 2.1673064032 -0.7339663999
C 0.0565708553 2.343937736 -1.8116604848
O -1.0093200143 1.4819605253 -1.4226749175
C -1.0508766858 1.4109407238 -0.0006411397
C 0.2840719788 1.9912023342 0.5405679117
H -0.5963143898 -0.7713633378 -0.1816238726
H -1.3319669493 -0.3262646975 1.3779812516
H 0.8567380935 0.4823805237 2.159140354
H 2.9349341083 0.9336005747 -1.1441458655
H 1.3922571654 0.1816909959 -1.6070998991
H 1.8194958682 3.0132099209 -0.6775268332
H -0.279541118 3.3915597313 -1.861949484
H 0.3804845628 2.0404633498 -2.8128733681
H -1.9836760099 1.8460880936 0.3715339515
H 0.2614494958 2.8472811732 1.2130023795

