# b3lyp 6-31G(2df,p) opt Freq 

 titel

0 1
C -0.5034596721 3.3523699951 0.9452892291
C -1.3660643753 2.1272114655 0.8221929399
C -0.9632791314 0.6805838104 0.4356584165
O -0.1679091674 -0.0616222148 1.3335115304
C -2.4717417018 0.5702115342 0.6798118675
C -2.6571439537 1.9391684549 -0.0571408454
C -3.7809169086 2.6683336932 0.668438048
O -3.4771941142 2.3423731143 2.0339257903
C -2.3270265249 1.5246707674 1.9011178939
H 0.3231099385 3.1770674138 1.6435158069
H -0.0733091511 3.6431705391 -0.0199174142
H -1.0806044394 4.2013118843 1.3272334915
H -0.6372116427 0.5403741552 -0.6040461301
H 0.7544553412 0.1601324442 1.1736208744
H -3.1046288556 -0.3126669648 0.5936650566
H -2.5995263934 1.9956401287 -1.1449493702
H -3.7586736557 3.756067474 0.5242708236
H -4.7803658551 2.3003654458 0.4040286773
H -1.9749070173 1.1831037994 2.870153694

