# b3lyp 6-31G(2df,p) opt Freq 

 titel

0 1
C -1.8959778177 3.7376906536 -1.1204416523
C -1.2427533393 2.3562634629 -1.3383304663
C 0.239503089 2.5641248615 -1.5724802844
O 1.1367148707 2.081795368 -0.927025759
C -1.5540973525 1.3807815315 -0.1973415611
O -2.9631547671 1.3776329413 -0.0418942626
C -1.0322111023 -0.050518355 -0.4749491972
C -1.4819782115 -0.9748188303 0.5588094499
C -1.9011917263 -1.6845341943 1.4354339639
H -1.5361526156 4.1963745482 -0.1934964595
H -1.662826637 4.4152993102 -1.9479110522
H -2.97783312 3.6272919364 -1.0499220711
H -1.6516402157 1.9447869348 -2.274729877
H 0.4603240823 3.2555879805 -2.4185557009
H -1.0631229339 1.7453453693 0.7182872408
H -3.1747390313 0.6918420661 0.603749632
H -1.4053059166 -0.383792102 -1.4520229429
H 0.0600687326 -0.031463959 -0.520602477
H -2.240064218 -2.3389336538 2.2001937966

