# b3lyp 6-31G(2df,p) opt Freq 

 titel

0 1
C 1.195489919 1.6838303361 -0.2564275108
C -0.2967981293 1.5181294634 0.1674622233
C -0.0759708822 0.0063018839 0.1014213851
C 1.4432806127 0.1784306817 0.0698225389
O -0.7812794936 -0.966087779 0.8734070723
C -0.897536026 -1.0143082233 -0.5370550227
C -2.2045277312 -0.9380915135 -1.3177917714
O -1.75148524 -2.0034930155 -2.1845776763
C -0.547858518 -2.2134781014 -1.4107289346
H 1.3021215401 1.899961287 -1.3215835305
H 1.7842732991 2.4073792305 0.308865233
H -0.4793955176 1.8486279256 1.1940484515
H -1.0636032844 1.9462221559 -0.4832603672
H 1.8805902436 0.0316597962 1.0616233056
H 2.0047270456 -0.4161055762 -0.6554344967
H -3.0925373085 -1.2182591453 -0.7367241641
H -2.4048979953 -0.0106078191 -1.8686605313
H -0.5524044726 -3.1737808813 -0.8792302594
H 0.3590279386 -2.1384078157 -2.0237154547

