# b3lyp 6-31G(2df,p) opt Freq 

 titel

0 1
C 1.2683401176 -2.2828955541 -1.6400905278
C 1.9542127044 -1.1501265568 -0.8552924932
C 3.284943721 -1.6291951811 -0.2411404346
O 4.179590108 -2.1583355667 -0.8465721941
C 3.2643148325 -1.3437285703 1.2691687019
C 1.9154636552 -0.7154304679 1.4731013294
C 1.2069303009 -0.6004751975 0.3434481391
C -0.1479394419 0.0360003866 0.239712891
O -1.1574346242 -0.850089892 -0.2399662869
H 1.015421586 -3.117801425 -0.9777854398
H 0.3455933915 -1.9318093876 -2.1039860429
H 1.9501053733 -2.6551263593 -2.409342952
H 2.1848436304 -0.341797686 -1.5659969973
H 3.4164688885 -2.2739734274 1.8315697106
H 4.1013463528 -0.6868200604 1.5404541026
H 1.5730467641 -0.3675100026 2.442588573
H -0.4263691718 0.4684019419 1.2128766218
H -0.1263726305 0.8570736785 -0.4873377637
H -1.1874348479 -1.6020025724 0.3610668128

