# b3lyp 6-31G(2df,p) opt Freq 

 titel

0 1
C 0.4714585571 1.0912516609 -1.3817185033
C -0.6856785097 0.2637219573 -0.9001705292
C -1.9528274518 0.4695840536 -1.2623404792
C -3.1079763753 -0.3806016671 -0.8190999796
O -2.8434133314 -1.1987546432 0.3099666668
C -1.5693532135 -1.768004757 0.3669995111
C -1.0455903333 -2.7351770635 -0.7250773397
O 0.2062485216 -2.0162583445 -0.7803123536
C -0.3501987191 -0.9023956089 -0.0137879796
H 0.9925278401 1.5691596464 -0.5422934668
H 1.2060608024 0.4545507799 -1.888761194
H 0.1508899919 1.8726193708 -2.0759029042
H -2.2040645013 1.2793428633 -1.9449373037
H -3.9575375613 0.2501760679 -0.5319008046
H -3.4552585883 -0.9988683341 -1.6660199174
H -1.4830420472 -2.1998090909 1.3658272731
H -0.9060850609 -3.7830233547 -0.4403586489
H -1.5949387948 -2.6873460569 -1.6746739396
H 0.335776155 -0.6170408392 0.7930294522

