# b3lyp 6-31G(2df,p) opt Freq 

 titel

0 1
C 1.220995726 0.9697308559 0.0541583193
C -0.0503407786 0.2633922678 0.4728959403
C -0.1736848692 -1.0600375989 0.2888101301
C -1.266684228 -2.0336264792 0.6152653142
C -2.5304763249 -1.4719696883 1.2664178467
C -2.9654506 -0.1559662318 0.6316694548
O -2.3274126798 0.9681926912 1.2395937067
C -0.9951661536 1.1972808207 1.1749263707
O -0.5797952032 2.2081358646 1.6871853984
H 1.7190896647 1.4076076487 0.9230328964
H 1.9055585416 0.2794502362 -0.4441639932
H 1.004240476 1.8000191415 -0.6263437955
H 0.6779525905 -1.5426926424 -0.190933363
H -1.5374332712 -2.5335025744 -0.3273326397
H -0.8436591915 -2.8339062144 1.2383907731
H -3.3367384657 -2.2082395759 1.1797848618
H -2.3806205571 -1.292300538 2.3366024867
H -2.7837973839 -0.1560036316 -0.450748586
H -4.0291428221 0.0291419683 0.7965954683

