# b3lyp 6-31G(2df,p) opt Freq 

 titel

0 1
C 2.5038327032 -0.668475341 -1.2194798056
C 1.6245755576 -0.2900867355 -0.0458114711
C 1.6368110318 1.1568279673 0.4093684145
C 0.582750628 1.3698919078 1.5016587652
C 1.2750297542 0.2860470282 2.3813988226
C 1.9056171646 0.8122400562 3.6507547277
O 1.856603294 1.9544055519 4.0297581603
C 2.3104902826 0.0792956557 1.2447503192
O 3.6626602331 -0.111090749 1.4695892693
H 2.7526227764 -1.7361168087 -1.2047035106
H 1.9968241745 -0.4621909714 -2.1675616968
H 3.4425549306 -0.1082131953 -1.2071337049
H 0.6781749501 -0.8305305418 0.0054813224
H 2.0882166421 1.9313283117 -0.1987758335
H 0.6426167342 2.345384871 1.986782298
H -0.4518219264 1.1622314476 1.2130854391
H 0.6980229673 -0.6134451008 2.6373036128
H 2.4524177573 0.0417548 4.2384296136
H 3.8560260348 -1.054205464 1.4201321876

