# b3lyp 6-31G(2df,p) opt Freq 

 titel

0 1
O 0.2805165764 0.428396584 0.9261837723
C -1.0238245432 0.8601563418 0.7167324017
C -1.126236822 2.3599593909 0.9463581008
C -2.5765537452 2.7624817118 1.2469039887
C -3.5532878329 2.013298401 0.3267728474
C -3.1274698022 0.5543353362 0.1763546629
C -1.7749247657 0.2358808257 -0.5022054804
O -1.7481947176 -1.0725981804 0.2038206825
C -2.1773386495 -0.0837834793 1.2268019029
H 0.2613798547 -0.520859221 0.7325214659
H -0.4643546902 2.6324984049 1.7741254033
H -0.746000429 2.8794794499 0.0578449789
H -2.8042137794 2.495218661 2.2863594807
H -2.7086831049 3.845867727 1.1682744916
H -4.5710448808 2.0710028704 0.7274010483
H -3.5868441511 2.479485553 -0.6668622723
H -3.9180999672 -0.1266961848 -0.1430217134
H -1.5078329046 0.2389731557 -1.560913137
H -2.3862136655 -0.4691311879 2.2260984953

