# b3lyp 6-31G(2df,p) opt Freq 

 titel

0 1
O 0.2799654346 0.4292429529 -0.072535679
C -0.8788896291 0.5698641052 0.748632376
C -2.0540279077 -0.2029812825 0.1126256085
C -3.1886134225 0.0969937133 1.1074318592
C -3.2018318683 1.6199200475 0.8311288699
C -3.6218413282 1.6572183882 -0.6677261638
C -2.2431087124 1.0449027427 -0.8841991348
O -1.6685508797 1.0128334143 -2.1380780465
C -1.6943205899 1.8192692587 0.3773759174
H 0.8850004123 1.1477900604 0.1403216374
H -0.6362109001 0.3594918509 1.7991959512
H -1.9134302093 -1.2173067809 -0.2595711425
H -4.1400174803 -0.3786911841 0.8546419377
H -2.9298709054 -0.1714748978 2.1370070438
H -3.6672626613 2.2771824909 1.5628950961
H -4.5195327034 1.1064388477 -0.9669170961
H -3.6518525993 2.6736880136 -1.0703876155
H -0.7596160383 0.7107023993 -2.0036247291
H -1.2856244119 2.8296268198 0.3431809699

