# b3lyp 6-31G(2df,p) opt Freq 

 titel

0 1
C 0.0106456533 2.5494591204 -0.0147438446
C -0.6428718906 1.1924549632 0.0109474755
C -1.7398754567 0.7667514661 1.0541776294
C -2.0288000072 -0.3505914739 0.0040703679
O -3.2587633263 -0.9926486491 -0.1046079139
C -1.6619794608 0.6891820907 -1.0771577636
C -0.7458842366 -1.204058826 0.0837974603
C 0.2621293554 -0.0340807607 0.0894975039
O 1.4616306482 -0.0737632477 0.1438136574
H 0.6187366651 2.7031865708 0.8823432187
H 0.6772994982 2.6420463358 -0.8780624115
H -0.7333799521 3.3498016228 -0.0675221965
H -1.4163781476 0.4794036199 2.0593963252
H -2.5473580656 1.5008863358 1.1033644092
H -3.3143855806 -1.6697507821 0.5783589046
H -1.2717740312 0.3305779113 -2.0338309108
H -2.4625673828 1.4152038548 -1.2360048701
H -0.6657191791 -1.8041814406 0.9971373975
H -0.6036793228 -1.8601446817 -0.7803921684

