# b3lyp 6-31G(2df,p) opt Freq 

 titel

0 1
C -0.0896973152 1.6262386973 -0.1268672828
C -0.0113722255 0.1167740664 0.0415088515
C -1.3714619665 -0.588116285 0.1681131979
C -1.456302104 -0.8970466769 1.7058064649
O -2.1083240441 0.1218222933 2.4617808105
C 0.0131464636 -1.1135316996 2.0765411268
C 0.763333161 -0.4736674541 1.1856634884
C 1.9502798923 -0.6151418991 0.269025372
O 1.0380397337 -0.4303725518 -0.8550335645
H 0.8830801387 2.1022273565 0.0264725132
H -0.4309304133 1.865433008 -1.1394218275
H -0.808205027 2.0553448669 0.5796166253
H -2.2315049599 -0.0075884858 -0.1753570954
H -1.3326968577 -1.5320156576 -0.3835900543
H -2.048647723 -1.7997296321 1.8855201939
H -1.4580797062 0.8085686163 2.6403808617
H 0.3349185222 -1.768697195 2.876853728
H 2.7031213464 0.1824777763 0.3098572642
H 2.4489091244 -1.589448604 0.2548862762

