# b3lyp 6-31G(2df,p) opt Freq 

 titel

0 1
O 0.5837532005 0.0733780048 -1.100565921
C 0.4845860979 0.0108581123 0.1022228757
C 0.1103275295 1.1568797554 0.9713927696
C -0.8589420203 2.1918039868 0.4114033807
C 0.584102117 2.5516803187 0.5636516052
C 1.1086848029 3.4804348991 1.6461083383
C 0.7096148077 3.0281297668 3.0609580285
C 0.8848201388 1.5182321729 3.1924003955
O -0.0066197098 0.8245775261 2.3225229897
H 0.6656897776 -0.9304335012 0.665693724
H -1.2320976433 2.0146121172 -0.5910029362
H -1.5772493046 2.5705037944 1.1299214137
H 1.1460945215 2.5530050804 -0.3657299024
H 2.2036819168 3.4886601774 1.5804448501
H 0.7775325205 4.5079536927 1.457006793
H 1.3231445346 3.5450345295 3.8062522003
H -0.3362081209 3.2771105027 3.2754672791
H 1.9283895332 1.2350730368 2.9790729404
H 0.6374474602 1.168691667 4.1979997257

