# b3lyp 6-31G(2df,p) opt Freq 

 titel

0 1
O 1.1919894402 0.7972647729 0.1622190585
C 0.0962887239 -0.0870189641 -0.0481911037
C -0.9897589873 0.6803693495 -0.7474159909
C -0.7437586203 1.4539392966 -2.0739243743
C -1.9483849709 2.2977069709 -1.6305095589
C -3.1037881029 1.3338012556 -1.1401384881
C -2.341532583 -0.0031868689 -1.0465273972
O -2.9636994803 1.8298678271 0.2260505748
C -1.6001573251 2.0481377116 -0.1503594854
H 1.885643084 0.3136162863 0.619777919
H 0.3993812938 -0.9552572562 -0.6572883292
H -0.2891541746 -0.4768738155 0.9080390036
H 0.1782858547 2.0387249336 -2.040978088
H -0.7946867186 0.8859050266 -3.0079678793
H -2.2212595938 3.2702880067 -2.0354011906
H -4.1250048583 1.3611447273 -1.5175478647
H -2.7381178078 -0.6094919036 -0.2286809793
H -2.3231492967 -0.5891250787 -1.9698141505
H -1.0032575772 2.6697611523 0.5132045742

