# b3lyp 6-31G(2df,p) opt Freq 

 titel

0 1
O 0.5443725181 -0.0725431254 0.5711915456
C -0.7362376753 0.4733237291 0.787586432
C -1.3661810891 0.225041746 2.2062146959
C -0.8572437564 1.3923961208 3.1654432869
C -1.6190662541 2.2096409126 2.1043044456
C -2.6602854985 1.0626746908 2.053168885
O -1.9607322035 3.5572397521 1.7580276375
C -1.6438132441 3.224734923 0.3596018726
C -0.7846624823 2.0274956786 0.8544621868
H 1.1412540371 0.2839003009 1.2380982011
H -1.3715266054 0.0246524689 0.0190727318
H -1.3842640012 -0.8030840597 2.5641922211
H -1.3312874532 1.3064240248 4.14566788
H 0.2156798978 1.5773478661 3.2732675377
H -3.300487447 1.0404755903 2.9371917055
H -3.2548359516 0.9270308791 1.1457572864
H -2.5517744733 2.9676280612 -0.1973393949
H -1.1172344337 4.0440608492 -0.1349608098
H 0.2343060357 2.3982967719 1.0108899432

