# b3lyp 6-31G(2df,p) opt Freq 

 titel

0 1
C 1.0478916694 -0.9474660302 0.2674517586
C 0.8988521611 0.3513082011 -0.5194446473
C 1.5129487126 1.5583284855 0.1744187932
O 2.0414955917 1.4807477613 1.2673368726
C 1.4539846693 2.8455742265 -0.5710135147
C 1.5067614145 4.1076694525 0.2886614702
C 1.5131146765 5.3233550192 -0.6301008911
O 2.653589963 4.7935092727 -1.3704504817
C 2.7184185568 3.6946167408 -0.4739740126
H 0.5818834054 -0.8616464231 1.2521907089
H 0.5812012581 -1.7793230084 -0.2673642977
H 2.1020828227 -1.1868552711 0.4287170042
H 1.3530125152 0.2709167451 -1.5170728568
H -0.1589621506 0.5831714062 -0.7098594256
H 0.9136717501 2.8604594976 -1.5136306189
H 1.3024980764 4.0683503441 1.3486549719
H 0.6417153255 5.4935809464 -1.2720550501
H 1.7919440752 6.2515306101 -0.1205920306
H 3.6805993671 3.2933610236 -0.1820275025

