# b3lyp 6-31G(2df,p) opt Freq 

 titel

0 1
O 1.5376170376 0.6260276787 0.1944921261
C 0.5020819829 -0.2360062979 0.6363006982
C -0.4062044225 0.4179137383 1.7068838608
C -1.5695594844 -0.5265364692 2.0965117514
C -1.2247571272 -1.5209523245 3.1827921267
O 0.04728988 -2.1616735862 3.1248496493
C -0.1805817235 -1.172371402 4.1624409263
C 0.5100170828 0.1312756558 4.0195099095
C 0.3944277982 0.8604038822 2.906284179
H 2.2016608338 0.6591886229 0.8899607591
H -0.1040531412 -0.4571387704 -0.2499019936
H 0.8946369805 -1.181505926 1.0283896751
H -0.8307488133 1.3123063314 1.2344968652
H -2.4180199012 0.0656685753 2.4620071341
H -1.9257025756 -1.0590566846 1.2057982556
H -2.0405494578 -2.1714100411 3.5019140256
H -0.2248737702 -1.6032940196 5.1602691116
H 1.1009795371 0.4831838571 4.8598277275
H 0.9101356342 1.8139656797 2.8309047925

