# b3lyp 6-31G(2df,p) opt Freq 

 titel

0 1
C -0.3102851079 1.3833739122 -0.0890597822
O -0.0769716133 -0.0111779605 0.3303272204
C 1.2947589434 0.1205168542 -0.1503160653
C 1.4285790939 -0.2322565594 -1.6557591059
C 2.8515959556 0.2887897276 -2.0061959488
C 3.2248794919 0.9639401552 -0.6835855757
C 2.7224789212 -0.1123962739 0.3685685195
O 2.3371555991 2.1433526627 -0.5806174305
C 1.221002939 1.5935249545 0.1000656393
H -0.7006452625 1.4372540527 -1.109323798
H -0.9718431389 1.904928476 0.6053938509
H 1.3314481673 -1.3149401243 -1.7760762258
H 0.6513441915 0.2329344573 -2.2635280288
H 3.5443744801 -0.5216999741 -2.2524271961
H 2.8561272324 1.0087624748 -2.8265748833
H 4.2527051709 1.3070782078 -0.5728319416
H 3.1835478329 -1.0827438488 0.1677577099
H 2.8736135156 0.170305204 1.4107917315
H 1.3284681178 1.7944174518 1.1747822904

