# b3lyp 6-31G(2df,p) opt Freq 

 titel

0 1
C -6.0186137489 2.0471958286 -2.3688508752
C -5.8134937728 2.7890572149 -1.0393905276
O -5.4938423816 4.1636785859 -1.2550457636
C -4.8133653433 2.1218059251 -0.2010200383
C -3.9533118583 1.589308739 0.456568835
C -2.9416944283 0.9624042822 1.2537961786
C -2.7570653179 -0.5574720683 1.2282311172
C -1.72404122 0.3380240908 0.6122263321
O -0.5195595302 0.5631866648 1.2783784393
H -6.3622326272 1.0230395854 -2.1957485781
H -6.7618502495 2.5778579608 -2.9696467212
H -5.0795803629 2.0020694113 -2.9298770088
H -6.7705961199 2.8150737008 -0.5036287359
H -4.5714510206 4.201458171 -1.5312549545
H -2.736162788 1.4260395471 2.2141577468
H -2.5094309826 -1.0223540549 2.1758421664
H -3.4044131146 -1.1322277723 0.5764877191
H -1.6750677386 0.3787566393 -0.4750831297
H 0.0192699852 -0.2311737714 1.1967902183

