# b3lyp 6-31G(2df,p) opt Freq 

 titel

0 1
O 1.6121241575 1.0589459466 0.2678707002
C 0.8882516498 -0.0488835286 0.7890339449
C -0.577940168 0.2211343872 0.8393011395
C -1.6661004529 -0.3925159141 0.3693162569
C -2.8114717525 0.5335689655 0.8082025784
C -2.1985160123 1.9360901834 0.4506725662
C -1.1740351292 1.4755192561 1.5256242558
O -0.2842732351 2.4086158945 2.0852476588
C -2.3893410699 0.8489690734 2.2869005865
H 1.3293700101 1.8290823332 0.7789504997
H 1.1004819019 -0.9048389929 0.1405680431
H 1.2572988262 -0.3142986859 1.7971377727
H -1.7579686766 -1.3108533488 -0.1942050563
H -3.8345503679 0.2712678437 0.5497593718
H -1.827392505 2.0812735006 -0.5652559019
H -2.8139258068 2.7787113346 0.7797505375
H 0.0101151925 2.0740293899 2.9395628779
H -2.1933077489 -0.0007096487 2.9458487951
H -3.0241360528 1.5961034402 2.7734261031

