# b3lyp 6-31G(2df,p) opt Freq 

 titel

0 1
O 0.6884509687 0.6825026863 0.8954787391
C -0.7241470681 0.5023449993 0.8566116288
C -1.3423662716 0.5067345594 2.2925190355
C -1.5211901826 2.0073282784 2.6774016106
C -1.8058489935 2.643295013 1.3397814857
C -2.7820656957 2.0697343615 0.364200381
C -1.3035931532 1.7551526529 0.2290083546
C -0.5575041242 3.0120526 -0.2320895688
O -1.1609035842 3.8190818717 0.8304489525
H 1.072270018 -0.0890087243 1.3230655424
H -0.9724554454 -0.4266990696 0.321963305
H -2.3107531945 -0.0056023949 2.2821872742
H -0.7077109642 -0.0386600295 2.9984516334
H -2.2895550988 2.1512473087 3.4430113046
H -0.5802049426 2.4179696925 3.0554480217
H -3.4258315421 1.2671074186 0.7063277029
H -3.2353531858 2.7344692576 -0.3638869894
H 0.5237661316 2.9388489163 -0.0995902042
H -0.7972267018 3.407131362 -1.2260620196

