# b3lyp 6-31G(2df,p) opt Freq 

 titel

0 1
O -3.9406176412 2.1612263478 0.4990750187
C -2.5758460513 1.9387439624 0.3559412917
C -1.9721347947 0.5470812312 -0.0020437174
C -0.6921000566 1.1911157539 0.5481326854
O 0.4821469617 0.5108615346 0.83847967
C -0.4686910337 2.6159426101 -0.1147009802
C -0.5876995503 3.2421053633 1.3036773658
C -1.5260494026 2.0560475779 1.5582871545
C -1.887383363 2.8456981423 -0.6759838572
H -4.289003914 1.5288759752 1.1355779683
H -2.3257690362 -0.2404936461 0.6761506174
H -2.0287655206 0.2035627146 -1.0396806169
H 0.2710041763 -0.229507563 1.4171624132
H 0.3889549402 2.8008268133 -0.7601715831
H 0.3356192679 3.143284053 1.8799383985
H -0.970385432 4.2646142349 1.3779039973
H -1.8458891727 1.7012803806 2.5399177734
H -2.2050760244 3.8897357594 -0.6085669843
H -2.0367177928 2.4934517947 -1.7000919853

