# b3lyp 6-31G(2df,p) opt Freq 

 titel

0 1
C -0.0053248426 -0.0161124459 0.094066993
C 1.5012921482 -0.0868937963 0.1001039598
O 2.0219290054 -0.8586810791 -1.0761190675
C 2.97854886 -1.4092552592 -0.1736372641
C 4.1568824887 -0.5296808589 0.3606277186
C 3.6876238874 -1.4016726706 1.532069247
C 3.6562217484 -2.641000543 0.4951846754
C 2.1940225544 -1.1388754258 1.0842526802
O 1.2703024473 -2.1230796746 1.4950680622
H -0.3563794908 0.5654512182 0.9539219315
H -0.3452177295 0.4852166093 -0.8174189965
H -0.4394751351 -1.0146445898 0.1394358297
H 1.9449147106 0.9115403855 0.0945084263
H 5.1417613565 -0.7589305264 -0.0487437407
H 3.9986877407 0.5451998628 0.4455910528
H 4.109957976 -1.4400320113 2.5383610626
H 4.6314211441 -2.9625834207 0.1210526951
H 3.0075339597 -3.4703766606 0.763753042
H 1.0466115804 -1.9384041738 2.4118907623

