# b3lyp 6-31G(2df,p) opt Freq 

 titel

0 1
C 1.6185347857 0.5671230664 0.8228768588
O 0.2602008147 0.7149215076 1.1605236884
C -0.6016624155 0.034219413 0.266968747
C -2.0048281175 0.2045994388 0.7188757678
C -2.951974775 1.4059928568 0.7637663321
C -3.2661356482 1.1599671927 2.2393033291
C -2.8619052503 -0.3060492847 1.9453008854
O -3.906603707 -0.7807177839 1.0446552208
C -3.3418438569 0.0904026749 0.0677609319
H 1.8399379637 0.97913252 -0.1749736477
H 2.2022897738 1.1141386959 1.5670519754
H 1.9312476231 -0.4894501755 0.8317361826
H -0.492524007 0.4338968991 -0.7570318344
H -0.333330746 -1.0357942931 0.2229467878
H -2.858607418 2.3435277674 0.2306316792
H -2.5379793406 1.6551776303 2.8855162749
H -4.2864039818 1.3167472763 2.6029192542
H -2.591713952 -1.0250489431 2.7155334168
H -3.6438787452 -0.0063531289 -0.9670692503

