# b3lyp 6-31G(2df,p) opt Freq 

 titel

0 1
C 1.6771510461 -0.0802761046 1.166626024
C 1.7545797646 0.3372036121 -0.3051662671
C 2.2016480155 -0.792295471 -1.2108543321
O 1.2259179189 -1.9052489483 -1.2272327673
C 1.0381089371 -1.7913104583 -2.5869853904
O 0.3262724686 -2.4399366189 -3.2866517721
C 2.007554056 -0.6571135225 -2.7191223595
C 2.9809932154 -0.4349638265 -3.8435149082
C 1.8724114525 0.5495430925 -3.607948286
H 0.9776697996 -0.9110026297 1.2935593073
H 2.655048538 -0.403684186 1.5396680363
H 1.3384623328 0.7508008424 1.7914975871
H 0.7793344704 0.699015469 -0.6508854539
H 2.4620252229 1.1682928991 -0.426659557
H 3.1781615294 -1.1885469993 -0.9123592545
H 3.9914645727 -0.1445654934 -3.5758527673
H 2.9069531829 -1.1047448442 -4.6933028245
H 2.1243364156 1.5133076916 -3.17859497
H 1.0336297609 0.5600692261 -4.2952331346

