# b3lyp 6-31G(2df,p) opt Freq 

 titel

0 1
C 2.0886972992 -2.3778665594 1.9537872517
C 0.6225133116 -2.3325891387 1.6737652314
O -0.1054035928 -3.5789204867 1.7036171663
C -0.5701875838 -2.5034487116 2.5277665345
C -1.4201052691 -1.5812749776 1.636841147
C -0.1668005098 -1.4181314618 0.7411619936
C -0.0656356025 -1.3320129154 -0.7594795316
C 0.301223856 -0.1479608038 0.0834107203
O 1.6579690476 0.1995790648 0.0901053017
H 2.289024964 -3.0875226493 2.7608197915
H 2.6459849891 -2.6971516635 1.0669944392
H 2.4677557379 -1.3933877725 2.2412205737
H -0.6590520536 -2.6934254391 3.5918098155
H -2.2947861575 -2.0570912637 1.1854606244
H -1.7170429363 -0.6500544759 2.1292338543
H 0.7579106264 -1.8582716402 -1.231309101
H -0.9780930921 -1.292621491 -1.3449487286
H -0.3882197014 0.6978974241 0.0944414346
H 1.844610567 0.6572307513 0.9165778715

