# b3lyp 6-31G(2df,p) opt Freq 

 titel

0 1
O -3.3604282336 -2.6742207678 5.4310410696
C -3.5743533356 -1.5074537219 6.2121003815
C -3.0131849199 -0.3390044125 5.455452492
C -3.0015356993 1.1552126946 5.900103095
C -2.3104550938 1.1261519207 4.5109632028
C -3.4406576898 0.150331661 4.0377207483
C -1.536733966 -0.1482370514 4.9905983077
C -1.7490720173 2.2712841933 3.7454324445
O -1.7650702941 3.4179750958 4.1197118098
H -3.7183344586 -3.4276585874 5.9095797078
H -4.6473916773 -1.3386011958 6.4010670665
H -3.0758579964 -1.5804044605 7.1928294936
H -3.9682323848 1.6620882778 5.950526034
H -2.3671542592 1.4109864682 6.7522514002
H -4.4393287138 0.5860802321 3.9466697839
H -3.2054544587 -0.5121738035 3.2024926494
H -1.1778628101 -0.8303926529 4.2174912272
H -0.7903849014 0.0135040056 5.7731171666
H -1.2963882504 1.9916341448 2.7648160997

