# b3lyp 6-31G(2df,p) opt Freq 

 titel

0 1
C 1.3125227631 -0.3332186467 -0.0362829886
O -0.0456102699 -0.3444253079 0.3443551377
C -0.3866419516 0.6585777512 1.2988109053
C -0.0740051513 0.2419264955 2.7596016425
C -1.3948481136 -0.3496512539 3.3188386018
C -1.4305952501 -1.869728373 3.1954312605
O -1.7971391224 -2.62153487 4.060079507
C -2.4336321023 0.2479257304 2.3902846868
C -1.8898740108 0.7925008224 1.3034701555
H 1.9883873941 -0.5407778358 0.8072494123
H 1.4432854933 -1.1165389993 -0.7866718909
H 1.6017924804 0.6336298931 -0.4766579591
H 0.1246385103 1.5938697731 1.0241654554
H 0.7673286691 -0.4557053917 2.8087477379
H 0.1953640311 1.122068748 3.3502601955
H -1.5684455556 -0.1009502444 4.3696853969
H -1.0896810777 -2.2355529585 2.2007176211
H -3.4949169832 0.176699243 2.5999118177
H -2.4301866232 1.2366065246 0.4761986847

