# b3lyp 6-31G(2df,p) opt Freq 

 titel

0 1
O 2.5722952489 2.0183961117 -2.7850692054
C 2.6684062941 1.238717016 -1.6053632634
C 1.3360368514 1.1058030355 -0.8666910275
C 1.4617856337 0.3203313663 0.4461899387
C 0.1385951461 0.1857408027 1.1579030743
O -0.355626468 1.3448715132 1.8270003218
C 0.0272144383 0.2147835475 2.6319281473
C -1.0153960925 -0.4854767821 3.3322422784
C -1.8705164332 -1.0783758254 3.9338851354
H 1.9624026841 1.5745762642 -3.3829805263
H 3.0807805047 0.2379466831 -1.8177789614
H 3.3972076813 1.7550028547 -0.9703031545
H 0.9404511273 2.1063447429 -0.6611132796
H 0.6089835885 0.6065373857 -1.5238773179
H 1.8577655777 -0.6849722199 0.24838928
H 2.1749814562 0.8212991427 1.1114542447
H -0.6333185101 -0.3699114182 0.6222635277
H 0.9435086321 0.3719301384 3.2006738869
H -2.6301043206 -1.5996780491 4.4624498608

