# b3lyp 6-31G(2df,p) opt Freq 

 titel

0 1
C -1.6864009958 3.0892575637 2.7540455216
C -0.6650091124 2.5341946898 1.7659527441
C -1.2844690784 1.6613572625 0.6947399332
O -2.4683893616 1.4254403454 0.6267196473
C -0.3517577981 1.050039807 -0.3539485438
O 0.9867780896 1.4232130093 -0.127855347
C 1.8748750437 0.8724779213 -1.0842065596
C 3.2387090015 1.2938529167 -0.7966189203
C 4.3722959555 1.6260719791 -0.582341982
H -2.216876062 2.2812821581 3.2646127037
H -1.1945875974 3.7109513753 3.5071319
H -2.4380081822 3.6954638441 2.2416704719
H -0.104798612 3.3312590527 1.2597748332
H 0.1129624057 1.9420280436 2.2654695269
H -0.4790440171 -0.0447316207 -0.318608879
H -0.7021420405 1.3785366239 -1.3465902539
H 1.8141363162 -0.2290241102 -1.0734818939
H 1.5909034565 1.1944386514 -2.1004814858
H 5.3734121289 1.922634437 -0.3878123264

