# b3lyp 6-31G(2df,p) opt Freq 

 titel

0 1
C 0.7136771279 -1.1666048488 -1.1919650367
C 0.6436746416 -0.1244363529 -2.3475647947
C 1.3315361546 1.1606574832 -1.8317049494
C 2.8333840071 1.3653868284 -2.0545343268
O 3.2749749469 2.1709598193 -0.9528882684
C 2.4659969883 1.9091508328 0.1983742957
C 1.3602541254 1.0163860736 -0.3202000445
O 0.1299408166 0.7464643291 0.327142121
C 1.0253463965 -0.3593745372 0.0516036167
H -0.208309446 -1.7490088854 -1.1024200119
H 1.530687306 -1.8817607854 -1.3447390318
H 1.097812411 -0.503646972 -3.2678148246
H -0.3992637696 0.1010419577 -2.5800275401
H 0.7933512062 2.0623835155 -2.1416801992
H 3.3640701232 0.3987895324 -2.06675212
H 3.0822275136 1.9033722791 -2.9728869176
H 3.0617895356 1.4327834119 0.9879392312
H 2.0763951391 2.8584867952 0.5867053918
H 1.429966226 -0.8385795264 0.9398469892

