# b3lyp 6-31G(2df,p) opt Freq 

 titel

0 1
C -5.0628291893 -5.3236373472 0.1202076951
C -3.8663625678 -4.5584445201 0.4413097779
C -2.8745375221 -3.9344695463 0.7174550509
C -1.6807097613 -3.156488959 1.0237834069
C -1.4921221568 -1.9841348275 0.0565721038
O -0.316319016 -1.2978726897 0.4356391058
C -0.0235962835 -0.1912569657 -0.3755524645
C 1.2544333369 0.4493203595 0.1383692317
O 1.7578467547 1.422000156 -0.3562607175
H -5.7695008576 -5.3287237706 0.9574234107
H -5.5825197415 -4.9034165382 -0.747972106
H -4.8187799231 -6.3657947627 -0.1136490395
H -1.7299906921 -2.7592867883 2.0450194181
H -0.7857522986 -3.789199449 0.980772849
H -1.4099564521 -2.3542019838 -0.9772821417
H -2.3643064597 -1.3132391269 0.0983888559
H 0.1232324188 -0.4769185389 -1.4312677581
H -0.8295030899 0.5623200253 -0.3573558954
H 1.6861506811 -0.0689480171 1.0228655967

