# b3lyp 6-31G(2df,p) opt Freq 

 titel

0 1
C 1.2649454964 0.8138661083 -0.0678614262
C -0.0981351217 0.1877847021 0.0281755107
C -0.3035000443 -1.1250721874 0.2241793733
C -1.6561104843 -1.7780500289 0.2949050242
C -2.7333636116 -0.9343531033 -0.3964566755
O -4.0305043772 -1.4853579296 -0.2544548788
C -2.6471728835 0.5134004026 0.0931215978
C -1.2578352477 1.1131509057 -0.1036407411
O -1.1012562719 2.2961434345 -0.3320214018
H 1.3959375135 1.5812537594 0.7020976614
H 2.0546199461 0.066152814 0.0395236122
H 1.3882361866 1.3245495479 -1.0282219396
H 0.5587653596 -1.7798547819 0.3371801088
H -1.6220896765 -2.7793148336 -0.1479896342
H -1.9385190117 -1.9268899691 1.3505494447
H -2.5434410009 -0.9524196736 -1.4765115782
H -4.2717831526 -1.4429978955 0.6777633805
H -3.3810348319 1.153200724 -0.4019944394
H -2.8645241564 0.5377036543 1.1730786312

