# b3lyp 6-31G(2df,p) opt Freq 

 titel

0 1
C 3.4390859849 0.7787510899 3.2347732617
C 2.2105115779 0.0454867585 2.7011505525
O 1.1999444109 0.9573339912 2.3023723931
C 1.2070228602 1.2719752038 0.9340035006
C 2.5499228497 1.1898040943 0.1367885295
C 1.6870637834 0.9856808076 -1.1327898165
C 0.9954596979 0.0997992367 -0.0707649076
C 2.4204180468 -0.3510763423 0.3703097706
O 2.5610845763 -0.863210674 1.6700838566
H 3.14752005 1.4245894134 4.0677996438
H 4.1748275142 0.051475717 3.5894405952
H 3.9036183283 1.3955741954 2.4620940956
H 1.7690984234 -0.5617240878 3.4992737985
H 0.5930553687 2.1660275054 0.8035225488
H 3.4358388368 1.8176206229 0.2359490579
H 1.1262726926 1.8571929621 -1.4794679041
H 2.1681737678 0.4635109821 -1.9634991733
H 0.1090562639 -0.5244379683 -0.1813920354
H 2.9706381064 -1.0143257581 -0.3010091176

