# b3lyp 6-31G(2df,p) opt Freq 

 titel

0 1
C -0.0837238598 -0.0456952263 0.1265622516
C 1.4311830587 -0.0344385432 -0.0443591039
O 2.0274284646 -0.5377875406 1.1354723254
C 2.169285639 1.2119355941 -0.6264498238
C 1.6152474431 0.8327463373 -2.0357135054
C 2.079179016 -0.5104925188 -1.3905348034
C 3.3723057091 0.2750436587 -0.9543264236
C 2.0294309822 -1.896590143 -1.9210831547
O 1.6253145208 -2.8316207703 -1.2668401207
H -0.3417524157 0.4952088672 1.0415531675
H -0.6318573515 0.402461141 -0.7035465456
H -0.4337983724 -1.0779500905 0.2358324407
H 1.7822400709 -1.4682201302 1.197241948
H 2.2148536204 2.2094033529 -0.1878412575
H 0.5515684001 0.9613810284 -2.2323970127
H 2.2135757859 1.1834891452 -2.8789227466
H 3.9217664972 -0.138734157 -0.1133574642
H 4.023050488 0.5995424002 -1.7689333325
H 2.4033348933 -2.0452315753 -2.9595657686

