# b3lyp 6-31G(2df,p) opt Freq 

 titel

0 1
C 0.4694273226 -2.6157221941 0.1110851117
C -0.3439611899 -1.3612603933 0.0461167611
C 0.0519934554 -0.0999794469 -0.1882359986
C 1.4151046836 0.4200475779 -0.5115260738
C -1.1315131931 0.8734413878 -0.2044572172
O -1.2543710861 1.5610809515 -1.4413621212
C -2.3332891811 -0.0268298339 0.0828591287
O -2.5556609266 -0.9595423499 -0.9852905119
C -1.836760645 -1.395054381 0.2056041927
H 0.3300638465 -3.1270978463 1.0720641517
H 0.1614382054 -3.3248666198 -0.6677260666
H 1.5375941965 -2.4225279675 -0.0100150065
H 1.7695151227 1.1061004814 0.2692144136
H 2.1558195846 -0.3747216305 -0.6248701601
H 1.3783374594 0.999575034 -1.4406624883
H -1.0229593047 1.6536480132 0.5590218426
H -1.5437679968 0.890294653 -2.0748663652
H -3.2254091035 0.3536039237 0.5713416198
H -2.3394251398 -2.1712130392 0.7755364076

