# b3lyp 6-31G(2df,p) opt Freq 

 titel

0 1
C 0.7968932336 -1.5591662286 1.4101156334
C 0.6628002491 -0.8867633728 0.0558540442
C 1.980532476 -0.1948175187 -0.2870832405
O 2.0161361961 0.4914654689 0.9976822613
C 0.7366352892 -0.0675387716 1.3281428545
C -0.4028312851 0.7912642018 1.8051098573
C -1.4493073901 0.862201958 0.6702423004
O -1.6993692883 -0.4135328543 0.0934518786
C -0.6241976437 -0.8815299137 -0.723958915
H -0.1071657002 -2.0421530399 1.7669077495
H 1.7301152466 -2.0427901367 1.6842124059
H 2.8655254089 -0.8225976115 -0.4445327469
H 1.8894908604 0.5280189159 -1.1071838128
H -0.859767845 0.376842973 2.7091067506
H -0.0354562031 1.7936281467 2.0450923644
H -2.4125155633 1.2159284233 1.0475302336
H -1.1070735576 1.5634036909 -0.1082388008
H -0.934608231 -1.8732017207 -1.067462381
H -0.5157402626 -0.2307149402 -1.6086321066

