# b3lyp 6-31G(2df,p) opt Freq 

 titel

0 1
O 0.2574689657 0.394360518 0.2866769163
C -0.6098440063 0.9921904364 1.2220312867
C -1.596807044 0.0418996015 1.976087777
C -0.9941763574 0.4833033131 3.3407031013
C -1.683695174 1.5847525511 4.177417141
C -1.9548943627 2.7471355482 3.1993165004
C -0.4104191569 2.7444096528 3.2475742418
O -0.5139758788 2.3344119425 4.6546114183
C 0.0163294105 1.4134487776 2.5892326224
H 0.7216300955 -0.3276313517 0.7239757281
H -1.0904113226 1.8094032995 0.6773913776
H -2.664151525 0.2299843706 1.8282679679
H -1.4033411422 -1.0071772836 1.7335006372
H -0.5984383171 -0.3092247739 3.9764396182
H -2.3769864148 1.2953593366 4.9669673883
H -2.4868944882 2.5738240557 2.2621130362
H -2.3596399471 3.6128393938 3.7231706429
H 0.1933772784 3.6370931238 3.086577068
H 1.0865565969 1.2196316881 2.6831684004

