# b3lyp 6-31G(2df,p) opt Freq 

 titel

0 1
C -0.1328198396 2.0480959421 0.9498744729
C 1.2131157387 1.2480691761 0.9092289896
C 0.6935382357 0.5955702732 -0.3574929788
C 0.7401746065 -0.5973800554 -0.930507044
C -0.1714920762 -0.9456658444 -2.0845535887
O -0.6646279714 0.2072848808 -2.7579174357
C -1.7920324261 0.8248558488 -2.2037844008
O -1.6509547527 1.1930450704 -0.8516717965
C -0.3600281267 1.6730791514 -0.5385267197
H -0.8773103825 1.552922141 1.5763457688
H -0.0877481008 3.1098590788 1.199024215
H 2.0730798261 1.9035020712 0.7333162558
H 1.4430493876 0.5973229539 1.7562212162
H 1.4146929816 -1.376885456 -0.5827114372
H 0.3773928832 -1.5213041651 -2.8391311958
H -1.0073157494 -1.5800245899 -1.7439738518
H -1.9573989584 1.7053078779 -2.8419815016
H -2.6757173416 0.169614114 -2.2286459535
H -0.0585129942 2.4801412412 -1.2228435843

