# b3lyp 6-31G(2df,p) opt Freq 

 titel

0 1
O 1.2108608717 0.2915269155 0.0907549741
C 0.0393429912 0.0875371966 0.0654172773
C -0.9006178134 -1.1149477631 0.0167358802
C -2.0165565299 -0.0557484329 0.0368900762
C -2.9288010849 0.0737890685 1.2514991488
C -3.9021542179 1.1841842867 0.8289882896
C -4.1976469166 0.8687793434 -0.656346525
C -2.9360263405 0.1234453509 -1.1796196914
O -0.9708982542 1.0092956621 0.071703172
H -0.8163735717 -1.7096930371 -0.8949541527
H -0.8411886827 -1.7698485241 0.8882218687
H -3.464019751 -0.8743354132 1.3928780346
H -2.3692684759 0.2871143542 2.1657808817
H -4.8045495291 1.2230253874 1.4440239731
H -3.3991856358 2.1527412673 0.9177871037
H -5.0763622961 0.2213583501 -0.7379527306
H -4.414705403 1.7707818947 -1.2328775546
H -3.1972448338 -0.8559634003 -1.5919135877
H -2.4080460164 0.6738489732 -1.9618711379

