# b3lyp 6-31G(2df,p) opt Freq 

 titel

0 1
C 0.039240737 0.0416877739 0.0342907728
C 1.5612459637 0.0054973025 -0.0290196896
C 2.176751784 -0.7492843287 1.1772010322
O 3.603468653 -0.7120303514 1.1083395164
C 4.0398376645 -0.008435777 -0.0466655648
O 3.6073067921 1.3433069743 0.0256175345
C 2.1808130598 1.4253425131 0.0315739507
C 3.4608545436 -0.6580438381 -1.2818586205
C 2.1285781958 -0.6493340145 -1.2700271601
H -0.3100103509 0.5251766242 0.9526788698
H -0.3744655769 0.5952526622 -0.8151584528
H -0.3774403689 -0.9706540247 0.0080899254
H 1.8624495805 -0.2686399773 2.1140102447
H 1.8426444562 -1.7950696001 1.1924995789
H 5.1282804412 0.0104620461 -0.0069348418
H 1.8665163196 1.9271166048 0.9572399255
H 1.849818659 2.0302998524 -0.8228259061
H 4.0910676939 -1.0695252489 -2.0606775379
H 1.4883368628 -1.0566613228 -2.0454904474

