# b3lyp 6-31G(2df,p) opt Freq 

 titel

0 1
C 4.3254803122 0.0748820343 -1.5301229012
C 3.8945309482 0.1078404556 -0.0554378681
C 2.4403372758 0.0974903814 0.0967961791
C 1.2396493539 0.1036611087 0.2071812675
C -0.2190809296 0.1608579223 0.3101998712
O -0.8415728979 0.7798653497 -0.8060362865
C 4.4848740405 1.3387096749 0.6834777746
C 4.3219520818 1.3574656749 2.189772635
O 5.0553425921 2.211756715 0.0782599228
H 3.9152597255 -0.8090227107 -2.0235064225
H 3.9708743134 0.9667021207 -2.0498419589
H 5.4153200105 0.0540896402 -1.6041565257
H 4.2918864651 -0.7806729019 0.4586299191
H -0.6341294011 -0.8521642767 0.3576834777
H -0.4968655119 0.6598846386 1.2528379288
H -0.4085598249 1.6288537864 -0.9439865366
H 4.9228154761 0.5529985781 2.6310771925
H 4.65824834 2.3154814588 2.5873099226
H 3.2815435604 1.1707025698 2.4694710487

