# b3lyp 6-31G(2df,p) opt Freq 

 titel

0 1
C 2.0469159024 0.3001022408 0.6180025462
C 1.4218793266 0.5044937929 -0.7663477365
C 1.8555731713 -0.5241303602 -1.775417845
C 1.0464105174 -0.9318166553 -2.9722268293
C 1.3600968086 -1.9453151674 -1.8820780428
C 2.5891966987 -2.8018679557 -2.0736468913
C 3.7409834858 -1.7965022593 -2.189736717
O 4.892020793 -2.0151834135 -2.4234568816
O 3.2649368168 -0.5304276142 -1.9915328024
H 1.761338536 -0.6683470344 1.0422071757
H 3.1379511819 0.3340786132 0.5587681432
H 1.7195258596 1.0802714145 1.3109232906
H 0.3283907336 0.4687582526 -0.7004875328
H 1.6770359323 1.50054939 -1.1485725331
H 0.0244562365 -0.5736639045 -3.0328849639
H 1.5563152973 -1.0166527698 -3.9271201979
H 0.5522886095 -2.3000511567 -1.2533990515
H 2.7837640111 -3.4534336554 -1.2155998709
H 2.5776576215 -3.4362847173 -2.9646115297

