# b3lyp 6-31G(2df,p) opt Freq 

 titel

0 1
C 1.4726959033 0.0062804338 0.042799614
O 0.0495469799 0.0196208651 0.0320351556
C -0.5146783548 0.635579845 1.1405309898
C -0.4437868726 -0.099553559 2.5223718532
C -1.9960407253 -0.0271458317 2.6409565301
C -2.0789137104 0.7624248263 1.3112773303
C -1.9475157858 2.3038178308 1.4709504612
C -0.4265575845 2.17346116 1.2514162144
O 0.4598131014 2.9657749387 1.098739564
H 1.8631123625 -0.5460445163 0.9096203793
H 1.7865507001 -0.5040509301 -0.8701533601
H 1.8814804655 1.0222794439 0.0559032329
H -0.070468576 -1.1180978173 2.3943546522
H 0.1366842169 0.3910528002 3.3070071492
H -2.4707829933 -1.0093484306 2.5950415871
H -2.3852614195 0.4986243895 3.5166654499
H -2.7641040458 0.414455486 0.5405813888
H -2.4162194955 2.882487827 0.6683293578
H -2.2564630265 2.7326194388 2.4287908103

