# b3lyp 6-31G(2df,p) opt Freq 

 titel

0 1
C -1.8437370765 4.2149511441 1.5906473443
C -1.6216587851 2.7258687518 1.455304926
C -2.7192087024 1.8402956502 2.0138618783
C -2.6294998424 0.4003127586 1.5947466774
C -1.8115769213 -0.0582714531 0.6509566068
C -0.8361693354 0.7873816621 -0.1216764116
O 0.4592722314 0.1870914779 -0.1392668512
C -0.7340531392 2.2048188735 0.4016384404
O -0.2839220742 2.2934532402 1.7637206464
H -2.0011932077 4.4863026684 2.6405027388
H -0.9758936913 4.7672796167 1.2225507351
H -2.7271528983 4.5316275786 1.0261345201
H -2.7016280739 1.9119846029 3.1105674594
H -3.6932179522 2.2528759881 1.7129862704
H -3.2959762131 -0.28852071 2.1084743793
H -1.7953552323 -1.1150611917 0.3982501354
H -1.1370621468 0.8265228704 -1.1773419804
H 0.7850407203 0.243165493 0.7680119882
H -0.2455518897 2.9105290984 -0.2709866232

