# b3lyp 6-31G(2df,p) opt Freq 

 titel

0 1
O 0.1136707118 1.3694717617 0.001196709
C 0.0738146524 -0.0355388927 0.0477250675
C 0.1477780626 -0.6570308387 -1.4184119937
O 0.7429507808 0.1374748822 -2.4123166685
C -1.3580072285 -0.7241371549 -1.3392106277
C -2.4540211326 -0.2715972212 -1.9417803416
C -3.4948455999 0.0939032448 -0.8866726842
C -2.6396500149 0.2941534897 0.4091104416
C -1.3930669229 -0.5785360909 0.1623171588
H 0.8968451413 1.6043745777 -0.5123110281
H 0.7959834244 -0.4383907842 0.7705334688
H 0.6624873047 -1.6223854141 -1.4214857621
H 0.1365832153 0.8713134973 -2.5690454575
H -2.5937336344 -0.09410384 -3.0023449864
H -4.0499210993 0.998288182 -1.1589449236
H -4.2442695089 -0.6998973976 -0.7580704803
H -2.3363806331 1.3422119673 0.4853806394
H -3.1843583356 0.0325603916 1.3202595461
H -1.4026136131 -1.5211621501 0.7202513825

