# b3lyp 6-31G(2df,p) opt Freq 

 titel

0 1
C 1.4963362106 -0.2731084784 0.0539075804
O 0.1490058009 -0.4130111482 0.5206579892
C -0.3890792237 0.6948432814 1.0750026099
O 0.2017749023 1.7427375829 1.1650964776
C -1.7846278372 0.4107706844 1.5871263597
C -2.6554920178 1.6798473637 1.7595077917
C -3.391876309 1.4265319179 3.0517734543
C -2.9049293986 0.3819295811 3.7171355074
C -1.7493231828 -0.2695078312 2.9975417472
H 2.1639370951 0.0028266546 0.8742612946
H 1.7729308723 -1.2461891409 -0.3523697375
H 1.5588512837 0.4960799275 -0.7200931301
H -2.2618707555 -0.2834317313 0.8913528302
H -2.0193820321 2.5707725574 1.8292640913
H -3.3255179269 1.8350511195 0.906512886
H -4.1984201217 2.0656634053 3.3935776437
H -3.245866393 0.0390823281 4.6877777488
H -0.8040839942 -0.0693167637 3.5214132391
H -1.8372767724 -1.3581751102 2.9233221866

