# b3lyp 6-31G(2df,p) opt Freq 

 titel

0 1
C -0.0949830437 0.0614436129 -0.1352881531
C 1.4143841773 -0.0107999434 0.0234872668
O 1.9809921246 1.2848852484 0.2982447502
C 2.663099677 1.0713617116 1.5172063334
C 3.3877052519 -0.3049766161 1.5181422678
C 3.1287617202 -0.4043706385 3.0395802787
C 1.8152426638 0.1963547084 2.4847361004
C 1.9103607325 -0.7801844876 1.2491343559
O 1.5030854909 -2.1044097832 1.2695036376
H -0.5652355347 0.4535076471 0.771530714
H -0.3593723978 0.7173611202 -0.9693757525
H -0.4973570065 -0.9364490309 -0.3333641085
H 1.8701590649 -0.41361548 -0.8915244861
H 3.162578685 1.9746386467 1.8619829068
H 4.2812182044 -0.5829921842 0.9580832472
H 3.0734288511 -1.4095724353 3.4698589309
H 3.7308254421 0.2402387969 3.6859085058
H 0.920318971 0.4921174925 3.0326241415
H 1.8408523061 -2.5272551755 2.0663897732

