# b3lyp 6-31G(2df,p) opt Freq 

 titel

0 1
C 1.539987742 -0.0335182366 -0.0205230244
C 0.0859098306 -0.0728944138 -0.0241999528
C -1.1181385833 -0.1031485458 -0.0212073954
C -2.5539282876 -0.136965381 -0.0500531335
O -3.2609291848 0.6025909655 0.9729010081
C -3.3495824155 -0.817993324 0.988754145
C -4.7124011936 -1.416781412 0.6941217753
C -5.6709707563 -1.2163551715 1.866643854
O -4.581887592 -2.7856149345 0.3283910114
H 1.9657550938 -1.0073855028 0.2451234015
H 1.9315121287 0.245016494 -1.0049130495
H 1.9102471454 0.7002202481 0.7038254462
H -3.0061041588 -0.0464006679 -1.0375745763
H -2.8003661223 -1.2941224659 1.8055907454
H -5.1177478964 -0.9182469251 -0.1935994369
H -5.287323003 -1.7073331726 2.7703704613
H -5.7880023378 -0.1515461824 2.0879509872
H -6.6506171865 -1.6419890805 1.6338883561
H -4.3560989324 -3.283735941 1.1218316771

