# b3lyp 6-31G(2df,p) opt Freq 

 titel

0 1
O 0.3386585752 -0.1308075329 0.3073502103
C -0.7947649842 0.5675815301 0.7611337118
C -2.1295139386 -0.1255018955 0.5688664642
C -3.2560579569 0.8051600894 1.0422229201
C -2.7726558251 1.8729303181 0.0325447239
C -3.6353397118 2.6683485794 -0.8966467562
C -2.773916919 3.3715657195 0.1309845401
C -1.6442366767 0.9799263811 -0.4029083633
O -1.1652740994 0.9568433332 -1.6885157476
H 0.43748392 -0.9367962821 0.823919521
H -0.608546431 1.218425813 1.6197975503
H -2.1916863705 -1.2018677683 0.4546226032
H -4.2519858563 0.4221987592 0.8057340128
H -3.2257315463 1.0919148179 2.1000150546
H -3.3313310336 2.7214110681 -1.9363903161
H -4.7092067567 2.6481599192 -0.7385585546
H -1.897766639 3.9080170829 -0.2190649524
H -3.2672436242 3.8256890493 0.9843775037
H -0.2994627961 0.5267241184 -1.6462445456

