# b3lyp 6-31G(2df,p) opt Freq 

 titel

0 1
C -0.0807012503 0.2028180161 -0.164477098
C 1.4102688348 0.1743658772 -0.1316312829
O 2.0934396117 -1.0821794248 -0.016417246
C 2.4460550106 -0.2195146578 -1.1083468294
C 3.4627752132 0.7891391931 -0.5574364749
C 3.6627188814 2.0639910464 -1.3845105979
C 2.3917270102 2.8797914229 -1.0978188556
O 2.0260680456 2.5614528293 0.2433875399
C 2.3681689514 1.2153100283 0.4990038717
H -0.4926240849 -0.0374642008 0.8221623248
H -0.4326821536 1.2020566831 -0.4378244893
H -0.4695894512 -0.5236867622 -0.883093543
H 2.3566489673 -0.6273719298 -2.1103218779
H 4.3910613718 0.348669584 -0.1905715425
H 4.5451307971 2.6001748481 -1.0230548367
H 3.8013936517 1.8710366354 -2.4523653298
H 2.5411269275 3.9612448963 -1.1522467488
H 1.5852757163 2.6110736062 -1.7964047015
H 2.5656100695 1.100147849 1.5668785277

