# b3lyp 6-31G(2df,p) opt Freq 

 titel

0 1
C 0.6394118263 1.4582739193 0.4468672646
O 0.2396326537 0.0756859567 0.4096987749
C 0.5458638941 -0.3689971566 -0.9144049002
C -0.3616434378 0.4150772536 -1.9001597121
C 0.5143192498 1.6784050118 -2.1163554366
O 1.4318413179 1.3979813173 -3.1766815909
C 2.2834077999 0.3516650368 -2.6738773523
C 1.9393173188 0.2523116304 -1.1853428685
C 1.4150264798 1.6736033927 -0.8554628556
H -0.2430782548 2.1077925748 0.5294940602
H 1.2642493395 1.622062693 1.3321925102
H 0.4619030843 -1.455809367 -0.9386969085
H -0.5271716263 -0.0906728489 -2.854466503
H -1.3296429172 0.6162233566 -1.4349685574
H -0.0159843761 2.6001462809 -2.3571285977
H 2.0974083129 -0.5849879128 -3.2175466436
H 3.3287304289 0.6366876194 -2.8385297501
H 2.7281167637 -0.1464895653 -0.5471456089
H 2.1472135325 2.4811400974 -0.8373409943

