# b3lyp 6-31G(2df,p) opt Freq 

 titel

0 1
C 4.5813796758 0.3992854618 -2.3677863782
C 3.2479460368 0.3849028119 -1.6758063624
C 1.931161099 1.0064307023 -2.2521343262
C 1.6804920653 1.0406235134 -0.7209709172
O 3.1069655336 1.3286683159 -0.5491464957
C 1.6244820937 -0.4666073162 -0.3826832471
C 0.6128800146 -1.1286624511 0.4799380019
O -0.6816074916 -0.7577021775 0.0093498846
C 2.6954505525 -0.913467788 -1.0406543942
H 5.3746801465 0.0930027425 -1.6784350478
H 4.5781236565 -0.2933363934 -3.2156870307
H 4.8149324818 1.4009348328 -2.7380650666
H 2.0929028649 2.001284918 -2.6753536764
H 1.2842668025 0.3885056227 -2.877811116
H 1.0059948436 1.7347292135 -0.2231758892
H 0.7549189639 -2.2201939946 0.4605500051
H 0.7503742266 -0.7998796711 1.5243143095
H -1.3268596064 -1.0410609881 0.6642060884
H 3.1056454003 -1.9096373147 -1.1311731518

