# b3lyp 6-31G(2df,p) opt Freq 

 titel

0 1
O -0.7015691239 0.0516069034 0.4991854595
C -1.8237566622 0.8306048092 0.300497939
C -3.2952967664 0.3964111427 0.0589846651
C -3.2972725973 1.9434150648 -0.049498877
C -2.3650327273 1.986899454 1.2109037589
C -1.438953057 3.1881217767 1.3753184656
C -1.2535324837 3.8526906574 0.009421822
O -1.1107414465 2.8873913532 -1.0246510849
C -1.9885398086 1.8037396921 -0.8969190158
H -0.8204590758 -0.4606803168 1.3064435924
H -3.5041163278 -0.1651048354 -0.8558468754
H -3.8253356884 -0.017660572 0.9209440104
H -4.1602542617 2.5726888134 -0.2542269224
H -2.8333902231 1.659933614 2.1455719533
H -1.8474752779 3.9168273397 2.0842269731
H -0.4761849606 2.8479133273 1.7764763912
H -2.1265319156 4.4886053518 -0.2062660727
H -0.3622066451 4.4844147474 -0.0294761542
H -2.0831006915 1.342053177 -1.8832077281

