# b3lyp 6-31G(2df,p) opt Freq 

 titel

0 1
C -0.1724574756 -0.0014230534 0.2586669333
C 1.0269421269 0.0141419364 0.1770062215
C 2.4847364482 0.0038111864 0.0922852072
C 3.0438311775 1.4371850437 -0.1050060511
O 2.537892236 2.3800648334 0.8149571914
C 3.1603719273 2.3898618006 2.0831734472
C 3.0428088498 1.0732934847 2.8434358014
O 3.8252600382 0.0634817327 2.2218173234
C 3.1402292443 -0.7542685808 1.3002558483
H -1.2322517076 -0.004882167 0.3233874261
H 2.7612373075 -0.5513488221 -0.8150868206
H 4.1425654967 1.401550984 -0.0751001278
H 2.7335355628 1.7917973315 -1.092215663
H 4.2302207558 2.6361928271 1.9851646713
H 2.6734327795 3.1913664924 2.6495870918
H 3.4417912199 1.2092139757 3.8562681754
H 1.9909041767 0.7668721758 2.9243588874
H 3.9015216069 -1.4409292296 0.9194327942
H 2.3685728593 -1.3503496616 1.8066276525

