# b3lyp 6-31G(2df,p) opt Freq 

 titel

0 1
O 0.2686514679 -1.1184198855 -0.2046025604
C 0.3943671793 0.0526572208 0.0464919444
C -0.2846095706 0.779120442 1.1813068099
C -1.1108526502 1.9763855668 0.6823861428
C -1.6521027434 2.8284162847 1.8398209434
O -0.5683926005 3.3151678354 2.6396563107
C -0.6067476596 4.7381302142 2.725785807
C -1.7857721764 5.1481734765 1.8898832206
C -2.3830382453 4.0691271172 1.3991841944
H 1.0504630114 0.7029026456 -0.5809619776
H -0.9006338954 0.0665874666 1.7379946245
H 0.4941395043 1.164647795 1.852927604
H -0.495105127 2.6174792792 0.0394921044
H -1.9548938375 1.6240592894 0.0764656898
H -2.2941219868 2.1891390681 2.4702353518
H -0.7126814928 5.0459567573 3.778162504
H 0.3411615491 5.1621127619 2.3599473422
H -2.0762509001 6.1803135706 1.7407312948
H -3.2623119763 4.0385217643 0.7684286795

