# b3lyp 6-31G(2df,p) opt Freq 

 titel

0 1
C 1.427751349 -0.0760478905 -0.0093314285
O 0.0225366521 -0.0638768588 0.09212008
C -0.4435843186 0.680423844 1.1888286871
C -1.979571437 0.6920901485 1.1515881377
C -2.5576217259 1.3473300712 2.4232452575
C -2.4661632823 1.3716287985 -0.0449614041
C -2.8691824903 1.9772120835 -1.00985518
C -3.3712919612 2.6545135743 -2.1753456336
O -2.9920972256 3.7376115675 -2.560484702
H 1.8973543391 -0.5255486526 0.8799434612
H 1.6850305677 -0.6752174624 -0.8855822804
H 1.8350291807 0.9384989165 -0.1385664785
H -0.1115883786 0.2294152548 2.1397390199
H -0.0613047614 1.7140258405 1.158244539
H -2.3050102242 -0.3555088701 1.1130187946
H -2.227048799 0.7999291734 3.3108657653
H -2.2268672369 2.3861993301 2.510530783
H -3.6495021804 1.3405594635 2.3999760752
H -4.1609209672 2.0951679682 -2.7182047634

