# b3lyp 6-31G(2df,p) opt Freq 

 titel

0 1
C -1.0110436615 -0.5820204496 -0.7747731736
O -1.4832046094 -0.8593569784 0.5494793181
C -0.7794725734 -0.065436313 1.4681587815
O 0.3992140824 -0.7145044025 1.9666770193
C 1.516942077 -0.0540972728 1.3500573189
C 1.4870803781 -0.3389785856 -0.1625034128
C 0.1672224451 0.3784004526 -0.6006533191
C -0.2218700822 1.1513011783 0.6979404871
C 1.1045007662 1.4236289027 1.4133571156
H -0.7279397461 -1.5205142552 -1.2643707439
H -1.8251347515 -0.1255256637 -1.3541240667
H -1.4475854724 0.1214662836 2.3119408082
H 2.4231575396 -0.3571490899 1.8740257905
H 2.3641108867 0.0906814212 -0.6568911172
H 1.4699789557 -1.4117517039 -0.3704753204
H 0.3073485764 1.0191016142 -1.4727963705
H -0.9278064368 1.9711825002 0.5696259844
H 1.7713752707 2.0929401479 0.8627174159
H 0.9844965254 1.7838153539 2.4380833647

