# b3lyp 6-31G(2df,p) opt Freq 

 titel

0 1
C 1.4198903638 1.370924357 -0.1092765179
C 1.180726518 -0.1287742614 -0.0453178057
C 2.0250605611 -1.0095394011 -1.0250640333
O 3.1384978381 -0.8999858662 -0.101100288
C 2.1084184947 -0.9416426721 0.9185247557
C 1.5204816046 -2.3808946868 0.759821162
C 0.5876331199 -2.9868125655 1.7619747035
O 2.3930339303 -3.2439378576 0.0199215624
C 1.4692505581 -2.4265170692 -0.7037865645
H 1.0058249243 1.8701485688 0.7733752403
H 2.4890735635 1.5904251599 -0.1600789011
H 0.9355191075 1.8058997641 -0.9902043547
H 0.1116184064 -0.3667335599 0.0069284889
H 2.2584852421 -0.730916351 -2.0525613187
H 2.4258879819 -0.5901659287 1.90085569
H 1.1223593593 -3.24962432 2.681630143
H -0.2083168741 -2.2832012045 2.0296779614
H 0.1295121252 -3.8961686951 1.364872294
H 0.7171035451 -2.9249406208 -1.3059351074

