# b3lyp 6-31G(2df,p) opt Freq 

 titel

0 1
C 1.6311009728 -0.1819837927 0.1533001892
O 0.2365328468 0.0596472823 0.0080529603
C -0.3526271111 0.6687423284 1.0815216413
C -0.752727877 1.9710687605 1.1282076461
C -0.6629880819 3.0859893663 0.1537698799
O -1.3719083646 2.2005655903 2.3224255929
C -1.3542779736 1.0316582476 3.0234529584
C -0.7432455414 0.042378063 2.3219801528
C -0.5461462752 -1.3872170693 2.7161348432
H 1.8431337868 -0.8526276924 0.9956763591
H 1.9657012093 -0.6561035777 -0.7721929471
H 2.182555629 0.7553029324 0.3034776257
H -0.1806990752 2.721870674 -0.7562679925
H -1.654144284 3.4707669847 -0.1128606112
H -0.0788911963 3.9269607599 0.5454470607
H -1.8204507103 1.061581014 3.9950685477
H 0.5025858979 -1.6120655435 2.9448977171
H -1.135199602 -1.6357638917 3.6032595304
H -0.8491219302 -2.0612727859 1.9079426661

