# b3lyp 6-31G(2df,p) opt Freq 

 titel

0 1
C 1.2234253563 0.775210083 0.0896587535
C -0.1173526441 0.1376623291 -0.0569422247
C -1.3339671198 0.7011497512 -0.1524587636
C -2.3713909309 -0.4093277957 -0.1067338034
C -2.2714893054 -1.0274835196 1.3135208838
O -0.9612631946 -1.6214530631 1.3399990217
C -0.3771072101 -1.3640090383 0.0371819736
C -1.6058274313 -1.5230598287 -0.8873342297
O -1.4155944418 -1.310318812 -2.2584999032
H 1.6671718636 0.5201646809 1.0601931085
H 1.9239956526 0.4207860694 -0.6765058429
H 1.1629446387 1.8651295923 0.0207666863
H -1.5601338801 1.7610705244 -0.1343630431
H -3.3808751984 -0.1705965977 -0.4390894056
H -2.3604908832 -0.2803320195 2.1105295194
H -3.0269611014 -1.8073750142 1.4720473986
H 0.4679771064 -2.0378974641 -0.0984158717
H -2.0605517179 -2.5115761099 -0.7848925276
H -1.0519715487 -0.4204630177 -2.3537326498

