# b3lyp 6-31G(2df,p) opt Freq 

 titel

0 1
O 0.1983147335 0.0502324826 -0.0694746857
C -0.7050242352 0.2602586959 0.9836446788
C -0.4244468037 1.5363362259 1.7970579972
C -1.9438473622 1.85746901 1.7814105976
C -2.1687467436 0.7693433286 0.6853412034
C -3.1793564273 -0.3432191579 1.0178030677
C -2.3540870528 -1.3814208629 1.7670975932
O -1.4009971418 -2.0544086599 0.9253821047
C -0.9324273318 -1.0078450817 1.7937883646
H -0.036871213 -0.8003640381 -0.4630423737
H 0.0632465206 1.4154366968 2.7683519327
H 0.1588914058 2.2364939754 1.1948841768
H -2.4414954649 1.6063908819 2.7228087119
H -2.2207789328 2.8779340525 1.51084741
H -2.2794207407 1.1938503516 -0.3136769801
H -4.0007423969 0.027447762 1.6411405201
H -3.6256841504 -0.7977060766 0.1269640626
H -2.8031630567 -2.0127810855 2.5300960234
H -0.2342002661 -1.3182282308 2.5685933648

