# b3lyp 6-31G(2df,p) opt Freq 

 titel

0 1
C -2.2787101806 5.4440730641 -1.2659515214
C -1.4574247373 4.5234203131 -2.1358340608
O -0.7892373626 4.9048865891 -3.0674833335
C -1.5003823092 3.0146817539 -1.8192749985
O -2.1355242584 2.8103838282 -0.5733792905
C -2.5183107739 1.4597234853 -0.350124611
C -3.5779678574 1.0134845861 -1.3579645686
C -3.1485789148 1.4024726236 -2.7482480079
C -2.1807094695 2.291253189 -2.9569077002
H -1.9510671146 5.366565113 -0.2247486714
H -2.1796099712 6.4689135186 -1.6249210858
H -3.3277973934 5.1313587619 -1.2777480178
H -0.4434022239 2.6949816431 -1.7690263715
H -1.6370871048 0.8025435045 -0.4200916041
H -2.8913842862 1.4178903201 0.676528992
H -3.7181049754 -0.072675552 -1.2891621509
H -4.5496754586 1.464665931 -1.1150228217
H -3.6403870328 0.9221889825 -3.5897764556
H -1.8336170957 2.5558176348 -3.9502117108

