# b3lyp 6-31G(2df,p) opt Freq 

 titel

0 1
C 1.4450042589 -0.0894743027 0.0118401569
O 0.0241741695 -0.0493625464 0.026338215
C -0.4881109978 0.6353425617 1.1018699509
C -0.4998629969 2.172637189 1.2185500954
C -1.9807725358 2.0382223299 1.6755186255
O -2.8430950814 2.8452064526 1.8778629066
C -1.9484173984 0.5451721521 1.589639299
C -0.7633035052 0.0089282607 2.4273379201
C -0.6890307569 -1.4979546712 2.5565778375
H 1.8431316702 -0.5883123263 0.9053018907
H 1.7350431223 -0.6541810645 -0.8762032158
H 1.8735510311 0.9201149344 -0.0494212036
H 0.2099497069 2.6466633978 1.9026767409
H -0.4618334066 2.6669074487 0.2428587764
H -2.7526257433 -0.1228893234 1.3064239944
H -0.4959639887 0.5562671985 3.3298155184
H -1.410796109 -1.8650250521 3.2927929427
H -0.8930693304 -1.9849551336 1.5995848228
H 0.3085667715 -1.8077332754 2.8851148261

