# b3lyp 6-31G(2df,p) opt Freq 

 titel

0 1
C 1.3944756867 -0.0010048868 -0.0975226369
O -0.0099053093 0.0497088774 0.0585592806
C -0.4044856123 0.7361492024 1.1943672884
C -0.4730143938 2.2637541805 1.1656269146
C -1.7215209284 1.4332267507 1.1549125779
O -2.5733572833 1.3594319057 0.0030771826
C -3.7019369086 1.1491848882 0.8631487586
C -3.9322204996 2.3336750596 1.7465742001
C -2.8745311304 1.3074903096 2.1179177316
H 1.8771058576 -0.5187617466 0.7454683008
H 1.5939282262 -0.5567562677 -1.0165455035
H 1.8301201456 1.0048550557 -0.1810934476
H -0.1128936535 0.2694252077 2.1394938291
H -0.2085074504 2.8331491198 2.0507347533
H -0.2184738895 2.7253827713 0.2168861486
H -4.4408141938 0.420058488 0.555278928
H -3.6454158015 3.3233674145 1.403139764
H -4.8295468916 2.2937428171 2.3567778537
H -2.8732108303 0.7482962829 3.0432664261

