# b3lyp 6-31G(2df,p) opt Freq 

 titel

0 1
C 1.646480576 -0.459464291 1.0683237344
C 0.9906329589 0.0759051528 -0.2128233281
C 1.494334718 -0.6000191194 -1.4510317434
O 2.782661508 -0.2454707967 -1.9566769311
C 1.6437574577 -0.0671288157 -2.8346799075
C 1.3669451121 -1.4570631104 -3.3908928921
O 1.1764363806 -1.905114311 -4.4822135281
C 1.2410070922 -2.0468428522 -1.9494998163
C 2.1873466699 -3.1629645852 -1.5271262798
H 1.4351564434 -1.5238528082 1.2106356359
H 2.7322231502 -0.3328517081 1.0294198753
H 1.2719540395 0.0761218124 1.9451299905
H -0.0971094748 -0.0554572568 -0.1606068644
H 1.180544947 1.1507697777 -0.3063993668
H 1.4816634849 0.9218603207 -3.2479133406
H 0.1913731393 -2.3381612987 -1.8107345392
H 1.9840166812 -3.4984850029 -0.5053887943
H 2.0723727602 -4.0238510978 -2.192799457
H 3.2246004057 -2.8235876395 -1.5828176076

