# b3lyp 6-31G(2df,p) opt Freq 

 titel

0 1
C 1.3862924633 0.1746738503 0.6210594289
C -0.0373894593 -0.1522179253 0.319001123
C -0.714563561 -1.3027680225 0.3985327574
C -2.1594980064 -0.9676507033 0.0467169024
C -2.7825734713 -0.211169835 1.2582245021
C -1.9783925193 1.1239093576 1.2060773799
O -1.2503592532 1.4485351657 2.3740485706
C -1.0968302065 0.8781122805 -0.0755001458
O -1.9957782989 0.1176747531 -0.8846317461
H 1.4516499865 0.9456566057 1.3982569143
H 1.9433359226 -0.7045130486 0.9566720391
H 1.8921229327 0.5825585622 -0.2631813795
H -0.3567437918 -2.2713883776 0.723217331
H -2.7666165311 -1.7605242236 -0.388451099
H -3.8496792709 -0.0435173183 1.0962563161
H -2.655962086 -0.7274013917 2.2134160123
H -2.6399418048 1.9742810165 1.0298980965
H -0.7588698548 0.6617666377 2.6342457507
H -0.7600680698 1.7757175267 -0.5935430538

