# b3lyp 6-31G(2df,p) opt Freq 

 titel

0 1
O 0.5810704911 0.2360040328 -0.8242760492
C 0.0291070952 -0.2329242952 0.1358477728
C -0.5343906477 0.5867357005 1.2953972041
C -1.0394966325 1.9674002573 0.8482002738
C -2.5132587271 1.9656317462 0.4084050082
C -3.4882806489 1.8762905953 1.5600935959
C -3.3229650391 1.1888218748 2.6891597248
C -2.1739947039 0.2691095244 3.0173910936
O -1.5090044158 -0.2519951931 1.8799409028
H -0.1029829864 -1.327870518 0.2713620163
H 0.3115779136 0.725463167 1.9972766162
H -0.9137053495 2.6917989346 1.6589842823
H -0.3927662593 2.2863017894 0.0239988042
H -2.7110966461 2.8932237383 -0.1395098073
H -2.6924660442 1.1545976387 -0.3105281207
H -4.4020784214 2.4561266864 1.4502829714
H -4.0881570433 1.2471086339 3.4608714159
H -1.4521950861 0.758330401 3.6950566006
H -2.5610028685 -0.6033211345 3.5573556942

