# b3lyp 6-31G(2df,p) opt Freq 

 titel

0 1
C -0.0107482933 -0.3454298787 0.2100042988
C 1.4058168105 0.1125768596 -0.0245551198
O 1.763086074 1.1975170924 0.9021329929
C 2.6424804962 0.3002461754 1.6493647769
C 2.72622755 -0.5966414415 0.4219070873
C 3.4253784791 0.1383988235 -0.7900296891
C 2.0596164714 -0.1035920378 -1.4156169186
O 2.0066616268 -1.5698879648 -1.4464151491
C 2.5477108656 -1.9856538407 -0.1422498585
H -0.1600195932 -0.6922278609 1.2383078372
H -0.6877481818 0.5014631139 0.0519707907
H -0.2831466456 -1.1475158265 -0.4787826329
H 3.559399946 0.8006985479 1.9747491335
H 2.1224791462 -0.1300101619 2.5147640249
H 3.6476683291 1.1798860195 -0.5700553676
H 4.2677258442 -0.3699179581 -1.2623018282
H 1.7076773439 0.258654861 -2.3821522073
H 1.8072960997 -2.5978700589 0.3821941652
H 3.4620468211 -2.5669927035 -0.2989425962

