# b3lyp 6-31G(2df,p) opt Freq 

 titel

0 1
C 1.344015687 1.1905248205 -0.0966458661
C 1.0745877684 -0.3204150404 -0.0268603396
C 1.6452772842 -1.0695986942 -1.221339305
C 2.5947146903 -1.9449719514 -0.8796459835
C 2.7652233875 -2.0130293135 0.5922115569
O 4.0290955703 -2.2705856691 1.103875247
C 1.5459709491 -2.4695637167 1.3718147346
O 1.8087794689 -2.8947977954 2.6876195704
C 1.7661352466 -0.9952435417 1.1585454959
H 0.9222418454 1.703235135 0.7744807908
H 2.4199819757 1.3894095022 -0.1240551873
H 0.8966328618 1.6279225715 -0.9951569001
H -0.0128430475 -0.4741752467 0.0273790617
H 1.2928131611 -0.8900108882 -2.2310684688
H 3.1605606411 -2.5788836045 -1.5522217883
H 3.8896231904 -2.549842721 2.0194394503
H 0.7246661438 -2.9788026376 0.8665087551
H 1.9225104813 -3.8516308542 2.6658920578
H 2.0125805548 -0.4185389146 2.0438104782

