# b3lyp 6-31G(2df,p) opt Freq 

 titel

0 1
C 1.4971819609 3.0101149208 2.6785964604
C 0.9879445791 2.9710016216 1.2551386078
C -0.2785385513 3.6904402175 0.8683256744
C -0.2519437658 2.1791656457 0.9030614517
C -0.3308866145 1.3843294924 -0.3981250755
C 0.2638702475 0.0001460077 -0.1934985755
O -0.3159207178 -1.031774671 -0.4141354776
C -1.7696942572 1.3109422732 -0.8873147574
O -2.1691908211 1.8667740498 -1.8762837514
H 2.1312045698 2.1450483776 2.9015773637
H 2.0882426239 3.9143346334 2.8595666142
H 0.6679298076 3.0086663095 3.3937129637
H 1.7687418258 2.9690724686 0.4980758794
H -0.8334837395 4.2010050092 1.6481796659
H -0.3300757853 4.1704144639 -0.1029846173
H -0.7687554222 1.7121563441 1.7385594208
H 0.2607727024 1.8986896294 -1.1669448074
H 1.3039477021 0.008516735 0.2036168008
H -2.4499306943 0.7249388516 -0.2334377907

