# b3lyp 6-31G(2df,p) opt Freq 

 titel

0 1
C 0.6489165703 1.5516680083 -1.2760983155
C -0.4558259938 0.6138314141 -0.893566418
C -0.400921088 -0.7162519981 -0.9860491029
C -1.5435677197 -1.5885688852 -0.519959522
C -2.5836510148 -0.7247007264 0.2048336644
C -2.0320139184 -0.0859395564 1.5118916995
O -1.6438478879 1.2351005131 1.1212791802
C -1.7217216165 1.2263281251 -0.3008563665
O -2.84744242 0.432220798 -0.5952232393
H 0.9608397472 2.1554668456 -0.4144328483
H 1.5237963026 1.0127848745 -1.6494456031
H 0.3240310074 2.2566485485 -2.0522640157
H 0.4770270283 -1.2064030733 -1.4008969805
H -2.0088526123 -2.1031223294 -1.3721454708
H -1.1783068298 -2.3762372525 0.1522191853
H -3.5258252743 -1.2548242927 0.3559728284
H -2.7979244696 -0.0034124453 2.2890668265
H -1.1760097128 -0.6428860055 1.9106072207
H -1.9046663779 2.2478250878 -0.6442029924

