# b3lyp 6-31G(2df,p) opt Freq 

 titel

0 1
C 1.9588643036 -0.7407104554 2.0137347502
C 3.025315452 -0.2857804671 1.0334098038
O 4.0318979209 0.2761877133 1.4016260592
C 2.8056074367 -0.5878860308 -0.4501400527
C 1.4104293978 -0.2273904017 -1.0319098111
C 1.1848984681 -1.2015841269 -2.2139173527
C 1.9864275417 -2.4282724248 -1.8322275396
O 1.7843802746 -2.8549407652 -0.474541925
C 2.9473075579 -2.0726120039 -0.7813912467
H 2.3867529034 -0.7859059156 3.016201997
H 1.1389536903 -0.0123551273 2.0234296529
H 1.5327294169 -1.7043171618 1.7223072826
H 3.6010993729 -0.0566817345 -0.9844723373
H 0.6386257535 -0.3909844279 -0.2782415879
H 1.3569469757 0.8204753699 -1.3347296559
H 0.1253391855 -1.4185559761 -2.379497195
H 1.5886570423 -0.7976982456 -3.150268889
H 2.1672162204 -3.2288531576 -2.544759968
H 3.9007914659 -2.5755680509 -0.6437043746

