# b3lyp 6-31G(2df,p) opt Freq 

 titel

0 1
C 3.1503090434 -2.4789893663 -0.8741134573
C 1.72088522 -1.9095739731 -0.9190589002
C 1.3323970466 -1.2676113697 0.4334252687
O 0.0456956231 -0.6918167027 0.4181743904
C 0.7344441741 -2.9295735592 -1.2774239839
C -0.111422763 -3.7556452011 -1.5162764083
C -1.0676328108 -4.7946614655 -1.8733281881
C -0.4993620688 -5.7728801873 -2.9059422344
O -0.7190651068 -6.9525841232 -2.8943412063
H 3.2324325696 -3.2663626929 -0.1187443623
H 3.4319686424 -2.9067791073 -1.8393171642
H 3.8652294091 -1.6879653059 -0.6269081451
H 1.6783751919 -1.1124270105 -1.6732188804
H 1.4335430502 -2.0244823926 1.2278936986
H 2.0325019329 -0.4554495991 0.6542741667
H -0.571845849 -1.3897083727 0.168670818
H -1.4046025874 -5.3728313265 -1.0068227717
H -1.9651849836 -4.34651806 -2.3272228847
H 0.130308906 -5.2955888344 -3.6877059056

