# b3lyp 6-31G(2df,p) opt Freq 

 titel

0 1
C 1.4250624064 0.5352517359 -0.0743424307
O 0.0471376045 0.7453647196 0.121113488
C -0.5149941083 -0.1301649814 1.078564587
C -1.9706750682 0.1858199772 1.2071789721
C -2.9881629196 -0.4092421519 2.1807892276
C -3.9256988538 0.721696708 1.6825323417
O -4.1933104079 0.3607760588 0.2986002908
C -2.8323811355 0.7054167632 0.038732654
C -2.6559977846 1.5519643408 1.2533375051
H 1.6351826341 -0.482339091 -0.4398286678
H 1.7631419824 1.2564160613 -0.8222217566
H 1.9970369646 0.6904018372 0.854159048
H -0.3774033598 -1.1818317999 0.7684355468
H -0.0022309102 -0.0133653452 2.0502919727
H -3.3398658775 -1.4350410405 2.0274444975
H -2.684132907 -0.2557393541 3.2201696982
H -4.8073666962 1.050570403 2.2281340318
H -2.4864643826 0.8101193996 -0.9794201039
H -2.2983092507 2.5576084894 1.4229815277

