# b3lyp 6-31G(2df,p) opt Freq 

 titel

0 1
O -0.1591613822 -1.1557343777 0.2326688742
C 0.1106570539 0.224726969 0.0957054821
C -0.5053911037 0.81996077 -1.1525617841
C -0.0120221073 2.1578741698 -1.6924806177
C 0.1490735214 0.9317344462 -2.5281318868
C -0.909170799 0.6896842759 -3.6057073976
C -2.2674384118 0.8130302479 -2.8805159886
C -1.9452950059 0.5205357541 -1.4118449138
O -2.6998286317 0.0194749185 -0.6057371839
H -1.1179620559 -1.2270994047 0.3246658695
H -0.244643975 0.789249453 0.9722644858
H 1.2003363979 0.3343305413 0.0592724046
H -0.7316149174 2.9192010372 -1.9761230469
H 0.8711168887 2.5483686789 -1.1966854577
H 1.145987928 0.5326938652 -2.6791513091
H -0.8106910422 1.3853004818 -4.4450368073
H -0.7934479418 -0.3226997438 -4.0056969373
H -2.6880913589 1.8227816648 -2.9574052259
H -3.030767257 0.1228027225 -3.2430852494

