# b3lyp 6-31G(2df,p) opt Freq 

 titel

0 1
O -1.4800744847 -1.1895757915 -0.3983753749
C -1.8370297587 -0.1094246118 0.3934045295
C -2.4772160749 -0.3090003463 1.7543229349
C -2.5453729804 1.1954266426 2.1345858594
C -3.2701166799 1.8075621135 0.9047196908
C -2.3429374152 1.2256428868 -0.1551252097
C -0.967787784 1.1270739252 0.4869203918
O 0.1638397889 1.2369113324 -0.3201887458
C -1.0827718674 1.66523833 1.9055418074
H -0.7313057835 -0.8993035008 -0.9363258367
H -3.4655531448 -0.777827963 1.704823271
H -1.8458616188 -0.8922314657 2.4332254167
H -2.9719461077 1.4218218596 3.1110813
H -4.3026056274 1.4557291147 0.8089486347
H -3.2764427564 2.9027336349 0.9239596699
H -2.4450851425 1.3904283717 -1.2198381599
H 0.8999640897 0.8247032938 0.1477692225
H -0.3773306284 1.19519712 2.6016639312
H -0.968063784 2.752522364 1.9680745471

