# b3lyp 6-31G(2df,p) opt Freq 

 titel

0 1
C 0.1372308247 2.0641161029 -1.7592902897
C 0.0774082329 0.6043428268 -2.1494049572
C -1.2974818213 0.069305397 -2.5602799492
O -1.0466348403 -1.2220261071 -3.1251874042
C 0.3230041655 -1.2496738398 -3.4692200789
C 1.3631910579 -1.1287811763 -2.3734398744
C 1.0026885854 0.0554868822 -3.2828709659
C 0.7477014291 -0.4394804631 -1.1682797412
O 1.7846123 0.0987866563 -0.3714497296
H -0.5494802905 2.2836915972 -0.9324045251
H 1.1471213763 2.3367524591 -1.4434736164
H -0.1463326188 2.7071867942 -2.5995234688
H -1.9793017562 -0.0525511233 -1.7104373851
H -1.7761398687 0.7255440919 -3.3039652827
H 0.5402291681 -1.8974182122 -4.3098782851
H 2.2643575614 -1.7307812381 -2.3479764469
H 1.5801194034 0.6147016738 -4.0074604181
H 0.0497045583 -1.0292371604 -0.5542437928
H 1.3815600027 0.5394065889 0.3834380814

