# b3lyp 6-31G(2df,p) opt Freq 

 titel

0 1
O -0.7015890201 -1.4718670987 1.2192504529
C -0.4833764923 -0.1142455056 1.5116977827
C 0.588072615 0.5695902009 0.7162832253
C 1.6902454993 -0.2269124595 0.058092615
C 0.632779278 0.4416594406 -0.7846305515
C -1.8122665552 0.5264531124 1.874411722
C -1.6068726496 1.9845736354 2.2549888584
O -0.5491380203 1.6321664013 3.1953092617
C -0.776800571 0.2427929057 2.9466515883
H 0.0427306616 -1.9701051392 1.5753170557
H 0.8868869142 1.5220356091 1.1390262096
H 2.6920520854 0.1875551788 0.069111797
H 1.6546337792 -1.3090384019 0.1185846229
H 0.9050691674 1.3124091951 -1.3706308287
H -0.1050737454 -0.2050652375 -1.2469245119
H -2.7488692738 0.0343067172 1.6522246142
H -1.2623384711 2.6774333603 1.4791000355
H -2.4578721724 2.4204171543 2.7898394428
H -0.7448879288 -0.4483391187 3.782633368

