# b3lyp 6-31G(2df,p) opt Freq 

 titel

0 1
C 0.1216006359 -0.1618465678 -0.3791587406
C 1.3901860652 0.0381530167 0.4699076809
C 1.9918594989 1.3571540098 0.3051832368
C 2.4861019769 2.4450181534 0.1484223984
C 3.091931564 3.7666221492 -0.0556451042
O 3.9424502234 3.8129754984 -1.1699564316
C 1.9706083059 4.826976086 -0.212949381
C 1.0374514015 5.0529714089 0.9475662579
O 1.902349254 5.4345234203 -1.2568832929
H -0.6471664917 0.5674693089 -0.1094103703
H 0.3435078533 -0.040076646 -1.4425702097
H -0.2857691997 -1.1650856799 -0.2236071235
H 1.1544603414 -0.122266179 1.5298045625
H 2.1321003501 -0.7272108018 0.2087511462
H 3.6643134974 4.0353287101 0.8481503393
H 3.4869338152 4.3945888335 -1.8022595049
H 0.5813538658 4.1075005101 1.2533010208
H 1.605077313 5.4283422323 1.8069955644
H 0.2693028997 5.7767737268 0.6739664616

