# b3lyp 6-31G(2df,p) opt Freq 

 titel

0 1
O 1.3619349808 0.4495688194 -0.1867022374
C 0.1256849379 -0.2443315127 -0.2763507054
C -0.9673259461 0.6626715651 -0.7659425434
C -1.4615989623 1.9260544396 -0.0565083418
O -0.4359791512 2.8913983718 0.1078674479
C -2.2801973024 1.907832254 -1.3587047118
C -2.4120292079 0.3415278403 -1.2968903215
C -1.9200413522 0.1798510098 -2.749198286
C -1.0763926873 1.3406880231 -2.1880360614
H 1.1700169532 1.3298895484 0.1598469802
H 0.2809532887 -1.0828267967 -0.965951919
H -0.1628857475 -0.6755628458 0.6981015288
H -2.0227824014 1.7771153007 0.8778989457
H -0.8066792236 3.6866805991 0.5021716011
H -3.0443554613 2.5996788224 -1.7165622564
H -3.1811556388 -0.2143891966 -0.7580962553
H -1.3919750836 -0.7474394616 -2.9926303622
H -2.6362002835 0.4290903525 -3.5385751144
H -0.2966666313 1.9258056273 -2.6716464577

