# b3lyp 6-31G(2df,p) opt Freq 

 titel

0 1
C -0.0536064689 0.0110151701 0.1406657843
C 1.4521817147 0.1455918869 -0.0649585228
C 2.0134096998 1.6240954236 0.129973504
C 2.9394278796 1.392547603 1.3729372776
O 2.1005657265 0.5074609558 2.1539937424
C 2.3363420948 -0.432992494 1.0363933944
C 3.0392196605 -1.647062382 1.6290222196
O 4.2474295172 -0.8401791866 1.7810012027
C 3.7351462539 0.172119734 0.8795173016
H -0.3291147772 0.354427631 1.1413618183
H -0.6031139654 0.6109773126 -0.5920521819
H -0.3787041453 -1.029107953 0.0303442171
H 1.7410464117 -0.2519159853 -1.0431623235
H 2.5434358831 1.9975289462 -0.7511687377
H 1.2168524249 2.326732495 0.383805177
H 3.3216339141 2.2633062369 1.9084675022
H 2.6569328589 -2.0099706431 2.5863115732
H 3.2034299247 -2.4789068946 0.9322064075
H 4.3038967026 0.2294467434 -0.0522712758

