# b3lyp 6-31G(2df,p) opt Freq 

 titel

0 1
C -3.5023944036 0.4394401554 -3.5283470607
O -3.1144104018 -0.10837291 -2.2617464508
C -3.1261313987 0.7576760068 -1.2329584444
O -3.4696206721 1.9075013622 -1.3223377291
C -2.6415537866 0.0741988917 0.0535325055
C -3.1259610362 0.8465115679 1.2917670429
C -1.183726172 -0.0458448655 0.0090235734
C 0.0177172973 -0.1178938883 -0.01586641
C 1.4699968829 -0.2144476553 -0.0475071795
H -3.4414684422 -0.3847425371 -4.2389430302
H -4.5212405621 0.8322708827 -3.4826866711
H -2.8272844146 1.2477333084 -3.820592521
H -3.0727558065 -0.9347903561 0.053068107
H -2.7604135727 0.3621828302 2.1999616945
H -2.7579948488 1.8734253527 1.2631630502
H -4.218582297 0.8758411163 1.3201702034
H 1.9105886118 0.1089614098 0.9019911082
H 1.7972534708 -1.2435821945 -0.2319874036
H 1.8920740921 0.4147478129 -0.8388740347

