# b3lyp 6-31G(2df,p) opt Freq 

 titel

0 1
C 0.0960614626 0.2323118517 -0.9099126083
C 1.5827355436 0.1821628616 -0.6006780306
C 2.1734931398 -0.8123250073 0.4356752018
O 2.0858234632 -2.180006735 0.2766623059
C 3.4558980278 0.0811091014 0.4626722968
C 2.2268466652 1.0467016544 0.5576368213
C 1.6092467053 0.07204294 1.5937875007
C 2.2908894673 2.5275841435 0.6214020416
O 1.8307319082 3.1980615602 1.5127500774
H -0.5347785773 0.2437093801 -0.0185876999
H -0.1452346141 1.1226665816 -1.4997047434
H -0.1855284992 -0.6431810258 -1.5043244765
H 2.1634118145 0.2206500169 -1.5291647792
H 2.404344706 -2.6075815453 1.079000065
H 4.0819760897 0.0284106137 1.35706481
H 4.0468292768 0.1220325687 -0.455390759
H 2.1306932044 0.0103784467 2.5523589403
H 0.5299187871 0.1039565479 1.7349817494
H 2.810884329 3.0006523249 -0.2441079133

