# b3lyp 6-31G(2df,p) opt Freq 

 titel

0 1
O 0.2961724624 0.2026584948 1.0922409618
C 0.1703839147 -0.1137525614 -0.0634930289
C -0.5255090538 0.7218444743 -1.1158087365
C -1.1657648872 1.9937379904 -0.5721362432
C -0.1653248456 3.0730044983 -0.0475664789
C -0.3025537916 3.8492284633 -1.3820725441
C -1.5744180461 3.0203759958 -1.6948166125
C -2.3222180623 1.6665810012 0.343260947
O -2.8636274107 0.5931647281 0.4182578415
H 0.5856981911 -1.0754137107 -0.4412953625
H 0.2125511239 0.9444492542 -1.89983291
H -1.2828594505 0.0837447773 -1.5894109984
H -0.5873629572 3.6245523856 0.7984822244
H 0.821784926 2.7123011503 0.2416982137
H -0.4220059952 4.9329035064 -1.3208640585
H 0.5141206264 3.6356006942 -2.0766538817
H -2.4925709256 3.5577150276 -1.4380879934
H -1.6897149228 2.6051165292 -2.6989100988
H -2.6885846761 2.5378938311 0.9354375288

