# b3lyp 6-31G(2df,p) opt Freq 

 titel

0 1
C -1.4420332503 -0.7989769231 2.5625759819
C -1.8408931937 -1.3843172984 1.2231866988
C -2.4320354606 -2.7810591874 1.3048229874
C -2.3456057183 -0.5132022949 0.1163572218
O -2.2058147891 0.8828290731 0.2645999436
C -0.8519013506 1.2689838054 0.0759592167
C -0.0235270843 -0.0130968586 -0.0888919561
O 1.1628921904 -0.0520763261 -0.295816849
C -0.9856504567 -1.1536674092 -0.0483581041
H -0.6085112607 -1.3576066603 3.001047489
H -1.1534129335 0.2506377744 2.4953271695
H -2.2862571906 -0.8584212365 3.2585545246
H -3.3024657097 -2.7884181479 1.9703466219
H -2.7549034314 -3.1432656818 0.3239699712
H -1.7004660202 -3.4940415971 1.7005804604
H -3.2145570694 -0.7932734338 -0.4713919854
H -0.7501901402 1.8813306444 -0.8307427102
H -0.4951090712 1.8627288057 0.9258624077
H -0.7745817398 -2.0069310781 -0.6810261898

