# b3lyp 6-31G(2df,p) opt Freq 

 titel

0 1
C 1.3387152884 0.0858355698 -0.201792107
O 0.0329391797 -0.1121587917 0.3741631913
C -0.4745147308 1.1050046173 -0.2275961652
C -0.8984041421 2.1442344914 0.8200643804
C 0.2701478541 3.1311128226 0.9533037911
O 0.0664656531 4.3379617597 0.1766767265
C 1.2109176205 4.0592916491 -0.6531141483
C 1.4306723363 2.6869043497 0.0131397446
C 0.9426654312 1.4641033024 -0.7667491411
H 2.1317083532 0.0816875205 0.5575625439
H 1.5695950713 -0.6743646844 -0.9592235799
H -1.253440305 0.8791594501 -0.9639263913
H -1.7928833048 2.6966908842 0.5181367521
H -1.1148586904 1.628270343 1.7599544821
H 0.5246746596 3.3746410504 1.9905265357
H 0.9553700588 4.0456923293 -1.7208119349
H 2.0181264312 4.7853412085 -0.4912948194
H 2.4135586494 2.5374042522 0.4640611344
H 1.0556596165 1.5774079357 -1.846628955

