# b3lyp 6-31G(2df,p) opt Freq 

 titel

0 1
C 1.1988018619 1.2038549855 -0.3341802976
C 0.9556556092 -0.2705447248 -0.0564848955
C 1.766062599 -1.2846018118 -0.8910202768
O 2.4194192049 -1.8215089476 0.2819024436
C 1.6714879897 -0.9323773275 1.1700170593
C 0.7711761307 -1.8069307152 2.0558487675
O 1.5324305268 -2.7637633226 2.7512897168
C 2.5539642261 -0.0867263184 1.9602734389
C 3.261214338 0.6316737514 2.6149850116
H 0.7247038355 1.8334523957 0.4249287649
H 2.267209222 1.4366406227 -0.3398006339
H 0.7816989807 1.4790806242 -1.3088109876
H -0.1174571455 -0.4814870504 -0.0452639599
H 1.1867617783 -2.048617069 -1.4219444624
H 2.4909662026 -0.8394780293 -1.5831921989
H 0.2514882533 -1.1921367775 2.7977059783
H 0.0148896751 -2.2806905217 1.4084987118
H 2.0882866809 -3.1902738496 2.0861438663
H 3.8934504806 1.2535408559 3.1996913635

