# b3lyp 6-31G(2df,p) opt Freq 

 titel

0 1
C 1.3154209812 0.6553718822 0.3311667397
C -0.0339387719 0.0112831035 0.3276878048
C -0.3400323941 -1.2881738232 0.3976323218
C -1.8415621291 -1.5634330026 0.4150554974
C -2.3103190473 -2.4497464234 -0.7322744912
O -2.2349909259 -2.2057495791 1.6239134033
C -2.4219941527 -0.1399785066 0.3335344916
O -2.1124614459 0.6353183138 1.4980112495
C -1.3089263598 0.8079568029 0.2962288489
H 1.4308193823 1.3236734931 1.1936081718
H 2.1141844065 -0.0897393722 0.3658165404
H 1.464679991 1.2714285409 -0.5644913993
H 0.372032466 -2.0986839259 0.5153464442
H -1.8260671041 -3.428528693 -0.6747222473
H -3.3928175057 -2.5997047085 -0.6702112499
H -2.0673969231 -1.9977556243 -1.6982493463
H -2.0829992666 -1.5560592826 2.3230193724
H -3.3989163287 0.0375954512 -0.10866063
H -1.3661030621 1.7972650838 -0.1486027616

