# b3lyp 6-31G(2df,p) opt Freq 

 titel

0 1
C -0.4872376724 2.5268536276 -0.0422401494
C -1.013975981 1.1085232154 -0.0010574141
C -1.89102538 0.7129069018 1.2225043639
C -1.872240982 -0.8593313316 1.2217933348
C -0.9896446685 -1.1781211008 0.004149726
O -1.710015409 -0.8340220749 -1.1859875039
C -1.7573137666 0.6139976327 -1.2565613091
C 0.0228260571 -0.0267559983 0.0841290759
O 1.2142154529 0.0032504247 0.2012589152
H 0.1160175236 2.7383367543 0.8458195829
H 0.1494270342 2.6831420678 -0.9186603826
H -1.3027962813 3.256639405 -0.0798456934
H -1.4598416407 1.114830032 2.1439040465
H -2.9022241352 1.1186561025 1.1264536633
H -1.4407346175 -1.2590195054 2.144502134
H -2.8656428979 -1.2938045738 1.0908705438
H -0.6019961975 -2.1906682561 -0.0855832594
H -1.262654207 0.9451406054 -2.1789612892
H -2.8041657912 0.9420662016 -1.2846525854

