# b3lyp 6-31G(2df,p) opt Freq 

 titel

0 1
C -4.9032460344 1.5442340161 0.6717222841
C -3.4590318567 1.1156421002 0.7470833532
C -2.4415871094 1.5248528382 -0.3551141073
C -1.9310213702 0.0912380287 -0.1075233256
O -3.2549405496 -0.2889960011 0.3550109564
C -0.9711411201 0.0040871327 1.0951217925
O 0.3332413881 0.4811024627 0.7784028144
C -1.5904415336 0.7485859296 2.2613806677
C -2.7883316452 1.3099000505 2.0988468405
H -5.5042919974 0.998977672 1.4070849432
H -4.9954798528 2.615072858 0.8829609451
H -5.3109810261 1.3461325595 -0.3226170105
H -2.9136718323 1.613418354 -1.3357673268
H -1.7890790353 2.3798638198 -0.1647987917
H -1.5843575336 -0.5053578081 -0.9544539076
H -0.8295316971 -1.0525370935 1.3519763181
H 0.27718266 1.4383136349 0.6830903303
H -1.0200666025 0.8156938366 3.183196681
H -3.2865332618 1.883408379 2.8747393531

