# b3lyp 6-31G(2df,p) opt Freq 

 titel

0 1
C 1.3829226207 0.8718742246 0.2879976584
C -0.0126303216 0.3357387954 0.2750948948
C -1.1212312124 0.9869247726 -0.0936669941
C -2.3764925999 0.1697261699 0.057365463
C -3.2748847488 0.6368180432 1.2160062044
O -3.1209246748 0.1273134133 -1.1524441843
C -1.7907546034 -1.2303730421 0.3549887596
O -2.4220788828 -2.2489797918 0.2337293811
C -0.3125760807 -1.0845197059 0.7073962536
H 1.8092803888 0.8443099465 1.2988985597
H 2.0430920586 0.2645020974 -0.343984283
H 1.4190174253 1.9038990483 -0.0705007281
H -1.1496307462 2.0129948438 -0.4441742014
H -2.7244012845 0.6947508308 2.1605800453
H -3.6784898596 1.626834098 0.9856720593
H -4.1099939284 -0.0603266835 1.3414730887
H -3.6036571345 -0.7104365311 -1.138104443
H -0.1610308249 -1.2434000126 1.7848341245
H 0.2898323192 -1.8464538367 0.1980495714

