# b3lyp 6-31G(2df,p) opt Freq 

 titel

0 1
C 1.4154100852 -1.6598254161 -2.3279668686
C 0.338029846 -0.6359491077 -2.0732957937
O -0.2261217205 -0.1005857779 -3.2479114803
C -1.5509263601 -0.5256205733 -3.5426416635
C -2.4911846832 -0.3862214059 -2.3721817196
C -2.0302219677 -0.4746728838 -1.1256323498
C -0.5942858705 -0.7431797259 -0.8847294432
C 0.4631155444 0.3643528668 -0.9597463583
O 1.5924515644 0.2882915669 -0.1462736221
H 1.9143429498 -1.9357458176 -1.3966582549
H 0.9950590518 -2.5620979714 -2.7848405691
H 2.1650844792 -1.2484695631 -3.0112194242
H -1.8777824455 0.1014859868 -4.3783552477
H -1.5533156783 -1.5678746718 -3.9068475418
H -3.5423978087 -0.2179780339 -2.5854867127
H -2.6895725141 -0.3642819699 -0.2687620012
H -0.3551797396 -1.5270297994 -0.169776208
H 0.101787942 1.3652046653 -1.1938019377
H 1.3380100255 0.5470950518 0.7457448066

