# b3lyp 6-31G(2df,p) opt Freq 

 titel

0 1
C 3.8522960801 2.4302828159 -4.3321887996
C 3.6968475564 1.1388801964 -3.52524279
C 3.0058584505 1.3681271315 -2.1777970002
C 2.8150931147 0.0792000722 -1.3773231934
O 1.928356154 -0.7606277277 -2.0878269757
C 2.3335958414 0.3871383635 0.0509265866
O 2.8131702149 1.2707015545 0.7247488696
C 1.2888714087 -0.4858783045 0.5712965595
C 0.4515752397 -1.2249757658 1.0229863213
H 4.4443024375 3.1728491812 -3.7855762455
H 4.3519074538 2.243306557 -5.2877531992
H 2.8774910639 2.8808450028 -4.5494320391
H 3.1229181574 0.4046796666 -4.1002087489
H 4.6849693179 0.691817868 -3.351472205
H 3.5814846577 2.0632966652 -1.5588522767
H 2.0173926621 1.8179521438 -2.3355776464
H 3.8012570393 -0.4053817478 -1.24831346
H 1.7443934523 -1.5425607207 -1.5557442144
H -0.2945276322 -1.8607083421 1.4354726972

