# b3lyp 6-31G(2df,p) opt Freq 

 titel

0 1
C -0.206331227 1.2777652717 -0.7412092317
O -0.0555992756 -0.146131944 -0.526312754
C 1.1504338448 0.0470321561 0.2450529845
C 1.134804907 1.5768321866 -0.0492625503
C 2.3957258818 1.7309136751 -0.9189856664
C 2.4690707251 0.4174469866 -1.7129943555
C 2.4399426055 -0.4435514478 -0.4327107072
C 3.5843234753 0.2243937943 0.3549971133
O 3.5098559985 1.6176509189 -0.016164106
H -0.2848174598 1.5287565684 -1.8066616827
H -1.0871530443 1.6714257325 -0.2187740105
H 1.0350572562 -0.3036142103 1.2763760397
H 1.1228028346 2.2797798839 0.7825347266
H 2.4936946554 2.6674497432 -1.4691012311
H 1.6205845666 0.2299023341 -2.3713767635
H 3.4014163836 0.3330413965 -2.2755506246
H 2.5312306951 -1.5238042681 -0.5476543514
H 3.4690359867 0.1260838376 1.4421497475
H 4.5674686607 -0.1734364154 0.0752386033

