# b3lyp 6-31G(2df,p) opt Freq 

 titel

0 1
C 1.6032371764 -0.3026042458 -0.3533382439
C 0.1666766597 -0.1759886788 -0.154320175
C -1.02152726 -0.0759912295 0.0186570155
C -2.4696201989 0.037629175 0.1909112596
O -3.1597110728 -0.7255714946 -0.8019401211
C -2.9793902245 1.5188029427 0.2199370115
C -3.8331119305 1.5912934355 1.504409737
O -4.1303418818 0.2477982712 1.8529430813
C -2.9644248215 -0.4916828921 1.5596766768
H 2.1121362264 -0.5475232446 0.5853793698
H 1.8342525413 -1.0972649394 -1.0711702344
H 2.038751564 0.6274891486 -0.7347480206
H -2.7878115375 -0.4871757497 -1.6578915514
H -2.1577182009 2.2367242295 0.2273265293
H -3.5829680562 1.6853157359 -0.6748104479
H -3.268427891 2.0811274583 2.3144781872
H -4.7791210011 2.1222233871 1.3750966397
H -2.1862230112 -0.3311324136 2.3220494784
H -3.2184408301 -1.5511385256 1.505922208

