# b3lyp 6-31G(2df,p) opt Freq 

 titel

0 1
C 2.6054117834 2.2523840622 0.7129351043
C 2.4127703718 0.8359627209 1.1653888503
C 2.7051593921 0.3961504131 2.6162760126
C 1.9977017928 -0.9533504821 2.4247499451
O 0.62120939 -0.5277306035 2.1938063312
C 1.0874262891 -0.0635362475 0.9202480633
C 0.054727213 0.2969224915 -0.0999495132
C 2.2116258461 -1.1023024584 0.850259374
O 3.1924476456 -0.1620877035 0.4224399369
H 1.9674480611 2.9244211662 1.2954802617
H 3.6457449341 2.5645316018 0.8530987953
H 2.3566430969 2.3668165144 -0.3460073552
H 3.7813337557 0.3396654833 2.793375771
H 2.2097928688 0.9871275885 3.3891785157
H 2.0972857358 -1.755859868 3.1524326048
H -0.6429550645 -0.5314655179 -0.2526576432
H -0.5190475025 1.1737134317 0.2185227085
H 0.5363532165 0.5284167179 -1.0545274603
H 2.216707194 -2.0715132107 0.3543729871

