# b3lyp 6-31G(2df,p) opt Freq 

 titel

0 1
O 1.118020792 0.8861012547 0.2007590374
C 0.1752594901 -0.1440382248 0.4657775681
C -1.2367688354 0.2942049264 0.2188644727
C -2.0794292612 0.998673474 1.2478667707
C -2.5778188974 -0.3059539606 0.6871933064
C -3.1686734824 -0.160885944 -0.7348477093
C -3.8241315144 1.1766301899 -1.1323132462
O -2.5279443721 1.7624298218 -1.4322841393
C -1.8560710404 0.502402174 -1.1861825935
H 0.8279057359 1.6698258174 0.6797873112
H 0.4512430012 -0.9658438852 -0.2054410824
H 0.2658304504 -0.5246923888 1.4971342264
H -1.7063206816 0.9310157008 2.2658817869
H -2.554594421 1.9428126276 1.0066387818
H -2.7413121363 -1.163016573 1.3298167263
H -3.5448250301 -1.0788630184 -1.1826703305
H -4.4470252014 1.1206558358 -2.0335090566
H -4.3636278447 1.7297886246 -0.3547005013
H -1.2475186413 0.170338778 -2.0307231789

