# b3lyp 6-31G(2df,p) opt Freq 

 titel

0 1
O -0.5109932558 1.183166636 -1.6989523681
C -0.4599515198 1.7299326235 -0.3927496018
C -0.8776141172 0.691269612 0.6880104404
C 0.4025702798 0.0145372451 1.1606731137
O 1.2058709418 -0.283153577 -0.0385449855
C 1.8865485363 0.9690520323 0.1804243033
C 1.4727526585 1.0513957055 1.6590731539
C 1.0619752578 2.5243174294 1.4767478554
C 0.9569590879 2.2276153563 -0.0505607775
H 0.043075348 0.3914476177 -1.6624708245
H -1.1568314976 2.5743597818 -0.3962338832
H -1.3952808954 1.1611172938 1.5314624857
H -1.5650734068 -0.0300626666 0.2369324215
H 0.2528914383 -0.8813631421 1.767006836
H 2.9025824649 0.9883527371 -0.2158739125
H 2.096799456 0.7267498751 2.4912248979
H 0.1681704667 2.8984726374 1.9844503557
H 1.8996504115 3.1866424259 1.7119274425
H 1.294983755 2.9867631668 -0.7566020128

