# b3lyp 6-31G(2df,p) opt Freq 

 titel

0 1
C -4.2785381139 -0.4404889812 -0.0052870362
C -2.7619915584 -0.378375726 0.0011419261
C -1.9470327945 -1.1085600644 -1.105124011
C -0.8263020363 -1.2485721926 -0.0351197718
C -1.95205202 -1.2091554578 1.0379945658
C -0.050236869 0.0482937419 0.0279322615
O 1.1448594248 0.1455856003 0.0337643679
O -0.82038542 1.171352327 0.0781301437
C -2.2566799227 1.0625731784 0.0697222069
H -4.7008273719 0.0084697931 0.9011212216
H -4.6967772079 0.0918345153 -0.8673630234
H -4.6214418059 -1.4785865497 -0.0550065324
H -2.3814414512 -2.0813050907 -1.3501261195
H -1.7187052463 -0.5658603544 -2.0267033401
H -0.1345612237 -2.0876709753 -0.0729332127
H -2.3873134575 -2.2005133353 1.1887445047
H -1.7281841908 -0.7552132445 2.0074198784
H -2.6169055817 1.5552865018 0.9808795522
H -2.612814963 1.6381981541 -0.7931598016

