# b3lyp 6-31G(2df,p) opt Freq 

 titel

0 1
C -0.1867490193 -0.0387875658 -0.1122011204
C 1.3231947811 0.062649423 0.0260365152
C 1.8370859742 -0.616807508 1.2873425409
O 1.7729574509 1.4683054011 0.0147101689
C 2.6928351563 1.1934696378 -1.0344444344
C 1.9967700144 0.7568593632 -2.2945524491
C 2.1982878589 -0.2479433504 -1.202838371
C 4.0740977991 1.6959049901 -0.9591299197
O 4.9074280182 1.5171637833 -1.8167335836
H -0.6722582354 0.4537589311 0.7362198019
H -0.5411532463 0.43706125 -1.0289530871
H -0.4986402503 -1.0880623047 -0.1222215879
H 1.6039863561 -1.6869750212 1.269612787
H 2.9204842466 -0.5000715364 1.3763674399
H 1.3675901701 -0.1760724049 2.1715990602
H 1.0180228324 1.1757415911 -2.5051419107
H 2.6578350223 0.638172327 -3.146409248
H 2.7995969714 -1.1393506435 -1.3263849943
H 4.2941875093 2.2505906472 -0.0209602078

