# b3lyp 6-31G(2df,p) opt Freq 

 titel

0 1
O -0.6799781792 1.4220442644 0.016897798
C -0.688629461 0.0669108096 0.3613547289
C -0.8214046467 -0.3042729524 1.8026165038
C -0.3861480766 -1.6861482018 2.2650016903
C -0.9580173162 -2.6636353735 1.2108390308
C -2.2382769949 -1.9884877858 0.6658258689
C -2.0172777302 -0.4921954185 0.8354791824
C -3.19050749 0.4014980821 0.9477559749
O -4.3346875307 0.0072132462 0.9362522851
H 0.1554173849 1.7987119301 0.3130262601
H -0.102431415 -0.5715756226 -0.3011456319
H -0.8461713288 0.518180159 2.5107906583
H 0.700683408 -1.7773236587 2.3690505446
H -0.8216363947 -1.8818749054 3.2514220572
H -0.2326087835 -2.8067444679 0.4034739685
H -1.1561143039 -3.6537663094 1.6288246281
H -2.4450307679 -2.2684222883 -0.3718391202
H -3.1213929565 -2.263636472 1.2505688442
H -2.9517294371 1.4775973148 1.0598947281

