# b3lyp 6-31G(2df,p) opt Freq 

 titel

0 1
C 1.1562673715 0.7562388485 -0.5097911781
C -0.0649771176 -0.0962162486 -0.2789588435
C 0.0192476653 -1.3103767185 0.2725694577
C -1.1208724615 -2.2572152039 0.5943330252
C -2.1732376987 -1.5572804046 1.4466616508
O -2.422092474 -1.8519366562 2.5889318686
C -2.9224100891 -0.4152251354 0.7480566868
O -2.5279835217 -0.2088183207 -0.5873502583
C -1.3500755305 0.5555867292 -0.7367758848
H 1.0818834759 1.7123279639 0.0246226814
H 2.0653866778 0.251722123 -0.1750140663
H 1.2755260564 1.002445855 -1.5728622804
H 1.0047962471 -1.6619535165 0.5671014356
H -1.599564063 -2.6149736822 -0.3247732601
H -0.7560463431 -3.1188575389 1.1556488713
H -3.9852408396 -0.6813429419 0.7345417773
H -2.8217948522 0.4973331454 1.3559189582
H -1.2790114482 0.7812839339 -1.8087411721
H -1.4622017246 1.5292031485 -0.2234096693

