# b3lyp 6-31G(2df,p) opt Freq 

 titel

0 1
C -3.2833399358 -1.2968591838 1.0247812364
C -2.311149797 -0.8153601038 -0.0520772905
C -2.153567846 0.7181158542 -0.0922981374
C -1.6803928484 1.2911868103 -1.3902248163
C -0.6806809831 1.0694235191 -0.2644394881
C 0.0616780215 -0.2259619876 -0.3341315799
O 1.1988478352 -0.433235663 -0.6881188824
C -0.8720117476 -1.3362184487 0.1485843333
O -0.5995198261 -2.5757618811 -0.4416915062
H -3.32674483 -2.3898558232 1.0448139985
H -2.9719006212 -0.9529373988 2.0179177557
H -4.2950295223 -0.9207137074 0.8413109829
H -2.6575589243 -1.1779380663 -1.0269171666
H -2.7881693713 1.318037558 0.550082673
H -1.6430428667 0.6464195007 -2.2630914708
H -1.9026821596 2.3289313268 -1.6127512683
H -0.1983050936 1.936231591 0.1704498625
H -0.6919740437 -1.3699180716 1.2435784896
H 0.32946943 -2.5343100348 -0.7139672652

