# b3lyp 6-31G(2df,p) opt Freq 

 titel

0 1
C 1.6060804397 -0.5142850424 0.7010954749
C 0.277584449 -0.1108067569 0.2757365876
C -0.8265486834 0.2401643385 -0.0637069241
C -2.149866809 0.6377491161 -0.4860417047
O -2.6973009225 1.622323751 -0.017782125
C -2.8077567724 -0.2484421582 -1.531467614
C -4.0447605849 0.3928163818 -2.1828602622
C -4.6670762272 -0.5221279818 -3.2299905626
O -5.0415348611 0.6726899526 -1.2167910584
H 1.5930407054 -0.8374294738 1.7477472959
H 1.9896509733 -1.3411866178 0.0949368071
H 2.3086567653 0.3223401238 0.6227650038
H -2.0564577512 -0.5232169642 -2.2816873407
H -3.0974950094 -1.1833327943 -1.0302580502
H -3.7189201201 1.3252663593 -2.6742476861
H -3.9568378398 -0.7473572452 -4.0314899961
H -4.9885007134 -1.4629070809 -2.7713208922
H -5.5459018833 -0.0405642972 -3.6665041334
H -4.6252277049 1.2736215696 -0.5836165096

