# b3lyp 6-31G(2df,p) opt Freq 

 titel

0 1
O 1.198892906 0.0235593514 -0.6728940754
C 0.0637222993 0.0216720705 -0.2936559815
C -0.9616109641 -1.0847057788 -0.0090333383
C -2.0705566981 0.0074807275 -0.0145302064
C -0.9655394077 1.1217174545 -0.0018641806
C -3.0283428755 0.0300993113 -1.2102048857
C -4.2188027433 0.8150494009 -0.6442718156
C -4.2489357962 0.3104909705 0.8033337965
O -2.8963893402 -0.0106201285 1.1412370962
H -1.0295584915 -1.9009999982 -0.732955593
H -0.8305235795 -1.5035896958 0.9943308997
H -1.0333699132 1.9452166407 -0.7179310089
H -0.8367908207 1.5289844966 1.0064123369
H -2.5862814318 0.4779796286 -2.10327144
H -3.3318928395 -0.9929700846 -1.4606182539
H -4.0162249058 1.891025487 -0.6715282385
H -5.15527098 0.6337820648 -1.1765750735
H -4.6244052212 1.0545394946 1.5136525659
H -4.8699008372 -0.592132723 0.896879806

