# b3lyp 6-31G(2df,p) opt Freq 

 titel

0 1
O 1.4228635736 0.6390815786 0.1519912024
C 0.1374204751 0.0271229645 0.1083822612
C -0.5995321492 0.1321366284 1.4222982425
C -0.0310798879 -0.5310970577 2.6768723575
C -1.1117422071 -0.1413494243 3.7313952168
C -2.0655202662 0.6590607054 2.8544475083
C -2.1607728932 0.0087894223 1.4442341332
O -2.3091753736 1.3255925973 0.8099213833
C -1.2566346724 1.4958367969 1.8232953505
H 1.988699984 0.0996702359 0.7124733473
H -0.4313150342 0.5629675853 -0.6560240033
H 0.2102447154 -1.0276429735 -0.2023916763
H 0.0676189086 -1.6156061131 2.5571105196
H 0.9582417574 -0.1380397698 2.9333737491
H -1.5953333173 -1.0150658629 4.1785463661
H -0.702487384 0.4589443067 4.5494315635
H -2.9693212702 1.0979200862 3.2752247975
H -2.7999687588 -0.8023758202 1.0905679015
H -0.7969765801 2.4796930541 1.9217198894

