# b3lyp 6-31G(2df,p) opt Freq 

 titel

0 1
C 1.5126984926 -0.1770558978 -0.1198750655
C 0.0579360444 -0.1369067388 -0.1343701007
C -1.1468901135 -0.0890283319 -0.1325010364
C -2.5845614841 -0.0278891948 -0.1822681908
O -3.3185892367 -0.0580425287 1.0582524406
C -3.4476539224 -1.1797729923 0.1786393384
C -4.7880797698 -1.3560254095 -0.4920562727
C -2.7707792705 -2.4544610379 0.6598913848
O -2.3148780518 -3.2403108249 -0.4303198629
H 1.8812340448 -0.9708273768 0.538623989
H 1.9129136734 -0.3630952148 -1.1225015574
H 1.9304126839 0.7716713862 0.2340929012
H -2.987230593 0.6827911587 -0.9041440077
H -5.5258428588 -1.7191383472 0.2319630339
H -5.1537646005 -0.4155822571 -0.9112035999
H -4.7036779071 -2.0983682692 -1.2911484691
H -1.9608748064 -2.1879400167 1.3495348944
H -3.490482613 -3.0747542995 1.2050310744
H -1.5865778814 -2.7547965269 -0.8344719834

