# b3lyp 6-31G(2df,p) opt Freq 

 titel

0 1
C 1.1355071619 1.2674811658 -0.0112353152
C 0.931889398 -0.2413844853 0.0419659656
C 1.7759217308 -1.0199160233 -0.9747590681
C 2.9105500128 -1.2189109228 0.025284303
C 1.7888336704 -0.9701713079 1.1196039193
C 1.3841281897 -2.465024933 0.9769230179
O 2.0614291095 -3.3609368101 1.8412748867
C 2.0317510931 -2.3983269392 -0.4007114499
O 2.3073764467 -3.4643772024 -1.2219725857
H 0.6801020093 1.7551980648 0.8574760225
H 2.2013921427 1.520081952 -0.0223291022
H 0.6800481099 1.6951426177 -0.9110638999
H -0.1409348452 -0.4763229043 0.0672899368
H 1.8724450733 -0.8531785891 -2.0413685846
H 3.9663587773 -1.0064967141 -0.051398518
H 1.9379662283 -0.5485018926 2.1128428679
H 0.3220795323 -2.7199445026 1.0590808779
H 2.9877851937 -3.088034998 1.8643506875
H 2.6495152755 -4.1688147856 -0.6573375415

