# b3lyp 6-31G(2df,p) opt Freq 

 titel

0 1
C 0.0769804638 -0.2410953531 -0.3136556968
C 1.5732356286 -0.1216004185 -0.0989259401
C 2.3967619646 0.2320141678 -1.3581680081
O 3.5268237485 0.916642657 -0.8223808553
C 3.2372571342 1.1943868635 0.5500401137
C 3.9615080037 0.1830991403 1.4494617462
C 3.2927410604 -1.1635397304 1.3300949314
C 2.1881743171 -1.319580929 0.6027514172
O 1.8440859657 1.0566983059 0.6882715622
H -0.4335213308 -0.4137892167 0.6377184819
H -0.3178637517 0.6752551135 -0.7597208965
H -0.1462620356 -1.080949492 -0.9792607183
H 2.7344116297 -0.6466808848 -1.9157864367
H 1.8276926149 0.8933586384 -2.0263523666
H 3.5107058212 2.2301724843 0.7740157053
H 5.0119180243 0.1260662476 1.1404154189
H 3.9567666085 0.5301387461 2.4920734078
H 3.7374722755 -2.0025350311 1.8584820979
H 1.7074427875 -2.2862237688 0.4846998556

