# b3lyp 6-31G(2df,p) opt Freq 

 titel

0 1
C 1.580397235 0.2138646005 -0.1891354298
C 0.1332154052 0.0989042576 -0.0802903295
C -1.0657397716 0.0127562158 0.0018304476
C -2.5013469347 -0.1185473858 0.1250182852
C -3.1790419887 -1.5006464024 -0.0922958739
O -3.6754119741 -1.6718142478 -1.3961995872
C -4.1721499393 -1.1606662825 1.0536913561
C -3.1708764151 -0.0705393401 1.5272019466
O -3.6589887962 1.2046297602 1.8611717453
H 2.0368921896 0.4420304146 0.7806745935
H 2.0285991752 -0.7174618356 -0.5534500788
H 1.8660340842 1.0114438512 -0.8840980487
H -3.0280782073 0.603388581 -0.5098335641
H -2.4968829174 -2.3127970191 0.1904169716
H -4.0313964543 -2.5626921251 -1.4724153289
H -5.0680048904 -0.6884101139 0.6411804806
H -4.452037334 -1.9514594389 1.7534170926
H -2.4862779314 -0.4549850926 2.2942629303
H -4.0100609548 1.1718072631 2.7566426015

