# b3lyp 6-31G(2df,p) opt Freq 

 titel

0 1
C 0.1551601046 0.6048065869 0.1687358754
C 1.6060216845 0.1405750507 0.0262204324
C 2.2785699046 -0.0246076901 1.3857048898
O 1.6215932954 -1.1250223327 -0.6841060562
C 2.2326566652 -0.8175125803 -1.9565151221
O 1.8112721594 0.5021231698 -2.2220880253
C 2.3791606603 1.0462949981 -1.0131990618
C 3.8136923022 0.5442066106 -1.0883366077
C 3.7292225679 -0.6388359825 -1.6981710126
H -0.4264845276 -0.1518605189 0.7032235374
H 0.1000458071 1.5411491279 0.7351283137
H -0.2926938946 0.7563183896 -0.8147726658
H 1.7011411115 -0.7196577337 2.002652955
H 3.2897400647 -0.4216090811 1.2828324928
H 2.3258403019 0.9335089779 1.9151088944
H 1.8892768477 -1.5237433043 -2.7096891819
H 2.1973758785 2.1164722948 -0.9353537348
H 4.6702040011 1.014028248 -0.6260615319
H 4.4935737154 -1.3843302106 -1.8652551407

