# b3lyp 6-31G(2df,p) opt Freq 

 titel

0 1
C -3.1807079353 -1.4033697105 1.2945389099
C -2.2747079106 -0.7692264596 0.2394220558
O -2.8072177063 -0.9876003506 -1.0702431956
C -0.8035738344 -1.2470600605 0.2911118185
C 0.018744148 -0.0642854883 -0.248621523
O 1.0795163518 -0.1441215433 -0.814553859
C -0.7646251719 1.1839540762 -0.0011268863
C -1.3138087162 1.3304636575 1.4149360224
C -2.1795575748 0.754471744 0.3470890484
H -3.2064805426 -2.4938183122 1.1804560931
H -2.8315385296 -1.1836151141 2.3078868208
H -4.2019038183 -1.0256760888 1.1884951132
H -2.8919037921 -1.9381486388 -1.2011849782
H -0.4786344265 -1.4803380755 1.3118978916
H -0.6329211515 -2.138003317 -0.3167769727
H -0.5253826683 2.0704518241 -0.5735309091
H -0.917762583 0.6959331238 2.2008572769
H -1.52281709 2.3456393808 1.7322705336
H -3.0341707583 1.3143811828 -0.0139435902

