# b3lyp 6-31G(2df,p) opt Freq 

 titel

0 1
C -3.162665764 0.561489101 2.1089409631
C -2.1410416014 -0.5192199426 1.7292507893
C -1.5536991432 -1.2720181309 2.9609505939
O -0.3143494772 -0.5423378003 2.8776397635
C -0.6851645165 0.0402524243 1.6015254863
C 0.2219336565 -0.4987898701 0.5079420704
O 1.5686498634 -0.1967069396 0.8184731112
C -2.6310731782 -1.3510946069 0.6432574158
C -3.0599552015 -2.0374033514 -0.2464388449
H -2.782261388 1.1652776271 2.938463269
H -3.3592082691 1.2219329749 1.2594326679
H -4.1103253754 0.1076036188 2.4128318407
H -2.0718246478 -1.0963002376 3.9102625093
H -1.4144834305 -2.3483154953 2.8110871219
H -0.6151990594 1.1339819028 1.6420795447
H 0.0628329553 -1.5810177527 0.3893789903
H -0.0090939798 -0.0217447265 -0.4502447596
H 1.7096409098 -0.5224265518 1.7163776103
H -3.4305721229 -2.6447797333 -1.0349938932

