# b3lyp 6-31G(2df,p) opt Freq 

 titel

0 1
C -0.039550052 -0.230026131 -0.1465227333
C 1.3018204848 0.4343524873 -0.0315102791
C 1.906273327 0.9991665813 1.2595137768
C 3.3276675766 0.8065239435 0.63517006
O 4.3179476695 0.175867688 1.3929711365
C 3.7456842281 2.0872901124 -0.1031076637
O 2.6830721704 2.3155751872 -1.0301871662
C 2.0215225842 1.0744299899 -1.2047014762
C 2.6902272688 -0.0472067535 -0.491179153
H -0.1476061022 -1.0374967022 0.5868879336
H -0.8507212551 0.4876246414 0.0249270533
H -0.1852617137 -0.6637129692 -1.1416793651
H 1.6143922628 2.0107854736 1.5652934073
H 1.771345164 0.3014765634 2.0911404495
H 4.5390999018 0.7461406946 2.1374973089
H 3.8265970211 2.9607630305 0.5547667803
H 4.7034082813 1.9368165114 -0.6239805475
H 1.5980006814 0.9523661439 -2.1948923869
H 3.0538170612 -0.9827064722 -0.895655455

