# b3lyp 6-31G(2df,p) opt Freq 

 titel

0 1
C 2.5675732739 1.494290291 0.3271887574
C 1.6720098629 0.2776505389 0.2468489109
C 1.914405146 -0.786265096 -0.8173015683
C 2.2111153003 -1.0664941325 0.619762695
O 3.5422268583 -1.2608973771 1.1167529792
C 3.1202244094 -2.3670722667 1.9534434033
C 1.6751694907 -2.1600396474 1.5070326837
C 0.3989799021 -2.3406549981 2.1914506009
O 0.7972774934 -3.1826425219 1.0930090909
H 2.5240649929 1.949902942 1.3221217414
H 3.609631704 1.2240695538 0.1360584058
H 2.2691588218 2.2520050949 -0.4049000102
H 0.6304474898 0.4534084134 0.5091151375
H 1.0663884425 -1.2921709759 -1.267226535
H 2.7704044042 -0.6492293184 -1.470706288
H 3.558149934 -3.3195287336 1.6339138342
H 3.3404614945 -2.1877860566 3.0114639441
H 0.3688864775 -2.8274604937 3.1654790824
H -0.4300089781 -1.665762326 1.9830222248

