# b3lyp 6-31G(2df,p) opt Freq 

 titel

0 1
C 2.7499215781 0.2191991888 -1.4738367717
C 1.739858777 0.5278764228 -0.3754051085
C 2.1955130718 1.6529363902 0.6264511047
C 2.1211961509 0.6296775619 1.7617653489
O 0.8007502465 0.1145614909 1.7979851752
C 1.6995002409 -0.4497173935 0.8214425826
C 1.9512965253 -1.9156453246 0.8815654651
C 1.6616710353 -2.6037600266 2.1999884425
O 2.3582719008 -2.5119953063 -0.093222557
H 2.4600198321 -0.6672379645 -2.040437056
H 2.8262375168 1.0698983565 -2.1597266603
H 3.7453571277 0.0308365895 -1.0581815716
H 0.7435138145 0.6868380272 -0.7974436668
H 3.2146109397 1.9899537981 0.4213384569
H 1.5387795709 2.5174774737 0.7474743342
H 2.7038587613 0.5678356095 2.6750894036
H 2.1119563734 -2.0666232532 3.0402229053
H 0.5816043907 -2.6121869393 2.3795436021
H 2.0375582763 -3.6266520211 2.1589397607

