# b3lyp 6-31G(2df,p) opt Freq 

 titel

0 1
C -2.8104958249 -2.5107229276 -0.9876407453
C -2.2033334702 -1.2633941141 -0.3874817435
C -2.9897979886 0.0334134068 -0.5696044318
C -2.1230920279 1.2980247762 -0.6987993394
C -0.9022384553 1.2851233081 0.2439236362
C -0.0230184035 0.1060009112 -0.1235072342
O 1.1428334255 0.1941028548 -0.4358941598
C -0.7342146563 -1.2168826713 -0.1454575771
O -1.6671303192 -1.4323672894 0.92667455
H -3.8322017601 -2.6507085504 -0.6172615456
H -2.856414451 -2.4343217797 -2.0788189164
H -2.2250314557 -3.3932088208 -0.7194354124
H -3.6354514144 -0.0572008263 -1.4493908835
H -3.6561739755 0.1189252388 0.2976911718
H -1.7621475518 1.3872327184 -1.7309195829
H -2.7332292161 2.1861507062 -0.5070993165
H -0.3123066289 2.1994731093 0.1538713771
H -1.2337698059 1.1757077891 1.2828261033
H -0.1114818404 -2.0703361492 -0.40875412

