# b3lyp 6-31G(2df,p) opt Freq 

 titel

0 1
C -3.1632928397 -1.4311916132 -0.9595892916
C -2.239703625 -0.7680373015 0.048977103
C -2.7918965444 -0.583579962 1.4828640519
O -2.5373060233 0.8358980099 1.4584113939
C -2.150820763 0.7989230073 0.0665904049
C -0.7049574485 1.2179945917 -0.1278119243
C 0.1097055028 -0.0330527444 0.2246781941
O 1.2537765008 -0.0556168047 0.5912163414
C -0.7857740216 -1.2632366543 0.007443701
H -3.2530498785 -2.5063543598 -0.7665627116
H -4.1690145559 -0.9998111554 -0.9208910613
H -2.7844723337 -1.3110368758 -1.9808738473
H -3.8626817155 -0.8043348954 1.5867224041
H -2.2443689719 -1.0848976319 2.290387835
H -2.8663836956 1.3382339109 -0.5646871811
H -0.5040925676 1.4728953027 -1.1775337057
H -0.4162977513 2.072360392 0.4879509046
H -0.5396671464 -1.6699780678 -0.982753538
H -0.5515597416 -2.0422736083 0.7376077969

