# b3lyp 6-31G(2df,p) opt Freq 

 titel

0 1
C -1.3715297881 1.2679901352 -1.2968560016
O -1.6885111272 2.4204736304 -0.5260879708
C -0.6429924847 3.0798151128 0.1292818571
C 0.8024816905 2.6394640541 -0.012036695
C 1.083402419 1.4706145428 -0.9309196409
C -0.1179899348 0.5222510564 -0.8211366345
C -0.2190284956 0.0306797372 0.62870062
O -0.4265931583 1.0673483921 1.5800303099
C 0.0384003826 2.3491837488 1.2666070504
H -2.2555085316 0.6227188775 -1.2454572635
H -1.2272339583 1.5540068738 -2.3514426166
H -0.8655974762 4.137570273 0.228131493
H 1.558784532 3.4180060222 0.0349108392
H 1.2122678276 1.8126524255 -1.9646757487
H 2.0073854052 0.9592161615 -0.635987634
H 0.0201554287 -0.3532983233 -1.4663520842
H -1.0609741006 -0.6596402465 0.7514410479
H 0.7034438587 -0.5201440683 0.8744745782
H 0.2985444212 2.8888844447 2.171707324

