# b3lyp 6-31G(2df,p) opt Freq 

 titel

0 1
C 2.567833324 2.1704233394 -1.2728200057
C 3.0514219574 0.7418333798 -1.0591728038
C 2.5520726062 0.145351297 0.283742852
C 1.103022773 0.0422923804 0.382676184
C -0.0930622263 -0.0318924934 0.4733846237
C 4.5808676774 0.5758225924 -1.1685205247
O 4.7252389656 -0.726394675 -1.7112284676
C 3.6754421009 -0.8321311082 -2.6408410841
O 2.5832724744 -0.0864679974 -2.1354845447
H 2.9703299432 2.8350205915 -0.5005701686
H 2.889934176 2.5367287274 -2.251088573
H 1.4772801877 2.2123181754 -1.2258800253
H 3.0050176934 -0.846721926 0.3955194579
H 2.9328648162 0.7641100706 1.1071397852
H -1.1493589091 -0.1074024239 0.5483245549
H 5.0063788263 1.3366358635 -1.8412014162
H 5.1029735194 0.6105935846 -0.209982421
H 3.9753406088 -0.4240262697 -3.6226079755
H 3.4034759054 -1.8881220282 -2.7429557476

