# b3lyp 6-31G(2df,p) opt Freq 

 titel

0 1
O 1.0700310068 -0.7559105497 0.5320374739
C 0.2041884515 -0.0648688649 0.0575204076
C 0.3035981591 1.4194332448 -0.0574532369
O -0.9439294167 2.1168424651 -0.1788827982
C -0.0839855922 2.1099648365 -1.3136841791
C -0.561177249 1.3957192393 -2.5816112977
C -0.6559263519 2.5233115621 -3.6253723064
C 0.527854144 3.440215614 -3.2654081672
C 0.5317709221 3.4559514588 -1.7234896466
H -0.747025573 -0.4866129538 -0.3349982134
H 1.0517899389 1.8821764264 0.5853860498
H 0.1862938908 0.6584961366 -2.8981600542
H -1.5012506154 0.8671240746 -2.4096604896
H -0.6190327877 2.1561886669 -4.6539704525
H -1.6001978316 3.0669968931 -3.5028362102
H 1.4606709617 3.0028833153 -3.6404331562
H 0.4428392752 4.4413237793 -3.6952457413
H 1.5257562131 3.6124785471 -1.2973160406
H -0.1180874757 4.2480718483 -1.3362381513

