# b3lyp 6-31G(2df,p) opt Freq 

 titel

0 1
O 0.7034464667 0.1728729931 0.7816235638
C 0.0700324125 -0.2255332306 -0.1599061332
C -0.4638060965 0.6651700119 -1.2788816649
C -0.8906282563 2.0395059225 -0.7529778305
C -1.2409479823 3.0564890899 -1.8104536837
C -1.9779939226 2.861626418 -2.9049177933
C -2.6408638645 1.5770227717 -3.3444708557
C -1.794478567 0.3063007746 -3.2318990466
O -1.4933307252 -0.0746369877 -1.9004270313
H -0.1727501097 -1.3007326524 -0.3063237373
H 0.3747712109 0.8030622175 -1.9879724312
H -1.7452936285 1.8909696854 -0.0772868646
H -0.0723143235 2.4076002837 -0.1272472286
H -0.8723236392 4.0631106063 -1.6256687093
H -2.1626900526 3.7229446923 -3.5431830441
H -3.5647731463 1.4213374057 -2.7685802681
H -2.951103551 1.6706604054 -4.3920081947
H -2.3503505956 -0.5358965455 -3.6568323888
H -0.8625154593 0.4247964381 -3.8072879579

