# b3lyp 6-31G(2df,p) opt Freq 

 titel

0 1
O 0.4842292363 0.286398232 0.7266226522
C -0.7985440048 0.6590765299 0.3336601782
C -1.9582062894 -0.3155178278 0.4733769357
C -1.8322776203 0.8813569582 1.3913458112
C -2.8333059188 2.0337508879 1.4624764257
C -3.249908846 2.0360628432 2.9262689401
C -3.6995840691 0.710043229 3.5194946152
C -2.2635239235 1.1468802847 3.6262567741
O -1.3441712842 0.6192950854 2.7001638474
H 0.5052289959 0.3489936923 1.6906026418
H -0.7947301595 1.3207057545 -0.5296873385
H -2.7361912482 -0.3139587806 -0.2844509022
H -1.721303023 -1.281856745 0.9057480171
H -2.3551509861 2.9882853045 1.2136102407
H -3.6666146146 1.8850283105 0.769296627
H -3.6021494905 2.9601504432 3.3685598545
H -4.2991385326 0.7505143118 4.4225297399
H -3.9409358738 -0.1090036356 2.8506758259
H -1.8003616077 1.3665882219 4.5802324741

