# b3lyp 6-31G(2df,p) opt Freq 

 titel

0 1
C 1.5802558754 0.6940280689 0.1478536579
O 0.2187895089 0.9968790101 0.3372720601
C -0.4867705164 -0.0426423339 0.990068989
C -1.9309076769 0.3273534652 1.0706532523
C -2.7241556852 0.2329322492 2.1439982439
C -4.1348766097 0.5535866898 1.7808646886
O -4.6850546297 -0.341261071 0.7839727774
C -4.1308322742 0.9014098323 0.3481029389
C -2.6964864766 0.8075383209 -0.153295841
H 1.7162969574 -0.2115769824 -0.4648694946
H 2.0350809852 1.542474243 -0.3688818488
H 2.102470414 0.5397564799 1.1054721431
H -0.3702878317 -0.9839182657 0.4207495723
H -0.0776008455 -0.2244238656 1.9974774793
H -2.4112436117 -0.073558772 3.1350579998
H -4.8521272216 0.9357146249 2.5005549924
H -4.8357965059 1.596008961 -0.1005597453
H -2.6030150068 0.112284635 -0.9965062802
H -2.3206878891 1.7778095604 -0.4968880152

