# b3lyp 6-31G(2df,p) opt Freq 

 titel

0 1
O 0.9863266456 0.9432684425 -0.2867916648
C 0.0710590335 0.1731098934 -0.4038734888
O -1.2336965963 0.4658735424 -0.3905143588
C -1.5987149213 1.8614147603 -0.2131307968
C -1.8486815278 2.5380684104 -1.5325825947
C -0.6609599251 3.1274832255 -2.250474111
C -1.0923891153 3.6646079704 -3.6206133274
C -2.1331225603 4.5947317011 -2.9096814597
C -1.6777654178 4.035612654 -1.5563305295
H 0.1825764592 -0.9148547884 -0.5329354376
H -2.5062294047 1.8263331301 0.3947696933
H -0.8046147952 2.363872947 0.3441012996
H -2.6539665683 2.0936226297 -2.1177094795
H 0.3461164432 2.8736744524 -1.9459737607
H -0.3079658218 4.2349159252 -4.1223622615
H -1.4870074428 2.9235506061 -4.3237108869
H -1.8920513909 5.6522952511 -3.0358383009
H -3.1885352748 4.4458544468 -3.16090038
H -1.5725822793 4.6061422799 -0.6404313744

