# b3lyp 6-31G(2df,p) opt Freq 

 titel

0 1
C 1.44396977 -0.9726284822 -0.8457425088
C 1.1452265794 0.0275433914 0.272963569
C 1.708230472 1.4286670454 -0.0166617929
C 1.4085291465 2.4039083322 1.0744032383
O 2.1196140234 2.3338957329 2.3128297785
C 2.0919539553 3.5808342937 1.6158005989
C 0.6988562255 4.2708574435 1.9053490616
O -0.0499913038 3.4189092764 2.7687637187
C 0.0053836811 3.0963242005 1.3810560004
H 1.0350936213 -1.9606008282 -0.6136985416
H 1.0090991384 -0.6471782244 -1.7976065396
H 2.5230858402 -1.0861147009 -0.9975468736
H 0.0609341824 0.0976708025 0.4272296164
H 1.5659047739 -0.3302175286 1.2195593703
H 2.7952488605 1.3746734427 -0.1494983532
H 1.2910455131 1.8090648817 -0.9592063621
H 3.032177953 4.0540453335 1.3593621347
H 0.4568213508 5.3256537153 1.8743140036
H -0.9235736931 2.9939986026 0.8330232715

