# b3lyp 6-31G(2df,p) opt Freq 

 titel

0 1
C 1.4730760462 -0.1300765144 -0.1158075975
O 0.0566310263 -0.1919806327 0.0040813809
C -0.4367422336 0.48697378 1.0744929347
C -1.7926600495 1.0091311315 1.3559521364
O -1.953572865 0.3624250347 2.6147798295
C -0.5046902505 0.2461270314 2.6565738993
C -0.0293267369 1.7063985232 2.8578909189
C -0.5575549823 1.9699914507 1.4469815518
C -0.4301343343 3.1984358883 0.5975928347
H 1.9671432476 -0.5985432125 0.7461240856
H 1.7377761633 -0.680417818 -1.0206274077
H 1.8210525864 0.9069751473 -0.2042387572
H -2.6556715994 1.1896807151 0.7287068645
H -0.1497984103 -0.5914463156 3.2531626166
H -0.4871183964 2.2360403297 3.6996732444
H 1.0610335597 1.7856385591 2.9015369113
H -0.9868280406 4.0391949233 1.0276958663
H 0.6149193155 3.5122552103 0.4932334605
H -0.8222560461 3.0220032484 -0.4100828329

