# b3lyp 6-31G(2df,p) opt Freq 

 titel

0 1
C -0.0438543747 0.314015181 0.0694822457
C 1.449320092 0.1589055029 0.0944940493
C 2.4511099939 1.2582033141 -0.35554703
C 3.2572788781 -0.0226289626 -0.655092366
O 2.0004240091 -0.6971586256 -0.9699730562
C 3.544651948 -0.5646400519 0.7416299108
C 4.8303280036 -0.5240988212 1.4367236864
O 4.310013213 -1.7479292283 0.8953352533
C 2.1354156789 -0.4474157204 1.3481825478
H -0.3697495043 0.9976988313 0.8601600944
H -0.3766160002 0.7106339281 -0.89353872
H -0.5316405453 -0.6525092582 0.2323965639
H 2.1220631105 1.75603352 -1.2686584401
H 2.830813895 1.9723969157 0.380578788
H 4.0283523152 -0.1094255493 -1.4192833831
H 5.7145908356 -0.1314066735 0.9346329691
H 4.855404173 -0.467058732 2.5243757511
H 1.7273814618 -1.43118051 1.591490683
H 2.083539357 0.1968056099 2.2302665827

