# b3lyp 6-31G(2df,p) opt Freq 

 titel

0 1
C 1.1500833466 0.8828061541 -3.2602676146
C 0.3406831614 0.0560051661 -2.29405477
C -1.0775771997 -0.4763879293 -2.6892806474
O -0.4902794008 -1.4609310281 -3.6075243971
C 0.3431698907 -1.5081725923 -2.393653425
C -0.9180250341 -1.4502290329 -1.4884384494
C -0.6158756964 -0.6531449502 -0.2284115235
C 0.3314883703 0.4364835509 -0.8177829074
O 1.6672114491 0.3591035494 -0.3370373951
H 2.1986613345 0.9139478875 -2.9510053574
H 1.0852959473 0.4550809925 -4.2639375603
H 0.7840306206 1.9153992816 -3.2980553421
H -1.9552544139 0.0761919125 -3.0298700114
H 1.185018731 -2.2004904334 -2.3797121885
H -1.5629475924 -2.3271156212 -1.4539306475
H -1.5183497287 -0.232165203 0.2267932432
H -0.0931825633 -1.2437047233 0.530444724
H -0.0688917154 1.4507106227 -0.6692984195
H 1.6700602033 0.6228726865 0.5881916789

