# b3lyp 6-31G(2df,p) opt Freq 

 titel

0 1
C -0.001656752 -0.2771369789 0.1001662981
C 1.3311285502 0.3385475925 0.4865785425
O 2.0753608085 -0.4982295509 1.3348980507
C 1.3701457021 1.8942189333 0.7506573644
O 1.1242925618 2.079671877 -0.7000937819
C 2.1743181767 1.0349541187 -0.625551309
C 2.872687395 1.8820384528 0.4473564606
C 4.1192575016 1.7728191552 1.2446124783
C 3.8719612074 2.9785470779 0.3440550626
H -0.6202848845 -0.4372545796 0.9929214391
H -0.5459689809 0.3735228767 -0.583291507
H 0.1575733252 -1.2505659093 -0.3750929722
H 1.4629895542 -0.9397399462 1.9314583831
H 0.7964219117 2.5125389217 1.4434398043
H 2.5577032532 0.6318315181 -1.5641847679
H 4.0563477119 1.9131070099 2.3187395862
H 4.8634594631 1.0454874161 0.9378415055
H 3.6459807712 3.9302203858 0.8142682313
H 4.4544689937 3.0625765192 -0.5677805687

