# b3lyp 6-31G(2df,p) opt Freq 

 titel

0 1
C 3.1014571983 -4.3099498926 1.9253669755
C 2.5676113557 -3.3565890994 0.8796415509
O 1.4336120957 -3.4054184929 0.4621397084
C 3.5513793038 -2.3020470253 0.3087491525
C 2.8703350807 -0.9287647739 0.267842743
O 4.74219009 -2.2362221997 1.1044909792
C 5.8883204783 -2.6125727403 0.3427081942
C 5.3536795835 -2.9525346978 -1.0193108613
C 4.0381351163 -2.7784270165 -1.0424411718
H 2.3152114564 -5.0084763793 2.2139143408
H 3.9642042142 -4.8580432717 1.5318997484
H 3.461525269 -3.7526215119 2.7947464378
H 2.6777200161 -0.5775606962 1.2858534144
H 3.5169187203 -0.2050637241 -0.2347513254
H 1.918034761 -1.0009015854 -0.2609233795
H 6.611123881 -1.782469043 0.317947512
H 6.3933940929 -3.4650089763 0.8232551857
H 5.9814770658 -3.2779069831 -1.8391040333
H 3.3595212811 -2.9417955004 -1.8686920914

