# b3lyp 6-31G(2df,p) opt Freq 

 titel

0 1
C 1.9164703918 -0.6457114609 -2.5600475601
C 0.7251716701 -1.1282476862 -1.753080949
C 0.4614145742 -2.590850884 -1.8026023519
C -0.7467008844 -3.0539507414 -2.1158877335
C -1.8955291905 -2.1083197207 -2.359809595
O -1.7764709671 -0.8887301626 -1.6354624234
C -0.5227692736 -0.2742039022 -1.7015459659
C 0.3622827937 -0.3756836674 -0.4803701018
O 1.1836353252 0.6904819736 -0.1130084113
H 2.8307654491 -1.1573948026 -2.2381982577
H 1.7736152695 -0.8520759481 -3.625856423
H 2.0742970133 0.4254542288 -2.4233233731
H 1.2942942881 -3.2624560391 -1.6079834473
H -0.9455235146 -4.1180188965 -2.2028626957
H -1.9984663953 -1.9060464583 -3.4399782459
H -2.8389180635 -2.5535655904 -2.0278009974
H -0.5124781335 0.6683886101 -2.2495224132
H -0.0402347655 -0.9745146404 0.3366634378
H 0.621579433 1.3912735784 0.2347643173

