# b3lyp 6-31G(2df,p) opt Freq 

 titel

0 1
C 1.4103245921 -6.9882537446 -0.2665841757
C 0.6606953388 -5.7410179859 -0.2188145053
C 0.0313406105 -4.7156231219 -0.1798518761
C -0.6976358428 -3.4538519385 -0.1308202088
C 0.2502115343 -2.2563557146 -0.0451294143
O -0.5716448923 -1.0777042181 -0.0026865464
C 0.0897830373 0.0981956444 0.0750920951
C -0.8816110555 1.2534994969 0.112562407
O 1.2904901583 0.1854412347 0.1084569653
H 1.1579177694 -7.6378282149 0.5787869474
H 1.2003232498 -7.5447252641 -1.1866642297
H 2.4896538116 -6.8037608085 -0.2309293764
H -1.3308334525 -3.3415957374 -1.0196061184
H -1.3727000788 -3.4339161891 0.7336865864
H 0.8735153808 -2.3036124222 0.8520510654
H 0.9156275911 -2.2107414213 -0.9116260638
H -0.3287358606 2.1897824784 0.1759589774
H -1.5060672276 1.248119258 -0.7853196162
H -1.5495927539 1.1546480386 0.972894857

