# b3lyp 6-31G(2df,p) opt Freq 

 titel

0 1
O 0.0500473808 1.4133966339 0.0844025028
C 0.0559543037 0.0051496451 -0.0131349388
C 0.1791602552 -0.5283234914 -1.4908355779
C -1.3315225603 -0.6006089172 -1.4913162432
C -2.3449280508 -0.3181709765 -2.2945227055
C -3.7058587614 -0.079818905 -1.6841481278
O -3.7503435804 -0.2311276929 -0.2744847403
C -2.6200024143 0.290317509 0.426148859
C -1.4090057837 -0.5395127761 0.0175607494
H 0.9286823577 1.7333715903 -0.1428715877
H 0.7481950884 -0.440942376 0.7130923963
H 0.6635429625 0.1360704942 -2.2130442978
H 0.665805609 -1.5097945305 -1.523765752
H -2.2345655162 -0.1493024059 -3.3625785785
H -4.0416291015 0.9339751422 -1.9713512386
H -4.4531674698 -0.7804584247 -2.0774035806
H -2.4495102648 1.3472806632 0.1837400952
H -2.8697938746 0.2090986487 1.4873784699
H -1.4360372798 -1.5271298605 0.490876346

