# b3lyp 6-31G(2df,p) opt Freq 

 titel

0 1
C 0.1018307711 1.2348755282 -3.2502273711
C 0.3370664379 0.0531881838 -2.3247283282
C 1.4660299041 -0.9135453553 -2.7683219207
O 0.5346951904 -1.9828850095 -3.0358931168
C -0.5601527989 -1.201806727 -2.488982952
C -0.9284885436 -1.598705472 -1.0852637147
C -0.4662674536 -0.7255161696 -0.1899369307
C 0.3005352031 0.4208896777 -0.8135397895
O 1.5675801319 0.657570452 -0.2120874996
H -0.8538732802 1.7236771357 -3.0293580816
H 0.8941076375 1.9822074936 -3.128536204
H 0.0869372165 0.9251241466 -4.3002380182
H 2.009502255 -0.6133531484 -3.671576641
H 2.1996075898 -1.1863643287 -1.9982394851
H -1.4052151485 -1.1649317521 -3.1862366515
H -1.4874623397 -2.5006894317 -0.8613829314
H -0.5915252348 -0.7919300052 0.8862241198
H -0.2317876224 1.3713801462 -0.6789071459
H 2.0102416143 -0.1923872442 -0.1135875176

