# b3lyp 6-31G(2df,p) opt Freq 

 titel

0 1
C 0.0797106065 -0.3752083937 -0.0403496127
C 1.2695601732 0.0616840141 0.8092332389
O 2.5112546936 -0.5448851476 0.3829544247
C 2.7334969437 -1.7763917912 1.1005656606
C 2.0649263969 -1.581723664 2.4379696046
C 2.3104023778 -0.2885350927 3.1948288969
C 1.1595256667 -0.3813252678 2.2531877225
O 0.0130532342 -1.0250069495 2.8293225487
C 0.78873076 -2.2526206246 2.9608966775
H -0.8333367019 0.1289464794 0.2894593107
H 0.2656265109 -0.1225912726 -1.0871760358
H -0.0903155414 -1.4529490978 0.0337351661
H 1.4318399916 1.1393573692 0.6972542593
H 2.2883880901 -2.6356978823 0.5759781752
H 3.818202119 -1.9173027653 1.1294830786
H 2.1096156797 -0.2537508775 4.2604550052
H 3.1607643521 0.2932678723 2.8562452991
H 0.7958086965 -2.6196161118 3.9932346787
H 0.4036697609 -3.0316471664 2.2925334311

