# b3lyp 6-31G(2df,p) opt Freq 

 titel

0 1
C 1.2312969601 -0.3623602886 1.1519937535
C 0.72829457 0.0022737988 -0.250154965
C 1.4439884151 -0.7431135117 -1.3427199672
O 2.9237845367 -0.6143922571 -1.3331185844
C 2.8144109634 -1.1318197676 -2.7032772176
C 2.1921076923 -2.5049413117 -2.4971523006
C 1.261676775 -2.2415493888 -1.5725165997
C 1.529024889 -0.2350264271 -2.8469371191
O 1.7469201014 1.1264925291 -3.0041899154
H 1.0689839953 -1.4227487068 1.3704410527
H 2.3035371688 -0.1674006288 1.2377277427
H 0.7115675211 0.223097548 1.9158355634
H -0.344697826 -0.2094897898 -0.3399219916
H 0.8469310129 1.0774006765 -0.4276226343
H 3.70931604 -0.9992551824 -3.3097001875
H 2.4277331161 -3.4176345085 -3.0241813604
H 0.5146399455 -2.878677421 -1.1212435546
H 0.7495792979 -0.5460594082 -3.5451364653
H 2.4570082952 1.3504283856 -2.3857234796

