# b3lyp 6-31G(2df,p) opt Freq 

 titel

0 1
C -0.1819043796 -0.3502405983 -0.1044095254
C 1.3076576802 -0.0366092712 -0.1090188223
O 1.9612179577 -0.6593615884 0.9827523295
C 2.1049230059 -0.224925969 -1.4256616874
C 1.7022189312 0.767235086 -2.479383335
C 2.6101109156 1.217978596 -1.3646663485
C 1.7730333769 1.4485464431 -0.123831141
C 1.1234446177 2.6645947621 0.371552865
O 2.2589483354 2.0809376553 1.0331213009
H -0.6271327194 -0.0448394031 0.8474533817
H -0.710513009 0.1574052029 -0.9157968479
H -0.3465788982 -1.4284634265 -0.2246994789
H 1.800260913 -1.6068825845 0.9125429534
H 2.6633670304 -1.1244522502 -1.6568716596
H 2.1805541862 0.6353134831 -3.4448877193
H 0.6831521767 1.1407230271 -2.5426840086
H 3.604731728 1.6124951516 -1.5275947862
H 1.3089007436 3.615871976 -0.126007876
H 0.1861447778 2.6001356279 0.9226307856

