# b3lyp 6-31G(2df,p) opt Freq 

 titel

0 1
C -0.9933593545 -2.1590302296 -1.1590360481
C -0.9264448249 -0.9665954543 -0.2140762657
C -0.055151346 0.2431435034 -0.5688696033
O 0.9756525042 0.3669241759 -1.1640142523
C -1.0955054648 1.2293592754 -0.0228694942
C -2.135898087 0.047169522 -0.0097013591
C -2.9750260938 -0.1430872225 1.2446196763
C -2.9883680226 0.120432512 -1.2554973605
O -4.179630431 -0.0537390122 -1.2861314295
H -1.7400199652 -2.8859287858 -0.8250617949
H -1.2432967622 -1.8593013724 -2.1804901927
H -0.0219125004 -2.6604996351 -1.1924966294
H -0.6316263577 -1.3024563309 0.7896559161
H -0.8546498018 1.5654320582 0.9904514596
H -1.3095195634 2.1049603802 -0.6415324627
H -3.5536355325 -1.0693693783 1.1895632669
H -2.3374470407 -0.1836596404 2.1333276827
H -3.688747456 0.6764566529 1.367883445
H -2.4259812797 0.3661038015 -2.1869185043

