# b3lyp 6-31G(2df,p) opt Freq 

 titel

0 1
C 1.6804607586 1.8167078528 -4.3494456451
C 1.3588235555 1.3187308948 -2.9680256297
C -0.0777126072 1.2535968057 -2.4744086016
C 0.0410330044 0.9274984793 -0.9683204606
C 1.415128064 1.5048768966 -0.5182126363
C 2.0335963778 0.6925407712 0.5979038759
O 2.3148207146 1.1188064911 1.6886342496
C 2.2407473272 1.461486095 -1.7991885654
O 2.1465743367 0.2077064849 -2.4928978458
H 1.230228407 1.1671289381 -5.1079429299
H 1.288018366 2.8280064799 -4.49936015
H 2.7606284903 1.8307856683 -4.5132218862
H -0.550706515 2.2301780694 -2.633925727
H -0.6714818847 0.5097915336 -3.0152330159
H -0.7805758981 1.3360995899 -0.3769123983
H 0.0406915832 -0.1566341577 -0.8260865592
H 1.3287853565 2.541506384 -0.1753497871
H 2.2150438023 -0.3725466647 0.3272724473
H 3.210906981 1.9508364177 -1.8441202448

