# b3lyp 6-31G(2df,p) opt Freq 

 titel

0 1
O -2.2783456921 -3.6854530103 2.4637957652
C -1.6512843601 -3.2966240574 1.2768121716
C -0.1470970326 -3.2586286555 1.2017477225
C -0.9466413633 -1.9722019618 1.3034938476
C -1.0288223616 -1.0163202635 0.14751988
C -2.1013648008 0.1248208555 0.1395621303
C -1.021061065 1.1594409302 -0.295655285
C 0.0412963538 0.0954550227 0.0299540422
O 1.2195758109 0.1304001459 0.2328693344
H -2.1648717752 -4.636831014 2.5613775011
H -2.1932934823 -3.5537740105 0.3655448276
H 0.4008247087 -3.5652923454 2.0855957552
H 0.3348136974 -3.4970054505 0.2594173988
H -0.9287396181 -1.5044887294 2.2841824886
H -1.0550064416 -1.5697312471 -0.8008866336
H -2.9432463701 -0.0131604968 -0.5394971247
H -2.4864128452 0.3244932602 1.1423146702
H -1.0429925982 1.3912757501 -1.3656884055
H -0.9459344447 2.0974210877 0.2596512635

