# b3lyp 6-31G(2df,p) opt Freq 

 titel

0 1
C -0.0552365754 0.0772594083 0.0121385624
C 1.4720928637 -0.0570023973 -0.0313539859
C 2.0252740442 -0.4960927782 1.3315445651
O 2.0360877251 1.2372637847 -0.3618116627
C 2.8216519763 1.172812442 -1.5388971894
C 2.2537144293 2.1185328999 -2.6003324422
O 2.8940434675 2.5686471317 -3.5118837972
C 2.7226988761 -0.2616204435 -1.999475108
C 1.9528210843 -0.9404840085 -1.1586968972
H -0.3440210626 0.8145680361 0.7669171825
H -0.4402052374 0.4033939037 -0.9575373092
H -0.5239930116 -0.8783728363 0.268219706
H 1.623985836 -1.4729863086 1.6203208959
H 3.1156168583 -0.5649063204 1.2984126265
H 1.7458203786 0.2308037002 2.0998956594
H 3.8601696255 1.4777231621 -1.3402339314
H 1.1702370369 2.3326384301 -2.4566057287
H 3.2153078435 -0.6220339437 -2.892672391
H 1.6972076219 -1.9910101624 -1.2213324149

