# b3lyp 6-31G(2df,p) opt Freq 

 titel

0 1
O 1.2197864979 0.0033164772 0.098687342
C 0.0186638726 -0.0017527969 0.0218768035
C -0.9292550623 -1.1959097372 -0.0031413378
C -1.9445740664 -0.7944392818 -1.0943514501
C -1.951163087 0.7737691672 -1.0947997498
C -0.9392575173 1.184381112 -0.0038206356
C -1.6122744331 1.1749710192 1.3966353962
O -2.3607347592 -0.0113017574 1.5975426217
C -1.6023303112 -1.1913565858 1.3973110774
H -0.4154940928 -2.1443441656 -0.1692460772
H -1.6270974266 -1.1814869347 -2.0661577696
H -2.9378982249 -1.1995635788 -0.8866922105
H -1.6369458694 1.1629151157 -2.0668274332
H -2.9478573203 1.1706510534 -0.8873717337
H -0.4334849674 2.1370047799 -0.1704677502
H -0.8444321615 1.2932992079 2.1780667955
H -2.3240380349 2.0014531078 1.4835169488
H -0.8335222947 -1.3027808789 2.1788078376
H -2.3071226115 -2.0237419131 1.4846663651

