# b3lyp 6-31G(2df,p) opt Freq 

 titel

0 1
C -2.8450202327 -2.5249033079 -0.9032048552
C -2.0270436529 -1.2439774713 -0.8693577905
C -0.8424762506 -1.3084102489 0.1110855777
C -0.0595782454 -0.002846328 0.0780844734
O 1.1511847943 0.0313374041 0.0942773891
C -0.8816961455 1.2311874214 -0.078874859
C -1.9757158909 1.5940651013 0.9306613784
C -2.3556914588 1.0828371509 -0.4171522646
O -2.9125911553 -0.1964933736 -0.470619117
H -3.2447965261 -2.7482366364 0.0906792605
H -3.6844691877 -2.4213548033 -1.595709357
H -2.2248716068 -3.3652769636 -1.2277544663
H -1.6413536234 -1.028841592 -1.8790311378
H -1.2408976637 -1.4852692709 1.1186070358
H -0.1530956689 -2.1222804103 -0.1280782219
H -0.3338432997 2.0633548961 -0.5060268478
H -2.1394394837 0.9209883631 1.7642344187
H -2.08922234 2.6476511085 1.1581614479
H -2.7734488224 1.7692934708 -1.1501137644

