# b3lyp 6-31G(2df,p) opt Freq 

 titel

0 1
C -2.6939216325 -1.6359530294 -1.5496534197
C -1.6121596688 -0.6712465261 -1.0803336738
C -1.9726981878 0.4616684362 -0.0609593993
C -0.6552409588 1.2608489614 -0.0308763532
C 0.3155490605 0.0539487321 0.0657264967
O 1.5154037466 0.0645271876 0.1030290676
C -0.649570754 -1.1242265443 0.0901369768
C -1.7016213278 -0.5550171732 1.0956632536
O -2.7053786169 -1.4898198912 1.4081937102
H -3.2633772836 -2.0558340933 -0.7226809293
H -3.3844601908 -1.1166133885 -2.2247745274
H -2.244950448 -2.4599597608 -2.1150311242
H -1.0746039588 -0.3013565227 -1.9620760432
H -2.9083897089 1.0199059508 -0.1231765013
H -0.4723067514 1.849129436 -0.9348472538
H -0.5430281743 1.9211697925 0.8354057499
H -0.2291645328 -2.1232932911 0.1817739375
H -1.2917891615 -0.1178966388 2.0186385743
H -3.3998596504 -1.0280946373 1.8899945885

