# b3lyp 6-31G(2df,p) opt Freq 

 titel

0 1
C 0.391306636 0.1329723952 -2.0833877767
C 1.1571087264 -0.046849455 -0.8053895677
O 2.2210434578 0.8804228846 -0.5450998439
C 2.5432031257 -0.5064197319 -0.6484505107
C 2.5314079558 -1.2384752488 0.7018906008
C 1.8046986701 -2.5869789918 0.4577298051
C 0.3249671613 -2.1027214463 0.3221011354
C 0.4982986809 -0.5676367291 0.4907357383
O 1.561145979 -0.4936413496 1.4420082398
H -0.1791602709 -0.764788634 -2.3411897132
H -0.3187911654 0.9624523211 -1.990597711
H 1.0707495926 0.3622475913 -2.9078440189
H 3.1890664937 -0.8120560998 -1.4665387895
H 3.4689201421 -1.2794763443 1.2554541725
H 2.1674492118 -3.1026962502 -0.4362139045
H 1.9341896978 -3.2564573832 1.3103487478
H -0.1302319152 -2.3840415444 -0.6305324183
H -0.3004348193 -2.5009230445 1.1236106031
H -0.36853404 -0.0181672491 0.8585337618

