# b3lyp 6-31G(2df,p) opt Freq 

 titel

0 1
C 6.5793674917 -1.1738582968 -3.989277307
O 5.7203319804 -0.9224358497 -2.9020946826
C 4.3821965965 -0.7254764412 -3.3191996205
C 3.5269597442 -0.4726321518 -2.1681433369
C 2.7952830011 -0.2684985259 -1.2351255834
C 1.9262989302 0.0085850512 -0.0965168718
C 1.5887346345 1.4829074021 0.0489964128
C 0.3325973105 1.9216386027 0.6660250394
O 0.5174598815 1.975679101 -0.7506150291
H 7.5836836955 -1.3117656766 -3.5827125524
H 6.2895749508 -2.0836108993 -4.5395445307
H 6.5957276663 -0.3340512292 -4.7025956935
H 4.3211529498 0.1232931906 -4.0230896693
H 4.0178140654 -1.6119392354 -3.8680330127
H 0.9903099034 -0.5559589422 -0.1867003861
H 2.4147483027 -0.3341430292 0.8260467566
H 2.4519122106 2.1470908507 0.0994325753
H -0.3828840346 1.177503129 1.0149823779
H 0.2827109792 2.88464317 1.171817054

