# b3lyp 6-31G(2df,p) opt Freq 

 titel

0 1
C 1.2261971161 0.9908636397 0.4561954625
C -0.0622696685 0.2470769092 0.3011845091
C -0.268589722 -1.0732785537 0.3532108398
C -1.7124494676 -1.4502987832 0.1350010061
C -2.4534378591 -0.0951324251 0.2849282706
O -2.9965801768 0.0730753143 1.5821408954
C -1.3655422359 0.980087717 -0.0079475132
C -1.330362273 1.4105440476 -1.4626275636
O -1.1272154188 2.534792023 -1.8429233285
H 1.1854288147 1.6739316161 1.3139825393
H 2.0685825704 0.3095150752 0.6011473874
H 1.4312054434 1.6141516759 -0.4223295507
H 0.5120171424 -1.8062277571 0.5290878875
H -1.8691881549 -1.8916296123 -0.8584375518
H -2.1000415615 -2.1732310501 0.8616420877
H -3.3089041572 -0.0123329446 -0.3914715098
H -2.270268462 -0.0021580512 2.2120572228
H -1.5191097676 1.8747071306 0.6040213759
H -1.4705686522 0.5757407387 -2.1891020466

