# b3lyp 6-31G(2df,p) opt Freq 

 titel

0 1
C -0.0337971829 1.70428615 0.3211518296
C 1.1490304782 0.7901585786 0.2066308968
C 1.4389050855 -0.4982679766 -0.5646213322
O 1.959563657 -1.175498753 0.5792031217
C 1.8214468478 0.0431513835 1.3740348726
C 3.1883740475 0.602567439 1.7529963915
C 4.1159024567 0.5182077632 0.5328385012
O 3.5407688701 1.0477818136 -0.660797493
C 2.1882127883 0.7775960208 -0.8780738819
H 0.2343625693 2.6403275771 0.8264800941
H -0.4245896486 1.9678361837 -0.6669075514
H -0.8474819995 1.2392167544 0.8899197827
H 0.8657520185 -1.0861353251 -1.2746895825
H 1.1674998967 -0.1379724557 2.2328284744
H 3.0678057654 1.6388698362 2.0914787858
H 3.6374247411 0.0343399754 2.5750167155
H 5.0290329843 1.0971488686 0.6984565657
H 4.3951201023 -0.5294920492 0.372479429
H 1.8764673023 1.2453183554 -1.8087673994

