# b3lyp 6-31G(2df,p) opt Freq 

 titel

0 1
C 3.4894707628 -0.2921913563 -0.4383714039
C 2.5571144865 -0.037088631 0.6995531191
C 2.7305502226 0.9490370903 1.8760250857
C 1.1888573599 1.0015989276 1.9582475798
C 0.2622489812 1.2883396054 3.0485334481
O 0.4820906347 2.2285489212 1.9785268314
C 1.0780253655 0.0277339218 0.7891426294
C -0.0330538208 -0.1102520306 -0.195709516
O 1.7990603223 -1.1432929099 1.2260967994
H 3.0124654202 -0.9228530871 -1.1933899607
H 3.7965132693 0.6483990522 -0.9066041581
H 4.3929707794 -0.8062285027 -0.0911637554
H 3.273807517 0.5585930259 2.7398018333
H 3.1372122021 1.9200132045 1.5796562728
H -0.7227652638 0.8242429516 3.0657727773
H 0.6490887936 1.5953415635 4.018977188
H 0.2845252286 -0.6946272468 -1.0632956478
H -0.8920409371 -0.6182828713 0.2570946456
H -0.363067934 0.8777722917 -0.529667108

