# b3lyp 6-31G(2df,p) opt Freq 

 titel

0 1
C -3.5005781727 1.0245328395 2.4701034852
C -2.0499651808 0.770711796 2.0826248093
O -1.2450532619 1.4785965246 3.0170461384
C -1.7544864416 1.2129123059 0.6310017559
C -0.3112310411 1.0557628091 0.2563239865
C 0.2604133315 0.053505623 -0.4667420008
O 1.6066518012 0.2253500057 -0.5652147142
C 1.9076561518 1.3629428332 0.1104620835
C 0.7833588964 1.9158550978 0.6346493583
H -3.6809756995 0.6956670254 3.4968121745
H -3.7270224422 2.0939602374 2.4100245926
H -4.1821877532 0.4855141726 1.8052884614
H -1.8418769763 -0.3100725374 2.1531485402
H -0.3237808258 1.2779784397 2.8179989862
H -2.383755528 0.6266156733 -0.0483286288
H -2.0541965549 2.2626623192 0.5265474079
H -0.13775276 -0.8151471001 -0.9655073846
H 2.9484579532 1.6418534281 0.1178962695
H 0.717505414 2.8323171869 1.200861499

