# b3lyp 6-31G(2df,p) opt Freq 

 titel

0 1
C 6.3747919478 -0.7276202401 -2.716717657
C 4.8472198904 -0.683153108 -2.775915413
O 4.3801182291 -0.1849150369 -1.5378168302
C 2.9934101337 -0.3775326075 -1.3245526547
C 2.657690007 0.2080739213 0.050566211
C 1.2493540208 0.0494244316 0.385385497
C 0.0829531547 -0.0955880002 0.6349326106
C 4.4187030742 0.2346223093 -3.9201696389
O 4.2608062836 -0.1208270918 -5.0576477871
H 6.6902436229 -1.3628726774 -1.8854686837
H 6.7772067307 -1.1280804551 -3.6503399116
H 6.7816300809 0.2755522569 -2.556210467
H 4.4489368879 -1.6894884343 -2.9752319148
H 2.3933714299 0.1207051045 -2.1011518155
H 2.7432915479 -1.448767193 -1.3531473836
H 3.2874054738 -0.2833582911 0.8016230228
H 2.9349073296 1.2688289908 0.0575800115
H -0.9458527535 -0.2168729091 0.8679839032
H 4.2988523985 1.2983215599 -3.6047167189

