# b3lyp 6-31G(2df,p) opt Freq 

 titel

0 1
C 1.4099691239 0.8663785575 0.290714197
C 0.9231674582 -0.5303464849 -0.1171558682
C 1.7784649543 -1.1456058779 -1.1783420015
O 1.9652768315 -0.4096303113 -2.4785585191
C 2.741970928 -1.6573733514 -2.6971244049
C 1.6047232843 -2.4610117067 -2.0078480886
C 0.304039648 -2.6447280541 -2.772407782
C 3.3150423781 -1.3553908579 -1.2918211321
O 4.3303418132 -1.2126241368 -0.6920704078
H 0.7639849076 1.2904406385 1.0641724412
H 2.4308725125 0.8232648059 0.6807599223
H 1.4065043438 1.5415322996 -0.5690515639
H 0.9320594302 -1.206942473 0.7467335943
H -0.1140380013 -0.4891874032 -0.47183286
H 3.2094877871 -1.7932328592 -3.6700008064
H 1.924624959 -3.3755715355 -1.4954578056
H -0.5052766812 -2.9331213387 -2.0935855308
H 0.0196276108 -1.7216062406 -3.2809040591
H 0.405506802 -3.4378404903 -3.5199114247

