# b3lyp 6-31G(2df,p) opt Freq 

 titel

0 1
C -0.0698674707 0.1167865234 0.0951452301
C 1.3169123067 0.0348456614 -0.5241035213
O 1.9618108942 -1.1786571782 -0.1062990909
C 2.6237733934 -1.8090770237 -1.1898565958
C 1.7648759619 -2.8778105253 -1.9412773203
C 1.4563638223 -1.8309169786 -3.0291594646
O 0.3995224299 -0.9232240405 -2.6342162656
C 1.3429849999 0.0135525444 -2.0512370413
C 2.5305033544 -0.8795837636 -2.4371047369
H -0.0052053871 -0.0090289554 1.178876007
H -0.5263584606 1.0903697224 -0.1119463649
H -0.7089435808 -0.6659849501 -0.3187460064
H 1.9285315218 0.8894827167 -0.1891000184
H 3.6115218044 -2.1388089265 -0.8593084192
H 2.389203358 -3.688201341 -2.3321324351
H 0.9137630321 -3.2914558988 -1.3969106945
H 1.3643801959 -2.1349815224 -4.0734959327
H 1.2473637272 1.007402122 -2.4999696635
H 3.4156270371 -0.4922131762 -2.9342495555

