# b3lyp 6-31G(2df,p) opt Freq 

 titel

0 1
O 0.8787279041 2.7882522554 -0.2408111806
C -0.4869641738 2.6001193524 -0.1524568336
C -1.3065399855 2.123200663 -1.2969861928
C -1.0874515702 1.1872431577 -0.0958827367
C -2.1941034033 0.7235681902 0.8410440902
C -2.1604294737 -0.8209554725 0.7126958631
C -0.6782578112 -1.1541735037 0.4695448214
C -0.1413189203 0.0568981658 -0.2875399334
O 0.8993036225 0.1066399797 -0.9190012216
H 1.2498575268 2.0002300537 -0.6747290219
H -0.9352792069 3.3209749905 0.525959079
H -2.312297863 2.5099167009 -1.4275611088
H -0.7834175756 1.8534270345 -2.2093613693
H -1.9724076604 1.0203001602 1.8740119297
H -3.1731042118 1.1395093558 0.5881844116
H -2.5753793762 -1.324258078 1.5888674019
H -2.7534628365 -1.1306910644 -0.1548249733
H -0.1247961647 -1.2203242135 1.4165049928
H -0.4896113505 -2.0801892378 -0.0779279779

