# b3lyp 6-31G(2df,p) opt Freq 

 titel

0 1
C -2.8371321606 1.6160492345 -1.7639929385
C -2.552988986 1.2210510636 -0.3331683548
C -1.8165499785 -0.1188274471 -0.0316314895
C -0.7802339715 0.6268559906 0.8504947293
O 0.5121081399 0.515368384 0.2852130431
C -1.5056983328 1.9817261419 0.5567914837
C -2.655554332 2.3708353369 1.5122546541
O -3.2556205895 1.1564318858 1.993516706
C -3.6404829018 1.635017312 0.7012294722
H -3.6123065084 0.976314157 -2.2040470871
H -3.187233109 2.6531744617 -1.8295646211
H -1.93794232 1.5260488419 -2.3817576326
H -2.4023071189 -0.8862682588 0.4760944357
H -1.3351127677 -0.5437770807 -0.9158311584
H -0.7869033964 0.3360075123 1.9069723233
H 1.1176029607 1.0351696685 0.8239645384
H -0.905142053 2.7964015864 0.1500635659
H -2.7589198478 3.2449372617 2.1458472401
H -4.7006904368 1.7975420377 0.5334637902

