# b3lyp 6-31G(2df,p) opt Freq 

 titel

0 1
C 0.1522027325 -0.2017031073 -0.3195392573
C 1.462500974 0.1827081032 0.3325762489
O 1.5468966762 1.6015780777 0.3437743984
C 2.5521721749 2.1119960455 1.2404380608
C 2.1620274667 1.6689107474 2.6602618572
C 2.4967850225 0.1775605281 2.4921967298
O 1.4898157383 -0.3906139037 1.6329409286
C 3.8471018254 0.2551602636 1.7783258676
C 3.8791683107 1.3749633883 1.0537122839
H -0.6830471035 0.1970017531 0.2609906585
H 0.1097515085 0.2053170521 -1.3327469368
H 0.0674554184 -1.2901272465 -0.3665156945
H 2.3140563556 -0.212880809 -0.2410304506
H 2.5857268104 3.1879858623 1.0650561145
H 2.7931448008 2.1411348815 3.4179286113
H 1.1068363982 1.8410877215 2.8796637796
H 2.4823154235 -0.4236694924 3.4021148352
H 4.588431862 -0.5341998813 1.7953430033
H 4.6519331149 1.6833394458 0.3603955216

