# b3lyp 6-31G(2df,p) opt Freq 

 titel

0 1
C 1.2780290496 0.6421035681 -0.5825350281
C -0.1056145723 0.1397186315 -0.2741886208
C -1.132756718 0.9632544859 -0.0568882072
C -2.535155435 0.5159783053 0.2684523566
C -2.6152888964 -0.9692764671 0.578252403
O -3.3463775926 -1.4366259111 1.4196516695
C -1.7075200807 -1.8410864574 -0.2931132313
O -2.1130499978 -1.70481002 -1.6566104193
C -0.2574995233 -1.3645363629 -0.2031665173
H 2.0080844006 0.2652723393 0.1458559053
H 1.6136093908 0.2925240857 -1.5673015466
H 1.3233587471 1.7341081273 -0.5738597044
H -0.9765325126 2.0381310912 -0.1138412078
H -2.9554613621 1.0651621797 1.1173446065
H -3.1974349197 0.7156260733 -0.5877671015
H -1.7966029871 -2.8809074089 0.0458788655
H -2.9879112789 -2.0983232638 -1.7438711066
H 0.1883821066 -1.7378402536 0.7296293442
H 0.3008186118 -1.8415732924 -1.0186731294

