# b3lyp 6-31G(2df,p) opt Freq 

 titel

0 1
C -0.1316198177 0.043937855 0.0817127982
C 1.3935981432 -0.0170301476 -0.0473103256
C 2.0604055206 -0.765414017 1.1570864574
C 2.5244568654 0.3233082365 2.1018099715
O 1.5226333217 1.3084681455 2.3915809734
C 2.5167666591 1.6108631469 1.4024073377
C 2.0473872444 1.4066617703 -0.0227718619
C 1.7943307779 -0.7156808197 -1.3375533425
O 1.0376501748 -1.1656180331 -2.1562344664
H -0.408113854 0.54671111 1.0095666948
H -0.5682479937 0.5843603759 -0.7629414031
H -0.5590018237 -0.9627733771 0.078225473
H 1.3623148671 -1.467897424 1.6214020705
H 2.9379848939 -1.3423581412 0.8346443946
H 3.2021067269 0.0933212508 2.9203612737
H 3.1881476205 2.428951711 1.6516215279
H 1.3405191436 2.1721272341 -0.3556780981
H 2.92113518 1.4584150925 -0.6867600551
H 2.90066118 -0.7867291589 -1.4813727401

