# b3lyp 6-31G(2df,p) opt Freq 

 titel

0 1
C 1.3982727352 -0.1348731065 0.0677667297
O -0.0016474463 0.0709376789 0.1060779589
C -0.4615398804 0.6059848798 1.3149058087
C -1.9825432432 0.7952518789 1.2619849728
C -2.4542543928 1.5504469447 2.46928274
C -1.8359212326 2.3198729922 1.3293661533
C -0.3329906136 2.1604522103 1.4100372887
C 0.6889800947 3.0318473817 1.9939764679
O 0.5556135039 2.8643250493 0.5685535031
H 1.7279658084 -0.7860058916 0.8929357034
H 1.6199193646 -0.6307012515 -0.8803463745
H 1.9473185764 0.8121245595 0.1140217918
H -0.0696241665 0.0295811862 2.1699826836
H -2.6337649724 0.1951686193 0.6406060992
H -3.530558945 1.6489855403 2.5654780932
H -1.9315367533 1.4606403516 3.4191891232
H -2.3576292885 3.0952266245 0.7827925804
H 0.4109825107 4.0148729765 2.3716212318
H 1.5921377906 2.604234916 2.4272963149

