# b3lyp 6-31G(2df,p) opt Freq 

 titel

0 1
C -4.2286018844 -0.7339919777 0.1799170175
C -2.7482644609 -0.4446888318 0.2511691287
C -1.8473699218 -1.298562186 1.1779325495
C -0.8924769649 -1.2406401668 -0.0335474031
O -2.0136148433 -0.9662243789 -0.9119315238
C -0.0551569332 0.0258792096 0.0929557388
O 1.1383830601 0.0273379433 0.2675694933
C -0.9131181523 1.2880187652 -0.0100863887
C -2.3944971928 1.0469491606 0.3861075578
H -4.7323185999 -0.3779168511 1.0851563938
H -4.6767735816 -0.2266069939 -0.6806042862
H -4.4082756542 -1.8075433318 0.0791193849
H -1.5163720415 -0.8687512103 2.1263989198
H -2.2442335098 -2.3033928103 1.3340991937
H -0.3053684822 -2.1138125556 -0.3220246541
H -0.4406819288 2.0879693529 0.5639986131
H -0.8667380697 1.5860247657 -1.0639513651
H -2.5809453836 1.3683537091 1.4170176946
H -3.052327035 1.6415115176 -0.2554130043

