# b3lyp 6-31G(2df,p) opt Freq 

 titel

0 1
C 2.0289239543 -0.6563036572 -3.4163135005
C 1.3824733242 0.6410296076 -2.959946594
O 1.5378703046 1.6771489937 -3.5625249982
C 0.5164858541 0.55314547 -1.700449637
C 1.3951105714 0.5532498698 -0.405941546
O 1.4671860609 1.8967892139 0.0434412061
C 0.330451756 2.5775560365 -0.4230051423
C -1.029150241 1.9749893658 -0.1783859726
C -0.3325820786 1.7981652314 -1.5181133401
H 1.2537755953 -1.32798665 -3.8050841581
H 2.7541019076 -0.4529596714 -4.2048930256
H 2.5133173705 -1.181405711 -2.5866728755
H -0.0604726703 -0.3781703446 -1.7395085779
H 0.9303238004 -0.087898645 0.3553230953
H 2.4170424494 0.1957512536 -0.5644882439
H 0.4807283494 3.6494720121 -0.4428280147
H -1.1230390994 1.1278920892 0.4934191694
H -1.8737597703 2.655145189 -0.1541153659
H -0.7215526989 2.2814427566 -2.4042156685

