# b3lyp 6-31G(2df,p) opt Freq 

 titel

0 1
C 0.8383230973 0.9762229665 0.4961247726
C 1.0431291037 -0.4747826821 0.1153325648
O 1.979748803 -1.1796922759 0.9876470791
C 2.7114061382 -1.6790256174 -0.1263691445
C 3.1144339792 -3.1156945397 -0.1271497591
C 3.3261292545 -0.5804426188 -0.9026138316
C 1.8441530242 -0.8541602872 -1.1306259565
C 1.3225625168 -1.3305649256 -2.4103238891
O 2.0074088785 -1.7209675104 -3.3318977363
H 0.4595147966 1.0463123894 1.520435332
H 1.7699718075 1.5443712843 0.4352098857
H 0.103499003 1.4384735627 -0.1715302317
H 0.0853265033 -1.0132778644 0.1301637995
H 3.9367742138 -3.2783629368 0.57886868
H 2.2788728071 -3.7565670281 0.1674774547
H 3.4550590029 -3.4078676221 -1.1239695396
H 3.6295475781 0.3341784327 -0.402753142
H 3.9302064869 -0.8830226207 -1.7515616339
H 0.2104052754 -1.3452979767 -2.4788908739

