# b3lyp 6-31G(2df,p) opt Freq 

 titel

0 1
O -0.3495775604 1.3674893035 0.0648618495
C -0.0320000962 -0.0099850841 -0.006942041
C 0.4999475179 -0.4124324847 -1.4190196598
C -0.7792063478 -0.6195881629 -2.2136548053
C -1.7996946048 -0.8243532822 -1.387552678
C -3.289653043 -0.7432034408 -1.3957404874
C -3.4764915865 0.1306388478 -0.1263327384
O -2.4470815583 -0.2582971563 0.791239051
C -1.3614569089 -0.8007780478 0.057402784
H 0.4664930089 1.8642138076 -0.0479689959
H 0.665453447 -0.29283096 0.7942552502
H 1.1409028756 0.371261825 -1.8417816819
H 1.1148745061 -1.3219020437 -1.3600406098
H -0.8276544882 -0.5407413668 -3.2935396832
H -3.7119098269 -0.2866002268 -2.2935140089
H -3.7575257428 -1.7247531556 -1.249331696
H -3.3702765933 1.1931091908 -0.3835828291
H -4.4402873005 -0.0197408128 0.3684990846
H -1.149590318 -1.8062720703 0.4546512454

