# b3lyp 6-31G(2df,p) opt Freq 

 titel

0 1
C 0.0234485995 0.5420961146 0.1137146023
C 1.4823560033 0.1424630324 -0.0258484069
C 2.1804216966 -0.002322323 1.3196980317
O 1.6038848944 -1.0901136024 -0.8141750164
C 2.5342146028 -0.4962429335 -1.7405211622
C 3.9001334301 -0.9840933987 -1.6005571478
C 5.0467148906 -1.3207011189 -1.454413733
C 2.2987049888 0.9154178192 -1.111026501
O 3.3940380572 1.6953741919 -0.7519081141
H -0.5267451127 -0.2074225418 0.6916409662
H -0.0623169909 1.5037826957 0.6308505495
H -0.450776493 0.6305098684 -0.8680436471
H 1.6500821446 -0.7350029827 1.935775364
H 3.2100626859 -0.348219892 1.1993799997
H 2.1966164538 0.9541628323 1.8508505293
H 2.1965893159 -0.6142699459 -2.7766731665
H 6.0494682953 -1.6562281857 -1.3491412777
H 1.6538028631 1.5369768428 -1.7371193534
H 4.1250912448 1.1047437074 -0.5274319966

