# b3lyp 6-31G(2df,p) opt Freq 

 titel

0 1
C 1.2157278563 -0.6751528075 -0.9091708555
C 1.0938216563 0.1596342764 0.3657985109
O 1.8249537919 -0.4594020165 1.4369604562
C 2.7947490533 0.4326680965 1.9933584819
C 4.1924541248 -0.1857058293 1.9686898355
C 2.3567440418 0.7518066926 3.4327058211
O 3.1004908603 1.061743694 4.3248419007
C 2.6519796338 1.6937453346 1.1684628053
C 1.6870748163 1.5402693181 0.269870214
H 0.8655174634 -1.6942134877 -0.7233104339
H 0.6074379853 -0.2436108694 -1.7111150849
H 2.2565175886 -0.7184921328 -1.2425221035
H 0.0313065385 0.2073490917 0.653452533
H 4.1718001943 -1.1686524264 2.4471074822
H 4.5385707867 -0.3015341373 0.938984609
H 4.890292718 0.4484784352 2.520512625
H 1.2537802836 0.6861117066 3.5666777121
H 3.2671474338 2.5678150823 1.3379806377
H 1.3629029031 2.2690434888 -0.4627181568

