# b3lyp 6-31G(2df,p) opt Freq 

 titel

0 1
O 0.0795394562 0.0052128807 0.593013478
C -0.6007954032 1.2233227101 0.6069118103
C -2.013514908 1.1049964873 -0.0461493179
C -2.7012417841 1.3339435785 1.3465689478
C -1.3534000608 1.8135352514 1.8474893291
O -0.8484706915 1.7828859456 3.1763129585
C -0.1500589694 3.0417476709 2.9636636313
C -0.7030187024 3.1874951693 1.5276346236
C 0.1539793127 2.5633082077 0.3869739061
H 0.6946132304 0.005158278 1.3355764638
H -2.2321941973 1.8779808238 -0.7858795793
H -2.1831165596 0.1229428941 -0.4877487775
H -3.5460590064 2.025676199 1.4015714832
H -2.9874243669 0.3832767488 1.8060651621
H -0.4919702375 3.8017183494 3.674936285
H 0.9378469326 2.9293787077 3.0522057351
H -1.2762660888 4.0892786115 1.314369775
H 0.0478735492 3.0184526952 -0.6019357697
H 1.2216564848 2.5050354509 0.6263345756

