# b3lyp 6-31G(2df,p) opt Freq 

 titel

0 1
C 2.9493502246 0.434164696 2.4908973608
C 3.2078635405 -0.4018035935 1.2454760884
C 2.3900591587 0.0708451154 0.022454091
C 0.9554528448 -0.1073698783 0.1983446061
C -0.2228277268 -0.2756016371 0.3658379278
O 4.6020486543 -0.2585768818 0.9281896027
C 5.3738854267 -1.2648760209 0.4393746746
C 4.7706237846 -2.6531001193 0.3228026044
O 6.5095861443 -1.0186604179 0.1386732874
H 3.5350580908 0.0556433198 3.3322540577
H 3.2355586068 1.4752096166 2.3138662803
H 1.8890451512 0.4001999185 2.7527191799
H 2.9671259618 -1.4484216981 1.4491647223
H 2.6269938535 1.1253299761 -0.1644053697
H 2.7256674012 -0.4821532979 -0.8632292801
H -1.267022314 -0.4136657877 0.5013520166
H 4.4981294129 -3.0494638957 1.3061462988
H 3.8709120842 -2.6635831497 -0.2992038758
H 5.5243151996 -3.3002948145 -0.1232950233

