# b3lyp 6-31G(2df,p) opt Freq 

 titel

0 1
C 0.4996619889 -0.8347004782 0.2026893589
C 0.8603456544 0.6249190199 0.4090368617
O 1.763879136 1.0150295766 -0.6297490467
C 2.167088543 2.346452448 -0.519274143
C 3.4875032235 2.5703589573 0.1582867947
O 4.1515184628 1.4699375476 0.6812278416
C 3.3712184002 2.7255591176 -1.3685204965
C 3.435381885 4.0150621264 -1.9826043917
C 3.4876087296 5.1139880636 -2.4704356618
H -0.2111749075 -1.158943271 0.9682551287
H 0.0442978062 -0.9820817129 -0.7803963786
H 1.3883262285 -1.469439118 0.2678781928
H -0.0380922975 1.2587048556 0.3634027188
H 1.3281676292 0.7847745006 1.391004449
H 1.3616387023 3.0722553635 -0.4187214814
H 3.6566608377 3.4693393671 0.7401787935
H 3.6907205914 0.6900213796 0.3418189373
H 3.7957688181 1.8957934489 -1.927723243
H 3.5382976183 6.0784393379 -2.9109542544

