# b3lyp 6-31G(2df,p) opt Freq 

 titel

0 1
C 1.4285370657 0.0021886588 0.0004283094
C -0.0265401978 -0.0108415991 -0.0064343932
C -1.2327386137 -0.0089019288 -0.0156318676
C -2.6646212255 -0.0440593676 -0.0146981296
O -3.2701624727 -0.2924820539 1.2438334826
C -3.4842926928 0.8583054183 -0.9300189922
C -4.7288592011 1.5561572751 -0.4310545489
C -3.4575776832 -0.6345828532 -1.1818147895
O -4.552847183 -1.4239844773 -0.85304845
H 1.8159732867 0.3795152392 0.9532924309
H 1.8442676664 -0.99941032 -0.1563728985
H 1.8177587482 0.6511597202 -0.7919133548
H -2.7228534736 -0.9477451624 1.6915324465
H -2.8700831607 1.4433648903 -1.6088158607
H -5.3563677087 0.8864379497 0.1583117941
H -4.4758700554 2.419942826 0.1912073308
H -5.3235667558 1.9098449402 -1.2794366001
H -2.9158285339 -1.0131684598 -2.0427455037
H -4.6059724792 -1.4113837756 0.1142461746

