# b3lyp 6-31G(2df,p) opt Freq 

 titel

0 1
C -2.6197452464 -0.1718748137 -2.4193291246
O -3.0238664157 -0.6783455443 -1.1610472
C -2.4975696793 0.0108547111 -0.0464384345
C -3.2117019896 -0.4673385594 1.2431179124
O -3.7851715707 0.8313723876 1.4747473037
C -3.1983487919 1.3698931863 0.2779057866
C -1.0395736159 0.0222090784 -0.0117589735
C 0.1646492909 0.0330560973 0.0263769355
C 1.6192421126 0.0419352692 0.0781867497
H -3.1124948172 -0.7872016546 -3.1749621725
H -2.9303081382 0.8743241474 -2.5578854818
H -1.5321849697 -0.2344871334 -2.5508251613
H -3.9673538124 -1.2334025206 1.0367715271
H -2.556403897 -0.7857924117 2.0598436654
H -3.9535848644 1.6560040893 -0.4646177887
H -2.5342465042 2.2155426708 0.4854163657
H 1.9750964517 0.2382373828 1.0954581635
H 2.0327331385 -0.9219373962 -0.2377511265
H 2.0375616889 0.8153018036 -0.5751898062

