# b3lyp 6-31G(2df,p) opt Freq 

 titel

0 1
C -0.0005335036 0.1135886253 0.1408489169
C 1.4712186473 -0.025129758 -0.0692117589
O 2.1708544224 1.1278038847 -0.5542086542
C 3.3609404313 0.7264664086 0.185215577
C 4.4810265461 0.3445227712 -0.7753784585
O 3.9937009486 -0.4233952518 -1.8558347433
C 3.2001484453 -1.5451662943 -1.5088554986
C 2.2108494999 -1.3100908571 -0.3808343338
C 2.6226533641 -0.4663405275 0.80547992
H -0.220883881 0.9670831738 0.7895972053
H -0.5101121579 0.2738986993 -0.8159504215
H -0.4130525602 -0.7908434976 0.5970272202
H 3.6703155938 1.5039746598 0.8904753889
H 4.9269929561 1.2344541464 -1.230145446
H 5.2692075413 -0.1850970231 -0.2106300578
H 2.6850303558 -1.8311466167 -2.4322893086
H 3.8473266831 -2.3914501704 -1.2150773924
H 1.6452716416 -2.2001179707 -0.1128239712
H 2.671678336 -0.7989612018 1.8340895165

