# b3lyp 6-31G(2df,p) opt Freq 

 titel

0 1
C 3.6354276568 -3.6639654393 -1.1064330435
C 3.4978141033 -2.678994795 0.0639303255
O 3.0512549818 -3.3330986106 1.2498188154
C 2.6449374061 -1.5396774483 -0.2898716101
C 1.9175454597 -0.6237045057 -0.5828396636
C 1.0447596693 0.4818757776 -0.9354313514
C -0.4026932195 0.4709993998 -0.3672184923
C -0.0156441608 1.8254246807 0.255271509
O 1.3402157124 1.7159130888 -0.2285869749
H 2.6547031902 -4.0570690362 -1.3937387908
H 4.073863416 -3.1729427547 -1.979954421
H 4.2741358963 -4.4980882932 -0.8048569453
H 4.4941676921 -2.2998877843 0.3221714202
H 2.1240711909 -3.5615263978 1.1204167774
H 1.0818893197 0.6491441185 -2.0207409548
H -1.1968105012 0.4861941946 -1.1142234537
H -0.5874732894 -0.3282021055 0.3503176779
H -0.5289574271 2.6982698434 -0.1669525972
H -0.0545036366 1.8845225174 1.3487236032

