# b3lyp 6-31G(2df,p) opt Freq 

 titel

0 1
O 0.6197191202 0.4681356686 0.8853574714
C -0.7682786936 0.5524782058 0.892979539
C -1.5583634893 0.0769915461 2.0855512965
C -1.5587890036 -0.7524165124 0.8167946611
O -0.7400832815 -1.8965449389 0.9072675837
C -0.6071571973 -2.574048992 -0.3469800399
C -1.9616113689 -3.0866049947 -0.8370072897
C -2.9777189087 -1.9771270868 -0.7712551567
C -2.7639584613 -0.8966513892 -0.0194510962
H 0.8268572823 -0.4665981493 1.0277740035
H -1.1214557165 1.4156953759 0.3380947418
H -0.9927000242 -0.334082463 2.9151843901
H -2.4757018898 0.5880432737 2.3586036168
H -0.1707496611 -1.8948098204 -1.0932051433
H 0.0963509885 -3.3910906369 -0.1681947164
H -1.8579919951 -3.4563256844 -1.8648981911
H -2.2828656776 -3.9446993799 -0.2309921146
H -3.8856211725 -2.0694445883 -1.3594790192
H -3.4743494399 -0.0754006737 0.0079284132

