# b3lyp 6-31G(2df,p) opt Freq 

 titel

0 1
C -2.1975041217 1.1246216244 2.0812130089
C -2.044629142 1.9566891583 0.849365787
C -0.9566348301 2.177636356 0.1058552894
C 0.4317209936 1.6237341665 0.3036726477
C 0.469578443 0.1670692716 -0.1295284841
O 0.6710034915 -0.7576799658 0.6141564966
C -1.3075078641 3.0886835946 -1.0414104624
O -2.6910247516 3.3746845936 -0.8990814551
C -3.2006715464 2.7217971192 0.2584911871
H -2.9837079618 0.3713337398 1.9474798187
H -1.2755090606 0.5994278518 2.3394060108
H -2.4985085056 1.7408069264 2.9380917716
H 1.1489616732 2.1886731653 -0.3056061823
H 0.7519052267 1.6766066318 1.3476061237
H 0.2573864875 0.0018852823 -1.2100671833
H -0.7204996443 4.0229282189 -1.0168712466
H -1.1197414546 2.6227585752 -2.0236845508
H -3.6072167271 3.4649633507 0.9647269843
H -4.0357784158 2.0593099496 -0.0225834611

