# b3lyp 6-31G(2df,p) opt Freq 

 titel

0 1
C -0.0285208255 -0.4432323832 -0.2852780311
C 0.8408935619 0.3682567529 0.6384021362
O 2.0328857471 -0.3010557344 1.1559558764
C 2.1842014392 0.8042771668 0.2968969942
C 3.0553734242 0.9186609187 -0.9626895322
C 2.7414363618 2.4500302307 -0.9098192324
C 3.0511026163 2.050974513 0.5545319972
O 3.0179228379 2.9214068905 1.6213931337
C 4.2532068296 1.2043454987 -0.0020362997
H -0.5984404816 -1.1894472327 0.2780804119
H -0.7444452614 0.2052326171 -0.8021061237
H 0.5754869325 -0.9628300038 -1.0332068427
H 0.307966716 0.9315178302 1.4066385234
H 3.0575247794 0.2783562112 -1.839881902
H 3.4794294179 3.0959632453 -1.3898051813
H 1.7173875186 2.7585965635 -1.1327015055
H 3.159162315 2.4104557572 2.4268209069
H 5.0805749177 1.7770733585 -0.427787787
H 4.5975148235 0.3691849698 0.6111901378

