# b3lyp 6-31G(2df,p) opt Freq 

 titel

0 1
C -0.0062834915 -0.052135177 0.2670066122
C 1.4915059051 0.0368493657 -0.0395134724
O 2.2325012911 -0.568445381 1.0323115357
C 2.0024050811 1.4619296521 -0.1480981882
C 2.7775616126 1.6651950844 -1.2115688406
C 2.9055569863 0.4279482385 -2.0562252811
O 2.1131160866 0.4731682446 -3.2750359115
C 1.090203986 -0.3485407602 -2.6772136611
C 1.928520196 -0.5737889315 -1.3950763219
H -0.2063316152 0.3830289866 1.2506951283
H -0.6119998104 0.4781733852 -0.4720477686
H -0.3383285346 -1.0978749327 0.2830174248
H 1.8100672446 -1.4089526661 1.2425665789
H 1.758648084 2.1986653913 0.6101172174
H 3.2547863701 2.6025293323 -1.4750142263
H 3.9378847004 0.1346730909 -2.2740245122
H 0.1486814334 0.1984802231 -2.5450519094
H 0.8953191934 -1.2457017133 -3.2759068085
H 2.2838529111 -1.5965600829 -1.2675902055

