# b3lyp 6-31G(2df,p) opt Freq 

 titel

0 1
C 1.565400988 0.2034792201 0.4018810052
C 0.1263484494 0.1238461705 0.1947016875
C -1.0658515963 0.0691166729 0.024823546
C -2.491922558 -0.0318593392 -0.1948124366
C -3.1105032828 0.4337653773 -1.5547025657
C -4.0992004002 -0.7443274348 -1.4552030792
O -4.4165072031 -1.3591257153 -2.6774413326
C -3.121710154 -1.4389557572 -0.4878560806
O -3.7265329447 -2.1613175868 0.5511723953
H 1.8063588408 0.7163833012 1.3397917532
H 2.0198976469 -0.7928562895 0.444551526
H 2.0547670865 0.7533589843 -0.4098924021
H -3.0482609092 0.4191958813 0.6345386988
H -3.5157450694 1.4444520644 -1.6053989369
H -2.4124638775 0.2752647501 -2.3795747085
H -5.0001151528 -0.4511480945 -0.8958702209
H -5.0465053765 -2.0658450452 -2.5027388925
H -2.4091121349 -2.0454152834 -1.0635147481
H -3.0351274422 -2.5658422463 1.0852791717

