# b3lyp 6-31G(2df,p) opt Freq 

 titel

0 1
C -0.1447854043 -0.0219228421 -0.0484788954
C 1.3540009343 -0.0861203153 -0.0735335039
C 2.1052392588 -1.2003514374 0.6896903991
C 3.5420196637 -0.7955773632 0.2487088447
C 3.8444234373 -1.5317533441 -1.0576039063
O 2.7890713816 -1.100803917 -1.9453387932
C 2.2471521841 0.0608471404 -1.3680663131
C 3.1756722105 0.6330605469 -0.2892237139
O 2.0357910311 1.1018641218 0.456157078
H -0.5148838457 0.0226834139 0.981418981
H -0.5060949732 0.8616996596 -0.5821702356
H -0.5670601786 -0.9127626697 -0.5244064789
H 1.9362151204 -1.094666516 1.7635608217
H 1.8338610303 -2.2116853476 0.3754538768
H 4.3208785257 -0.8588812431 1.0074599532
H 4.8210643068 -1.258007019 -1.4837529937
H 3.8011945132 -2.6210937844 -0.9619959088
H 1.8518463497 0.7366664442 -2.1256147803
H 3.9610982943 1.3708905221 -0.4458691914

