# b3lyp 6-31G(2df,p) opt Freq 

 titel

0 1
C -0.0205850347 -0.1505727547 0.1770795705
C 1.4598656636 0.0732195978 0.0314001507
C 2.1299204889 1.3920786782 0.5100566089
C 2.9637683743 1.4142975445 -0.8022502068
C 2.293053338 1.9910895388 -2.0772569403
O 1.8539201299 0.6687985719 -2.5165363155
C 2.285275894 0.1179747764 -1.2915365893
C 2.7655449253 -1.2759780547 -0.9562248646
O 2.2537976558 -1.1023945962 0.3940629046
H -0.2869609263 -0.2630229475 1.234376812
H -0.5816785114 0.6984503238 -0.2261923964
H -0.335009213 -1.055798755 -0.3505235827
H 1.4471633809 2.2379026256 0.6399400324
H 2.7196487756 1.2654762992 1.4206242583
H 4.0450784599 1.5358087252 -0.7408500441
H 1.443780147 2.663624893 -1.9065680316
H 2.9709665099 2.4384736318 -2.8105418459
H 2.2403359891 -2.0801880391 -1.4901758569
H 3.8441598832 -1.467380219 -0.9747085233

