# b3lyp 6-31G(2df,p) opt Freq 

 titel

0 1
O 3.4171637538 0.5495435687 1.5096695664
C 2.5145811187 -0.4113951495 1.0357337268
C 1.1100563797 -0.4575079018 1.5869015801
C 1.3858167439 0.1284813752 0.2113689533
C 0.9101042397 -0.476952165 -1.0767917439
C -0.1861262903 0.2591918988 -1.8531375387
C 1.2059005992 0.2786936663 -2.377219032
C 0.8730761978 -1.9488107435 -1.2449708967
O 1.2210082356 -2.7713609945 -0.4313140133
H 3.7336485244 0.2535358864 2.3697146425
H 2.9516584218 -1.3600369192 0.7362884178
H 0.6330883973 -1.4267823893 1.6524982356
H 0.8582058291 0.2492985305 2.3702219274
H 1.3727010174 1.2152402564 0.1924983915
H -0.9279636768 -0.3365100166 -2.3747033496
H -0.5808662244 1.1491069385 -1.3766838288
H 1.4343524753 -0.3037876476 -3.263616705
H 1.7970977569 1.180674501 -2.269502996
H 0.4784938207 -2.2678064045 -2.2391545876

