# b3lyp 6-31G(2df,p) opt Freq 

 titel

0 1
C 1.3748900918 -0.0571120064 -0.14398643
O -0.0044018643 -0.0862663796 0.1641224488
C -0.4455319925 0.7235433122 1.2556388647
C 0.0701748024 2.1669488159 1.1967039826
C -1.9668154307 0.6779598826 1.2364598642
C -2.480273305 0.0658367501 2.3039364027
C -1.3879262717 -0.3796882488 3.2190267855
O -0.5956742718 0.7165190311 3.751271764
C -0.1246262658 0.02639527 2.5942636382
H 2.0123799291 -0.2545379118 0.7297595423
H 1.5422055318 -0.8507803131 -0.876508449
H 1.6865189874 0.8978521569 -0.5878337693
H -0.3483725276 2.7297563987 2.0330898482
H 1.1601103743 2.2137101233 1.2725403779
H -0.23248886 2.6443340732 0.259574359
H -2.5257212661 1.1471887451 0.4347395323
H -3.5335883862 -0.0684308982 2.5171306514
H -1.4929905567 -1.2299427595 3.8853989784
H 0.8060736917 -0.5226407817 2.7095560981

