# b3lyp 6-31G(2df,p) opt Freq 

 titel

0 1
O 0.3640252668 -0.1108259377 0.3536334808
C -0.9568011172 0.20773979 0.7670829527
C -0.9413409865 0.799291393 2.1893729142
C -0.6112261491 -0.2867079647 3.1935229796
C -1.0765336386 -1.531496251 3.0472535969
C -1.9638025282 -1.8930008595 1.9120241323
C -1.4113978516 -2.3694776931 0.5681814498
C -1.9414595963 -0.9816612363 0.7090743813
O -3.1446706513 -0.7198286703 0.0365351833
H 0.7916484887 -0.5652296544 1.0894822863
H -1.317235352 0.9444799419 0.0428156642
H -0.2121108854 1.6136962936 2.2356973374
H -1.9222271088 1.2433317287 2.4158316289
H 0.022754121 -0.0332789788 4.0384847138
H -0.8270429991 -2.3047804527 3.7704440543
H -2.9262378138 -2.3256128252 2.1755796156
H -0.3423312379 -2.4957540888 0.4466817471
H -2.0297980348 -3.0666384887 0.0145465082
H -3.6929257359 -0.1689541661 0.6059887132

