# b3lyp 6-31G(2df,p) opt Freq 

 titel

0 1
O -0.6080885618 0.8984796308 0.2598009004
C -1.8611013154 0.291779578 0.4051898404
C -2.9029395149 0.7020822042 -0.6492295695
C -3.5015360664 -0.7235304822 -0.5325437008
C -4.3779189548 -0.8862037187 0.7307179596
C -3.2863168091 -0.9970858211 1.8180454737
C -2.4617730845 0.3071492059 1.8344874803
O -2.3638280589 -1.931311001 1.2318152904
C -2.1208927523 -1.2204980176 0.0339117703
H -0.0298834071 0.5732372283 0.9585532601
H -3.5497706956 1.55468396 -0.422438743
H -2.4202364483 0.8602503264 -1.617541462
H -3.9155138056 -1.1830740919 -1.4287304961
H -5.0657145461 -0.0505468668 0.8885776874
H -4.9554799305 -1.8136166854 0.6942532348
H -3.6129532404 -1.3657265313 2.7904237139
H -3.0467351229 1.2061769186 2.0441699227
H -1.6627239857 0.2261948735 2.5800780653
H -1.4158217397 -1.7358628997 -0.6147123678

