# b3lyp 6-31G(2df,p) opt Freq 

 titel

0 1
C 0.0122290209 -0.0235747242 -0.0892948997
C 1.5216132887 0.0913849668 -0.071471381
C 2.1407045673 1.3392410251 0.5365990131
O 3.4136694488 1.7646942594 0.1136916964
C 4.4049964077 0.8976473308 0.6190134457
C 4.5324141928 -0.4777531501 0.0199324213
C 3.744420319 -0.2725104671 1.3001547723
C 2.2538232989 0.0306318422 1.2628768841
O 1.5470652084 -0.1791024939 2.4479612072
H -0.4269203443 0.4167016671 0.8096405658
H -0.4064437341 0.4880640182 -0.9620994724
H -0.3071358582 -1.0711294465 -0.1334092405
H 2.0232193294 -0.3310055827 -0.9362255797
H 1.4930851547 2.1477469173 0.861675853
H 5.2749547118 1.4239819114 0.9962516033
H 4.0197732274 -0.6997635324 -0.9083648343
H 5.4973474639 -0.964594162 0.1206218158
H 4.1094577918 -0.6860419663 2.2321612057
H 1.2786581053 -1.1042739132 2.4749947239

