# b3lyp 6-31G(2df,p) opt Freq 

 titel

0 1
C 3.9518933925 4.8463467189 -1.1932274656
C 3.5281858152 3.7903421521 -0.1698791833
C 2.9716247184 2.5250285519 -0.8216900933
O 4.0013807685 1.9571923466 -1.6123431324
C 2.4714973485 1.5198940544 0.2283503785
C 1.8942726675 0.2552550333 -0.379851176
O 2.0275515305 -0.0448271652 -1.5521690372
C 1.1610494525 -0.6044378043 0.5311974039
C 0.5579908944 -1.2991540135 1.3074995948
H 4.3765068002 5.7250238632 -0.6986066719
H 4.7002049523 4.4373154003 -1.8758405322
H 3.0971116208 5.1802464042 -1.7921803305
H 4.3877317772 3.5052340794 0.4500363381
H 2.7690377633 4.2011714174 0.5072257343
H 2.1141002477 2.804272922 -1.4580098746
H 3.6017604778 1.2014081782 -2.0624864426
H 3.3033094114 1.2171226965 0.8806185155
H 1.7152773528 1.966293574 0.8859018149
H 0.0216725086 -1.9253630595 1.9789483497

