# b3lyp 6-31G(2df,p) opt Freq 

 titel

0 1
C -0.997312256 -2.3848038087 0.8955804303
C -1.0206199335 -1.0939138528 0.1286143024
C -1.8826333683 -0.8749395087 -1.111474648
C -2.0661505445 0.066297893 0.021781833
C -0.9587970941 1.1312818116 -0.0262686711
C -0.9121032932 2.1084939882 1.1359299497
O -2.0229613848 2.9850324843 1.0091312478
C 0.0425361631 -0.0422401688 0.1744240855
O 1.1924431847 -0.0614128143 0.5232085864
H -0.3347861925 -3.1130174896 0.4154246844
H -0.6338675978 -2.2298444994 1.916275534
H -1.9960842856 -2.8291396232 0.9501031184
H -1.4407835222 -0.5311907418 -2.0434579966
H -2.6434157555 -1.6391119145 -1.2395404094
H -2.985965634 0.1613119691 0.5832710951
H -0.8957328772 1.6815488703 -0.9712349674
H -0.9463028875 1.5562070302 2.089004769
H 0.0435027151 2.651614078 1.106464047
H -1.9933362964 3.6125906873 1.7376158996

