# b3lyp 6-31G(2df,p) opt Freq 

 titel

0 1
C 0.5990440418 -0.6135367526 -0.7055026751
C 1.13195305 0.2120088924 0.4688167666
C 1.79385756 1.497491626 0.0000481072
O 2.2600734157 2.2017241018 1.1680460769
C 2.8804947187 3.3733983117 0.9295246084
O 3.0556142261 3.8402853287 -0.1701329815
C 3.3059030916 3.9930903257 2.1612606355
C 3.6876282806 4.5614856103 3.1524525502
C 4.143564981 5.2456542425 4.3499153748
H 0.1265948483 -1.5344137384 -0.3526824534
H -0.1479926084 -0.0550097554 -1.27987835
H 1.4035893161 -0.8946545217 -1.3936968389
H 0.3170437252 0.463564815 1.1570874973
H 1.8593623552 -0.3716935366 1.0443533329
H 2.6443535796 1.3005172664 -0.6617678324
H 1.0957384477 2.1388656081 -0.5490251762
H 4.413349695 4.5318876085 5.1352846028
H 5.0179445067 5.870218049 4.1393532834
H 3.355372049 5.8957931984 4.7452647816

