# b3lyp 6-31G(2df,p) opt Freq 

 titel

0 1
C 0.9473592253 0.8146546919 -0.0527716221
C 0.813194854 -0.6613906108 0.3159075711
O 1.0201764822 -1.5086391434 -0.8280498828
C 2.3994849286 -1.8443455022 -0.9081245608
C 2.873522723 -1.9553238945 0.5305289616
C 1.9603309396 -2.6739290726 1.4570475346
C 1.8442895465 -1.1526612635 1.3332591633
C 2.2548951938 -0.3776448257 2.519604015
O 1.7755425387 0.6674518891 2.8900636464
H 0.7112432671 1.4449079455 0.8059214216
H 1.9652975152 1.0530380243 -0.3781531247
H 0.2620883208 1.0417296444 -0.87378644
H -0.2101135214 -0.8645720115 0.6509416289
H 2.4738680422 -2.7831891705 -1.4667245659
H 2.9806195086 -1.0775391221 -1.4427583064
H 3.9322368637 -1.8815844821 0.7514996665
H 1.1429409445 -3.2530353465 1.0413266553
H 2.3741328834 -3.0549626529 2.3846973073
H 3.0741690743 -0.8639983367 3.1004616809

