# b3lyp 6-31G(2df,p) opt Freq 

 titel

0 1
C 2.8255149532 -1.877787042 1.1102571268
C 1.6502213769 -2.1851766473 0.1850412424
O 1.1769338162 -3.5220433324 0.4241324846
C -0.2058469428 -3.5213852932 0.7377426619
C -0.6164568338 -2.0814191151 0.7167971495
C 0.4274858387 -1.3131447279 0.3927568819
C 0.4518391255 0.1525351182 0.1921940932
C -0.8263815265 0.9347225169 0.4422321178
O 1.4711073432 0.7072740884 -0.1738571377
H 2.5082547715 -1.9034388962 2.1575106778
H 3.6092314071 -2.6270865277 0.9688539239
H 3.2299570224 -0.8894012308 0.8820989215
H 1.9933801487 -2.1141233855 -0.858178898
H -0.7719993643 -4.1144625944 -0.00019371
H -0.3780106118 -3.9912041617 1.7197945674
H -1.6271970247 -1.7523192534 0.9236380026
H -1.171612515 0.7956943623 1.4721126797
H -0.6358712982 1.9928515889 0.2608761369
H -1.6276287164 0.5902406028 -0.2199824221

