# b3lyp 6-31G(2df,p) opt Freq 

 titel

0 1
O 1.9786244862 -0.8492756953 0.5250913695
C 1.2609943981 -0.4530663345 -0.3600647781
C 0.1687697871 -1.3414149283 -0.9581179653
C -1.0888107192 -1.4039121046 -0.0651556294
O -1.4774995297 -0.1703955092 0.5030315742
C -1.6471301568 0.9348566844 -0.3869313166
C -0.6937755388 2.041040398 -0.0054529207
C 0.6229154743 2.0274131024 -0.216529257
C 1.4229993792 0.9633609522 -0.9458014024
H -0.0874761277 -1.004457496 -1.9663450698
H 0.5701541693 -2.3564514783 -1.0384354394
H -1.9110540012 -1.8546063904 -0.6443055096
H -0.8850458877 -2.050524993 0.7926546456
H -1.4929951848 0.6281902318 -1.4295482029
H -2.6847620577 1.2790978978 -0.3056733663
H -1.1180064997 2.8781285814 0.5423403476
H 1.2115761634 2.8523585276 0.1757650772
H 1.1500367239 0.9507733568 -2.0079922948
H 2.4851011917 1.2085698674 -0.8771106118

