# b3lyp 6-31G(2df,p) opt Freq 

 titel

0 1
C 4.8723974023 -3.7117803388 -0.0095870669
C 4.9308986786 -2.21910085 -0.2959215437
C 5.3328831505 -1.8880233848 -1.7287111904
O 3.5898924368 -1.7105824633 -0.0393134091
C 3.4795430374 -0.4230163225 0.305028194
O 4.3986494344 0.3463499165 0.4299620855
C 2.0253002717 -0.0376183494 0.5912347299
C 1.0281378573 -0.6448987026 -0.2770079563
C 0.1888464611 -1.1208106995 -0.9918469924
H 4.5588946334 -3.8989733201 1.020856657
H 4.1646426247 -4.2076524628 -0.6808912241
H 5.8597029739 -4.1592151144 -0.1570953939
H 5.6068262065 -1.715723303 0.4009276673
H 4.6268920833 -2.3309502443 -2.4380835852
H 5.3596205769 -0.8069148583 -1.8807287243
H 6.3298404973 -2.2880936155 -1.9379720458
H 1.8292162764 -0.3154926529 1.6361378565
H 1.9783693151 1.0539783255 0.5463955267
H -0.5461053176 -1.5494704197 -1.6269399949

