# b3lyp 6-31G(2df,p) opt Freq 

 titel

0 1
C -0.7125819717 -0.167104266 2.4583044065
C -1.4997849465 -0.599303786 1.2242197575
C -2.6426819336 -1.5406954106 1.6068215849
C -1.9424547022 0.4528330386 0.1514467104
C -0.6881954186 1.2728332827 -0.1894974665
C 0.2627302764 0.0557648338 -0.303395559
O 1.4403415911 0.0165728312 -0.5227535099
C -0.736567379 -1.0863184237 -0.0526730691
O -1.8522288972 -0.6014642822 -0.8668375714
H -0.3485500065 -1.0471054951 2.9990960177
H 0.1560047858 0.4547151861 2.2290059444
H -1.3569177791 0.3930943837 3.1448741211
H -3.3345737116 -1.0373121113 2.2918041665
H -3.2008356324 -1.8631994292 0.7264686777
H -2.2577877451 -2.427511488 2.1214683763
H -2.911559473 0.9514395448 0.1884793558
H -0.7959052183 1.7864463254 -1.1479539833
H -0.3545260254 1.9908185648 0.5632599516
H -0.4275846432 -2.1135390087 -0.2390398113

