# b3lyp 6-31G(2df,p) opt Freq 

 titel

0 1
C 2.3893254818 1.0136343894 2.4996105236
C 1.0719936411 1.7078589332 2.1225166109
C 0.582166444 2.6193363261 3.2571296657
C -0.0069556272 0.6765582632 1.7559958075
C 0.195894557 -0.1667493072 0.4795959336
O -0.9826789765 -0.9440805669 0.3251526667
C -0.9950358852 0.3974784372 -0.2083789283
C -1.2244896139 1.3053869177 0.9942872038
O -1.9139227335 2.262380762 1.19140948
H 2.2517840223 0.3663419749 3.3734456885
H 2.7798705801 0.3959720981 1.6846240579
H 3.155843528 1.7535956566 2.75178399
H 1.2578582168 2.334454129 1.2381180336
H 0.4143294003 2.039410892 4.1725129959
H 1.3285280905 3.3876280705 3.4828109979
H -0.3556698263 3.1119027073 2.9913149648
H -0.2679460043 0.0616558934 2.6234565042
H 1.1117108484 -0.5273460813 0.0280925258
H -1.2376704435 0.521328745 -1.2570422921

