# b3lyp 6-31G(2df,p) opt Freq 

 titel

0 1
C 0.0251390656 -0.5309552666 0.3016402046
C 1.4554620557 -0.1660293304 0.0315056838
C 2.6333813785 -0.384047797 0.9942195172
C 3.1095491536 0.8314913971 0.1904346964
C 4.5967440726 1.2184984522 0.1621809569
O 4.7616174854 0.1563521956 -0.8433455701
C 3.3417017827 0.3343294306 -1.20233717
C 2.1418131658 -0.6317638938 -1.3210596301
O 1.7318781546 1.3114510228 0.1486292206
H -0.292309815 -0.1604453313 1.2797338952
H -0.6338670746 -0.1036168885 -0.4607018561
H -0.0949316612 -1.6192982221 0.2833611026
H 2.3880309774 -0.1008004758 2.0192183728
H 3.2041721566 -1.3135098771 0.9478485348
H 4.8181799009 2.2050190603 -0.2629842903
H 5.1977756903 1.0336303356 1.0561604133
H 3.2839344274 1.1269872498 -1.9564840943
H 1.544359582 -0.4294392813 -2.2126479926
H 2.3703598918 -1.6991387502 -1.2840070347

