# b3lyp 6-31G(2df,p) opt Freq 

 titel

0 1
C 3.8302054155 0.1976325539 -1.1083373053
C 3.7816172149 1.567639799 -0.4255071127
O 3.9340120657 1.8236681793 0.9934363176
C 2.6323453458 1.5347839725 0.4916100101
C 2.222870856 0.0693872363 0.642095953
C 2.3727937025 -0.2952472799 -0.8361221728
O 1.3484542509 0.4208906886 -1.5439441894
C 1.1503268803 1.8281911263 -1.3312549086
C 1.4570716349 2.3910693625 0.103543486
H 4.0500787894 0.3098291505 -2.1733076585
H 4.5541780643 -0.5047804788 -0.6819212511
H 3.989773661 2.449256061 -1.0261222059
H 2.9242063729 -0.4693774007 1.2827123725
H 1.2030843833 -0.0696901268 1.0058249387
H 2.2039382726 -1.3427767394 -1.101656581
H 1.7867740067 2.3855993476 -2.0325148355
H 0.1086671573 2.009136104 -1.6135606947
H 1.6949317464 3.455141137 0.0166504388
H 0.6078590995 2.2781094972 0.7845073089

