# b3lyp 6-31G(2df,p) opt Freq 

 titel

0 1
O -3.0852765444 1.3035873253 -1.6216938237
C -1.9396202753 1.1169520756 -0.8378028906
C -1.8528030563 -0.2060916975 -0.0053414431
C -0.5152661175 -0.0950995809 0.7423450955
C 0.5424734553 0.8827538375 0.2957038528
C -0.576550254 1.3746108859 1.1806423262
C -1.9339658882 1.7726074265 0.5842425554
C -2.7673363594 0.5115487094 1.0471955232
O -4.1460821125 0.472843668 0.7023179407
H -3.8453010353 1.0558239313 -1.0761523133
H -1.1032102415 1.3493118503 -1.4950463882
H -2.1317681114 -1.166986506 -0.4380685829
H -0.2434407794 -0.8890227993 1.4287884206
H 1.4960309598 0.7707427784 0.802680936
H 0.6488995923 1.1950683248 -0.7355075229
H -0.3488756206 1.6804715555 2.195732412
H -2.2921514195 2.7920810598 0.7374999788
H -2.6305570401 0.2055382664 2.09238588
H -4.6142743522 1.0975801489 1.2662699335

