# b3lyp 6-31G(2df,p) opt Freq 

 titel

0 1
O 0.3465201915 -0.4170569503 0.4155116265
C -0.9901993453 -0.0137917884 0.5100121566
C -1.6239779687 0.2394663924 1.8501927208
C -1.9739135099 -1.0125205147 1.0542420787
C -3.3048387631 -1.1376383994 0.3045399879
C -3.3156563203 -0.1922523287 -0.9001756605
C -2.0257711003 -0.2931436832 -1.7468446968
C -1.5253945391 0.7299643038 -0.7076390412
O -2.8961237059 1.135027474 -0.4496736517
H 0.9005489616 0.3551831447 0.5771298615
H -0.9926918475 0.0948266875 2.7203876296
H -2.367168711 1.0241987903 1.925006672
H -1.5462369301 -1.9323715585 1.4375956859
H -3.4417880772 -2.1674896011 -0.0463460238
H -4.1529961653 -0.9070720254 0.9600699301
H -4.2805662093 -0.1626422006 -1.4129238994
H -1.5067467825 -1.2516812578 -1.8048419503
H -2.1550546675 0.1415870693 -2.739060127
H -0.8901921803 1.5662386862 -1.0180143487

