# b3lyp 6-31G(2df,p) opt Freq 

 titel

0 1
O 1.1630938392 0.7486106648 -0.3930265532
C 0.2016126454 0.0309888606 0.3625833564
C -1.2049245985 0.5770485403 0.1629269357
C -2.401402743 -0.3291160342 0.5495572412
O -3.0036769506 -0.1493832685 -0.7475522066
C -1.8388823873 0.5440473281 -1.2572506015
C -2.1395886745 1.9877409634 -1.6826512303
C -1.8618380063 2.7767777676 -0.4221588755
C -1.3662403696 2.0235841094 0.562307606
H 1.0337806437 1.6855663456 -0.2059402133
H 0.2568984875 -1.0059410055 0.0143575779
H 0.4521504191 0.0279681135 1.4376572946
H -2.1318321721 -1.3789555644 0.733957097
H -3.0490764066 0.0249544482 1.3594924736
H -1.323630639 -0.0474188852 -2.0211271465
H -1.5120721258 2.3187420901 -2.5201345299
H -3.1828834432 2.0712104178 -2.0095116526
H -2.0655405423 3.83982787 -0.3444815157
H -1.1137765161 2.3809295783 1.5564152029

