# b3lyp 6-31G(2df,p) opt Freq 

 titel

0 1
O -0.0583453287 0.9794588344 -1.502969744
C 1.2492912907 0.659837955 -1.0119674479
C 1.2073628215 -0.3365029536 0.1702495034
C 0.1480288693 -1.4095911743 -0.0394942549
O 0.0836436847 -1.9123322367 -1.3474207559
C -1.1457460395 -1.3530963365 0.7385892294
C -0.1069409909 -2.4186408955 1.0354818976
C 2.0101263321 1.8625930733 -0.6730141766
C 2.6133256919 2.8535902357 -0.3580498542
H -0.5259708352 1.4609301605 -0.81104641
H 1.7279900266 0.1581394437 -1.8591001548
H 2.203969134 -0.7851936011 0.259259508
H 1.0148999822 0.2012710786 1.1050706398
H -0.3055995341 -1.2036229641 -1.8779376539
H -1.2923236899 -0.5594571721 1.4643902576
H -2.0429107966 -1.6678834668 0.2175667673
H 0.4596406879 -2.3482199721 1.9578794901
H -0.3210177496 -3.4284806776 0.705905651
H 3.1539187735 3.7307919493 -0.1001903621

