# b3lyp 6-31G(2df,p) opt Freq 

 titel

0 1
C 2.6943657624 -0.6857761193 2.6070419795
C 3.1321938538 -0.9768295748 1.1826656121
C 4.6341435626 -1.2804152377 0.9620472699
C 4.1412876594 -2.657264377 0.477662747
O 2.7663586712 -2.3183074246 0.7645353227
C 2.5814032445 0.0475852483 0.1581837738
O 3.1521085216 1.3365514446 0.377679807
C 1.1195839515 0.0899570985 0.1411751509
C -0.0799504984 0.1683475533 0.1611013773
H 3.1060418053 -1.435219413 3.287864522
H 3.0542181914 0.2990079262 2.9235550771
H 1.603844988 -0.706653414 2.6865987949
H 5.1329628523 -0.6519283818 0.2233321161
H 5.2287754476 -1.297550475 1.876654091
H 4.2954489533 -2.8701254522 -0.5872912297
H 4.4761231337 -3.5227990682 1.0608085003
H 2.9357434611 -0.2684745816 -0.830243354
H 2.5975498153 1.7963772195 1.0164485574
H -1.1407611666 0.223370149 0.1609023447

