# b3lyp 6-31G(2df,p) opt Freq 

 titel

0 1
C 1.3238193727 -0.0457425685 -0.1517821396
O -0.0665783081 0.1166044787 0.0143782305
C -0.4194834334 0.6808688998 1.2490476701
C -0.220355936 2.1763837284 1.5265635441
C -1.4116916399 2.9177828194 0.9241913452
C -1.5399925292 2.2256874222 2.2674665699
C -1.9261616612 0.9330182496 1.4350991214
C -2.3110108659 1.8754162548 0.254771575
O -3.6737133479 2.2349806736 0.2192182802
H 1.7544325471 -0.6885163664 0.632406567
H 1.4839511884 -0.5200411681 -1.1227861112
H 1.8548334871 0.9178099694 -0.1371970303
H -0.0005633018 0.0898392283 2.0787774399
H 0.6908737857 2.7000966524 1.7862459997
H -1.3639464183 3.9799856784 0.7176279887
H -1.7679181795 2.5744453864 3.263108341
H -2.603693027 0.1349137663 1.7306692951
H -2.058918619 1.5308688073 -0.7499078901
H -3.8968071639 2.611308898 1.0794397434

