# b3lyp 6-31G(2df,p) opt Freq 

 titel

0 1
C -0.4259663737 1.1092888444 -0.0504791499
O 0.040096318 -0.2432337925 -0.2172670741
C 1.4086475964 0.1536119361 -0.0066182639
C 1.0390687302 1.6554016545 -0.0680651125
O 1.4627356693 2.3288903628 1.094011786
C 1.2985560257 3.7404594903 1.0385061209
C 2.1616628273 4.3518126844 -0.0650118708
C 1.9631909682 3.5778428813 -1.3405481851
C 1.4274790268 2.3594071854 -1.3322593387
H -1.0926545626 1.4173431135 -0.863233129
H -0.9160227337 1.2687768384 0.9190464404
H 1.7818406887 -0.1312473907 0.9847694921
H 2.078101588 -0.2299687556 -0.7839867486
H 0.2407719216 3.9954382047 0.8665197478
H 1.5786159473 4.1137184361 2.026912952
H 1.8915132081 5.4056753565 -0.2068490533
H 3.2199304062 4.3403547213 0.2296807552
H 2.2592739148 4.0419241336 -2.2773273099
H 1.2480695333 1.8126432355 -2.2542173484

