# b3lyp 6-31G(2df,p) opt Freq 

 titel

0 1
O -0.1655710058 1.4535445523 -0.1587841581
C -0.0129499746 0.0684622418 -0.0107551855
C 0.2001928299 -0.8522800591 -1.2703657831
C -0.7033010752 -1.9219316589 -0.5647543363
O -1.6476720637 -2.7076021585 -1.2582112631
C -2.9645940942 -2.1734392309 -1.325968892
C -3.4749814238 -1.6440823547 0.0291438847
C -2.5181389038 -0.575469712 0.5099271841
C -1.2291404706 -0.7893509018 0.274974161
H -0.9415936118 1.5998775972 -0.7117533011
H 0.7982751322 -0.068068667 0.7114943594
H -0.3057133082 -0.4232333476 -2.1399220115
H 1.2211360725 -1.1363554957 -1.5332863346
H -0.0753320897 -2.6240916213 -0.0039193535
H -3.017844541 -1.3582538154 -2.0650027478
H -3.5868661566 -2.9967182962 -1.6883616858
H -4.4839794284 -1.2390663638 -0.1026739249
H -3.5561140422 -2.4757938831 0.7403981883
H -2.889520325 0.362929395 0.91236475

