# b3lyp 6-31G(2df,p) opt Freq 

 titel

0 1
C 1.3354260487 0.9227368095 0.4398771183
C 0.0502274783 0.165461998 0.3610828735
C -0.1758976119 -1.1522895608 0.470567304
C -1.6261850682 -1.5395217083 0.3362242671
C -2.3526311681 -0.2040798013 0.0801858667
C -3.0957290588 -0.1393465153 -1.262386253
O -4.131469754 -1.1018904403 -1.3678880696
C -1.2414423226 0.858459783 0.1276590412
O -1.400468266 2.050507698 -0.0239115281
H 1.296135971 1.6643988246 1.2451790076
H 2.1876266938 0.2611896786 0.6136905699
H 1.508980162 1.484619762 -0.4843284377
H 0.5976880488 -1.8953190264 0.6413053986
H -1.78327101 -2.2516226296 -0.4828226277
H -1.9824426025 -2.0459519412 1.241611772
H -3.0705184008 0.0242509586 0.8779523459
H -3.4634922667 0.8840870613 -1.4159101239
H -2.4002411675 -0.3652366163 -2.0787609795
H -4.8221124455 -0.8624663641 -0.7414124851

