# b3lyp 6-31G(2df,p) opt Freq 

 titel

0 1
C 1.9003500198 5.1399946867 -1.9028340778
C 1.4150860475 3.8951427187 -1.1824452653
O 0.2378657435 3.7226722381 -0.9375158089
C 2.4433049903 2.8869258314 -0.7922212373
C 2.1532963516 1.7691878706 -0.113835551
C 3.3761488073 0.9365539036 0.1809191267
O 3.2019248196 -0.458534062 -0.0103162538
C 4.4602231815 1.5830705193 -0.7224389732
C 3.9355454489 3.0005937321 -1.0543902483
H 2.6614063433 5.6612286202 -1.311122567
H 2.3715727678 4.8710540877 -2.8554831105
H 1.0568472954 5.805062066 -2.0892188744
H 1.1587468386 1.4935659587 0.2167872801
H 3.6422085963 1.0274965666 1.2428932052
H 2.8783292453 -0.590607 -0.9087013532
H 5.4510252862 1.5819761647 -0.2632595653
H 4.5281217596 0.9867962907 -1.6398450307
H 4.3858350484 3.7544510867 -0.3945422904
H 4.173056509 3.3106729603 -2.0774999848

