# b3lyp 6-31G(2df,p) opt Freq 

 titel

0 1
C -2.8056859336 -1.5127196984 1.5456131921
C -1.5975029469 -0.6688744116 1.167137799
C -1.7692677654 0.4859701371 0.1472005151
C -1.6894273771 -0.5439099729 -0.9959658187
C -0.659441592 -1.2012711696 -0.0023255079
C -0.123956692 -2.6041659941 -0.1113039623
C 0.3549867803 -0.0618888013 0.0286043147
O 1.5487777054 -0.0577577498 -0.0107642404
O -0.427026853 1.0646514306 0.1280172562
H -3.4790380497 -0.9408900212 2.1931092231
H -3.3858875278 -1.8549412109 0.6848947285
H -2.4889027242 -2.3990145916 2.1048060897
H -1.0620532817 -0.3628520943 2.072054206
H -2.5051421007 1.2835579842 0.2239796262
H -2.5922764078 -1.1380630815 -1.1338798999
H -1.3159516774 -0.1853262929 -1.9578401866
H 0.5674885299 -2.8186384328 0.7096016353
H -0.9304441515 -3.3430357272 -0.0856807713
H 0.4297513553 -2.7342481715 -1.0463381389

