# b3lyp 6-31G(2df,p) opt Freq 

 titel

0 1
O 0.9731776068 -0.8989599758 0.5493778555
C 0.4234336632 0.1202505889 0.2583979392
O -0.5166309524 0.6881395555 1.0441343042
C -1.1484802444 1.8554393092 0.5567282339
C -1.2301439135 3.0057626668 1.5094549894
C -0.4061075133 3.1379595426 0.2411044809
C -1.0702614278 3.7680504658 -0.9747822945
C -2.4570428724 3.0805928338 -1.0684057886
C -2.265565604 1.6736867593 -0.4578554532
H 0.6267147644 0.7055738618 -0.6574066392
H -2.1634267142 3.548241376 1.6173116577
H -0.6683938859 2.8870834336 2.4289257812
H 0.6702394684 3.202698137 0.3538879033
H -1.1559902658 4.8571694828 -0.9027151118
H -0.4708064166 3.5498590025 -1.8667554908
H -3.1943099332 3.6424809738 -0.4871225105
H -2.8324223058 3.0395517138 -2.0934731708
H -3.1832615362 1.2731676587 -0.0162775985
H -1.9337927274 0.9594462837 -1.2216071176

