# b3lyp 6-31G(2df,p) opt Freq 

 titel

0 1
O -2.1268695607 -1.0965660163 0.7800358458
C -1.2339470965 -0.3116003296 0.9559105846
O -0.6150804902 -0.3021598932 2.1712172502
C 0.7305279737 0.1585064599 2.3657435062
C 0.9914508758 1.6443933023 2.1177520389
C 0.5807154722 2.1506903419 0.7289901474
C 0.6196009471 1.046734227 -0.3657675768
C -0.8839100861 0.7520743495 -0.069713895
C -0.9613232502 2.1865320229 0.5456568799
H 0.9389518747 -0.0773659584 3.4121456842
H 1.4042445568 -0.4567048717 1.7588928822
H 0.4871675482 2.2430586842 2.8859884824
H 2.0697896245 1.7888246113 2.2643500776
H 1.1098003398 3.0798481773 0.5032638877
H 0.7082267381 1.4819830187 -1.364186979
H 1.3478588412 0.2374217601 -0.2834247649
H -1.5163876207 0.5493174239 -0.9326545505
H -1.2683380598 2.9126651789 -0.2106555109
H -1.5754716678 2.3195112414 1.4397227903

