# b3lyp 6-31G(2df,p) opt Freq 

 titel

0 1
O 1.2703707964 0.9551064307 -0.2344245183
C 0.3243238116 0.236906987 -0.4148064107
O -0.963062976 0.5976075044 -0.4800147329
C -1.2883421543 1.9973660614 -0.2953246707
C -1.7164684871 2.6317853693 -1.6230225871
C -0.5408217359 2.9098285747 -2.605742889
C -0.2778661956 4.4393567458 -2.5409980467
C -1.5141908486 4.9784375243 -1.8650051729
C -2.2935361206 4.0118295523 -1.3851974877
H 0.384302263 -0.8538658714 -0.5548976566
H -2.1144376928 2.0059229425 0.4214892189
H -0.4273803758 2.5110422306 0.1368091272
H -2.4566118538 1.9570342663 -2.0711074253
H 0.3497323486 2.3283343931 -2.359587198
H -0.8424335962 2.630044894 -3.6188692125
H 0.6218540944 4.6832065335 -1.9602340678
H -0.1211530473 4.8730005334 -3.5353098137
H -1.7157483559 6.0407856408 -1.7772195329
H -3.221082114 4.1638380573 -0.8430203535

