# b3lyp 6-31G(2df,p) opt Freq 

 titel

0 1
C 1.8119167747 -2.9989969945 3.3314921125
C 0.8677645122 -3.1880895657 2.1142035421
O 1.5196288392 -2.9011626304 0.886880295
C 2.4559686885 -1.8275703466 1.0088791998
C 1.9689535703 -0.7816147977 2.0205224486
O 0.8672780033 -0.0464843805 1.4906303854
C -0.3086335295 -0.8572021813 1.6209899755
C 0.0602954945 -1.9404530581 2.6286631808
C 1.4076218717 -1.5045220158 3.2719948006
H 1.4026278139 -3.4826781968 4.2219020256
H 2.8612441374 -3.2835066136 3.2227123719
H 0.3456726136 -4.1362959194 1.9757045623
H 3.4414164369 -2.2113424376 1.3119407265
H 2.5536336613 -1.3784780795 0.0173053432
H 2.7646419377 -0.062340385 2.2342927387
H -1.1244173217 -0.2177796796 1.9759113534
H -0.5891314998 -1.2804120314 0.6481165581
H -0.7324214782 -2.2127499243 3.3267153723
H 1.425737714 -0.8881989422 4.1719569977

