# b3lyp 6-31G(2df,p) opt Freq 

 titel

0 1
O 0.4624627754 -1.182825423 0.0429511583
C 0.519351411 0.0100008808 0.1930587281
C -0.2468769884 0.7899378787 1.2442951005
C -1.0192668865 1.9606913948 0.6512239895
C -1.2452735324 3.1868073666 1.5055457977
C -0.2908692497 3.2466186293 0.3394498862
C -2.1430993561 1.5380185444 -0.2546557997
C -2.0207201871 1.4934977518 -1.7193771144
O -2.741392183 2.5446737122 -1.0661296347
H 1.1683268336 0.6405631204 -0.4581443659
H -0.9050282024 0.0951439278 1.7772921568
H 0.4871111236 1.1747424197 1.9656870723
H -2.1933583948 3.700684585 1.3945434463
H -0.84054923 3.189422815 2.5118755901
H -0.6142420704 3.8022040425 -0.5329447562
H 0.7729800496 3.2941138959 0.5451875335
H -2.862374633 0.8581337641 0.2079000434
H -1.0857588697 1.7972525772 -2.1868683823
H -2.6298880197 0.7985635668 -2.2941657394

