# b3lyp 6-31G(2df,p) opt Freq 

 titel

0 1
C 0.179930991 -0.3922502239 -0.5426568909
C 1.2249540185 0.3059630538 0.323607628
O 1.4005970461 -0.4967908362 1.482861323
C 2.4738389101 -0.0678131247 2.2975715724
C 3.7976344886 -0.154697815 1.5634294952
C 5.0573369749 -0.0498105335 2.3156225487
O 4.6183595829 -1.3144138419 1.8299571227
C 3.7097703403 0.2645698043 0.1466267348
C 2.5265768438 0.5151904076 -0.4122278469
H -0.7384627469 -0.5419259608 0.0304230188
H -0.0518711436 0.2104055197 -1.4257597836
H 0.5506909729 -1.3678374185 -0.8689430598
H 0.8276950834 1.2949656182 0.6264636888
H 2.3107370001 0.9713006612 2.6329984523
H 2.4907327539 -0.7206396851 3.1738873818
H 5.9416848758 0.3644622319 1.8313690471
H 5.0256348031 0.076897688 3.3985327868
H 4.6381981135 0.3657826054 -0.4078221306
H 2.4564239115 0.8700654497 -1.4371572886

