# b3lyp 6-31G(2df,p) opt Freq 

 titel

0 1
O 0.2322294511 0.2253000898 0.3540175082
C -0.8937385029 1.0552482605 0.3825770761
C -0.9670605423 2.0928699184 1.5128815676
C -2.4831828572 2.4225254044 1.5904775301
C -3.0066514632 1.7974475427 0.2927531949
O -2.3237269937 2.4893729236 -0.7926045462
C -1.2506954607 1.5753168347 -1.0500118202
C -1.9879830425 0.2405215891 -1.300348216
C -2.3279162424 0.4111013521 0.1992968245
H 0.2908108471 -0.2339236883 1.1989871148
H -0.5873239698 1.6620224872 2.4464201864
H -0.3559927176 2.9717710685 1.2901180449
H -2.9560267302 1.9578197632 2.4634772141
H -2.6892956201 3.494610661 1.6238820714
H -4.0868169943 1.8449819427 0.1406398107
H -0.5185418678 2.0185641324 -1.7238429874
H -2.7982850584 0.2578612498 -2.0318461224
H -1.3077958808 -0.5942425286 -1.4684566768
H -2.7148758443 -0.386791033 0.8340505953

