# b3lyp 6-31G(2df,p) opt Freq 

 titel

0 1
O 0.3195947867 -0.133541714 0.3487263527
C -0.9080013357 0.3157376369 0.8800968386
C -2.0871792949 -0.4792072506 0.2550196335
C -2.6710983579 0.8273785732 -0.3445311223
C -1.47583498 1.6235347714 0.2538418322
O -2.341951684 2.3323904312 1.164510582
C -3.4936102991 1.669344668 0.6209926122
C -4.6760716228 1.3258925458 1.4626190311
C -4.7692518397 2.4073940921 0.3903469981
H 1.0208301377 0.4214211274 0.7064558947
H -0.8980906572 0.3588001342 1.9770835905
H -1.7096644326 -1.1624558043 -0.5085543399
H -2.7335511169 -1.0266055673 0.9443933815
H -2.9651131159 0.8346723551 -1.3930739596
H -0.7916301527 2.2771372203 -0.2940586036
H -5.1802281225 0.3794614619 1.2942511031
H -4.6569861117 1.6527781477 2.4967287993
H -5.335824398 2.1972233115 -0.5113350763
H -4.8091784128 3.4384076395 0.7252108224

