# b3lyp 6-31G(2df,p) opt Freq 

 titel

0 1
C 0.0217559719 -0.075796597 -0.0275943219
C 1.5148450185 -0.0228480317 0.1608150543
C 2.2809270511 1.1481442433 0.8013221828
C 3.5088390018 0.4230055206 0.2132711812
O 3.5685003898 -0.7741096205 1.0037378657
C 2.3268708834 -1.3365086507 0.5522206642
C 2.6198220317 -1.6099157993 -0.9445927292
C 2.6116263384 -0.0771693943 -0.9927784497
O 2.6509990807 0.7193730777 -2.1249493626
H -0.4963396481 -0.1030056618 0.9382297362
H -0.3397065233 0.8066188732 -0.5677772333
H -0.292186446 -0.9635690393 -0.5889315578
H 2.0579711037 2.0803841054 0.2754889334
H 2.2634009517 1.2916717668 1.8847296168
H 4.491404754 0.8732557948 0.0847007144
H 1.9527671067 -2.0937069118 1.2386326442
H 3.5321520389 -2.1644620633 -1.1763902239
H 1.7600683044 -2.0308506736 -1.4753266942
H 1.9428843508 0.4464806114 -2.7180059404

