# b3lyp 6-31G(2df,p) opt Freq 

 titel

0 1
O 0.7258428346 4.1803877044 0.0339007567
C 0.7363136915 2.9287219312 0.6539228619
C 0.8002404023 1.7455133447 -0.2532923068
C 1.9970043086 2.0837265408 0.6190792841
C 2.4099727237 1.265178837 1.7849016178
C 1.676527331 0.0582521069 2.3466962211
C 3.1090242539 -0.0745784899 1.9339232979
O 3.9789122788 0.3936017155 2.9652060297
C 3.4162974983 1.7269880792 2.8446702521
H 1.1770845385 4.8036551525 0.6129696246
H 0.1109637744 2.8413972488 1.5425407962
H 0.1949596964 0.8793776883 -0.0125413768
H 0.8983880132 1.9550762528 -1.3120840251
H 2.8178362537 2.5529514972 0.0806072735
H 1.4183650534 0.0031966898 3.4014656274
H 0.9568600523 -0.3949411493 1.6722169777
H 3.5001163693 -0.7889725033 1.2186389463
H 3.0224263794 2.1042475503 3.7966276222
H 4.1663730068 2.4247620832 2.4525457397

