# b3lyp 6-31G(2df,p) opt Freq 

 titel

0 1
C -1.6094959785 1.8137088627 1.2452215804
C -1.0812975609 0.892853483 0.1578526055
C -1.8217512194 -0.4625045874 -0.1927115859
C -0.4459100801 -1.1900737211 -0.2386205478
C 0.1538071939 0.0279169024 0.4642161038
O 1.1270648015 0.2143832279 1.1351282333
C -2.6061912594 -0.4277179111 -1.4913969796
C -4.112874088 -0.3149638259 -1.3776065257
O -2.0401762977 -0.4582827388 -2.5617938458
H -1.812698092 1.2601963262 2.167524518
H -0.8677480286 2.5836526565 1.4775360596
H -2.5320101522 2.315152962 0.9359420627
H -0.8981893691 1.4412800367 -0.775319262
H -2.4432863614 -0.784009031 0.6467586211
H -0.3440426196 -2.1570330029 0.2575929783
H -0.1013618835 -1.2656590167 -1.2758539106
H -4.3870452813 0.5293282511 -0.7346040963
H -4.5586160575 -0.1933549378 -2.3652991194
H -4.5159717462 -1.2160738359 -0.9001674094

