# b3lyp 6-31G(2df,p) opt Freq 

 titel

0 1
C 4.1006173183 2.1046220301 -1.3684183014
C 2.776400615 1.3250563995 -1.3854902613
C 1.5275813979 2.1905886943 -1.1029307264
C 0.8302925781 1.5329718084 0.0951433112
O -0.1992335579 1.8961514044 0.6186259754
C 1.6550963259 0.3659784434 0.5011873043
C 1.2779763545 -0.5038797721 1.662869913
O 2.2862051132 -1.4281928601 2.0350784967
C 2.7128462352 0.2599868591 -0.3134589467
H 4.2385656505 2.6172634683 -0.4102598476
H 4.9549989406 1.436548625 -1.5192574011
H 4.1185156436 2.8581026583 -2.1618776726
H 2.6885379598 0.8397313745 -2.3673127033
H 1.7859699648 3.2226836995 -0.8433926092
H 0.8346185091 2.2438471666 -1.9476517427
H 0.9662484179 0.1337424441 2.5039790015
H 0.3976648632 -1.1030463717 1.401198022
H 3.0273111885 -0.9239839489 2.3863132672
H 3.4698320318 -0.5139825327 -0.232774309

