# b3lyp 6-31G(2df,p) opt Freq 

 titel

0 1
C -2.8964779858 -0.2037685566 -1.3270709865
C -2.0021906831 -0.1707788692 -0.1092303486
O -0.8520655256 -1.0842049153 -0.2451197336
C 0.0477351487 -0.0692455998 -0.0452014727
O 1.2328135993 -0.1481987532 0.008561283
C -1.0294875463 1.0194817573 0.0779623805
C -1.0663418906 1.810785687 1.3562781205
C -0.3249238454 3.1198082435 1.4551128647
C -1.8313909565 3.1126612944 1.4245373967
H -3.3309429233 -1.1985857903 -1.4613320091
H -3.7154510596 0.5137176517 -1.2109366666
H -2.3345913991 0.0511817356 -2.2308372034
H -2.5492181239 -0.4286390947 0.8027399249
H -1.0146190665 1.687925256 -0.7895950114
H -1.0769270532 1.2020192668 2.2565581976
H 0.1730640788 3.3512920014 2.3893688961
H 0.2028689294 3.4691931281 0.5744572862
H -2.3687893076 3.3413734297 2.3378419816
H -2.3232187397 3.459960448 0.5216965701

