# b3lyp 6-31G(2df,p) opt Freq 

 titel

0 1
C 2.7970501287 -1.9598328075 0.0937057571
C 2.3829773551 -0.5262624169 0.250764525
O 2.8999469903 0.149990015 1.4646328319
C 1.8644319832 1.1460947647 1.1585519328
C 2.3087921295 1.6607767472 -0.2014460697
C 2.6599768924 0.5263469823 -0.8174113632
C 0.932639057 -0.0812174304 0.7775565866
C -0.271956802 0.0405288438 -0.1308956841
O 0.5342670712 -0.8204347116 1.8950155351
H 2.3661346989 -2.5726136905 0.890494204
H 2.451357441 -2.3538000528 -0.8672406065
H 3.8868475838 -2.0518830314 0.1305558809
H 1.6396787083 1.8289288275 1.9773173603
H 2.277721492 2.6791826525 -0.5595834955
H 3.0018292724 0.347258465 -1.8267728438
H -1.0865207745 0.5360715746 0.4060816056
H -0.0499104392 0.6019354338 -1.0375504262
H -0.6220694075 -0.9590330517 -0.4065265468
H 1.3163005592 -0.8603259834 2.4642780768

