# b3lyp 6-31G(2df,p) opt Freq 

 titel

0 1
C 1.5755171442 -0.0771062037 0.1167996569
O 0.1839269972 0.1252893662 -0.0067020626
C -0.3960604787 0.820520427 1.0791540501
C -1.9325867491 0.6440434047 1.0234333093
C -2.4778627766 2.0330733828 1.2181092979
C -1.5255888351 2.9628810962 1.2131424503
C -0.1463581272 2.3581188955 1.0426033711
C 0.8362600194 2.8753436568 2.0776782201
O 1.4975182116 2.1884615323 2.8136926708
H 1.8248321556 -0.6323576217 1.0327417711
H 1.891800915 -0.6584755726 -0.7527771462
H 2.1379371006 0.8680798931 0.132136138
H 0.0076477332 0.4306716955 2.0229127147
H -2.2074012955 0.2380638725 0.0418013792
H -2.2978795845 -0.067620766 1.7717470477
H -3.538817857 2.2353854204 1.315801702
H -1.683281153 4.0320034506 1.305350984
H 0.2715835554 2.6459822545 0.0628736511
H 0.9146012645 3.9868402458 2.1153388945

