# b3lyp 6-31G(2df,p) opt Freq 

 titel

0 1
C 1.361407456 0.1609903399 1.3025291071
C 1.9966538049 1.4248426151 0.7246936361
O 2.4787541636 1.2368641471 -0.6255115393
C 1.2717388176 1.8127659357 -1.1912101993
C 0.3636438438 0.772718686 -1.8325500505
C 0.0059201755 -0.362013717 -0.8416655656
C -0.025730526 0.1514170979 0.6182842261
O -0.4021851089 1.5412169929 0.6288221514
C 0.7643064672 2.2203814354 0.2196454961
H 1.9594293442 -0.7299003623 1.0976503879
H 1.2384902903 0.2658630762 2.3855391374
H 2.7456811862 1.8988309397 1.3635648356
H 1.5147875804 2.6289492302 -1.8804869359
H -0.5491376841 1.2898820421 -2.1498182021
H 0.832259054 0.3666547202 -2.7343639787
H -0.9710365057 -0.7758222126 -1.1086236933
H 0.7279108542 -1.1804689856 -0.9207357882
H -0.773580531 -0.3850622511 1.2058087594
H 0.6599636879 3.2819421602 0.4388097861

