# b3lyp 6-31G(2df,p) opt Freq 

 titel

0 1
O 0.4563423283 -0.0160859969 0.0940889673
C -0.7247122905 0.4966862963 0.6444988902
C -2.1380227583 0.0964378368 0.1031689675
C -2.6194964221 1.4222972622 0.7608352449
C -1.2181895026 1.9412606184 0.3188626289
C -1.3556642622 1.866323836 -1.1961663173
C -0.4967025355 2.5508097626 -2.1693637012
O -1.8350440336 2.9979595359 -1.9109958799
C -2.0371838498 0.4941757842 -1.3838898249
H 0.4982916385 0.224263931 -0.8368914116
H -0.6533081427 0.3336107466 1.7218695995
H -2.5921367132 -0.8660118505 0.3364541235
H -3.4916808759 1.9157066637 0.3276204687
H -2.7210836891 1.3505091478 1.8455625135
H -0.7542534981 2.8357628187 0.7325348123
H 0.291782079 3.2203429721 -1.8264693985
H -0.3363912836 2.1156267393 -3.1558590922
H -3.0125425264 0.6057661261 -1.8647774938
H -1.443525512 -0.2095589704 -1.9766443268

