# b3lyp 6-31G(2df,p) opt Freq 

 titel

0 1
C 2.8095775858 0.4400519374 -1.3959690506
C 1.8387479032 1.0699392893 -0.4610565434
C 0.8571164276 0.5823875735 0.3084779685
C 0.344018512 -0.7889897805 0.5518034567
O -1.0643290031 -0.7856969439 0.315039724
C 0.3232413415 1.8672164639 0.974563007
C 0.2089950717 2.8299363486 -0.241340038
C 1.7420893277 2.5787545052 -0.1288447193
O 1.5726241227 2.5595608767 1.3267774996
H 3.8421049431 0.5726260988 -1.0476357448
H 2.629370453 -0.6328479545 -1.5091687726
H 2.7552070644 0.8976398326 -2.3919724207
H 0.8592586534 -1.5123689173 -0.0994052451
H 0.554643742 -1.0845138056 1.593900811
H -1.4200337832 -1.6183694086 0.6405750052
H -0.4092628388 1.8005534976 1.7771949789
H -0.3211728449 2.4877722888 -1.1322592855
H -0.0719898224 3.8455494185 0.0472978367
H 2.5072632142 3.2654026995 -0.4918808876

