# b3lyp 6-31G(2df,p) opt Freq 

 titel

0 1
C -1.2399468024 -1.0624396251 -2.5374377558
C -1.8227303898 -1.1687850935 -1.122084145
C -2.5484453604 -2.4987363598 -0.9328523175
C -2.7474992418 0.0180213669 -0.798533687
C -1.9677612834 1.2661350514 -0.5084645943
C -0.7074527588 1.1992014885 -0.078807002
C -0.0489500898 -0.097821297 0.1930794899
O 1.0042432004 -0.1941091817 0.7707071603
O -0.7128844228 -1.2224483419 -0.1796413577
H -0.5098038387 -1.8598851064 -2.6968156275
H -2.0323631506 -1.1633787174 -3.2856222208
H -0.7413910501 -0.1023903587 -2.6937437714
H -2.8928638997 -2.6030172801 0.0994804393
H -3.4146361691 -2.5588475586 -1.5989055603
H -1.8787588354 -3.3330235311 -1.1570452158
H -3.4329161445 0.1777502261 -1.6383099922
H -3.3808175725 -0.2212611165 0.0676327745
H -2.4629379223 2.2257827532 -0.6315787888
H -0.1146373484 2.0726260414 0.1640515821

