# b3lyp 6-31G(2df,p) opt Freq 

 titel

0 1
C -0.7614804885 -0.1929655927 -0.2884162521
C 0.4264440404 0.5808921496 0.2373903237
C 1.0593385423 1.6792744434 -0.5735087657
C 1.7987747345 0.3738927935 -0.3637773501
C 2.9943779115 0.3402484135 0.5211683084
O 4.2795376973 0.2958846813 -0.0857228382
C 3.8469058513 -0.8697631215 0.6298835468
C 4.567334387 -1.133439406 1.9082593604
O 4.6597121643 -2.2197157546 2.419836161
H -0.8249846337 -1.186372403 0.1685282909
H -1.6988547962 0.3334295436 -0.0786494509
H -0.6931609212 -0.3284579761 -1.3729356348
H 0.4144198715 0.746554775 1.3125481693
H 0.6685165471 1.8752144006 -1.5663924391
H 1.4273259363 2.5602903331 -0.0578893603
H 1.8625911894 -0.2918719507 -1.2196038498
H 2.9435292083 0.9954706071 1.3945286124
H 3.6040471359 -1.7431196782 0.0271707559
H 5.0138238324 -0.2180038081 2.3588643423

