# b3lyp 6-31G(2df,p) opt Freq 

 titel

0 1
O -1.109591738 0.4585036788 1.4946767172
C -1.8810508584 0.0621115629 0.383399898
C -2.3865952064 1.2950171764 -0.3981376502
C -3.8530067825 0.8099314643 -0.2797586649
C -4.3187652676 -0.2620976148 -1.2986950213
C -3.9420440924 -1.4023643741 -0.3065664727
C -3.3510197698 -0.3683587984 0.6768710854
C -4.8737237382 1.7829021944 0.2075410913
O -6.0435030802 1.7716061303 -0.091500876
H -0.8520986899 -0.3311352509 1.9821812926
H -1.343208059 -0.6760152535 -0.2299069606
H -2.2088661072 2.19523329 0.1988610697
H -2.0010330595 1.4528781766 -1.4081849905
H -5.3857437099 -0.1860920449 -1.5132185578
H -3.7657670935 -0.2555018838 -2.2415272109
H -4.8174603874 -1.9188965933 0.0933553766
H -3.235798891 -2.1554064245 -0.6703881412
H -3.6157037064 -0.4188971519 1.7341766235
H -4.4764796928 2.5382882063 0.9260728917

