# b3lyp 6-31G(2df,p) opt Freq 

 titel

0 1
O 1.4095307092 0.5583235103 -0.1695230398
C 0.0333560684 0.2788515119 0.0426996058
C -0.7969082037 0.4599990971 -1.202639088
C -0.9869132691 -0.7050026437 -2.1676927752
C -2.1588333011 -0.1626453458 -1.3886593401
O -3.0293151552 0.758569769 -1.9967629233
C -2.3848484637 2.002903547 -2.1534488096
C -1.2978319016 2.1283454461 -3.1871413066
C -0.9426916051 1.8745479152 -1.7337210805
H 1.7000757972 0.018479565 -0.9125825685
H -0.1136718818 -0.7385329872 0.4396995082
H -0.2892099718 0.9813414384 0.8197539341
H -0.9394859029 -0.5443559479 -3.2373197244
H -0.6052136631 -1.6703501818 -1.8458896155
H -2.6532900214 -0.7824768633 -0.6472001901
H -3.0303799828 2.8420414202 -1.9175820605
H -1.1788969651 1.345411417 -3.9257048728
H -1.0972649119 3.1264158487 -3.5635169717
H -0.4247505744 2.6488249039 -1.1812440213

