# b3lyp 6-31G(2df,p) opt Freq 

 titel

0 1
C 1.2957311771 0.6227052976 -0.1897264389
C -0.1087129942 0.1169663329 -0.0672671924
C -1.2063328195 0.8728514369 0.0358399237
C -2.5656196543 0.2037069069 0.124417252
O -3.3594134305 0.5027292843 -1.0187591659
C -2.3632287953 -1.3155521336 0.2288119207
C -1.2399827095 -1.7192109855 1.2039229912
C -0.3670561404 -1.3813223042 -0.0303047038
O -1.5080609625 -1.6894181473 -0.896264418
H 1.9255337329 0.2545826058 0.6307910871
H 1.7616093342 0.2719730232 -1.119558041
H 1.3310003498 1.7152226843 -0.17914225
H -1.1750751766 1.9582093572 -0.0016798041
H -3.1359196352 0.5749797267 0.9844010313
H -2.8840687979 0.109074155 -1.7626348476
H -3.3135079121 -1.8547674702 0.2275602529
H -1.0904471212 -1.1347477799 2.1130274039
H -1.2631713594 -2.7884019456 1.4236754642
H 0.5061739246 -1.9932368644 -0.2678383451

