# b3lyp 6-31G(2df,p) opt Freq 

 titel

0 1
C 1.9090155954 -0.1233985222 1.2123828885
C 1.3364907811 0.128954666 -0.1889938647
C 1.9542434696 -0.7497753992 -1.2398716076
O 1.936106467 -0.2877920637 -2.6156813682
C 3.201208999 -0.5015231943 -1.9925735533
C 3.8519436332 -1.8055301749 -2.4248987291
C 2.7414665388 -2.8643072754 -2.2385189509
C 1.7573935568 -2.2525346285 -1.2331615236
O 0.9897024814 -2.8513122844 -0.5225961552
H 1.7307491254 -1.155512297 1.524706754
H 2.9879883561 0.0626848362 1.2409839977
H 1.4357972582 0.5371744032 1.9442564036
H 0.255675076 -0.0536336199 -0.1815564705
H 1.4840954884 1.1718392295 -0.4879633184
H 3.7958414329 0.3927973339 -1.8204172241
H 4.2213849619 -1.7489343053 -3.4528691573
H 4.7099236054 -2.0163272016 -1.7770453314
H 2.2037681262 -3.0533943331 -3.1728880776
H 3.102909307 -3.8255164992 -1.8688933718

