# b3lyp 6-31G(2df,p) opt Freq 

 titel

0 1
C -0.8867757803 -1.9137168425 -1.3128534943
C -0.9883661338 -1.0882419399 -0.0305419318
C -0.8693734431 -1.9465249653 1.2285262157
C -0.0664051919 0.1444986031 -0.0209254265
O 1.101007986 0.3705419647 -0.0260238996
O -1.0984982668 1.0527135279 -0.0021291677
C -2.0835624642 -0.0128824874 -0.0091518808
C -3.3556339134 0.1363442242 -0.7620650857
C -3.3451888092 0.1166223647 0.7646941523
H -1.6749696656 -2.6737840606 -1.3436632848
H -0.9818869908 -1.2868543815 -2.2037274607
H 0.0790713191 -2.4255419535 -1.3570826674
H -1.6572028069 -2.7072766179 1.2504922032
H 0.096901083 -2.4591447739 1.2463042878
H -0.9521743158 -1.3428828586 2.136501517
H -3.5379612056 1.0886030539 -1.2477481491
H -3.7490069067 -0.7267558007 -1.2891788309
H -3.5206866244 1.0559861503 1.2772607017
H -3.7314667295 -0.759873837 1.2746712216

