# b3lyp 6-31G(2df,p) opt Freq 

 titel

0 1
C 0.0030541529 -0.2205819738 0.042778743
C 1.512428805 -0.0124794806 0.0655730008
O 2.0303065355 -0.141535328 1.3782617242
C 1.97751294 1.3335326808 -0.5784965359
C 2.745716952 0.5657695812 -1.6589634769
C 3.7446437231 -0.3374175546 -1.0451184944
C 2.2880451611 -0.7844448937 -1.0309851976
C 1.9001250238 -2.0096002686 -1.7307086078
O 1.0034061775 -2.7539231786 -1.4010290371
H -0.4688519717 0.4947480936 0.723405224
H -0.403480188 -0.0730035329 -0.9618778378
H -0.2552512758 -1.2379319525 0.3481232148
H 1.7481968856 -0.9958293052 1.7244786117
H 1.1412060629 1.9197628984 -0.9633736972
H 2.5915233882 1.9594052666 0.0740171546
H 2.7545067777 0.804500613 -2.715309476
H 4.3833111071 -0.8888499456 -1.7284002974
H 4.1947926466 -0.0961530177 -0.0870500971
H 2.5213411864 -2.2280657716 -2.6323992981

