# b3lyp 6-31G(2df,p) opt Freq 

 titel

0 1
C -0.1189311936 -0.1305679126 -0.1688700458
C 1.3720592897 0.0576575699 0.0599009087
C 1.994013553 1.4636679101 0.3210641136
C 1.2108882116 2.2522033673 1.3983549647
C 1.6657160976 1.4776720575 2.649776941
O 1.245998225 0.1192471839 2.5225556011
C 2.0013499456 -0.3757727122 1.4057069865
C 3.0644345291 0.7655733905 1.2499862618
O 3.0736018706 1.4326153314 2.4935882596
H -0.6984133649 0.1991938054 0.69685312
H -0.4608051732 0.4270991708 -1.0474904196
H -0.3530575747 -1.187690424 -0.3352477905
H 1.9396227612 -0.4221585952 -0.7479072937
H 2.3145000947 2.0617966896 -0.5317080221
H 1.5485761201 3.2903073008 1.4607657263
H 0.1287395828 2.2403706527 1.2589136592
H 1.3885849544 1.8580194008 3.6317477566
H 2.2670981709 -1.4172444197 1.5927610548
H 4.0658502902 0.5503719631 0.888830088

