# b3lyp 6-31G(2df,p) opt Freq 

 titel

0 1
O 1.8407898188 0.5594245952 -0.0444198065
C 0.6208391411 0.0773237776 0.5076779382
C -0.3954854134 1.1601427892 0.6994743664
C -0.5213091416 1.9585172358 1.977257347
C -1.6853618326 1.1282073541 1.5044322094
C -2.4447566583 1.726938314 0.278543669
O -3.6525701742 1.198307621 -0.1359714333
C -1.9226822716 3.0575714092 -0.1845981975
C -1.1607916953 1.7834946226 -0.5069915968
H 2.1377494974 1.2844252267 0.5157025255
H 0.2567772015 -0.6693255122 -0.2074102588
H 0.7872904085 -0.4418289331 1.4660772691
H 0.0105720639 1.5295322476 2.8232789015
H -0.5486665644 3.0421593753 1.9959632926
H -2.0887142984 0.3001366342 2.0742633682
H -4.3594730338 1.6633083865 0.3268314951
H -2.4689659424 3.4387451258 -1.0427262811
H -1.5455852764 3.834060777 0.4729147152
H -0.9645748487 1.4837555137 -1.5279725433

