# b3lyp 6-31G(2df,p) opt Freq 

 titel

0 1
O -1.5853699009 2.2540324267 -0.8744174153
C -1.4067722524 2.1085561181 0.4969441367
C -1.2448830851 3.3002015781 1.4054738987
C -2.4890034456 2.4221481258 1.4882832404
C -2.4763099036 1.1150009662 2.3136216864
C -2.4214217661 0.0566292162 1.157183156
C -0.9978634589 0.7020658052 0.9768027525
O 0.0284754295 0.1748309762 0.1938415296
C -0.9653964774 0.8087686158 2.5239523792
H -0.7660694138 1.9572403454 -1.2887844524
H -0.5114089008 3.3507223305 2.2018258276
H -1.4147241823 4.2477992957 0.9038664237
H -3.4401844621 2.834638181 1.1725717126
H -3.1815438933 1.0232132192 3.1378370081
H -2.3895574783 -0.9775785618 1.5152850768
H -3.1256312723 0.1652721521 0.329541809
H 0.1416147408 -0.7553109575 0.4112683153
H -0.8214866018 -0.1703620669 2.9886851514
H -0.3179731755 1.5407333343 3.0064568937

