# b3lyp 6-31G(2df,p) opt Freq 

 titel

0 1
C 1.4298005868 0.0446180374 -0.0165971164
C -0.0251860574 0.0289012687 0.0177199945
C -1.2299306293 0.0281736336 0.0495002644
C -2.6716949562 0.0375064749 0.0684473879
O -3.2846097446 1.1231070434 -0.5740111382
C -3.4079318914 -0.4942943096 1.2767420819
C -3.4176796297 -1.2908826898 -0.0074382344
C -4.6383441716 -1.3268515977 -0.8991854032
O -4.3207360042 -0.9895960419 -2.2560242563
H 1.8547476544 0.00925847 0.9928464803
H 1.8306909066 -0.8080735331 -0.5762992192
H 1.798940341 0.957571529 -0.496977542
H -3.4436380181 0.8439018148 -1.487233881
H -2.8239594769 -0.8667369841 2.1095473811
H -4.3125113424 0.0419655906 1.5421784689
H -2.7931965749 -2.1798098653 -0.0297229487
H -5.1282144148 -2.309385863 -0.8474079152
H -5.3657293713 -0.5754729101 -0.5859359617
H -3.661449546 -1.6180123479 -2.5691517328

