# b3lyp 6-31G(2df,p) opt Freq 

 titel

0 1
C 0.7126577223 -0.812228018 0.5617453361
C 0.6666580545 0.4563069513 -0.286276737
C 1.9466344886 1.2626609306 -0.208376737
O 2.9174193141 0.9759500985 0.4472603117
O 1.8562563549 2.3671381463 -0.9839343724
C 3.0145991707 3.2432544397 -0.9934789381
C 3.9701188663 2.8205650321 -2.1118626283
C 2.5271259091 4.608053617 -1.1545729889
C 2.1637499283 5.7435996236 -1.2984674836
H 0.878922652 -0.5734777652 1.6151224282
H -0.2282003508 -1.3626121337 0.4757889769
H 1.5272825215 -1.4673970845 0.2430642503
H 0.4823504875 0.2292166316 -1.3429186476
H -0.1565784742 1.1144624963 0.0156536903
H 3.5164911932 3.1334814398 -0.0273394649
H 4.3288704935 1.8064215409 -1.921706825
H 3.4618450527 2.8540370854 -3.078522255
H 4.8278327018 3.497485141 -2.1436798755
H 1.836538514 6.7471483474 -1.4163585001

