# b3lyp 6-31G(2df,p) opt Freq 

 titel

0 1
C 2.601002467 -1.627906658 2.2984885025
C 2.2615877124 -2.2508571958 0.9641851226
C 0.7830836721 -2.2602068044 0.5746709694
C 0.1732393475 -0.9342992129 0.548022822
C -0.3297828809 0.1600529392 0.5141605843
C -0.9313840487 1.4930068034 0.516455678
O -1.6806823992 1.7783808645 1.6906013897
C 3.1404458816 -3.2726127156 0.3781126303
O 3.1530291609 -1.9270980601 -0.1078754304
H 2.1117298678 -2.1687306853 3.1160450825
H 3.6806140121 -1.645500627 2.4633793892
H 2.260330196 -0.5888723402 2.3296123325
H 0.6878029243 -2.7271643616 -0.4121933929
H 0.2350116876 -2.9001646376 1.2798614143
H -0.14501857 2.2466741092 0.3503523759
H -1.637850383 1.5880090802 -0.3157029037
H -1.1119498201 1.5938079675 2.4451910534
H 4.0347638417 -3.5856700348 0.915586385
H 2.7332275107 -4.0142173108 -0.3087781946

