# b3lyp 6-31G(2df,p) opt Freq 

 titel

0 1
O 0.4203816333 0.0275258423 -0.9808881434
C 0.0951035548 -0.3191299039 0.1211279275
O -0.6413643063 0.3872262182 0.9910127179
C -1.0617805771 1.6905662823 0.5635854146
C -1.762288877 2.5475117147 1.6371782074
C -2.4127455123 3.274165598 0.4195551208
C -2.4033285856 1.8429829288 -0.1980925808
C -3.3920625109 1.0943100542 0.7169987935
C -2.9075544181 1.6274309473 2.1070954751
H 0.3618013353 -1.281551907 0.5856866538
H -0.2326092176 2.1897200902 0.0626663679
H -1.1946047106 3.0831570073 2.3976115296
H -3.3861320264 3.7434407337 0.5800918234
H -1.735684419 3.9674072245 -0.083729107
H -2.464980612 1.6728323989 -1.2717264469
H -4.4286273628 1.3627748128 0.4968069617
H -3.2976541093 0.009263886 0.631763384
H -3.6808436669 2.1866049565 2.640439068
H -2.5524883614 0.8267665751 2.7590858828

