# b3lyp 6-31G(2df,p) opt Freq 

 titel

0 1
O 0.2744669312 -0.0774695466 0.2997106096
C -0.9127434849 0.4518602593 0.833963663
C -2.1414986765 0.1774803802 -0.1088819666
C -2.5332744316 1.6214949808 0.1736526953
C -2.9936552485 2.0074870129 1.6220970293
C -1.8995726249 3.0820623978 1.3958263577
C -2.5595106934 3.7961627566 0.1667799647
O -3.0589835481 2.6667072549 -0.6245190915
C -1.1075416877 2.0103131106 0.5992957964
H 1.0033505736 0.1870925305 0.8711560274
H -1.0748887754 0.1078447846 1.8619945113
H -1.7719383306 0.0372355149 -1.128057115
H -2.8368946163 -0.6225553778 0.1543246082
H -4.0297913388 2.3403057865 1.717641393
H -2.7526926474 1.2792563083 2.3952056842
H -1.509378206 3.7394337115 2.1758582258
H -3.3981327243 4.4354830622 0.4606468105
H -1.8515506543 4.3752513976 -0.4363625293
H -0.4154850561 2.342663685 -0.178879984

