# b3lyp 6-31G(2df,p) opt Freq 

 titel

0 1
C 3.4552957372 -4.6939997807 -1.1803257397
C 3.0539513811 -3.3201761173 -0.6547203706
C 2.4791375871 -3.2761660954 0.7943607622
C 1.1833711118 -2.777081444 0.1323017599
C 0.7938657586 -1.326649191 0.3697662066
O -0.1133496277 -0.8919770223 -0.6218119782
O 1.7556985659 -2.9186335374 -1.1975860249
C 4.0822129068 -2.3206663938 -0.9314642605
C 4.936416901 -1.5040042797 -1.1524305543
H 4.3875271488 -5.0246671115 -0.7124373423
H 2.6671169669 -5.4196839479 -0.9624842616
H 3.6059229322 -4.6524927191 -2.2623446743
H 2.4155032213 -4.2559443487 1.2692600653
H 2.9670854982 -2.57055955 1.4675827674
H 0.3053759417 -3.4246940222 0.2370948263
H 0.2933174608 -1.2216694453 1.3393902786
H 1.7041619548 -0.7055031234 0.3875193863
H 0.307105376 -1.097425999 -1.4664617645
H 5.6860834475 -0.7781412513 -1.3512662717

