# b3lyp 6-31G(2df,p) opt Freq 

 titel

0 1
O 0.1388226166 1.4279675465 -0.0186315777
C 0.0670275397 0.0245541584 -0.0191361781
C 0.1208145774 -0.6204662074 -1.4638568884
C -1.3874343465 -0.6351382545 -1.3715951358
C -2.5159416732 -0.1955139441 -1.9200251242
C -3.5429925218 0.0865986683 -0.8187032358
O -4.3569581964 1.2192915624 -1.076321361
C -2.6609888794 0.2162098908 0.4703233803
C -1.3908305649 -0.5776484558 0.1318981006
H -0.4596498392 1.7551623555 -0.7015343618
H 0.8165499485 -0.318232289 0.6973049049
H 0.5979147145 -0.0336799086 -2.2530735087
H 0.5689020861 -1.6189305835 -1.4347448347
H -2.7277019515 0.0092884854 -2.9633237508
H -4.2637636173 -0.7346144109 -0.7161468555
H -3.7714858328 1.9738661672 -1.2074745021
H -2.4099035855 1.2766491093 0.6071347678
H -3.1798119875 -0.1159311392 1.372568655
H -1.3418997268 -1.5555856508 0.6230987862

