# b3lyp 6-31G(2df,p) opt Freq 

 titel

0 1
C 0.7482508578 1.3187165062 -0.0407749722
C 1.5431717966 0.0255453854 0.0098590992
C 0.0382593819 0.0127241935 0.0742366125
C -0.6805302168 -0.3848435618 1.3354272502
O -0.8043789518 -1.8006210375 1.4393010504
C -1.0817898562 -2.4633176427 0.2408869584
C -2.3127066692 -2.1960284673 -0.5967074925
C -0.9408704646 -1.767857512 -1.0837971123
O -0.6701049637 -0.3880081419 -1.0750270116
H 0.7649222553 1.9796705176 0.8193608067
H 0.6743804221 1.8201779742 -0.999069662
H 1.9981803852 -0.3104795857 -0.9146270802
H 2.1049904813 -0.2071264374 0.9080896372
H -0.1318397671 -0.0639077617 2.2248768636
H -1.6740546179 0.0896484214 1.3523129853
H -0.7433914247 -3.491896091 0.3114099648
H -2.8068024782 -3.0394585737 -1.0666890522
H -2.9703558996 -1.3870544761 -0.2986819972
H -0.4795860104 -2.2860051494 -1.9210717681

