# b3lyp 6-31G(2df,p) opt Freq 

 titel

0 1
C -1.4346352883 -3.6613106233 0.7474332193
C 0.0173053388 -3.4979133936 1.0595400597
C 0.7977284226 -2.8939354078 2.1755975918
O 1.6016019273 -4.039246535 2.4423914155
C 1.2620107606 -4.4775892808 1.0940360495
C 2.0367373752 -3.4959296639 0.1827679306
C 1.0711555145 -2.435231319 0.7151653935
C 0.8807214697 -1.0220055348 0.2614894947
O 2.0218269162 -0.2087825513 0.5033235898
H -1.8961827951 -4.4169994674 1.3927735982
H -1.9730227952 -2.7201107397 0.9007227312
H -1.5929981816 -3.965699921 -0.2934208755
H 0.5187445256 -2.2375764519 2.9914038427
H 1.2793779939 -5.5588512588 0.9710543765
H 3.1081804648 -3.3937480467 0.3789321521
H 1.8573200767 -3.6951801858 -0.8776296131
H 0.7179699587 -0.9788983558 -0.8216115637
H -0.0215286248 -0.599713714 0.7371801828
H 2.2663772903 -0.3275804194 1.4273667545

