# b3lyp 6-31G(2df,p) opt Freq 

 titel

0 1
C 3.7667621716 -1.5739993856 -1.9243665441
C 2.7132222913 -0.4990802839 -2.1832973451
C 1.758775634 -0.906883819 -3.3036402763
C 2.0672570892 0.1563818491 -0.9259057031
C 1.8763941668 1.5357396802 -1.6256224079
O 2.5375614731 2.3005193818 -0.5734734496
C 3.3044972617 1.0612417186 -0.6446096004
C 3.2191073328 0.9570227529 -2.2154467955
O 4.0502868798 1.47502949 -3.1748666951
H 4.4539553839 -1.2927800849 -1.1205280848
H 3.2953959602 -2.5227440561 -1.6445823417
H 4.364376158 -1.7553639565 -2.8242496209
H 1.2412089166 -1.8400184917 -3.0547048056
H 0.9980165278 -0.1440266247 -3.4953928737
H 2.3062411328 -1.0724645078 -4.2378182909
H 1.4084895452 -0.2788446292 -0.1774297191
H 1.0013281855 1.9667907438 -2.1093964618
H 4.1366035321 0.9250780912 0.044332108
H 4.2115425875 2.4027815616 -2.9610185324

