# b3lyp 6-31G(2df,p) opt Freq 

 titel

0 1
O 0.1935397763 -0.1910682413 0.4073091746
C -0.9593747803 0.4254540248 0.9017250393
C -1.3090815152 0.2771936408 2.4120144312
C -1.5901147725 1.808895325 2.4735860286
C -2.9956591422 2.2671043395 2.1982076601
C -3.1346250974 2.8099223623 0.9856409205
C -1.8467306625 2.8249044646 0.1943930574
C -0.9049995718 1.9828436609 1.073682887
O 0.4549910111 2.3625177066 1.0632105117
H 0.9334570845 0.3675783146 0.6788228807
H -1.7929013515 0.1246883768 0.2601039785
H -2.1286738717 -0.3976462285 2.670408997
H -0.4227991896 0.0025230733 2.9904651854
H -1.1327978107 2.3273928514 3.32445038
H -3.7947017958 2.1667467143 2.9257876828
H -4.0610131908 3.2135855811 0.5910025591
H -1.9540708527 2.4025383644 -0.812390704
H -1.4622276702 3.8473509366 0.0601209163
H 0.5390298731 3.2324451831 1.4661720439

