# b3lyp 6-31G(2df,p) opt Freq 

 titel

0 1
C 1.3875555593 0.3118714281 -0.0576683163
O -0.0122269745 0.1812502053 0.0047253749
C -0.5221123044 0.4633679031 1.2978581502
C -2.0023382549 0.3761824933 1.2950892577
C -2.8831029768 -0.5338670083 1.7897782069
C -4.1918579103 -0.0495698958 1.4687957042
C -4.0158287757 1.1233981166 0.7997367465
C -4.9522179683 2.1088320344 0.1984237312
O -2.6851961537 1.395612565 0.6917909956
H 1.8975143258 -0.3878035641 0.6246586727
H 1.6903983185 0.0868512818 -1.0830294338
H 1.7165753221 1.3330457692 0.1945606619
H -0.1283842527 -0.2539177205 2.0357548559
H -0.2009674639 1.4705074011 1.6137397272
H -2.62952089 -1.4413740586 2.3156962477
H -5.1382930031 -0.5114598318 1.7033771558
H -4.8385334431 3.1006881204 0.6507617245
H -4.7804182428 2.2197180984 -0.878228219
H -5.9829708015 1.7803966024 0.3485848361

