# b3lyp 6-31G(2df,p) opt Freq 

 titel

0 1
C -1.202903163 3.0104638627 -1.9966508287
C -0.7915087327 2.3528598338 -3.2941701235
O -1.2676180907 2.6374180053 -4.3692178165
C 0.3083408147 1.2946295751 -3.2072853266
O 0.3428426957 0.6044877812 -1.9340535886
C 0.0447641479 -0.6628231289 -2.5673894542
C 1.3114076981 -1.4768231748 -2.9158905468
C 1.3369989245 -0.8133110548 -4.3307055678
C 0.0557310902 -0.0095364223 -3.9806184449
H -1.5947949311 2.2561715136 -1.3081858821
H -0.3286270982 3.4482275623 -1.5012311429
H -1.950057246 3.7802630458 -2.1916529425
H 1.2640419036 1.7969712677 -3.4267645356
H -0.8004316712 -1.1676829947 -2.0928849131
H 2.1585522146 -1.2669429345 -2.2595814582
H 1.1440702178 -2.5567571026 -2.9437941238
H 2.2162870458 -0.2086376521 -4.5686439688
H 1.1850254276 -1.5266792105 -5.1434333205
H -0.7729227276 0.0000510578 -4.685331495

