# b3lyp 6-31G(2df,p) opt Freq 

 titel

0 1
O 0.7749945335 0.0936034691 -0.9477111752
C -0.2352260113 0.0384055698 -0.2788154176
C -0.8588028588 1.3257754315 0.2678144855
O -1.7326875911 1.1626741376 1.3630641177
C -2.7108534167 0.1613822875 1.1306167055
C -2.0426917315 -1.2093167179 1.0573555665
C -0.9874182539 -1.2357809062 -0.0402754331
C -1.2532527438 -2.0268612424 -1.3274675286
C -0.2432210982 -2.5178673516 -0.3451538096
H -0.0553104345 1.9972152283 0.5792184806
H -1.3787904196 1.8029430445 -0.5838314467
H -3.411641793 0.2163209498 1.9679814566
H -3.2685013453 0.375632222 0.2029541177
H -1.5752731288 -1.4094418988 2.0293454606
H -2.790508111 -1.9933574223 0.8906340822
H -2.2108609757 -2.5321537341 -1.3956890773
H -0.888432807 -1.5932131968 -2.2513612103
H -0.4909481074 -3.3783715816 0.2670854868
H 0.8027305542 -2.4089993684 -0.6067743914

