# b3lyp 6-31G(2df,p) opt Freq 

 titel

0 1
C -1.2075875332 -2.5183731426 -0.2193512104
C -1.2541749117 -1.0191726 -0.1634295799
C -1.4797698884 0.0017758068 -1.3449078479
C -1.3326496114 0.9417978772 -0.0992828668
C -1.3190647855 2.4420681348 -0.0001340457
O -0.9219957839 2.8616066435 1.2965925547
C -2.2373063653 -0.0973956903 0.6535875812
C -0.1959174058 -0.0076305408 0.2971574403
O 0.9098506766 0.0446163371 0.7522313155
H -1.027946044 -2.9379957115 0.7756578495
H -2.1481945438 -2.9327219909 -0.5963621739
H -0.4003039825 -2.858789892 -0.8757562243
H -0.71081589 0.0586608016 -2.1188465555
H -2.4856185059 -0.0287099215 -1.7727594267
H -0.6581035374 2.8528934762 -0.7805512819
H -2.3167607306 2.8617459314 -0.1678874899
H -0.0417993753 2.5009157058 1.455383702
H -2.1761812833 -0.1259456389 1.7428321521
H -3.2716984286 -0.1274488258 0.3001246573

