# b3lyp 6-31G(2df,p) opt Freq 

 titel

0 1
C -2.0359006438 -3.0655311318 -1.1530871509
C -1.528655926 -1.6280953396 -1.2794935047
C -0.6846613139 -1.4538794624 -2.5389421829
C -2.6766427651 -0.5761609136 -1.0628650614
C -2.0304374988 -0.1412729916 0.2634399138
O -1.0906008859 0.9676985447 0.077527739
C -0.0216311766 0.1036693152 -0.0439514137
O 1.1220643278 0.3895688385 -0.197666199
C -0.8750729498 -1.1520900031 0.0793387274
H -2.6225842894 -3.2085145053 -0.2391493375
H -2.675258462 -3.3234195642 -2.0047255389
H -1.2010283265 -3.7746148868 -1.1307282154
H 0.185456444 -2.1190284409 -2.5257439639
H -1.2779399371 -1.6949309083 -3.4282051567
H -0.3183043185 -0.4294065392 -2.6489290545
H -2.7393620568 0.2271945599 -1.7999054501
H -3.6637333637 -1.0303882288 -0.9459949543
H -2.6223633618 -0.0049748738 1.1664795823
H -0.5581286261 -1.9112747089 0.7920586415

