# b3lyp 6-31G(2df,p) opt Freq 

 titel

0 1
O 0.1973419608 -0.3797774771 -0.1573194689
C -0.7228134213 0.4178660732 0.5829655698
C -2.076014438 0.373823689 -0.179589375
C -2.8979709566 -0.6365090376 0.6207555716
C -3.3773523593 -0.2279291392 2.0537261466
C -2.2117239636 0.6251285317 2.5925221118
C -1.0735929529 -0.21465909 1.9378906864
C -1.9553026162 -1.4486395977 1.5388540599
O -2.9977881683 -1.5502605331 2.5385615087
H 1.0038422025 -0.4600491194 0.3628189888
H -0.3387444921 1.4421907808 0.6933914364
H -2.5504379071 1.3584521798 -0.2317410182
H -1.8943724872 0.0386226179 -1.2034364356
H -3.6390211173 -1.2239582799 0.0812087757
H -4.4029394026 0.0568778562 2.2897216826
H -2.2222417632 1.6690983272 2.2651108326
H -2.1943302338 0.5952486825 3.6832782811
H -0.2147207338 -0.4152463828 2.5811014888
H -1.4768962302 -2.3899041414 1.2769929769

