# b3lyp 6-31G(2df,p) opt Freq 

 titel

0 1
C -3.3680065017 0.3866702729 1.9733748908
C -3.1166220392 1.72009384 1.2821777306
C -1.8222641013 2.5846227961 1.4904420043
C -2.2674530076 3.3709071615 0.217536508
C -2.4675711989 1.866454278 -0.1407398931
C -1.0610140807 1.6859026469 0.4911483097
O -0.6236335882 0.4028877398 0.9590107148
C 0.1054665605 -0.322948889 0.0967465565
O 0.3871918036 -0.0186190917 -1.0290471441
H -3.656274878 0.5606048613 3.0165588669
H -4.2066289737 -0.1290788453 1.4914007011
H -2.5075543727 -0.27816138 1.9670508459
H -4.0233821421 2.3302624959 1.3710520701
H -1.4372445717 3.0022685 2.4215046975
H -3.1785883576 3.9618943806 0.3185577668
H -1.491682972 3.9124918363 -0.3287195979
H -2.8193086781 1.4560479174 -1.0872701822
H -0.2355673457 2.1436791514 -0.0554973957
H 0.4121678549 -1.2553973723 0.59601151

