# b3lyp 6-31G(2df,p) opt Freq 

 titel

0 1
C 1.3621569528 -0.61832081 -1.0346435841
C 1.2352617954 0.1340876442 0.3046498438
C 1.8567754575 -0.6701448244 1.4244767208
C 3.1070270686 -0.4870261959 1.8513775489
C 3.9730101224 0.5532736151 1.2431458757
O 3.8021662652 1.9190907484 1.7029126523
C 3.3507219806 1.5719720194 0.3863377439
C 1.8182395244 1.5658716127 0.2323205728
O 1.2291201762 2.3984525496 1.2119325062
H 0.9367537557 -1.6239629317 -0.9622071668
H 0.8354716133 -0.0852927801 -1.8332687363
H 2.4119763505 -0.7270164474 -1.3275046531
H 0.1698958687 0.2656794244 0.5247410135
H 1.2467167068 -1.4552122997 1.8654108916
H 3.5281092081 -1.0969714342 2.6450599533
H 5.0189187445 0.2940767204 1.0849059112
H 3.9309748398 2.0281073784 -0.4131798673
H 1.5617377158 1.991943514 -0.7452766819
H 1.8519611737 2.4145401069 1.9523150753

