# b3lyp 6-31G(2df,p) opt Freq 

 titel

0 1
O 3.8529332382 -1.1627011142 -3.5839498976
C 3.3497741632 -0.9474827799 -2.2749358246
C 1.822041582 -0.8667826842 -2.2513688657
C 1.2431458682 -0.7352410527 -0.8508043853
O 1.9504894736 -0.7113748412 0.1324841459
C -0.2731152849 -0.6378023234 -0.7495543502
C -0.7674334749 -0.524608252 0.7014813485
C -2.2188200598 -0.4256737341 0.7851473994
C -3.4174241388 -0.3453240404 0.8271842926
H 3.6998585951 -0.3636284215 -4.097721134
H 3.6815718511 -1.7993299706 -1.6761112717
H 3.7806119842 -0.0493775897 -1.8119502032
H 1.4680086115 -0.0170037988 -2.8534377968
H 1.3961490554 -1.7580015527 -2.7308492639
H -0.6099367165 0.2242286192 -1.3394028963
H -0.7158415412 -1.5131413854 -1.2413215113
H -0.4135316021 -1.3906230647 1.2716712084
H -0.3003934764 0.3462085833 1.1745567619
H -4.4751895481 -0.2738381671 0.883346064

