# b3lyp 6-31G(2df,p) opt Freq 

 titel

0 1
C -4.2198499557 3.1265892872 -0.0674481067
C -3.1515705177 2.1103966262 0.2226761689
C -3.5080656629 0.7112961782 0.7904486123
C -2.2759889313 0.1115997155 0.0646634227
C -0.9447391827 0.4709528502 0.7643734112
O 0.0901558283 -0.2401900552 0.1116912919
C -1.079290564 1.9195865259 0.2166989844
O -2.0394045176 2.6814870566 0.9725864486
C -2.1619367431 1.4368904858 -0.7830433197
H -4.6706009348 3.4784601317 0.8676457251
H -3.8001154417 3.9920284071 -0.5886245142
H -5.0116671178 2.6932081269 -0.6863730857
H -3.5676536957 0.6226878976 1.8791449307
H -4.4358343088 0.3382089108 0.3444038498
H -2.3396012953 -0.8932364757 -0.3498105181
H -0.9003068498 0.3642432231 1.8574467128
H 0.9310597758 0.140392656 0.3875583433
H -0.1689610424 2.4823779151 -0.0099770859
H -2.1588017828 1.535477067 -1.8648815914

