# b3lyp 6-31G(2df,p) opt Freq 

 titel

0 1
C -0.1377098849 -0.0243626572 -0.0141103945
C 1.3857685766 0.0286381168 0.036294588
C 1.9542132929 -0.6708024893 1.269257688
C 2.0372668297 1.4489858782 -0.2002524055
C 2.7283188303 0.8925005662 -1.4422285053
O 1.7171875785 0.3868871126 -2.3338148066
C 2.0950914547 -0.4473839602 -1.257328105
C 4.056468642 1.1796079571 -2.0091337991
O 4.8571971371 1.9259234112 -1.4999216533
H -0.570803751 0.5172479722 0.8340928879
H -0.5097120031 0.4293101631 -0.9362001678
H -0.4989878216 -1.0580147494 0.031367601
H 1.6373869275 -1.7193130789 1.3066704424
H 3.0494258329 -0.650209792 1.2757302962
H 1.6049018908 -0.1827662505 2.1850739416
H 1.3503835085 2.2751116855 -0.395239558
H 2.7446783059 1.7307901025 0.5813022579
H 2.475901756 -1.4357483791 -1.4985561263
H 4.2652850472 0.6263193712 -2.9506071817

