# b3lyp 6-31G(2df,p) opt Freq 

 titel

0 1
C 1.4643096556 -1.0991758135 1.1670375922
C 1.2222378366 -0.2071823223 -0.053281179
C 1.8668131961 -0.6970051208 -1.318110756
C 1.8079200555 -2.1361756807 -1.905403934
C 3.1360631973 -1.6360715672 -2.5105836634
C 2.7184572161 -0.5678083215 -3.5364498776
C 1.7175684821 0.1477546113 -2.6027568752
O 1.0195239686 1.1028396309 -2.79933373
O 3.3398768112 -0.8195194251 -1.3103471024
H 1.014637575 -2.0890504639 1.037554497
H 2.5353121898 -1.2356172863 1.3403644259
H 1.0265872286 -0.6520977596 2.0639496655
H 0.1493286327 -0.0950522322 -0.2512137662
H 1.5976083013 0.8057671071 0.1364014793
H 1.963817718 -2.8888546141 -1.1319738775
H 0.9848242585 -2.4092392956 -2.5717940061
H 3.9695652452 -2.2969186869 -2.7432119114
H 3.5467316622 0.0871212081 -3.8172415719
H 2.2368729696 -0.9456988379 -4.4428728588

