# b3lyp 6-31G(2df,p) opt Freq 

 titel

0 1
C 1.2688242819 -0.547975956 -0.1461824192
O 0.0581376852 0.1848842155 -0.128308524
C -0.2639169133 0.7979900184 1.1109070715
C 0.0840533252 2.305550033 1.1102884861
C 1.5630626615 2.5941738495 1.1746587809
C 2.1586548266 3.7785467768 0.5434747916
O 2.3178437674 2.48283655 -0.0352535359
C -1.6949627399 0.6059416123 1.3666813105
C -2.8689784113 0.4770043098 1.5862470478
H 1.2885831848 -1.3129258573 0.6447900212
H 1.3108083506 -1.0505569515 -1.1155944627
H 2.1494570313 0.0980603915 -0.0494438729
H 0.2968099083 0.3082405632 1.9243911534
H -0.3472606467 2.7520538434 0.2094462955
H -0.3987577811 2.7693379681 1.9789975749
H 2.0772149513 2.1828076293 2.0468357247
H 1.5223602097 4.4626985642 -0.0164838057
H 3.0614205949 4.2208673778 0.9623337201
H -3.9057772564 0.346509512 1.7758835822

