# b3lyp 6-31G(2df,p) opt Freq 

 titel

0 1
C -0.0000149049 -4.0040709177 0.6282910158
C 0.2650839026 -2.7363139139 -0.139670107
C 1.5275028953 -2.4405802562 -0.9744275951
C 0.6770756502 -1.2996568971 -1.5921308559
C -0.6186257652 -2.1855763873 -1.2863633418
O -1.4874095341 -1.4742980359 -0.3889525984
C -0.2886044579 -1.3651097766 0.435070342
C 0.518406237 -0.3394191201 -0.40026669
O 1.7691524511 0.0612812228 0.119588949
H 0.6439835344 -4.0732208654 1.512628756
H -1.0413319269 -4.0415317726 0.9654394004
H 0.189088471 -4.8887105577 0.01067776
H 2.4574485163 -2.1648608956 -0.4775357789
H 1.7043281257 -3.2523516271 -1.6870666183
H 0.8912800413 -0.8763890701 -2.571150454
H -1.1083922036 -2.7538002581 -2.0764558138
H -0.4841914394 -1.1829111368 1.492993063
H -0.1189367127 0.5216853436 -0.6347644952
H 1.6046416898 0.6548145419 0.8585818622

