# b3lyp 6-31G(2df,p) opt Freq 

 titel

0 1
C -3.4984288808 -0.3782321611 2.3676734912
C -2.684691258 -0.1524924272 1.0851359144
C -1.7622823276 -1.312027249 0.8036023863
C -0.5705337561 -1.1971753934 0.2045300853
C -0.053193562 0.102573686 -0.2762857466
O 1.0390713214 0.2074187556 -0.7960960976
C -0.9912805376 1.2919106302 -0.1090200837
C -1.8873375249 1.1670295937 1.1206805168
O -2.7348199447 2.3063679038 1.136884261
H -4.0735753021 -1.3075540265 2.3110490813
H -2.8447828734 -0.4426180331 3.245094362
H -4.212193004 0.4354469657 2.5283003449
H -3.3938287277 -0.0673123434 0.2466737406
H -2.1079978182 -2.294252296 1.1217779053
H 0.0700657252 -2.0559398852 0.0301598771
H -0.4021796986 2.2107966702 -0.0779357365
H -1.6315134987 1.3471258082 -1.0010370035
H -1.2502044322 1.1525381763 2.0211015371
H -3.1265854599 2.3837184355 2.0117609046

