# b3lyp 6-31G(2df,p) opt Freq 

 titel

0 1
O 0.4422938016 -1.0201258014 0.0080291431
C 0.4590280316 0.1716835572 0.1758653075
C -0.3018475883 0.9060253107 1.2633642886
C -1.122046244 2.0585561957 0.7200158208
C -1.3630296954 3.3010295155 1.5679207425
C -0.5405720344 3.3867871972 0.3065059318
O -1.141938785 3.8526987306 -0.869365147
C -2.3608289141 3.1297750635 -1.0541654399
C -2.1889674131 1.773040042 -0.3348828602
H 1.0625285727 0.8363135743 -0.4852207008
H -0.9193988257 0.1816095847 1.804987265
H 0.4448025093 1.2962920969 1.9697082746
H -2.3514512098 3.7476047635 1.5876323547
H -0.8300211884 3.3620619858 2.5112390446
H 0.5150977064 3.6298344924 0.3473262164
H -3.2011957399 3.6940455712 -0.6274490352
H -2.5334031593 3.0340970636 -2.1292185918
H -3.1339467945 1.4139342386 0.0842642803
H -1.8224890896 1.0060594281 -1.0262519449

