# b3lyp 6-31G(2df,p) opt Freq 

 titel

0 1
C 1.3397739517 0.207584121 0.2951762255
O 1.3806582793 1.3157240036 1.2009610322
C 0.5835792989 2.3795917702 0.6969631705
C -0.8591122233 2.3830055103 1.2784984954
C -1.6471902497 1.7910598822 0.0952645551
C -1.2170490356 0.330027505 -0.1698951945
C 0.235838051 0.5194866677 -0.7079856096
C 0.2807733819 2.0712338366 -0.8000849117
O -1.0576245052 2.487850582 -1.0176060592
H 2.3133169405 0.1079064129 -0.2076067018
H 1.1622860772 -0.7110650113 0.866260737
H 1.1166747305 3.3158484181 0.8743350356
H -0.9108938899 1.8012958178 2.2011503261
H -1.2036357366 3.4013708713 1.4766924376
H -2.7228289116 1.965576484 0.1072907135
H -1.260307835 -0.2962299837 0.7252648474
H -1.8593327578 -0.1160207692 -0.9326354167
H 0.3904282023 0.019851202 -1.6650261672
H 0.9443378414 2.5101415292 -1.5431582752

