# b3lyp 6-31G(2df,p) opt Freq 

 titel

0 1
C 2.723479352 -2.047857162 -3.2824533065
C 2.0190049358 -2.102738448 -1.9300755834
C 2.4616972365 -0.982052377 -0.9214944165
C 3.0044763525 -1.8955033134 0.1944231103
O 3.7550843888 -2.9034153391 -0.5592684844
C 2.4424897788 -3.3144854739 -1.0639653974
C 1.9014320591 -2.9498901683 0.3192003932
C 1.4058827795 -3.7392790118 1.4307590674
O 0.5692861729 -2.7850886424 0.7278051314
H 2.4018213964 -2.8680574253 -3.9337903118
H 2.5076681141 -1.1073889091 -3.7999570962
H 3.8070682678 -2.1211850422 -3.1492259884
H 0.9325241361 -2.1010299221 -2.06467037
H 3.2470745901 -0.3417289279 -1.3304482424
H 1.6324203763 -0.356870146 -0.5810538549
H 3.5459896831 -1.4674749123 1.0370729576
H 2.4179548725 -4.3161801485 -1.4927763094
H 1.1364254211 -4.7835205814 1.282815825
H 1.6587881766 -3.4632526993 2.4529319663

