# b3lyp 6-31G(2df,p) opt Freq 

 titel

0 1
C -3.4302445567 0.7932487595 0.5546241148
C -2.5226972402 1.9604414743 0.2302054366
C -2.1816879302 2.9145553787 1.3671060813
C -1.3170201642 4.0431171657 0.8254569035
O -0.4029937847 3.095960055 0.2050160173
C -1.1264907247 1.9954394197 0.7837707488
C -0.3009459741 0.8502540508 1.2973373085
C 0.3971442439 0.1173061866 0.1625618248
O 0.3870658145 -1.078355756 0.0221438125
H -3.2806570754 0.4367575459 1.5788546582
H -4.4818772916 1.0838635995 0.4613628479
H -3.2515832812 -0.050178595 -0.12012587
H -2.6550702856 2.388372115 -0.7627848053
H -2.6903021321 2.8904579867 2.3221447109
H -1.7693781484 4.7236402815 0.0942788131
H -0.7996550838 4.6218935127 1.5990409942
H 0.4749826267 1.2460722476 1.9676238528
H -0.9069698364 0.1322033724 1.8541936724
H 0.9365707342 0.7795299794 -0.5487763724

