# b3lyp 6-31G(2df,p) opt Freq 

 titel

0 1
C -0.3333262565 3.7153776366 -2.1914367124
C -1.3890488342 3.203664312 -1.1978452438
C -1.546922736 4.1409150472 0.00932614
C -1.0243142964 1.821347147 -0.7420362498
C -0.9288096302 0.475422376 -1.5147111375
C -0.8585193159 0.1037016454 -0.0175791137
O -1.9141044367 1.1158630931 0.2441696633
C 0.1141747469 1.2938018317 0.1859984929
O 1.0667354735 1.646679169 0.8008005349
H 0.6508055344 3.7809823077 -1.7155869361
H -0.2466819318 3.0595800971 -3.063562089
H -0.6021379637 4.7140051533 -2.5475498015
H -2.3540603767 3.1332413459 -1.7178850298
H -2.2949363224 3.7566634975 0.7072959584
H -0.5995627158 4.2397496725 0.5491374531
H -1.8586684612 5.1370313374 -0.3186518041
H -1.8731524383 0.1854338438 -1.9790664667
H -0.0575953027 0.2886157398 -2.1480305891
H -0.9555786363 -0.8624942229 0.471585481

