# b3lyp 6-31G(2df,p) opt Freq 

 titel

0 1
C 3.4816685406 -2.4463661429 3.7579198995
C 3.6449999532 -2.633466932 2.2673194331
O 4.7846388721 -1.9477759078 1.7993249202
C 4.5402531475 -1.7534263488 0.4172079097
C 3.0175519854 -1.4973432214 0.3577659785
C 2.664753457 0.0009726662 0.3232863124
C 1.232200694 0.2588140014 0.3699528567
C 0.0485969304 0.4644250861 0.3890993521
O 2.5388138313 -2.0804670242 1.5663509599
H 4.335644237 -2.8792970028 4.2852592223
H 3.4141967221 -1.381131909 3.9908940201
H 2.5695323684 -2.944726584 4.0947814231
H 3.7295003088 -3.7062460341 2.0079042328
H 5.1437398455 -0.9107710567 0.0717397876
H 4.8107802642 -2.6489839641 -0.1619468827
H 2.5549188723 -2.0007320079 -0.4994975497
H 3.166482405 0.4882246758 1.1684277626
H 3.085598195 0.4357958551 -0.5932698225
H -0.9969158699 0.646287651 0.4174147845

