# b3lyp 6-31G(2df,p) opt Freq 

 titel

0 1
C 1.278376623 -0.9615386554 -0.9111789485
C 1.2154476052 -0.0588537793 0.3171297885
C 1.7153157742 1.3886045499 0.0649562286
C 1.9229858009 1.9738020337 1.4796956874
C 3.0544273597 0.9222620047 1.40765767
O 3.1664560268 1.2039321037 -0.0254163104
C 2.2814064195 -0.3915456964 1.3926560967
C 2.1644217832 -1.339805487 2.4985939603
O 2.9884595486 -1.6212185139 1.3566524969
H 1.1277556717 -2.0085528673 -0.6351015916
H 0.5083837858 -0.6833007185 -1.6381641667
H 2.2584035283 -0.8789086533 -1.3875942482
H 0.2061181662 -0.0570249398 0.743713003
H 1.2866700109 1.9491143258 -0.7659393831
H 2.3127208648 2.9914962138 1.4530632635
H 1.1338400522 1.8599779161 2.2279227255
H 3.9923254321 0.9730724102 1.9593109035
H 2.7040781999 -1.1688803556 3.4300163614
H 1.2691498871 -1.9538202715 2.5913074831

