# b3lyp 6-31G(2df,p) opt Freq 

 titel

0 1
O 1.521666543 0.4416318036 -0.3693257006
C 0.1527625728 0.276258563 -0.0135526267
C -0.7944025906 0.5147038519 -1.1504929388
C -1.0765468681 -0.5153286517 -2.2132419116
C -2.2110245194 -0.0099849892 -1.3566897797
C -2.6995233259 1.4128661634 -1.7251340155
C -1.96900474 2.0594362783 -2.8711019864
O -2.3914633905 3.3322235817 -3.2707337544
C -1.2737698999 1.9470632815 -1.5385260357
H 1.6293879 1.3348297111 -0.7118596276
H 0.0601984399 -0.7598240719 0.3298717193
H -0.1112411525 0.9266972729 0.8368630065
H -1.0012166975 -0.3130852528 -3.2749573004
H -0.7377380061 -1.5127029512 -1.9474268771
H -2.7776708797 -0.6716950464 -0.7127587868
H -3.6324055235 1.8281253599 -1.3613771869
H -1.6484667757 1.5137179153 -3.7505318109
H -2.7281705768 3.8026034336 -2.500305788
H -0.9492428594 2.8370331469 -1.0092860286

