# b3lyp 6-31G(2df,p) opt Freq 

 titel

0 1
C 1.0242648251 -0.2435740372 0.9599074951
C 0.8099376988 0.2045979432 -0.4924296982
C 1.6481915551 -0.5702057326 -1.471888537
C 3.2130199517 -0.6409902846 -1.6195968872
C 2.7198803234 -1.5822880558 -2.7718582896
C 1.656242343 -0.4879725367 -3.0471315838
O 0.5324516688 -0.921132305 -3.7600683033
C 1.7231083876 -2.0930500421 -1.7144373952
O 1.2850579208 -3.1086071626 -1.2717495841
H 0.8042300788 -1.3090450341 1.0713691194
H 2.059773184 -0.0786047304 1.2751146963
H 0.3750572471 0.3139906913 1.6411449269
H -0.2457615063 0.0704516909 -0.7635059023
H 1.0210479789 1.2774499293 -0.5913114371
H 3.6806096567 0.2868958419 -1.959123278
H 3.7744657111 -1.1043695446 -0.8086980002
H 3.3203639865 -2.1242473523 -3.4976383214
H 2.0720971383 0.4508979581 -3.4360632892
H -0.1330691695 -0.2260879665 -3.7403727713

