# b3lyp 6-31G(2df,p) opt Freq 

 titel

0 1
C -1.4137543015 -1.7476364159 2.4744833435
C -2.0326006787 -1.320059038 1.1299150272
C -2.6374743833 0.0606056865 1.2196926282
C -2.104582605 1.1526891044 0.67636034
C -0.8253108479 1.1479764837 -0.1223888597
C -0.0933211707 -0.1804322921 -0.0164252369
O 1.110455194 -0.2722423255 0.0464800271
C -1.0105246646 -1.4067067844 -0.0148892088
O -1.7453468104 -1.4328892625 -1.2394840375
H -1.0795412539 -2.7895923673 2.44070245
H -0.5528809106 -1.1209716276 2.7295009687
H -2.1443497374 -1.6519924632 3.2831494189
H -2.8266175479 -2.0344298196 0.874614891
H -3.558742753 0.1421258279 1.7917784581
H -2.5978011433 2.114416059 0.7913760062
H -1.0516685925 1.3304080478 -1.18352513
H -0.1405534574 1.9427391256 0.1902325419
H -0.3868887305 -2.3032985618 0.0949664969
H -1.1221831952 -1.604745207 -1.9534742949

