# b3lyp 6-31G(2df,p) opt Freq 

 titel

0 1
C 1.2611752475 1.8866070715 -1.0250326541
C 1.8905389534 0.667472987 -0.3600314069
C 1.3240198959 -0.6740425661 -0.876381242
O 2.3193738584 -1.6644044493 -0.6238412723
C 3.5656643461 -1.0236556092 -0.5777423105
C 3.8774843697 -0.1906328898 0.6543853768
O 2.8956117536 -0.1249589192 1.6531591583
C 1.8453659252 0.7186904235 1.183519178
C 3.4072312225 0.4738934983 -0.6130030827
H 1.7302883265 2.8119938809 -0.6766312336
H 1.3667669444 1.8406146745 -2.1133919706
H 0.1910724385 1.9525809248 -0.798885247
H 0.4044372106 -0.9800330883 -0.367467391
H 1.1212098165 -0.609336756 -1.9571376237
H 4.3599245606 -1.5505051708 -1.0968101986
H 4.8960970271 -0.1181145357 1.0218366271
H 0.9027056539 0.3511760123 1.6013471633
H 2.0047924231 1.7508407642 1.5336664478
H 3.9807226067 1.1610945174 -1.2227446681

