# b3lyp 6-31G(2df,p) opt Freq 

 titel

0 1
C -0.2021792763 1.3548568663 0.0085225187
O -0.1177865815 -0.073006938 -0.2883224191
C 1.2925171551 -0.0877231742 0.0467094985
C 2.4014326588 -0.0936325066 -1.0277139686
C 1.8258454347 1.2279188684 -1.5658094722
C 1.3168215927 1.456390977 -0.0912141139
C 2.3705019517 2.1352568535 0.7476486275
C 3.7136594259 1.4858885329 0.2849842825
O 3.5797803651 0.157685227 -0.2401099039
H -0.805291716 1.8963878332 -0.7285658215
H -0.609414421 1.5212731326 1.0157962005
H 1.5021170113 -0.6318867247 0.9722803129
H 2.6230807987 -0.9419698798 -1.6793464945
H 2.5184249396 1.9517907455 -1.997958213
H 0.9981650559 1.0523638535 -2.2528733748
H 2.4255834891 3.220195621 0.5969620948
H 2.1852284824 1.9543492546 1.8124813874
H 4.1821160924 2.1288609714 -0.4717441874
H 4.4168351116 1.3987522362 1.1168907061

