# b3lyp 6-31G(2df,p) opt Freq 

 titel

0 1
O 0.328002723 -0.1917360993 0.4916238735
C -0.9581559059 0.3615459537 0.670686337
C -1.4865225143 0.224303557 2.0975960129
C -2.6209508031 1.2328731158 2.3615036795
C -3.3887274806 1.811980303 1.1736520387
C -2.2914773459 2.5332040418 0.3374156117
C -0.9797769955 1.9195568704 0.8456811369
C -1.1923837816 1.681514198 2.3800765378
O -0.4894719853 2.2262763869 3.4353340387
H 0.8651245904 0.0694391198 1.2491925347
H -1.566497629 -0.0404607356 -0.1466132029
H -1.3663079275 -0.6470858002 2.7322869018
H -3.1195199748 1.0832316695 3.3136956947
H -3.8912949036 1.0303025507 0.5945375493
H -4.1662558782 2.5063360648 1.5071039835
H -2.4263596533 2.3963508666 -0.7401302904
H -2.3055878279 3.6118333377 0.5330411935
H -0.0612560391 2.410565398 0.5227514798
H -0.8936793777 3.0683823615 3.6725167593

