# b3lyp 6-31G(2df,p) opt Freq 

 titel

0 1
C 2.465593796 -0.2473389338 -1.6883830534
C 1.9172686753 -0.0496635735 -0.2779713867
C 2.8153383415 -0.6562313252 0.8546962734
C 3.121116082 0.6609638396 1.5970344825
C 1.7211946171 1.3335056015 1.7223352526
C 1.9833179962 1.4207299232 0.2059247573
O 3.4095388928 1.5881401921 0.5032360123
C 4.1025692889 0.6965471419 2.7282701524
O 4.2433598344 -0.2034305913 3.5172250535
H 2.5338098044 -1.3105942287 -1.9397288597
H 1.8235241867 0.2316183432 -2.4358441376
H 3.4668493654 0.1864793527 -1.768009658
H 0.8905167049 -0.425923247 -0.218281039
H 2.3082773229 -1.3858261036 1.4883042255
H 3.7297986617 -1.1085044597 0.4645650188
H 0.8875015248 0.7358200707 2.0973125019
H 1.7769990163 2.3075813388 2.2093791007
H 1.570282974 2.2042399209 -0.4301717154
H 4.6792692345 1.6450399781 2.799186019

