# b3lyp 6-31G(2df,p) opt Freq 

 titel

0 1
C 1.5031521131 -0.3088841233 0.0676219043
O 0.1653038181 0.1283997691 -0.0667911907
C -0.3827474143 0.6433184805 1.1011536411
C -1.9208721096 0.9012901908 1.0075839431
O -1.6290371866 2.1150565476 0.2572891886
C -0.4971996478 2.2348787529 1.1850929975
C 0.5768176615 3.1885610929 0.7519786666
C -1.213490508 2.3523842977 2.5351375425
C -2.1855556002 1.440830569 2.4166310964
H 1.5985357657 -1.0828841426 0.8438879638
H 1.7991358198 -0.7335330083 -0.8941656137
H 2.1865425549 0.5157596724 0.3146148309
H -0.0094706507 0.123434618 1.9936377555
H -2.6115594919 0.2143264531 0.5219601439
H 1.3770316411 3.2388607082 1.4973772272
H 1.0003330997 2.8693911238 -0.2038753348
H 0.162892862 4.193853277 0.6242070838
H -0.9324121848 2.9821427889 3.367345223
H -2.9339078718 1.1069528324 3.120201881

