# b3lyp 6-31G(2df,p) opt Freq 

 titel

0 1
C 1.4414064321 -0.1505171932 0.0414944014
O 0.0384476817 -0.0169551623 0.1071378823
C -0.3948736932 0.748465988 1.1940505483
C -1.9126968011 0.9978251906 1.0901022747
C -2.5162846079 1.416680792 2.4390121148
C -1.6505230722 2.5109548172 3.0342792939
C -0.5962483837 2.9472379399 2.3429114994
C -0.3710312786 2.2972263356 0.9946944061
O -1.6539981628 2.197718941 0.307780729
H 1.8463328051 -0.6195353737 0.9519528967
H 1.6654052866 -0.7890485155 -0.8158751383
H 1.9437339804 0.8179501398 -0.0992848554
H 0.0140954171 0.370413748 2.1416160731
H -2.5004907917 0.2569410682 0.5426624177
H -3.5449920186 1.772129334 2.2949308582
H -2.5771250095 0.5536420359 3.1156873543
H -1.920083115 2.9223889108 4.0024737287
H 0.0798908766 3.7115611162 2.7106594957
H 0.4009621147 2.7563118076 0.3743879394

