# b3lyp 6-31G(2df,p) opt Freq 

 titel

0 1
C 1.9840834105 -0.799773912 1.3415843141
C 1.5408586666 -0.056069951 0.0656270902
C 0.0090967892 0.1156612361 0.0155546878
C 2.0294017847 -0.7390394589 -1.1323609324
C 2.4235835008 -1.3425249814 -2.1000130842
C 2.9011607087 -1.9805823196 -3.3213864683
O 1.8875942204 -2.1306573063 -4.3103677982
C 4.0457459303 -1.1320020301 -3.9072737351
O 5.2088185505 -1.4147485409 -3.8344731948
H 1.5478562933 -1.8026571046 1.3737602506
H 3.0715573369 -0.9005461338 1.3813427277
H 1.6538096235 -0.2515886847 2.2293533729
H 1.9911502186 0.9460984025 0.0855885331
H -0.3357567709 0.6624357336 0.8984509093
H -0.2983025591 0.6699428021 -0.8751698534
H -0.4875115443 -0.8591546783 -0.0010961237
H 3.3048308703 -2.9779155492 -3.1164239083
H 1.253427972 -1.4157645099 -4.1912957593
H 3.6782235379 -0.2204241134 -4.4312036582

