# b3lyp 6-31G(2df,p) opt Freq 

 titel

0 1
C -0.1291894826 0.1309028133 0.282466266
C 1.3729174702 0.0119859637 0.1768903131
C 2.1933101168 1.3021584549 0.2358106602
O 3.5344234472 0.8071842224 0.1100055971
C 3.3241380657 -0.5809326738 -0.0131145651
C 2.2132048619 -1.069451957 0.9591838114
C 1.8014946348 -2.1490176137 -0.0686502365
C 2.0765022876 -0.8750080141 -0.9063544953
O 1.9011036941 -0.6509092594 -2.2583172369
H -0.4172825305 0.6191107844 1.220187978
H -0.5264798805 0.7334939247 -0.5415714945
H -0.6246769004 -0.8429953994 0.2487434107
H 1.9632666912 1.9845949776 -0.5921650427
H 2.0774301943 1.8423828026 1.1841946789
H 4.2648189197 -1.1195340376 -0.1274656048
H 2.295064412 -1.1726217964 2.038818864
H 2.4952464587 -2.9855828743 -0.1978157146
H 0.7704083142 -2.503400822 -0.0300657787
H 2.5585625556 -1.1571777861 -2.7473644004

