# b3lyp 6-31G(2df,p) opt Freq 

 titel

0 1
O -0.263161591 1.4490786604 -0.0279592705
C -0.0056130312 0.0558033612 -0.0173649557
C 0.5271455396 -0.4511778017 -1.3858428743
C -0.7242378467 -0.5834452579 -2.3239282832
C -1.869000858 -0.4729733106 -1.3589644928
C -3.1011747164 0.0147969263 -1.3222814468
C -3.5232559756 0.172425243 0.1197820873
O -2.3698259828 -0.1662645172 0.9006990218
C -1.3683979809 -0.6674767335 0.0454952166
H 0.579698774 1.9032459011 -0.1209757844
H 0.6629410479 -0.2165905956 0.8107318906
H 1.2850406394 0.2278811673 -1.7878114956
H 1.0103332077 -1.4253926024 -1.2543437218
H -0.7601065594 0.2038991719 -3.0812396213
H -0.7082621859 -1.5395803959 -2.8582489478
H -3.7120467432 0.3472534984 -2.1522682807
H -3.8230472462 1.2065552305 0.3430121878
H -4.3646274941 -0.4804364902 0.4044625754
H -1.1657186872 -1.727403195 0.2832627155

