# b3lyp 6-31G(2df,p) opt Freq 

 titel

0 1
O -5.9621062633 -0.396613572 -2.4209933481
C -4.9934347675 0.6447020101 -2.4322282558
C -3.976768703 0.5091248225 -1.3904443682
C -3.1744798223 0.3774216006 -0.4992368335
C -2.1845806808 0.2570469888 0.5478042252
C -2.2865076375 1.1347879915 1.8381304777
C -0.7404490527 1.2492920699 1.8423280449
C -0.7562199774 0.876045358 0.3377063163
O 0.2676680856 0.1086095339 -0.2230973037
H -6.2903179872 -0.4706958944 -1.5189087735
H -4.5267731966 0.604180138 -3.4229879031
H -5.4715350131 1.6343324053 -2.3490251299
H -2.0619007268 -0.7948934465 0.837617521
H -2.7688906816 2.0905074557 1.6219984445
H -2.7691278655 0.6809809551 2.7046349477
H -0.2862387378 2.1995439898 2.1284824836
H -0.2824221848 0.4483188473 2.4341635176
H -0.8377730017 1.771161363 -0.2849984917
H 0.3885256244 -0.6779915366 0.319618929

