# b3lyp 6-31G(2df,p) opt Freq 

 titel

0 1
C -2.7858191299 2.7904100445 -0.1843151235
C -2.5699535059 1.5815730948 0.6745438287
C -2.1253189924 1.5084682966 2.1330136644
C -0.9345688771 0.5644245356 2.3015468419
C -0.778343604 -0.0998118792 0.9036053564
O 0.2630297362 0.4676982892 0.121948384
C -2.1479335786 0.1448102038 0.2666528563
O -3.1592068494 -0.4411321675 1.1474729336
C -3.41945625 0.8613923963 1.6762455755
H -3.2228695588 3.6072438801 0.3992954856
H -1.8469040926 3.1626063585 -0.6125763913
H -3.4650214109 2.5754722221 -1.0166957234
H -2.2171010714 2.4008056477 2.7434695882
H -0.0164341002 1.1012639116 2.5583180353
H -1.1135297289 -0.181959891 3.0804390458
H -0.5516915548 -1.1666864138 0.9724568031
H 0.1409687656 1.4237305249 0.1186966349
H -2.2604452959 -0.180684893 -0.7688640125
H -4.4025163209 1.0562674287 2.0900424771

