# b3lyp 6-31G(2df,p) opt Freq 

 titel

0 1
C -3.8508388464 -1.3799972485 1.4825249018
C -3.3800880227 -0.1312084201 0.7691741918
C -3.2099758984 -0.1288406134 -0.7368004032
C -2.0105308988 -0.0746567627 0.1658377344
C -0.9476631682 1.0376683727 0.1844474207
C 0.0493674476 -0.0594123707 -0.2424045983
O 1.0473934882 -0.0671229719 -0.9037527407
C -0.9205829271 -1.1800552648 0.1890767456
O -1.0303051786 -2.3391088394 -0.5812429998
H -3.5365689767 -1.3829643625 2.5323467009
H -4.9432918748 -1.4568514174 1.462364182
H -3.4420906903 -2.2772788126 1.0076139231
H -3.7388907834 0.8027696557 1.1968740029
H -3.3914361732 -1.0634290811 -1.2603898197
H -3.4815924163 0.7636554892 -1.2915193892
H -1.0548946852 1.8695507301 -0.5156872803
H -0.7362034459 1.4338812396 1.1838111291
H -0.7182814187 -1.4939197873 1.2216122373
H -0.8259025811 -2.1115844449 -1.4955792085

