# b3lyp 6-31G(2df,p) opt Freq 

 titel

0 1
C 0.0053632853 -0.1106685464 -0.3885915368
C 0.8928579497 0.3874165357 0.7206360082
O 1.9866877313 1.2781801632 0.331053354
C 2.2881872212 0.0188220643 0.8659124977
C 3.2358661484 -0.3517245078 2.0142665222
C 4.4124315654 -0.2946327 1.0127969757
C 3.2465150207 -1.0751376749 0.335388433
C 3.2387200843 -1.8854295005 -0.920829403
O 3.0191523876 -1.7679208388 1.6377603872
H -0.5845041056 -0.9672286911 -0.0452397664
H -0.6908717657 0.673131462 -0.7042812006
H 0.594713515 -0.4166113687 -1.2559368912
H 0.3712522105 0.7305143883 1.6154653728
H 3.2048090492 -0.0978058841 3.0725507624
H 4.6874546381 0.6774630885 0.5964588415
H 5.2693999192 -0.9132464677 1.2844910101
H 4.0602404829 -2.6078282843 -0.9179569552
H 2.2966810221 -2.4319253542 -1.0220279192
H 3.3573590205 -1.2295479635 -1.7889166325

