# b3lyp 6-31G(2df,p) opt Freq 

 titel

0 1
C 0.0388202951 -0.4242639085 -0.304602699
C 1.3900436618 0.0879058373 0.1140925958
C 2.040040421 -0.4167306606 1.4023793768
C 3.0183003689 0.6780287677 1.8560482883
O 3.0977691519 0.9273265556 3.2291682326
C 4.1884205601 1.0399402672 0.9856982531
C 2.9002272485 1.8447333371 0.9025151559
C 1.9215152904 1.4364828755 -0.1710675135
O 2.3335361639 0.3019990553 -0.9532462628
H -0.7058533387 -0.2474281492 0.4784471924
H -0.2895091437 0.0723833019 -1.2211988069
H 0.0729284746 -1.5023746387 -0.4977975303
H 1.2775967071 -0.5253821118 2.1810828482
H 2.5148158464 -1.3937846182 1.2583108451
H 3.76473096 0.3399043425 3.6006219794
H 5.0167172838 1.5264681199 1.4899728258
H 4.4444155218 0.4108148269 0.142034244
H 2.8894454104 2.8642643189 1.2671417827
H 1.3606604767 2.1920018313 -0.7150767475

