# b3lyp 6-31G(2df,p) opt Freq 

 titel

0 1
C 1.5434973632 0.5192165865 -0.1234321159
O 0.1588023455 0.255304389 -0.0541876257
C -0.3987056419 0.5116977453 1.1985682074
C -0.1790540838 -0.49162916 2.3682176487
C -1.6750192083 -0.2739255369 2.7647173317
C -2.4519247868 -1.390143723 3.2533614442
C -3.0956760653 -2.331782644 3.6350157333
C -1.9125445331 0.2432348812 1.3003368053
O -2.8464935556 1.2474129674 1.0419154423
H 2.1192978309 -0.1179437997 0.564110643
H 1.862503773 0.3105421868 -1.1470565704
H 1.7674485009 1.5717338228 0.1115396701
H -0.1667692824 1.5404989005 1.5291965579
H -0.0192400561 -1.501413541 1.9840178742
H 0.5718793673 -0.2591845132 3.1237165109
H -1.752604353 0.5740620811 3.4565899102
H -3.666715298 -3.1595955876 3.9752425034
H -2.1691468411 -0.5992450765 0.6528996407
H -2.6152944754 2.0224381812 1.5648782387

