# b3lyp 6-31G(2df,p) opt Freq 

 titel

0 1
C 2.1350204266 0.4677692074 3.7751893568
C 2.6894641406 0.021835248 2.4405558535
O 3.6526057803 -0.7116444832 2.3269061155
C 2.0100016379 0.5480276145 1.2365025996
C 2.0227936995 -0.1157501558 -0.1174009475
C 2.6222511325 1.2550205901 0.0156765059
C 4.054130223 1.5794104782 -0.2861229112
C 1.48917676 2.2594890113 0.2343710814
O 0.9297212165 1.4805737164 1.3278146688
H 2.721048215 0.0260193596 4.5815114712
H 2.1504039516 1.5603393778 3.8443461215
H 1.0838446717 0.1715946066 3.8633027663
H 2.7419172572 -0.922132238 -0.2108326806
H 1.0655460708 -0.2644871912 -0.6098233782
H 4.3734605259 2.4919370584 0.2284849417
H 4.7037051382 0.7627344581 0.0419717031
H 4.2099758593 1.7258663211 -1.3613255716
H 1.8383066805 3.2336643133 0.596214163
H 0.771175143 2.4019216771 -0.5816551394

