# b3lyp 6-31G(2df,p) opt Freq 

 titel

0 1
C 3.4497980528 -2.3675801916 -0.7126745487
C 3.5713043425 -1.3234337294 0.3771677034
O 4.1780957295 -1.5137054302 1.4007296519
C 2.8883475672 0.0455863838 0.0968076871
C 3.2410820338 1.0831997459 1.1789685838
C 2.7165299252 2.484587532 0.8640280231
O 3.122470268 3.4392065306 1.8315728959
C 1.4476056195 -0.1506265775 -0.0529363412
C 0.2625309527 -0.3350550988 -0.1438981512
H 3.8890312205 -3.3063721528 -0.3744158029
H 2.4024801357 -2.5138048729 -0.9905037737
H 3.9754400415 -2.0235282099 -1.6114776163
H 3.2839964958 0.3899616702 -0.8718897751
H 2.8410426962 0.7390083663 2.1392356185
H 4.3285449021 1.1194812869 1.2884400258
H 3.1319176944 2.8367957987 -0.0876095489
H 1.6225902894 2.4642105899 0.7511041408
H 2.7189627053 3.1960212159 2.6709598264
H -0.785005852 -0.485144897 -0.2348302584

