# b3lyp 6-31G(2df,p) opt Freq 

 titel

0 1
C 0.0730450303 0.1785743751 0.0459955051
C 1.5797569015 0.0416977367 0.0349218714
C 2.2032978581 -1.0856038923 -0.7474952123
O 3.5258025511 -0.9484406769 -1.2150986992
C 4.4355204573 -1.0501982535 -0.1473492376
C 4.5443882411 0.0839469313 0.8287012865
O 5.782778018 0.1698729769 1.4710663152
C 3.6684912981 -1.1173810647 1.157316937
C 2.2093876432 -1.1381300725 0.7629013273
H -0.2766755896 0.659827361 0.9658982105
H -0.2756156521 0.7775711883 -0.8022048915
H -0.4137190647 -0.8007690438 -0.0174935369
H 2.1208028421 0.9819465378 0.0402603971
H 1.5916998059 -1.7180529085 -1.3838799974
H 5.3204127733 -1.6377811783 -0.3681017985
H 4.0794325131 1.0356439594 0.5794432466
H 5.6258184292 0.4075408036 2.3912404006
H 3.9945497305 -1.7660179775 1.961803991
H 1.5580212335 -1.8089337121 1.3115996154

