# b3lyp 6-31G(2df,p) opt Freq 

 titel

0 1
C 0.9129859679 -0.8717467503 0.064042536
O 0.653976607 0.5196686807 -0.0339859012
C -0.0565954869 1.0565372186 1.0576847609
C 0.0096042718 2.5912307827 1.0282568426
C -1.4235231596 3.049772984 1.1913141524
C -1.751774089 4.4985210713 1.3300385363
C -2.2869519703 2.0194353227 1.176222639
C -1.5780617667 0.7402324323 1.0236496944
O -2.0580744308 -0.364628941 0.8898651303
H -0.0102120513 -1.4581677631 0.0788250764
H 1.5083208173 -1.1400270273 -0.8121706396
H 1.4935466015 -1.1005364751 0.9721121414
H 0.3455875097 0.6626526894 2.0065327331
H 0.6602632341 3.0123415003 1.8030133349
H 0.4155380134 2.9174518359 0.0633114987
H -1.249632877 4.9246358214 2.2078068761
H -1.3856046614 5.0620228566 0.4627384177
H -2.8263105706 4.6686897722 1.4275795156
H -3.3660627191 2.0861138388 1.244291315

