# b3lyp 6-31G(2df,p) opt Freq 

 titel

0 1
C 0.8527860106 1.5928342055 -2.5926627411
C 0.3279541153 0.2354863982 -2.23020965
C -0.0183996825 -0.8747822275 -3.2414360456
C -1.2536190252 -1.2100123503 -2.3826286799
C -2.5708770384 -1.6664244135 -2.8188762545
O -1.6971710127 -2.5253230045 -2.0709316358
C -0.8970210228 -0.1651942993 -1.3643787097
C 0.5249595262 -0.3951402039 -0.8870124486
O 0.9918990049 0.4819779236 0.0963108087
H 0.9340105836 2.2236788906 -1.7051369679
H 1.8505134127 1.5158548564 -3.0415774469
H 0.2002604906 2.0907274942 -3.3184028032
H -0.2798918679 -0.4903150926 -4.2312482289
H 0.7191423505 -1.6767629179 -3.3503597027
H -3.4645788422 -1.3358085463 -2.2896055836
H -2.7290305846 -1.9487295857 -3.859762629
H -1.5756223955 0.4585036022 -0.79327661
H 0.9127502873 -1.4138818423 -0.81009952
H 0.58310902 0.2346289931 0.9321490687

