# b3lyp 6-31G(2df,p) opt Freq 

 titel

0 1
C 0.729891858 1.2326929112 0.2819922977
C 0.7625881812 1.0622010198 1.8283150039
C 1.800177915 -0.0845880177 1.6661300672
C 1.9884930478 0.3187723382 0.1790416793
O 1.9427037094 -0.8405403766 -0.6406917328
C 1.4507173963 -1.9448519122 0.0881262352
C -0.0763383644 -2.1535778756 0.0738558096
O -0.2048242341 -1.5835240256 1.3973763314
C 1.2330198942 -1.5032279935 1.5597210928
H -0.1482022961 0.7750026437 -0.1764798524
H 0.8410917575 2.2476160223 -0.1065913464
H 1.187791591 1.9256632143 2.3444081779
H -0.1785542942 0.7846901415 2.302696243
H 2.6795834899 -0.0646855379 2.313171274
H 2.9033767852 0.8630603472 -0.0688925396
H 2.0667474933 -2.8189618562 -0.1346451326
H -0.6245194815 -1.5895765578 -0.6877035698
H -0.3932126573 -3.2040765303 0.0580935346
H 1.5768026787 -2.174250075 2.3529957971

