# b3lyp 6-31G(2df,p) opt Freq 

 titel

0 1
C 1.3435108953 1.4025988706 0.7175239954
C 0.4259895902 1.0521581895 -0.4402224692
C 1.2219236695 1.155738844 -1.7491853009
C 2.2157212665 0.078342264 -1.2244033662
O 2.0201684266 -1.1345059318 -1.9385519604
C 2.1847047524 -2.2670373705 -1.098263887
C 1.1714066682 -2.2414612377 0.0404029503
O 1.3653028182 -1.0910096447 0.8648905774
C 1.46494756 0.0557531339 0.1064037408
H 2.1251393331 2.1530600931 0.6072664425
H 0.8648986376 1.3912515984 1.6921788756
H -0.6513585534 1.0861657918 -0.3386939816
H 0.6957923239 0.7782705656 -2.6270335795
H 1.6503963781 2.1387125144 -1.970058938
H 3.2880161389 0.3269498124 -1.1914477536
H 2.0323578738 -3.1493612905 -1.7272902768
H 3.2056887576 -2.3042702497 -0.684231284
H 0.1537847756 -2.2364912763 -0.3773943667
H 1.2875113878 -3.1122053565 0.6917423619

