# b3lyp 6-31G(2df,p) opt Freq 

 titel

0 1
O 0.0559373529 -0.0415318737 0.3115562337
C -0.5577984341 1.1706739632 0.6414037396
C -1.1381064654 1.2803803786 2.0957438409
C -2.5938882343 1.2606523097 1.5210802474
C -2.0056122507 1.4456746408 0.1263665324
C -2.4311835622 1.1416073719 -1.3000552901
O -1.7496134322 2.3318496927 -1.7824845545
C -1.4750614512 2.7921418569 -0.4407101478
C -0.0255133744 2.4931625098 0.0190696345
H 0.9455082614 -0.0455423393 0.6825930247
H -0.8821056459 0.4213662609 2.7191329105
H -0.8694999315 2.1986808382 2.62450328
H -3.0687195097 0.2836827069 1.6508964362
H -3.2849949137 2.0309610226 1.8742602054
H -2.0348729739 0.22316702 -1.7475128653
H -3.512978767 1.2015519297 -1.4841358254
H -1.9128182137 3.7745172621 -0.2361175611
H 0.6380331414 2.3383558935 -0.8351401796
H 0.423985094 3.2059003653 0.7173609688

