# b3lyp 6-31G(2df,p) opt Freq 

 titel

0 1
C 1.3564244984 0.8136066451 -0.2397815486
C -0.0565440298 0.3112228641 -0.1488336473
C -1.1180396804 1.093270413 -0.348276058
C -2.5371737815 0.5997336338 -0.2047235848
O -2.6356315919 -0.6983097928 0.3404084414
C -1.6697277625 -1.5989275799 -0.1795900751
C -0.253039328 -1.1518114052 0.178388275
C -3.3086648904 1.5275536796 0.7357358851
O -3.5450915024 2.6791219546 0.4870169595
H 1.8949994665 0.6388823748 0.7007119651
H 1.9151909297 0.2823667294 -1.0208874128
H 1.3928278629 1.8838601048 -0.4585909758
H -1.0176468546 2.1432308738 -0.6073651485
H -3.0460009608 0.651454691 -1.1858869001
H -1.9050707851 -2.5759048221 0.2507301102
H -1.7728707413 -1.6751480392 -1.2737542538
H -0.0577973864 -1.3276198421 1.2452555662
H 0.4750728136 -1.7632974971 -0.3708826267
H -3.6197769059 1.0355732846 1.6828358192

