# b3lyp 6-31G(2df,p) opt Freq 

 titel

0 1
C -0.6455988443 2.7958340878 -2.2906085102
O -1.373976057 1.5580944325 -2.3041113427
C -1.0804160589 2.1469275383 -1.0517909276
C -2.1226732349 2.6066884636 -0.0303789583
C -1.0973295218 2.2357045991 1.0843163629
C -0.2385878049 1.476184293 0.0380253862
C 1.2976576631 1.4173984281 0.0590244461
O 1.298676169 -0.0218829616 0.0891638507
C -0.1427679998 -0.0661925264 0.0591139688
H 0.3923304256 2.7272257894 -2.6132327121
H -1.1914970605 3.661997447 -2.6633711451
H -2.4558014551 3.6453605599 -0.0846989806
H -2.9998436004 1.9536268639 -0.0318486555
H -0.5772361759 3.1100810316 1.48526247
H -1.4742396651 1.6396964573 1.9184125881
H 1.8021216665 1.8115879083 -0.8335363306
H 1.7669078079 1.8525507487 0.9518714302
H -0.5202925289 -0.5612732009 -0.8433442612
H -0.5594717045 -0.5530129697 0.9505230609

