# b3lyp 6-31G(2df,p) opt Freq 

 titel

0 1
C 4.5728796036 0.9621801921 -1.2042195872
C 3.0994154477 0.7379302324 -1.2599495808
C 1.9720011179 1.2407830105 -2.089973341
O 1.4448624003 -0.046748317 -2.4300819399
C 2.170699355 -0.5407252157 -1.2721723313
C 1.3995206261 0.0559946663 -0.0475949675
C -0.092278493 -0.2027103971 0.0604929657
O 2.0869985998 -0.2378716547 1.1620435221
C 1.9105640924 1.3988310246 -0.5585137766
H 4.9886628023 0.5883938009 -0.262594366
H 5.0890129362 0.4607964504 -2.0306215001
H 4.8016875873 2.03155482 -1.2668880289
H 1.8800093881 2.0535803006 -2.7990810333
H 2.4498532269 -1.5927106938 -1.3318591565
H -0.5412827436 0.4502266143 0.8154174717
H -0.576171243 -0.026876544 -0.9023127464
H -0.2877846177 -1.2427523935 0.353565959
H 1.8325555003 -1.1280797215 1.4293194861
H 1.8701385933 2.360467815 -0.0614294492

