# b3lyp 6-31G(2df,p) opt Freq 

 titel

0 1
C -4.0541723701 0.9723076555 1.2221680609
C -2.6591627372 0.3793635181 1.2023145475
O -1.6367703726 1.4179900978 1.1746502916
C -1.1808481818 1.0199568609 -0.1442508362
C -1.07523231 2.154870814 -1.1226672168
C -2.164024692 -0.2064170446 -0.1321654154
C -0.9759729368 -1.192621573 0.0172209673
C -0.0093637598 0.0129689919 0.0208288016
O 1.1778669708 0.1305761798 0.0888304931
H -4.1894936911 1.5913051742 2.1142044316
H -4.2289826822 1.5973716294 0.3409835482
H -4.805940894 0.1752694873 1.2380875708
H -2.5130647711 -0.2807262354 2.0677409547
H -0.7930447415 1.7886771854 -2.1150611415
H -2.0230683656 2.6951995015 -1.1999348423
H -0.3028953054 2.8553453401 -0.7885803468
H -2.8971081731 -0.4039054327 -0.9123333083
H -0.9635272211 -1.8303497342 0.9059721268
H -0.8088589853 -1.8237237362 -0.8620501171

