# b3lyp 6-31G(2df,p) opt Freq 

 titel

0 1
O 1.297628201 0.6369630794 -0.0862536011
C 0.3216857101 -0.1313925951 0.5966307389
C -0.9369902858 0.6772928345 0.9574072949
C -2.0322268589 -0.1977140088 1.5326626659
C -2.3246388267 0.0784691084 2.8043482284
C -1.5210649588 1.2406871286 3.3186656542
O -2.2592653706 2.4923999716 3.359983976
C -1.6298673817 2.942804685 2.1410819597
C -0.7053485137 1.7067630514 2.0833859283
H 1.6447474046 1.2931078744 0.5259181362
H 0.0525118744 -0.9427224007 -0.0879853034
H 0.7338766405 -0.5966381772 1.5063705018
H -1.2656748209 1.1708595864 0.0323383423
H -2.5002324809 -0.9807980009 0.9438386663
H -3.0680618438 -0.4319446253 3.4060183444
H -1.0199645218 1.0586589698 4.2758157434
H -2.3431514881 3.0202569094 1.3098743246
H -1.1352202016 3.9113599736 2.2782908702
H 0.3476302329 1.9369371254 2.261195919

