# b3lyp 6-31G(2df,p) opt Freq 

 titel

0 1
C 2.1364224742 -0.9930300118 2.5598881751
C 2.1870359099 -1.8710513568 1.2763469528
C 2.7254815463 -1.1861558846 0.0005048143
O 1.6237419321 -1.022823694 -0.8910731276
C 0.404648607 -0.9859133308 -0.1815579465
O -0.0288678413 0.3137767151 0.1557666048
C 0.424084817 0.677423142 1.4588421217
C 0.6558911551 -0.631235608 2.2465615894
C 0.6455695618 -1.7255155433 1.1431726518
H 2.2325122119 -1.5875623498 3.4712906509
H 2.8449029615 -0.1597221663 2.6130557356
H 2.5877916044 -2.8775007224 1.4023219237
H 3.1792716751 -0.2117085285 0.2330569471
H 3.4777574905 -1.7877380436 -0.5185938277
H -0.3530211158 -1.3971980061 -0.8523596149
H 1.3475275175 1.2710698593 1.3927988765
H -0.3474028237 1.3112098199 1.9064633251
H -0.047651204 -0.7435103786 3.0722972184
H 0.0267889205 -2.6079875517 1.2943717595

