# b3lyp 6-31G(2df,p) opt Freq 

 titel

0 1
C -0.1008747399 1.2616069375 -0.7714552767
C -0.0878520329 -0.1644240167 -0.1888888122
C 1.2691079443 0.2518049672 0.3986689127
O 1.1815840373 1.5605562235 -0.1778808287
C 1.7333888821 0.1897526375 1.8717026368
C 1.667198697 -1.3138326492 2.2027608529
C 2.3862746497 -1.8347886979 0.9110434171
C 2.6327850399 -0.4618437411 0.2560582938
O 3.1028853131 0.341893768 1.3831594051
H -0.0688425233 1.3314419228 -1.8648628166
H -0.8878366509 1.9247960087 -0.3942168821
H -0.8659363206 -0.382648345 0.5454476665
H -0.0498336686 -0.9741199591 -0.9204836547
H 1.435711166 0.9287578677 2.6152042458
H 2.2199023193 -1.542858184 3.1156945114
H 0.6448387868 -1.6868088981 2.3121067883
H 3.3267681092 -2.3447417294 1.1273843278
H 1.7631717929 -2.4970241545 0.3032012712
H 3.2478920284 -0.3841312979 -0.6401223284

