# b3lyp 6-31G(2df,p) opt Freq 

 titel

0 1
O 1.6466350299 0.4518941644 0.0510710655
C 0.2645211834 0.1892247999 -0.1084331859
C -0.0947374173 0.0811983694 -1.5846753308
O 0.3202460207 1.2936214055 -2.2497348165
C -0.8482176798 1.7687473964 -2.9913272067
C -1.4841352049 0.4455125927 -3.4402365257
C -1.606336051 -0.0393524682 -1.9679351595
C -2.3177448045 1.154479626 -1.3516085348
C -1.8669150781 2.2521363136 -1.9703022487
H 1.8323835103 1.2092664932 -0.5174007731
H 0.0615132775 -0.761068416 0.3987582176
H -0.3481419975 0.9693683329 0.3659186494
H 0.4643596846 -0.7576171491 -2.0221122516
H -0.5001272861 2.4739411689 -3.743741549
H -2.453146216 0.567462123 -3.9259327102
H -0.8151728322 -0.1605861578 -4.057416717
H -2.0355552299 -1.0245276416 -1.7891416677
H -2.9828724424 1.1037341713 -0.4988851948
H -2.0745739667 3.2866815355 -1.7305302004

