# b3lyp 6-31G(2df,p) opt Freq 

 titel

0 1
C -1.8031969256 1.2023716214 -2.2582572931
C -1.2705675074 1.9424742711 -1.0670306899
C -1.2716538864 3.4600193557 -0.9362627498
C -1.9347212306 2.6178706282 0.1079872438
O -0.9572299949 2.131486967 1.0368055981
C -0.2975454899 1.3987778455 -0.0180157717
C 1.2347782932 1.4638962818 -0.1258912289
O 1.3322605387 0.0242547667 -0.0780026357
C -0.0755608557 -0.1084768283 0.2058872394
H -2.1521110411 0.199092993 -1.9920195618
H -2.6475478987 1.7395028537 -2.7012426424
H -1.0385243005 1.0952801383 -3.0367752454
H -0.3689211033 4.0085931538 -0.680552854
H -1.934802203 3.9645801535 -1.6330892766
H -2.9627362345 2.6897511619 0.4427702142
H 1.6468192641 1.8805695914 -1.0528847274
H 1.709455826 1.9440438072 0.7391502828
H -0.5719691918 -0.8026865432 -0.4817896678
H -0.2711707588 -0.4119773287 1.2422002363

