# b3lyp 6-31G(2df,p) opt Freq 

 titel

0 1
O 1.6953976994 0.5795023331 -0.1647460112
C 0.5110419063 0.1810018719 0.5119890459
C -0.4830488628 1.3042412639 0.7039724696
C -1.9740375924 1.0176647472 0.6100849549
C -2.8454892804 2.0280860193 1.2860420655
C -2.7431876985 3.2262386541 0.7087599207
C -1.8165184603 3.2071891872 -0.4990408825
O -0.8321813855 4.2337966141 -0.4887013452
C -1.2724270025 1.7734015642 -0.4962782113
H 2.1269566972 1.256420202 0.3660257402
H 0.0677383333 -0.5997227856 -0.1155921997
H 0.7461960157 -0.2800225982 1.484371422
H -0.198146923 2.0438847699 1.4521346466
H -2.3041680807 -0.0092903511 0.4966460801
H -3.4426469787 1.7944098463 2.1607169915
H -3.2195904866 4.1420075772 1.0390497732
H -2.3786035398 3.393595175 -1.4226780872
H -0.2647458032 4.0781993 0.2742987025
H -1.0403989576 1.3048251196 -1.4449435955

