# b3lyp 6-31G(2df,p) opt Freq 

 titel

0 1
O -0.9602501463 0.5440202282 1.1341054832
C -0.2563005892 -0.0687951794 0.0624238697
C -0.5536831576 0.6088277432 -1.2798038561
C 0.1245494872 -0.0713071913 -2.4803668592
C -0.3958281412 0.3751026571 -3.8661266037
C 0.8487252538 0.6703478546 -4.6626749535
C 1.9700178492 0.5622266447 -3.941018776
C 1.646917598 0.176153755 -2.5494815181
O 2.4247907473 0.0792509875 -1.6253740876
H -0.5367214892 1.3886584512 1.3151234939
H 0.8245947806 -0.0944709061 0.2409049952
H -0.6085580582 -1.1069560462 0.031196003
H -1.6401007496 0.6114532423 -1.4275850891
H -0.2416578765 1.6618340502 -1.2336601483
H -0.0029529684 -1.1582443928 -2.3825098298
H -1.0168481039 -0.3847759985 -4.3545362173
H -1.0219166571 1.2745270259 -3.7933458896
H 0.80362452 0.9557143681 -5.7087868983
H 2.9841675209 0.7464649364 -4.2713145384

