# b3lyp 6-31G(2df,p) opt Freq 

 titel

0 1
C -0.9733819721 0.0736110016 2.437713733
C -1.411892388 0.0743002181 0.9826925632
C -0.6781954265 0.9929810236 -0.0558155558
C -1.2734989195 0.0293245993 -1.1411591743
O -0.7459456516 -0.033357981 -2.4308771951
C -0.7979112453 -0.9744246126 -0.0213801428
C -0.8887647544 -2.4719837812 -0.0117421139
C 0.4415927731 -0.0578937167 0.0089957485
O 1.6339106312 -0.1360842075 0.0015599011
H -1.4061613993 -0.7784964019 2.9726175043
H 0.1152183187 0.0148993218 2.5382954305
H -1.3076168921 0.9847934014 2.9446007178
H -2.5014035314 0.1381440943 0.8898823573
H -0.6241329519 2.0789312548 -0.0756665084
H -2.3590127132 0.092581338 -1.2424736902
H 0.2177570358 -0.0549251703 -2.3881745199
H -0.3938834991 -2.8937818142 0.8690137476
H -1.9310406854 -2.8075214241 -0.0097952492
H -0.4034687189 -2.8899071533 -0.8996571538

