# b3lyp 6-31G(2df,p) opt Freq 

 titel

0 1
C 1.4048856997 -0.0720726243 -0.1084100088
O 0.0171461079 -0.117623019 0.1503152667
C -0.4296792255 0.6340321184 1.2492033702
C -1.9323413838 0.9452179996 1.105510183
O -1.6982692966 2.3673174839 1.0301222409
C -0.2694773884 2.1888388368 1.2290333445
C 0.2008499063 2.5328017129 2.6114580278
C 0.3627373236 1.44269412 3.3650725098
C 0.0532547762 0.1557076358 2.6386202259
H 2.003304095 -0.5079513693 0.7038584914
H 1.5728879273 -0.6595507774 -1.0138208527
H 1.7560987191 0.9544447637 -0.284198063
H -2.3674233782 0.5480129058 0.1823675712
H -2.5602480044 0.6734607145 1.9629223241
H 0.2947388196 2.6574354168 0.4153484662
H 0.362161781 3.5528635247 2.9411138965
H 0.6827842521 1.4510050673 4.4021852463
H 0.9343790351 -0.4929330364 2.5628473263
H -0.7140450959 -0.4364999539 3.1525116335

