# b3lyp 6-31G(2df,p) opt Freq 

 titel

0 1
C -0.1172664038 0.1913456988 0.2941659213
C 1.3901391689 0.0057843282 0.087680447
O 1.5977388293 -1.3503459557 -0.2555129536
C 2.175090865 0.4698080065 1.3061639028
C 2.7810131216 1.6389742979 1.108978754
C 2.5555767893 2.1719663048 -0.2903970322
C 1.968774062 0.9545206123 -0.9936420475
C 1.6069579814 0.8595951354 -2.4056191305
O 2.8417810653 0.2961846214 -1.9298584301
H -0.4566944722 -0.4384672898 1.121866072
H -0.3617751535 1.2308247023 0.5313662604
H -0.6618528305 -0.1088690207 -0.6056203296
H 2.3694369997 -1.3598177451 -0.8399027586
H 2.1741671166 -0.10736284 2.2236252581
H 3.3581677428 2.1828922953 1.8482964285
H 1.8588255972 3.0213552641 -0.2933016169
H 3.4717034295 2.5038817058 -0.7899563706
H 0.8618516407 0.1299955137 -2.7187161074
H 1.7186398707 1.7232121449 -3.0594110371

