# b3lyp 6-31G(2df,p) opt Freq 

 titel

0 1
C -2.5528754222 2.2067716965 -1.4590858057
C -2.4300754187 2.0830335364 0.0445736759
O -2.7884331236 3.2988438994 0.7722285403
C -1.5734838927 3.2304115844 1.5152259413
C -0.3903113772 3.399814789 0.6165944581
C -1.0596042872 2.0381995713 0.7397136138
C -0.351142503 0.7755400607 1.1561478737
C 0.3530645028 0.1283930345 -0.0231077891
O 0.1528044912 -0.9932339053 -0.4108823947
H -2.2888123124 1.2564883655 -1.9356991639
H -3.5843997545 2.4483559338 -1.7338734869
H -1.9020060835 2.9906600684 -1.8550098547
H -3.0598002066 1.260778504 0.411205219
H -1.6064312838 3.4547321983 2.5753511041
H -0.4805854948 4.0042717994 -0.280920007
H 0.5708551168 3.4667717382 1.1183319203
H 0.4120669944 1.0160033865 1.9093363542
H -1.0421912545 0.0460810689 1.5906795014
H 1.0839263993 0.7941938802 -0.5371594203

