# b3lyp 6-31G(2df,p) opt Freq 

 titel

0 1
C 0.3986874266 0.8450055512 -1.2993597807
C 0.0161235497 -0.2571698031 -0.2926848418
C 0.9667820357 0.4838661723 0.6528819051
O 1.2348824559 1.5066305053 -0.3215985938
C 0.6760024006 0.9771827137 2.1047416597
C 2.2253608292 1.1422865895 2.2285625601
C 2.1937976795 -0.1410935072 1.3666020736
O 1.5828484428 -1.1243177338 2.2152139025
C 0.4809667754 -0.3755397947 2.7928161642
H 0.9786494016 0.513473687 -2.1684584117
H -0.4157362833 1.4945019765 -1.6387080454
H -1.0320475823 -0.2604434798 0.0150711283
H 0.3173536182 -1.2742977255 -0.5475409987
H -0.0326705122 1.7766458903 2.3163738123
H 2.5945685618 2.010559358 1.6836590691
H 2.6754726566 1.0656182122 3.2208519712
H 3.0510809674 -0.5681340618 0.8488654893
H -0.4698804044 -0.8626649259 2.5455616488
H 0.5851369013 -0.3337459642 3.8834553678

