# b3lyp 6-31G(2df,p) opt Freq 

 titel

0 1
O -2.061649417 -0.9316768967 2.3290560661
C -1.0744587425 -0.1493132386 1.6822172206
C -0.9993994 1.2822181227 2.2466175832
C -0.0001782657 2.1317295568 1.5253295763
C 1.1900121566 2.586367214 1.9437555834
C 1.925643675 3.4150656377 0.9204519563
C 0.9780755504 3.4347385264 -0.2941604536
C -0.2379980132 2.6013668246 0.1320213881
O -1.2167653635 2.3684726872 -0.5413971582
H -1.7984942861 -1.0398908575 3.2485711286
H -0.0810382152 -0.6220791001 1.7390350081
H -1.3632448924 -0.105204441 0.629149432
H -1.9965116546 1.7260874777 2.1495314594
H -0.7554492001 1.2394347138 3.3156834703
H 1.6098560328 2.3974757808 2.927535697
H 2.1355533275 4.4196048067 1.3075598506
H 2.9022246211 2.9736694336 0.6866303648
H 0.6494903828 4.441900539 -0.5664654249
H 1.4206278442 2.995544423 -1.192923898

