# b3lyp 6-31G(2df,p) opt Freq 

 titel

0 1
C 0.5541890645 -0.6915266063 -0.9958685114
C 1.1046392813 0.5868290634 -0.3597964719
C 1.0842400132 0.5329444844 1.1682190635
C 1.6477464356 1.7793036634 1.8154161782
O 2.1556808206 2.7062693853 1.2397672526
O 1.5002428383 1.716566995 3.1643256077
C 2.0430061403 2.8229025706 3.9118259705
C 3.4228397792 2.5830900775 4.3125322848
C 4.5569391597 2.390667387 4.6574629448
H 1.1406673138 -1.5688032619 -0.700356648
H -0.4838611619 -0.8728851829 -0.6951475794
H 0.577529214 -0.628974294 -2.0878464272
H 2.1310713206 0.7662810376 -0.6958619289
H 0.5258610008 1.4542238389 -0.6954904536
H 0.068225412 0.3803710367 1.5521645657
H 1.6651408198 -0.3206726839 1.5413318105
H 1.9737875165 3.7316229087 3.3078444203
H 1.3981880673 2.9203877525 4.7893486617
H 5.5631325044 2.225865278 4.9548060801

