# b3lyp 6-31G(2df,p) opt Freq 

 titel

0 1
O 1.6720084017 0.6087832039 0.1184024442
C 0.3478244145 0.1718573103 -0.1109935764
C 0.0592694549 0.1095564685 -1.6008278529
O 0.3021786954 1.4168678284 -2.1911827796
C -1.0556523733 1.4617008928 -2.7211612982
C -1.1380761206 1.1804670839 -4.1953593967
C -1.5422404758 -0.0670458181 -4.4368516374
C -1.8306275606 -0.8563883928 -3.1787581416
C -1.4181708594 0.1099515111 -2.0521405689
H 1.77238046 1.4156308991 -0.4025651125
H 0.249153512 -0.8223867512 0.3402488172
H -0.3865068825 0.8374935415 0.373085541
H 0.689341004 -0.6532119135 -2.0778738408
H -1.5602976916 2.3812787412 -2.4058830587
H -0.8777618872 1.9172761395 -4.9463725038
H -1.6649862996 -0.4994971624 -5.4245959079
H -2.890843359 -1.1330099384 -3.1152308248
H -1.2683038771 -1.7988485485 -3.1469403494
H -2.1291471159 0.1471243747 -1.2254014627

