# b3lyp 6-31G(2df,p) opt Freq 

 titel

0 1
C -0.2843605794 -0.4819406168 0.7729661703
C 1.1522381371 -0.1342355453 0.5146598493
C 1.622145227 0.5741935898 -0.7500662115
C 1.922686096 1.2113824216 0.560477747
O 1.4735558065 2.4921016068 0.8100248176
C 3.1373625632 0.5484818121 1.2223761487
C 2.3642142563 -0.7850246978 1.1419213214
C 2.4357877895 -1.9307354392 2.046864592
O 2.9363445382 -2.0110703654 0.7035605509
H -0.4762840455 -0.6280641802 1.8421328228
H -0.9440091517 0.3180337183 0.4212926023
H -0.5759833333 -1.4024365794 0.2536524092
H 2.4076691265 0.1534861744 -1.3734462641
H 0.8199984492 1.0594532885 -1.2977478453
H 1.3872527434 2.6040493456 1.7635765813
H 4.0883192295 0.600816651 0.68264802
H 3.2923379746 0.8741551685 2.2566627903
H 3.1920152644 -1.9546151795 2.8316590053
H 1.5458891783 -2.5270854029 2.2469379225

