# b3lyp 6-31G(2df,p) opt Freq 

 titel

0 1
C 3.1130116651 -2.2031360344 0.9300972153
C 1.8165236716 -1.5122590092 0.4978735403
C 1.8649959592 -0.9839956766 -0.9319145296
C 0.5512733978 -0.3612042617 -1.5035557286
C 0.6575386556 -1.3003709785 -2.7063975582
O 0.0735709203 -1.4219630817 -3.7399647649
C 1.8848058949 -2.0360965836 -2.0779421712
C 3.0986710712 -2.1223096589 -2.9661882308
O 4.0986866739 -1.4676253319 -2.8120986836
H 3.0417757325 -2.5683294874 1.9589586387
H 3.3424100204 -3.0610913207 0.2886831992
H 3.9635772326 -1.5163551986 0.873227664
H 0.9719772608 -2.2085558848 0.5993139394
H 1.6015571288 -0.6758302213 1.175150097
H 2.7140568904 -0.3061451671 -1.0553309364
H -0.3417035142 -0.5722155574 -0.9038423907
H 0.5578335979 0.7049458732 -1.7466423699
H 1.5871444852 -3.0506465889 -1.7809487082
H 2.996060476 -2.8295662405 -3.8168159417

