# b3lyp 6-31G(2df,p) opt Freq 

 titel

0 1
O 0.5046442438 10.0740318502 -3.0248398997
C 0.2169433429 8.8101854442 -2.4408933478
C 1.561967109 8.1188109183 -2.2576398267
O 1.68935471 7.0177182109 -1.7894199282
C -0.6997710654 7.972521537 -3.3295726612
C -2.2464728539 8.2278724627 -3.3778334126
C -2.3587083187 6.8135748 -4.0182025304
C -1.3678170788 6.6552660253 -2.825440092
C -2.3668703154 7.5186850567 -1.9980497006
H -0.3312287801 10.5070200879 -3.2222858001
H -0.2085811176 8.9311338662 -1.4333555295
H 2.4275994109 8.7281550921 -2.5994896385
H -0.2361784515 7.8905696262 -4.319700558
H -2.7577247977 9.1365686922 -3.7040562411
H -3.3247486601 6.312647371 -3.9170115414
H -1.9445947173 6.6925195058 -5.0228175485
H -0.8517703576 5.751567417 -2.5062734472
H -3.3341012697 7.0571377442 -1.7828693419
H -1.9883045427 8.036614652 -1.1155623546

