# b3lyp 6-31G(2df,p) opt Freq 

 titel

0 1
C 1.5445602868 0.0208046736 -0.0247508222
C 0.0900452645 0.0309262599 -0.0066058535
C -1.1144126936 0.0341029923 0.0018836338
C -2.5509617384 0.0452202647 0.0396110256
O -3.2479280347 -1.0118684201 -0.6503397543
C -3.3705522711 0.3170239073 -1.1602964839
C -4.7367914871 0.9507337581 -1.0817602258
C -5.6920893654 0.3898658888 -2.1427862054
O -6.9618532335 1.0201084536 -2.1211176748
H 1.9547317747 0.1407498831 0.9838374918
H 1.9244149454 -0.9245850936 -0.4273339628
H 1.9425357825 0.830621073 -0.6460790868
H -2.9910297351 0.2942889652 1.0054811093
H -2.8260457257 0.4771187168 -2.0926771613
H -5.1566370379 0.7770452264 -0.0829580006
H -4.6501792559 2.0352866968 -1.2193126892
H -5.2863976258 0.5751061202 -3.1436287331
H -5.7760727428 -0.700153344 -2.0220508478
H -7.3946705468 0.7822577478 -1.2950431089

