# b3lyp 6-31G(2df,p) opt Freq 

 titel

0 1
O 1.1866352918 0.0230465565 0.208290723
C -0.0036563607 0.0184573564 0.0014071612
C -0.8437475484 1.2821679753 -0.0705010876
C -1.8909108941 1.2430432127 -1.1996749145
C -2.7481880411 -0.0270225509 -1.1231804153
C -1.8710714044 -1.2850123825 -1.209658156
C -0.7961086578 -1.278726977 -0.1426981276
C -0.2035522323 -2.5047598959 0.3911765206
O -1.1866684251 -1.7873555032 1.1523465634
H -1.3664787405 1.3532974196 0.8949303505
H -0.1740793483 2.1423116106 -0.1455695661
H -2.5205327303 2.1367811001 -1.1423213242
H -1.3814094036 1.2824983241 -2.171563207
H -3.3042589355 -0.0403001877 -0.1772654786
H -3.4900544148 -0.033802828 -1.9282516232
H -2.469743013 -2.1951400518 -1.1025022985
H -1.3873044515 -1.3264038693 -2.195556378
H -0.5358209796 -3.4652688135 0.0002001884
H 0.8080982792 -2.4699619754 0.7866570797

