# b3lyp 6-31G(2df,p) opt Freq 

 titel

0 1
O 0.3590258302 0.3331339727 0.6973565321
C 0.1376576452 1.7300307736 0.517876048
C -1.3653604481 2.0670033887 0.514039906
C -1.872790418 2.1001873175 1.9386479242
C -3.1579390246 1.5052888799 2.3145797951
O -1.9386566031 0.7968712919 2.5682433281
C -1.2144916035 3.166064749 2.7901566926
C 0.2779658546 3.1827553934 2.5628071992
C 0.8773092253 2.5420902667 1.559404603
H -0.125498512 0.0752339817 1.4919888102
H 0.5555834298 1.9502177983 -0.4713173172
H -1.5254532682 3.0477013353 0.049497864
H -1.8982298922 1.3162993971 -0.075912088
H -3.6776327812 1.8556733456 3.2057664201
H -3.7989270634 1.0748586368 1.5460015623
H -1.6458026824 4.1521353027 2.5609338556
H -1.4349601848 2.9700192903 3.8455722683
H 0.8709021939 3.7454500489 3.2799992307
H 1.9604552129 2.55512312 1.4733644355

