# b3lyp 6-31G(2df,p) opt Freq 

 titel

0 1
O 0.4685288694 0.5743948268 0.6927675934
C -0.8744508892 0.2773601372 0.5464456864
C -2.0439343514 0.4697799937 1.5502326453
C -2.6859330854 -0.0526722655 0.2357007188
C -1.5196044247 -1.0876077291 0.1299281476
C -1.1833235306 -1.6213975937 -1.2547718971
O -1.6683093364 -0.7697965184 -2.2772190008
C -1.4438702217 0.6014123859 -1.9950340833
C -1.7559487768 0.937363799 -0.5435132521
H 0.8301797383 0.0294390649 1.4001897222
H -2.0754156671 -0.2088394995 2.4084923549
H -2.279403381 1.4992386952 1.8338993269
H -3.7411052556 -0.2400908727 0.0542051597
H -1.500376591 -1.8698178426 0.8969827875
H -0.0906050406 -1.7598797346 -1.3421153194
H -1.6546612825 -2.5948487407 -1.4259232059
H -0.4030926835 0.8868914434 -2.2262720848
H -2.0997052109 1.1574460093 -2.6727539962
H -1.9549844193 2.0033134813 -0.3944588729

