# b3lyp 6-31G(2df,p) opt Freq 

 titel

0 1
O -0.4863373891 0.0603584617 0.4571594609
C -1.7798986017 0.4508138315 0.824552834
C -2.6019586584 1.0649844779 -0.3305968539
C -3.7418050148 0.0292606123 -0.0683001009
C -2.8939922233 -0.6324400603 1.0586296905
C -3.1637335379 -0.3145467374 2.542586769
C -3.3103901725 1.2219764127 2.611501584
C -1.825320413 1.0842012226 2.2346789279
O -1.7827452345 -0.1472470575 3.0432848005
H -0.1343650934 -0.4403530499 1.2047812079
H -2.8633517489 2.1214546269 -0.2260856939
H -2.0998231054 0.922056377 -1.2889836042
H -4.6968079803 0.4519133196 0.2530724456
H -3.9357732649 -0.6330842236 -0.9139279447
H -2.6094124019 -1.6726076379 0.896162304
H -3.7643582771 -0.9979052293 3.1426600844
H -4.001015163 1.7416156673 1.9456851167
H -3.4265544421 1.5641805927 3.6401294001
H -1.0577041378 1.8154089936 2.4897276222

