# b3lyp 6-31G(2df,p) opt Freq 

 titel

0 1
C 1.1711306338 3.8977041666 0.6799810388
C 0.4407298649 3.4314735886 -0.6319341924
C 0.8526567723 1.9602598134 -0.5375832232
C 0.5144086897 0.76707021 -1.3913342458
O 0.4146806892 -0.3325106629 -0.480687656
C 0.8862029188 0.0495926896 0.8241267227
C 0.6233483685 1.5512327129 0.936502757
C 1.8051057878 2.5353086422 1.0651102025
O 2.2923908866 2.0735886394 -0.2291672879
H 1.9402813691 4.6486857355 0.4899944847
H 0.4846245104 4.2839908593 1.4385822745
H -0.6425564842 3.5736521416 -0.5999208009
H 0.8353903469 3.9159775471 -1.5272508634
H -0.4467306772 0.8855572472 -1.9070336713
H 1.2964230854 0.584682117 -2.1400334461
H 0.3230886337 -0.5415863774 1.5509809863
H 1.9535861102 -0.1807752413 0.9260582346
H -0.3273674696 1.8069318843 1.4111462633
H 2.5474046035 2.5076857567 1.8635334429

