# b3lyp 6-31G(2df,p) opt Freq 

 titel

0 1
C 3.5866764353 -0.7302919562 0.8854617295
C 3.1867266823 0.3253524978 1.902538243
C 2.7282632843 -0.3698633693 3.1787181638
O 1.8035392724 -1.2173997714 2.4377025211
C 2.144159921 -0.5354180471 1.2227394073
C 1.0369684868 -0.2706188321 0.2568582697
C 0.0249282831 0.8534041287 0.5829103889
C 0.5321551288 1.4883793457 -0.7261046959
O 1.51090092 0.438603571 -0.9105015093
H 3.8824003464 -0.3282010497 -0.0772551019
H 4.0942686349 -1.6386557282 1.1999988849
H 3.4248413647 1.3745491458 1.7922322678
H 3.4695958405 -0.956247223 3.7346969332
H 2.1791286699 0.2810851151 3.8681902561
H 0.5658157418 -1.2268214577 -0.0150082653
H -1.0244729178 0.5586437873 0.598205841
H 0.2603430105 1.4123735598 1.4894894315
H -0.1938609728 1.5101647317 -1.5478814191
H 1.0041077777 2.4740918416 -0.6438184763

