# b3lyp 6-31G(2df,p) opt Freq 

 titel

0 1
C -0.1823191742 0.0406188588 0.0662240708
C 1.3407716669 0.0336667408 0.1791407755
C 2.1381698728 -0.2096884583 1.5236586393
C 1.8456565627 1.2607755503 1.948977832
O 0.6046155407 1.6367948208 2.4861422213
C 2.1669582513 1.3524366301 0.4086203124
C 3.3220547599 0.408678592 0.7642377711
C 4.7542372929 0.5269827454 0.9817684535
O 4.196164287 -0.2417842609 -0.1176217077
H -0.6616793032 0.8561123751 0.6089752181
H -0.4660837871 0.1546502281 -0.9854855754
H -0.6071201295 -0.9109367325 0.4074355705
H 1.7490965776 -0.5772437326 -0.6312767054
H 2.142101429 -1.1003000556 2.1544163216
H 2.6109841716 1.7234865278 2.5804948536
H -0.0045459647 0.8979077593 2.428222468
H 2.1979798455 2.2426958716 -0.2190820122
H 5.2833103712 1.4310266533 0.6845491076
H 5.2458219497 -0.0665174536 1.7510220353

