# b3lyp 6-31G(2df,p) opt Freq 

 titel

0 1
O 1.3068891349 -0.42967979 0.4450130163
C 0.1395499097 -0.2905828753 0.175459531
C -0.6613002288 0.9297258133 0.5547081105
C -1.8121233348 1.4742710723 -0.3514561436
C -1.4674912093 2.8791500455 0.2107573038
C -0.0228121876 2.3411935232 0.3837350151
C 0.6887604796 2.3665147879 -0.976919509
O 0.0700657156 1.4696210177 -1.8983188526
C -1.3485365661 1.4125700336 -1.8145928531
H -0.4296691542 -1.0956700196 -0.3447160239
H -1.0259061921 0.7924572744 1.5797149594
H -2.826776711 1.0892151892 -0.2295428434
H -1.6111519454 3.7344930469 -0.4576999
H -1.9556772404 3.0779959124 1.1681909068
H 0.6081763833 2.7485618833 1.1749042991
H 0.6959416342 3.3922042038 -1.378667547
H 1.7210526709 2.0190277984 -0.8865275631
H -1.8127864355 2.2324131195 -2.386934622
H -1.632451393 0.4695802535 -2.2928531343

