# b3lyp 6-31G(2df,p) opt Freq 

 titel

0 1
C 1.385314214 2.5276261653 0.9266153082
C 1.6953115858 1.0972717217 1.2418680429
O 0.7772578265 0.3559480778 2.0590108596
C 1.066774687 -0.1310880431 0.7402562102
C -0.0620818974 -0.3010175547 -0.2283563991
C 2.3292963639 -1.0546658387 0.7227146319
C 3.3633918221 -0.132344374 0.0145035826
C 3.1617869342 0.5723301307 1.3872202295
O 2.9778334252 -0.7379186966 1.9801957488
H 1.5595999286 3.1629260249 1.802220897
H 2.0242100721 2.8950703279 0.1159105435
H 0.3407773825 2.6478370935 0.6276325873
H -0.6634694756 -1.1799787259 0.0293778535
H -0.7218818681 0.5704878313 -0.2215398652
H 0.3165489353 -0.4433100208 -1.246604754
H 2.2163777934 -2.120390074 0.5240587961
H 4.3465009596 -0.5954678579 -0.0831493984
H 3.0699891333 0.3915086244 -0.9005325736
H 3.9117655177 1.1930502884 1.8773459792

