# b3lyp 6-31G(2df,p) opt Freq 

 titel

0 1
C 1.4526881423 0.0751761285 0.0618701345
O 0.0396656137 0.1194726268 0.1012850355
C -0.4511504387 0.6970767062 1.2702215619
C -1.8395573064 0.2497665717 1.6059002265
C -2.4506815192 0.9145947364 2.8681763009
C -1.5022638116 1.8599474796 3.5961048919
C -1.2819847495 0.3902469931 3.6992249433
O -1.2268118119 -0.2082079835 4.9422716866
C -0.6634255491 -0.262498842 2.4274822731
H 1.8635810162 -0.5247849754 0.8862410195
H 1.7333723034 -0.3807856622 -0.8902170753
H 1.8900322556 1.0835353491 0.1166553102
H -0.1089142107 1.7198935333 1.4245484986
H -2.4243142933 -0.2953710613 0.8763871905
H -3.5134961279 0.9236651018 3.0738245802
H -0.8313396624 2.5516105612 3.0983755432
H -1.9483890757 2.2665186586 4.4993033968
H -1.5833063133 -1.1006328646 4.8624043038
H -0.2212744414 -1.2513265674 2.4183952482

