# b3lyp 6-31G(2df,p) opt Freq 

 titel

0 1
C 0.7512704214 -0.3116355973 0.9225597613
C 0.7864059856 0.3464778455 -0.4653436104
C 1.6413176506 -0.4296785368 -1.4300301402
C 3.1620448656 -0.2345433406 -1.682375174
C 3.7983150618 1.0571606651 -1.2181042339
C 2.2005375493 -0.2067013624 -2.8167235278
O 1.8921320665 -1.5720895995 -3.2128316012
C 1.298373131 -1.7956130067 -1.9752337879
O 0.7024653871 -2.7629817729 -1.624534923
H 0.3832025858 -1.3386616754 0.8507580678
H 1.7499565796 -0.342745803 1.3699630853
H 0.0942950717 0.2435635277 1.5983253053
H -0.233024191 0.4138869788 -0.8640582854
H 1.1541802816 1.3745276982 -0.3841737688
H 3.798782243 -1.1135764338 -1.6140272168
H 4.0021003582 1.0376472968 -0.1428615206
H 4.7492241148 1.2130363385 -1.7372324849
H 3.1635907708 1.9241581878 -1.4232940319
H 2.0364540767 0.57267842 -3.5481421127

