# b3lyp 6-31G(2df,p) opt Freq 

 titel

0 1
O 0.4312518262 0.6371360538 0.2430864942
C -0.8383699767 0.4608030497 0.7572378184
C -1.4442924761 0.7024891937 2.1440113694
C -2.2874725453 -0.5619615035 2.0243069841
C -1.7544058184 -0.7595596887 0.555997092
O -2.7078964573 -0.6926990574 -0.4846733903
C -3.0289216197 0.6256245172 -0.9195114073
C -3.0737005631 1.6551265739 0.2188243282
C -1.7430736998 1.6295245995 0.9679876752
H 0.9860254777 -0.0909859886 0.5447692933
H -0.9727602638 1.084194952 3.0410048187
H -1.9553630703 -1.3642524534 2.6884297474
H -3.3724277098 -0.4577693506 2.1112489184
H -1.2209697427 -1.706597125 0.4321051193
H -2.2845936143 0.9600825538 -1.6588235672
H -3.9945831656 0.5444611857 -1.4275821307
H -3.2458478505 2.644652515 -0.2166408228
H -3.9193086906 1.4533976463 0.8856932999
H -1.2021492799 2.5683631466 1.0361034698

