# b3lyp 6-31G(2df,p) opt Freq 

 titel

0 1
O 1.2669649968 0.1256808259 0.5503933508
C 0.1171109454 0.0697610526 0.2273630483
C -0.853844543 -1.0932222943 -0.0462781715
C -2.0204375077 -0.0529397889 -0.0178920886
C -0.9860185693 1.1179733545 0.0172668525
C -2.9700699683 -0.0761309039 -1.1926263088
C -4.1182814514 -1.113046963 -1.198977399
C -5.0368074106 0.1213249781 -1.2896421753
O -3.9148771666 1.0206182221 -1.1590085643
H -0.6866391062 -1.5326634691 -1.0371185523
H -0.8605953967 -1.8988350955 0.6917291686
H -2.5900260646 -0.107246848 0.9139491477
H -0.8832699482 1.6349926319 -0.9437328556
H -1.0904539506 1.8713032314 0.80132351
H -2.3931602078 -0.0571841814 -2.1313070716
H -4.1438331176 -1.8003356181 -2.0453251062
H -4.2092113984 -1.681406087 -0.270878328
H -5.5500109518 0.2479544725 -2.2513193024
H -5.7641011734 0.2541523603 -0.4806972241

