# b3lyp 6-31G(2df,p) opt Freq 

 titel

0 1
C 0.9621071935 -0.5264494661 0.7691186864
C 1.2371494763 0.2214418997 -0.5477741194
C 1.9870467637 1.4959307347 -0.3569160954
C 3.2517211641 1.9069354935 -0.6799068661
C 4.3157325848 1.1218712093 -1.3952800931
O 3.8354041666 0.3997773994 -2.5263608019
C 3.3665188584 3.25644511 -0.1959412278
C 2.1781882927 3.5593039203 0.3815895369
O 1.3268300865 2.5030266528 0.2887024001
H 0.3853389899 0.0967979171 1.4583700607
H 0.3940403221 -1.4424093833 0.5803861836
H 1.897199351 -0.8016929175 1.2664730135
H 1.8197949933 -0.401035377 -1.2313372141
H 0.2818420617 0.4358025598 -1.0446232094
H 5.1332177019 1.802420714 -1.6790708318
H 4.7549603964 0.3593986022 -0.7417593551
H 3.3501768535 1.0251169418 -3.0753985549
H 4.2278988831 3.9021315444 -0.2771288976
H 1.7871460104 4.4360053551 0.8707665254

