# b3lyp 6-31G(2df,p) opt Freq 

 titel

0 1
O 1.3371701074 0.8883418804 0.1305058623
C 0.3679122308 -0.0438781715 0.5751909532
C -0.8526165899 0.6612909741 1.1174127813
C -2.1784436162 -0.0968121995 1.3732094717
C -2.775169527 1.1995874748 0.782669436
C -2.91761685 2.3041019216 1.8408595029
C -1.6154400899 2.416607077 2.6074473391
C -0.6004758832 1.6241832837 2.2655802329
O -1.5336337829 1.4202030133 0.0502978383
H 0.8847428218 1.4808684988 -0.4815505904
H 0.0600318629 -0.7261302739 -0.2316196221
H 0.8394395916 -0.6409881178 1.3642960838
H -2.3079840985 -0.9421243946 0.6936261005
H -2.421610689 -0.3760234943 2.3993837588
H -3.6387245526 1.1295419217 0.1162478578
H -3.1598892518 3.2582436828 1.3545984884
H -3.7547675044 2.0786862011 2.5156009147
H -1.5375545921 3.1500125537 3.4046715233
H 0.3683004031 1.6453332086 2.7516652076

