# b3lyp 6-31G(2df,p) opt Freq 

 titel

0 1
C 1.4694649353 -0.0552304206 -0.0969251123
O 0.0543192661 -0.0109485915 0.0301064428
C -0.4212436188 0.5840214142 1.166933522
C -0.0163454961 0.1111289265 2.5837192827
C -0.9072964318 1.1956065826 3.2369540932
C -0.2802845467 2.4457229701 2.5377107694
O 0.0003256971 1.994865711 1.214027555
C -2.2263691113 0.9465714827 2.5200787638
C -1.9350477372 0.5841215407 1.2675456062
H 1.9206162206 -0.7114936815 0.6593118245
H 1.6762214134 -0.4647807198 -1.0873276978
H 1.905045417 0.9448571326 -0.0137897135
H -0.345811718 -0.9051984824 2.8016369405
H 1.050322201 0.2294479703 2.791828834
H -0.9349878426 1.2506594776 4.3244172069
H -0.9673634594 3.2993442554 2.5100505779
H 0.6500172425 2.7535192262 3.033110564
H -3.2036204619 1.1516375435 2.9383419459
H -2.5927875092 0.4250715923 0.4240646149

