# b3lyp 6-31G(2df,p) opt Freq 

 titel

0 1
C -1.3890619745 -0.9573716969 -0.0082173912
C -0.5425742478 -0.7565774001 -1.2335158357
C -1.0235524103 -1.1303810521 -2.6248961079
C -0.586557833 0.2729217106 -2.3818695488
O -1.4598945987 1.3051141829 -2.6577334404
C 0.9356800663 0.3684277248 -2.4057464997
C 1.0056814692 -0.7260627395 -1.2739671516
C 1.6445712939 -0.1889680921 -0.0223949673
O 2.5089832845 -0.7393054701 0.6092702426
H -1.3635985298 -2.0005723784 0.3284392638
H -1.0584896047 -0.3333890492 0.8294425718
H -2.4326855026 -0.7031948324 -0.2194584901
H -0.4531421981 -1.8038619659 -3.2622292628
H -2.1009581569 -1.2423259329 -2.6986078748
H -1.2249914756 2.0600064283 -2.1060795932
H 1.4404282341 0.1323516861 -3.3475505863
H 1.3023653973 1.3364722202 -2.0451208895
H 1.4909810882 -1.6677321096 -1.5457452892
H 1.2545537585 0.8100578763 0.2932040603

