# b3lyp 6-31G(2df,p) opt Freq 

 titel

0 1
C 2.1614882892 1.3418062635 0.0696312305
C 1.3050923882 0.0810712838 0.028247996
C -0.1919634135 0.3917786343 0.1110389732
O 1.6824115936 -0.7515000629 1.1623141264
C 1.7653788681 -2.0783667066 0.7152873301
C 2.7259891376 -2.3798144333 -0.4244534932
O 3.0574644402 -1.1632138874 -1.0923324397
C 1.6321356718 -0.835905291 -1.1595805741
C 1.243485911 -2.2539688786 -0.6825404951
H 2.0048339408 1.8686109044 1.0150565755
H 3.2159428542 1.0776795145 -0.0192319257
H 1.8917960152 2.019267677 -0.7472501942
H -0.40773449 0.9148739364 1.04670292
H -0.5105629613 1.0287847202 -0.7207440963
H -0.785604516 -0.5269770226 0.0921044722
H 1.5921829779 -2.8204975695 1.485732614
H 3.4217738766 -3.2085091938 -0.4881624622
H 1.3366502585 -0.4792344531 -2.1468768982
H 0.4793013979 -2.9215900254 -1.0550012994

