# b3lyp 6-31G(2df,p) opt Freq 

 titel

0 1
O 0.4843208517 0.5058534929 0.551999238
C -0.6470294265 1.0528160096 1.1576991746
C -1.7107590896 1.6645993259 0.2600805626
C -3.1480447755 1.8683830704 0.7533497577
C -3.0915494874 2.9072942678 1.8814118635
C -2.3778957889 2.5678812947 3.1652981852
C -1.6461292912 3.3203031043 2.0800126611
C -0.8004972589 2.5547519317 1.0794247051
O 0.2350563399 3.2478095814 0.4307026263
H 0.9284550514 1.2412612963 0.1069703105
H -0.9256343799 0.496152459 2.047112054
H -1.5328074295 1.5412061532 -0.8037280505
H -3.7548706795 2.2604524652 -0.0693580151
H -3.6185328989 0.9315994588 1.0746933154
H -3.890867166 3.6385073372 1.9305710024
H -2.6603373795 3.1299798159 4.0494689454
H -2.112642711 1.5377388058 3.3761672327
H -1.3604283095 4.3527002985 2.2484354694
H 0.8998891188 3.4682285913 1.0947153818

