# b3lyp 6-31G(2df,p) opt Freq 

 titel

0 1
C 1.1114659593 1.2504030725 0.2336457835
C -0.1028253385 0.3974168589 0.0924074164
C -0.3228659864 -0.8822580906 0.4063291513
C -1.8183771062 -1.1041780503 0.1835643503
C -2.3747322643 -2.4887130764 0.0162039937
O -2.4925757452 -0.418885644 1.2859506937
C -2.3286209917 0.967064381 0.987928849
C -1.480951274 0.9111835367 -0.3242051023
O -2.0839027792 -0.2481741418 -0.9153105629
H 0.936511779 2.0827497216 0.9276248278
H 1.9621334203 0.6755161569 0.6088058549
H 1.3972430781 1.6995983026 -0.725838854
H 0.3539564532 -1.5955572986 0.8575115533
H -2.2104161554 -3.067329624 0.9285517758
H -3.4480204795 -2.4346428681 -0.1778622375
H -1.8808093415 -2.9940198785 -0.8172114395
H -3.3060862995 1.4260593231 0.8038978233
H -1.8244371765 1.488370446 1.8092952422
H -1.5394979821 1.7776440831 -0.981363369

