# b3lyp 6-31G(2df,p) opt Freq 

 titel

0 1
C 1.2129280696 1.6094281047 1.3826299774
C 0.2667989677 0.5131855719 1.0294046579
C 0.1235066879 -0.7134927312 1.5286060813
C -1.0945401505 -1.3446879296 0.8685036557
C -2.3872378286 -1.0026215751 1.6362062186
C -2.4508823132 0.529233051 1.8374604966
O -2.0203880155 1.2754504626 0.6926436934
C -0.8938140457 0.7007702624 0.0450889458
O -1.1926088473 -0.6125897223 -0.3658859106
H 1.9092889101 1.3076336094 2.1693839877
H 1.79852627 1.9261157758 0.5103689824
H 0.6643631415 2.4943326985 1.7282375906
H 0.6916526689 -1.172019488 2.3283861339
H -1.0036344343 -2.4096062426 0.6418781736
H -3.2340028115 -1.350780648 1.0369584881
H -2.4340014246 -1.4971511954 2.6132616709
H -3.4756662868 0.8548551539 2.0342638954
H -1.8405195294 0.8036622621 2.7080658072
H -0.7007756381 1.3250357999 -0.8295652463

