# b3lyp 6-31G(2df,p) opt Freq 

 titel

0 1
C 1.605554681 -1.1608513383 -0.9576162761
C 1.3931200922 -0.0388375647 0.0452966613
C 2.233065673 1.27013089 0.0639467538
C 3.7038511306 0.8022706476 0.142257861
C 3.4830030622 -0.2457281681 1.2485817985
C 4.2541829761 -1.4628961608 1.502422667
O 4.3564789619 -0.3211997454 2.3640763441
C 1.9867062621 -0.0546567059 1.4812452664
O 1.8933215415 1.4058024357 1.4802375282
H 1.0244741462 -2.0449450941 -0.6740519609
H 1.2694354099 -0.8557916384 -1.9544155475
H 2.6524886327 -1.4651802018 -1.0355409373
H 0.3373867554 0.2336316716 0.1191477549
H 1.9918691383 2.1455087493 -0.5389623886
H 4.094153052 0.3907329586 -0.7922237318
H 4.3600040074 1.6044643528 0.4859390051
H 3.77373189 -2.3373136671 1.9415480874
H 5.137968893 -1.6774275341 0.902297491
H 1.5268260046 -0.5441714669 2.3392756536

