# b3lyp 6-31G(2df,p) opt Freq 

 titel

0 1
C -3.7787481025 -1.3810287423 2.18929737
C -2.7207418393 -0.6470407633 1.353900639
C -1.4237453677 -1.465288651 1.3468229932
O -0.417636049 -1.1444744339 0.3727505685
C 0.0005188077 0.0730735823 -0.0526861263
O 1.0950737761 0.1556376522 -0.5409043826
C -0.9595110886 1.2619050507 -0.044774215
C -1.6438085593 1.5937379745 1.2591561676
C -2.4611125878 0.7475230942 1.877169774
H -3.435819729 -1.5241535242 3.2204812916
H -4.7069562569 -0.8034643494 2.2259858375
H -4.0085307021 -2.3650759451 1.7704229069
H -3.0817762731 -0.5855338625 0.3162841881
H -0.9589847543 -1.4144907494 2.3397540389
H -1.6511658266 -2.5147555494 1.135274974
H -0.3718942389 2.1045582153 -0.4084413616
H -1.7176992389 1.0465705637 -0.813029579
H -1.4571144811 2.579771699 1.6734028568
H -2.9464130087 1.0344275184 2.8068334886

