# b3lyp 6-31G(2df,p) opt Freq 

 titel

0 1
O 0.5668943182 0.0194227122 0.5190907739
C -0.7163184409 0.5421182406 0.782145336
C -1.4747517046 -0.118496425 1.985857241
C -2.6602279607 -0.4132915954 1.0493687807
O -3.5126010038 0.7406344934 0.8631730297
C -2.7959670152 1.1509446176 -0.3370650632
C -2.0287340859 2.4556784104 -0.139712767
C -0.7891038665 2.0920719321 0.721359525
C -1.8102063567 -0.0176511636 -0.1827947968
H 1.1613891055 0.3214270931 1.2146420185
H -0.9639153901 -1.0414478032 2.2779802827
H -1.6865395218 0.4918181401 2.8680218682
H -3.2319000339 -1.3350694742 1.174863865
H -3.4668715705 1.1559993982 -1.2028258644
H -1.7196088838 2.8406058516 -1.1180147756
H -2.6678933046 3.2137571953 0.3214078137
H 0.1289125912 2.4638453837 0.2572785143
H -0.8479378601 2.5239125681 1.7247672731
H -1.5122732159 -0.6609198349 -1.0065143948

