# b3lyp 6-31G(2df,p) opt Freq 

 titel

0 1
C -0.7617188391 -1.2283033449 -0.1062274831
C -0.7034654849 -0.640824332 -1.508789267
O -1.8462899754 -0.0209809331 -2.0265922538
C -1.6111379519 1.3642842436 -2.2762962161
C -1.4601026434 2.1387404972 -0.9602903375
C -0.4128333839 1.4982452751 -0.0388859289
C 1.1050157811 1.7163426039 -0.2661639381
O 1.3503921294 0.2854271551 -0.2594046515
C -0.0506392873 0.0544808024 -0.3582638889
H -1.7055423204 -1.1999172336 0.4291427121
H -0.1577961156 -2.1135759027 0.0647786158
H -0.0826188707 -1.1544252018 -2.2424668402
H -0.7217876388 1.4866129542 -2.9135290011
H -2.4778317115 1.7249526993 -2.8368811748
H -1.2110603524 3.1870734693 -1.1648501521
H -2.4321078993 2.1363017815 -0.4549972146
H -0.6711165918 1.6471753152 1.0130624329
H 1.3571723217 2.1626990181 -1.2376480158
H 1.660172774 2.2265789733 0.5261499028

