# b3lyp 6-31G(2df,p) opt Freq 

 titel

0 1
C -2.177379047 3.7043465467 0.6813310222
C -2.2830866275 2.4191973 1.4561400416
O -3.2236076405 2.4077204531 2.5498076511
C -3.4490114522 1.5160633263 1.4511272497
C -3.043586697 0.0769884133 1.7479271207
C -1.5262544853 0.1480060804 1.9318745843
C -0.6948554173 0.5416588347 0.7394218319
O 0.6239894866 0.108076714 0.5843404852
C -1.0619638271 1.5931411466 1.7565159515
H -1.5819064596 4.4385737719 1.2349835302
H -1.6865505539 3.5357495963 -0.2826576664
H -3.1668322566 4.133596372 0.5059912837
H -4.3396024354 1.7244399694 0.8616923058
H -3.5451472612 -0.2776635262 2.6545907688
H -3.333957382 -0.5902681207 0.9273401563
H -1.0574116886 -0.4834210437 2.6799263034
H -1.1766761618 0.5749949594 -0.234348257
H 1.0203468747 0.0051291732 1.4554001919
H -0.2763283583 2.0143731531 2.3777998251

