# b3lyp 6-31G(2df,p) opt Freq 

 titel

0 1
C 4.0794550305 -0.067874685 -2.1388248361
C 2.6886493831 0.1748225038 -1.6531641248
C 1.751184062 1.2551790698 -2.0837392102
C 2.0550442093 1.072939476 -0.6065148906
C 1.3655934751 -0.2038097023 -0.0986706458
C -0.1413708482 -0.2839147588 0.0142233251
O 1.9278296737 -0.965794452 -1.2146878533
C 2.0716148132 -0.6704798429 1.1722110692
O 1.590683687 -0.6357025922 2.2738878416
H 4.6729532148 -0.6046794836 -1.3924691524
H 4.0624444342 -0.6684540092 -3.055243399
H 4.5756820686 0.8798113299 -2.3659322194
H 2.2194613119 2.1340907981 -2.5166625784
H 0.7778419553 1.0042780342 -2.4942314762
H 2.4686864002 1.855513171 0.0156216161
H -0.4634032506 0.2017830692 0.9387309991
H -0.6300583283 0.1938115072 -0.837083472
H -0.4583876154 -1.3304308288 0.0554988656
H 3.1019285037 -1.0458422543 0.9847182614

