# b3lyp 6-31G(2df,p) opt Freq 

 titel

0 1
C -0.3562426034 1.8374996996 0.9004962455
C -1.4669338417 1.1909154147 0.0347490964
C -1.3232506511 -0.3417844016 -0.0319095728
O -0.222778896 -0.6730493259 -0.9058565264
C 1.035224788 -0.8152022236 -0.2955777766
O 1.4750452171 0.3164497761 0.41219325
C 0.6118709294 0.7834228742 1.4711811483
C -0.1879941828 -0.3317273855 2.1131438889
C -1.1452634887 -0.8878427216 1.3699740787
H 0.2328635338 2.5490346441 0.3154904199
H -0.7951991179 2.3901109302 1.7379677502
H -2.456241778 1.4262444741 0.4413165758
H -1.4380714843 1.5725190324 -0.9895131131
H -2.2023735874 -0.7751623525 -0.5162252374
H 1.0427031125 -1.6984148563 0.3578723869
H 1.7497144368 -0.9562999472 -1.1100504529
H 1.2861266421 1.2521030968 2.192971372
H 0.0400426032 -0.6568369432 3.1227326609
H -1.7654923115 -1.7058550646 1.7208894756

