# b3lyp 6-31G(2df,p) opt Freq 

 titel

0 1
C -2.7090690778 2.0757401605 1.344181461
O -3.1257914259 0.7216703139 1.1830537321
C -2.5423021834 0.0836357272 0.0701805307
C -3.362015419 -1.099102259 -0.4205214113
C -3.3904457282 0.1890613314 -1.1975998397
O -4.5118249424 1.0112735365 -1.1703326378
C -1.1078893631 0.0483514096 0.0083540648
C 0.0957386001 0.0255440661 -0.0622551567
C 1.5481565893 -0.0145780953 -0.1450894719
H -3.2396180657 2.4589343972 2.2185109645
H -1.6286504114 2.1374258399 1.5178213572
H -2.9648159863 2.679673851 0.4643727099
H -2.8239354638 -1.9505457547 -0.8201312544
H -4.2360545459 -1.3360342149 0.1775456621
H -2.8870903555 0.2376912137 -2.1563466454
H -4.7545947717 1.1057223213 -0.2394919783
H 1.9972567669 -0.1764283188 0.841076827
H 1.8799064668 -0.8318950976 -0.7950385496
H 1.9570342969 0.9178827618 -0.5499595842

