# b3lyp 6-31G(2df,p) opt Freq 

 titel

0 1
C 1.214116806 -0.2610527635 -0.3991447393
O -0.1404272441 -0.0998693141 -0.0129738193
C -0.3480384182 0.6487715131 1.1595167598
C 0.1267246705 2.0833832602 1.1629973966
C 0.7262206721 2.4191601305 2.3070153111
C 0.8170210511 1.2783646532 3.2927974003
C 2.1885973597 1.0420395239 3.9353436411
C 0.3386086301 0.0893575079 2.4377089039
O 0.5256103926 -1.0730357029 2.6778436549
H 1.7796412831 -0.8502243772 0.3334442747
H 1.2008185926 -0.7983459337 -1.3497455307
H 1.7178761963 0.7047772572 -0.5444111693
H -1.4354113189 0.6031501686 1.321359524
H -0.0559801864 2.7468010903 0.3254929208
H 1.1083946454 3.4074596685 2.5411049614
H 0.0761238408 1.4109568411 4.0973751067
H 2.1743782744 0.1155737104 4.514753309
H 2.9676889081 0.9521804035 3.1720007747
H 2.457226335 1.867625253 4.6009594596

