# b3lyp 6-31G(2df,p) opt Freq 

 titel

0 1
C 0.3061536332 0.6563438881 0.0820073125
C 1.0364791275 -0.6145502635 -0.3208624882
C 0.1404945639 -1.7231344872 -0.905643541
O 0.3707528518 -1.7010234602 -2.3132393832
C 1.7563498305 -1.430230312 -2.5271497595
C 2.1526885573 -0.445350914 -1.4192533605
C 3.1943178219 -0.8708513297 -0.3621076164
O 2.828181668 -2.1772767498 0.1000355439
C 2.1569287716 -1.0461097458 0.663639075
H -0.3719427313 0.4730489502 0.92364201
H 1.0067246037 1.4424187248 0.3857537434
H -0.2888235872 1.0386331501 -0.7537829927
H 0.4059544727 -2.7018124338 -0.4835635692
H -0.9276975867 -1.5446531034 -0.7518902872
H 2.3483483534 -2.3531367633 -2.4567107824
H 1.8529284942 -1.0215287548 -3.5363415785
H 2.2745871634 0.5850416696 -1.7589749221
H 4.2380371172 -0.5918035039 -0.2765256676
H 2.1928900948 -0.9309223613 1.7416756739

