# b3lyp 6-31G(2df,p) opt Freq 

 titel

0 1
O -2.0359328331 -1.2795053278 -2.1465036858
C -2.2330637913 -0.7999537437 -0.8185613036
C -2.2526830775 0.7493046717 -0.7382491032
C -0.7941627397 1.1641364052 -0.4820292032
C -0.20046203 -0.0055153307 0.3098953424
O 0.8139602364 0.0108395447 0.9658353272
C -1.1068413557 -1.1873319892 0.1301790129
C -1.3059998869 -2.1039663463 1.3320039759
C -0.5061628343 -2.5808404856 0.171356603
H -1.1182741787 -1.1232954361 -2.3934332454
H -3.1956209256 -1.2223739224 -0.518611867
H -2.6826835099 1.1740474883 -1.6473165158
H -2.8788723068 1.056658363 0.106662372
H -0.2280247257 1.2540601219 -1.4191230509
H -0.6663008 2.1070294258 0.0533513423
H -0.7729431512 -1.8216530092 2.2334465734
H -2.3037062392 -2.5026993646 1.4797952689
H 0.5714152684 -2.62752393 0.2873838283
H -0.9434891592 -3.3063176151 -0.5051484315

