# b3lyp 6-31G(2df,p) opt Freq 

 titel

0 1
O 0.6838787728 0.1420884962 -0.9208390946
C 0.4245734194 -0.0999947289 0.2342447583
C -0.401940174 0.7585831738 1.1131623191
C -0.937639085 2.0379911611 0.4930120863
C -2.0697212015 1.7897846277 -0.4783099514
C -3.1796315594 2.7367793621 -0.6296294613
O -3.3531429176 1.5223130019 0.1041667648
C -1.2469334598 0.0169555435 2.1478815333
C -0.0187049968 0.7310155274 2.5920500337
H 0.8095595878 -1.0235483791 0.7278446958
H -1.2934540116 2.7087796791 1.2821667432
H -0.1222875459 2.5456304951 -0.0353694461
H -1.8243092446 1.1490743021 -1.3238988137
H -3.1919368148 3.6488569198 -0.0333087174
H -3.7202992849 2.7949388189 -1.5730848844
H -2.2180989894 0.4534769598 2.3461617393
H -1.2338558258 -1.0677891292 2.1269497743
H -0.118431959 1.6685521738 3.1272646429
H 0.84686961 0.1420168352 2.8773509178

