# b3lyp 6-31G(2df,p) opt Freq 

 titel

0 1
C 0.4385691173 1.2244436475 -0.0200161234
O 0.0545581593 -0.1671504473 -0.030911583
C 1.4307376593 0.1598113985 0.0318429699
C 2.421043617 -0.3015558906 -1.0326538576
C 2.5614484702 -1.7983539779 -0.6548229133
C 2.4868972754 -1.7730897928 0.9121560093
C 2.3035823776 -0.2716179178 1.2023381414
O 3.5363211917 0.4052511182 0.9207151335
C 3.6669739791 0.4380836462 -0.5201477528
H 0.2591580401 1.7581898952 -0.9522458283
H 0.1759467208 1.7697202541 0.8851437137
H 2.1623386646 -0.0976258575 -2.0714537323
H 1.7373283579 -2.3768897055 -1.0789504358
H 3.4975024447 -2.2240025494 -1.0261694267
H 1.6375770835 -2.3528977879 1.2843318742
H 3.3959538445 -2.1452178277 1.3891913879
H 1.9755143363 -0.0062293541 2.2070935688
H 3.7012534865 1.4829376958 -0.8553407687
H 4.602835404 -0.0522456573 -0.8151577969

