# b3lyp 6-31G(2df,p) opt Freq 

 titel

0 1
C -0.0173770579 -0.0231021145 -0.158269302
C 1.5041031141 0.0274644918 0.0063496711
C 2.066265358 1.442344543 0.1075445239
O 3.4953065981 1.4794604519 -0.0281381213
C 2.9392126571 1.5881179311 1.2839862065
C 2.9954797622 0.2854798369 2.0474982803
C 1.9969391345 0.1744718633 3.2133348259
O 1.0616187337 -0.5599441155 2.3987379725
C 2.0058620329 -0.6556980988 1.3014243252
H -0.518519615 0.4416619237 0.6934281597
H -0.3226602364 0.4939379979 -1.0734756996
H -0.3685944582 -1.0572994134 -0.2229546755
H 1.9782722501 -0.4593135717 -0.8544748362
H 1.5376781076 2.2814184843 -0.3403035454
H 3.1044596956 2.5375203754 1.7905029796
H 4.0144068175 -0.0591453075 2.229702387
H 2.3507530722 -0.4218678574 4.0638408578
H 1.5711156946 1.1134314785 3.5893470054
H 2.3144621594 -1.695516709 1.147621955

