# b3lyp 6-31G(2df,p) opt Freq 

 titel

0 1
O 1.3935577725 -0.0914305233 1.0890836508
C 0.3343669759 0.1561078244 0.1812145828
C -0.8912741201 0.710220623 0.8534122227
O -1.9691662275 1.1068498095 -0.0016015437
C -2.9061477975 0.8653626479 1.1082837984
C -3.2339631067 2.2172893658 1.7312456325
C -1.8353423502 2.7453133048 2.1659548721
C -0.9456922558 1.4998813956 2.1522284785
C -1.7812341212 0.2419312547 1.9588929893
H 1.7284651997 0.7611176499 1.3841281882
H 0.6297206039 0.8460141421 -0.6254855894
H 0.0984201155 -0.8047247618 -0.2878878012
H -3.746993413 0.2468910725 0.7904066662
H -3.7350532051 2.878885354 1.0192648041
H -3.896421861 2.079890662 2.5940284659
H -1.4695174536 3.507495349 1.4716823883
H -1.8629969389 3.1962135035 3.1619270854
H -0.0802491685 1.431059801 2.8015962373
H -1.7888226685 -0.6468059147 2.5737693117

