# b3lyp 6-31G(2df,p) opt Freq 

 titel

0 1
O -1.3141548138 5.6482478783 2.2240952458
C -0.9204891818 4.2858695719 2.2662247252
C -2.0517932383 3.3555020622 1.8847917534
O -1.6760736306 2.016872138 1.5488699433
C -2.2267307463 2.8550245382 0.5175457167
C -3.5645716581 2.4360315132 -0.0368485188
C -3.4425779172 1.1767942528 -0.9231445587
C -4.7192222942 0.75385444 -1.4834716055
C -5.785988036 0.4288925346 -1.9320096342
H -1.9104326028 5.8105948814 2.9616663651
H -0.1020637607 4.171448194 1.5491099043
H -0.5296905708 4.0038716816 3.2558756653
H -2.9420553402 3.4253328478 2.5161687333
H -1.4888550504 3.1689770574 -0.2244780796
H -4.257278108 2.2324980024 0.7855508498
H -3.9876811995 3.2587225439 -0.6245816033
H -2.7312644523 1.3696358992 -1.7371253141
H -3.0105971368 0.3664927072 -0.3237029681
H -6.721199812 0.1293530561 -2.3354130699

