# b3lyp 6-31G(2df,p) opt Freq 

 titel

0 1
C -0.4454067544 0.0830115857 0.3653296177
C 0.832404565 -0.0338911185 -0.474008992
O 1.2935306474 0.8638984129 -1.4599104367
C 2.0868018765 1.7894688935 -0.6726272129
C 1.0994432505 2.1430038763 0.4391053659
C 0.8433395866 0.6766640182 0.839853334
O 1.6975994318 0.2119810442 1.8366395896
C 3.0365004963 0.6567356683 1.5078187843
C 3.2866720531 1.056724326 0.0161259252
H -1.2444175155 0.7690820871 0.1035824012
H -0.776818362 -0.8664227563 0.775133596
H 1.2451041839 -1.0356322938 -0.5422636126
H 2.406626745 2.5893108193 -1.3441640437
H 1.5094973909 2.727889152 1.2647602064
H 0.2151950964 2.6472988246 0.0445004239
H 3.2673786954 1.520569522 2.1444879435
H 3.7152721883 -0.1503013755 1.7995236542
H 4.1661473347 1.7096632538 0.0153746799
H 3.5436144003 0.1840157302 -0.5908243643

