# b3lyp 6-31G(2df,p) opt Freq 

 titel

0 1
O 0.3925185183 0.1756079193 0.3800887044
C -0.529841437 0.9322085875 1.1515937498
C -1.5678222759 0.1222768924 1.9823450563
C -2.9352748204 0.6424863915 1.4105544214
C -2.580086849 2.1245313047 1.1252228623
C -1.4227934406 1.757594545 0.1776372755
O -0.7613719692 2.8350556208 -0.4290785205
C -2.1190348039 0.7538629458 -0.740500307
C -3.0295414947 0.1069773032 -0.0106320203
H 1.0283408022 -0.2301927554 0.976650113
H 0.0130860881 1.6437182065 1.7895253885
H -1.440227333 -0.9527046714 1.8324297974
H -1.4781152656 0.3348202223 3.0523163044
H -3.7930921755 0.4520616643 2.0556405341
H -3.3758195555 2.6697714584 0.6141944182
H -2.2522278464 2.6813851714 2.0095088161
H 0.0564982142 2.4839687059 -0.8004160871
H -1.8264040444 0.5761348415 -1.7670526817
H -3.6458903516 -0.7309068637 -0.3128540047

