# b3lyp 6-31G(2df,p) opt Freq 

 titel

0 1
C -3.0676520101 -0.1304639148 1.24723315
C -2.1183704353 -0.0643825417 0.056663478
O -2.8293248682 0.0066355832 -1.1668298472
C -0.9551653539 -1.1257617095 0.0859665689
C 0.0386898139 0.0373537024 0.2747165865
O 1.2184214812 0.1081931769 0.4849642882
C -1.0526269562 1.0485534286 0.1215557529
C -1.1133222569 2.4370493552 0.7140162027
C -0.969873424 2.2755005645 -0.7627194135
H -3.6751698936 -1.0433153441 1.2088635579
H -2.5190074831 -0.1372424805 2.193713547
H -3.7446914978 0.7294352649 1.2462764476
H -3.4984357762 -0.6863120299 -1.1657729623
H -0.9717348683 -1.8694878652 0.887444414
H -0.8308757317 -1.6282536851 -0.8774887806
H -2.0705381358 2.7633670929 1.107300315
H -0.2478444168 2.7491118853 1.2893114723
H -1.8339498996 2.4540424658 -1.3921723872
H -0.0069395177 2.4807224212 -1.2177424302

