# b3lyp 6-31G(2df,p) opt Freq 

 titel

0 1
C -6.4305397678 0.4275173058 -2.8304392
O -5.1255511024 -0.0648223231 -2.6395183709
C -4.5280154933 0.4126747188 -1.456549195
C -3.1437987239 -0.1678916688 -1.3556942361
O -3.0087700496 -1.4388921129 -0.7283623189
C -2.4632855019 -0.2908353297 -0.0507114711
C -1.0348330977 -0.1962167465 0.0776515796
C 0.1591134001 -0.1113913396 0.2109730524
C 1.6025786644 -0.0153033822 0.3631233087
H -6.446704236 1.527305706 -2.8982212692
H -6.8023567711 0.0099920335 -3.7689350263
H -7.1050798146 0.1248007817 -2.014077025
H -4.4652345914 1.5158112071 -1.471565035
H -5.1137237498 0.121945573 -0.5689700991
H -2.5234963649 -0.0355375683 -2.2417597951
H -3.029457765 -0.0054012068 0.8366513311
H 1.8869395766 0.0627492258 1.418075388
H 2.0990341448 -0.8999352479 -0.0503970465
H 2.0012734636 0.8627904341 -0.1567502916

