# b3lyp 6-31G(2df,p) opt Freq 

 titel

0 1
C 0.0565541208 -0.0201734751 -0.2401410327
C 1.5411852043 -0.1175159557 -0.0388702644
O 2.1527240969 -1.061472461 -0.9105333169
C 3.4814365515 -0.6131698637 -1.1691975115
C 3.7958335324 0.3227490603 -0.0034563554
O 4.9760833426 1.0273384431 -0.2295264822
C 3.5908795297 -0.4349311785 1.3485213093
C 2.1370312418 0.0413204491 1.3493916911
C 2.4271476372 1.0501122951 0.2282725539
H -0.383656968 0.6932835457 0.4621268647
H -0.1755425247 0.3045880817 -1.2589673789
H -0.4147360865 -0.9951022271 -0.0789410597
H 4.1473112983 -1.4810079719 -1.2071224548
H 3.5409924523 -0.0709284346 -2.124770981
H 5.1709427114 1.554803747 0.5516975122
H 3.7889651781 -1.5121601948 1.3599275774
H 4.1647969808 0.0478734556 2.1469765722
H 1.5092622957 0.1654126194 2.2251772919
H 2.1947767456 2.1007123455 0.1044959748

