# b3lyp 6-31G(2df,p) opt Freq 

 titel

0 1
C -0.2418616674 1.3600833743 -0.0754785381
O -0.0214260162 0.0116558463 -0.5990307124
C 1.3144681301 0.036156247 -0.080685689
C 2.6672191031 -0.4510110258 -0.6092631486
C 3.1101742641 -0.1157185359 0.866068808
C 1.6798457719 -0.5275580706 1.3077854495
C 3.253676947 1.4074590552 1.1265937453
O 1.9862206017 2.0854238941 1.0711809429
C 1.2832820529 1.5599209594 -0.0231343435
H -0.8192378925 1.9771334165 -0.7680606078
H -0.7239378359 1.3376261889 0.9090300803
H 2.7317301131 -1.5260972604 -0.798064013
H 3.1148404659 0.1078398937 -1.4363700039
H 3.9676235896 -0.6606818655 1.2624251035
H 1.5578241937 -1.6122110353 1.3476214679
H 1.254555939 -0.0548325317 2.194449008
H 3.6411519327 1.5862816564 2.133568188
H 3.9527796302 1.856848121 0.4034947538
H 1.639052937 1.9976074125 -0.9685493609

