# b3lyp 6-31G(2df,p) opt Freq 

 titel

0 1
C -1.4953429361 -1.4277371354 -1.9978140363
C -0.360600975 -0.5302913931 -1.6012424283
O -0.3436401772 0.6986896106 -2.2445669336
C 0.0178730117 1.8431769897 -1.4884811226
C -0.4951225777 1.9134711061 -0.0398916618
C -1.9561370097 1.54922743 0.1763980929
O -2.7739440457 1.2680873643 -0.9667095692
C -2.4187355133 0.1810598556 -0.1102893948
C -1.4507360405 -0.8507317083 -0.5975780239
H -2.2088910198 -0.978648671 -2.6795197552
H -1.3169232156 -2.4879622339 -2.1359748923
H 0.6200511595 -0.977349497 -1.4269352401
H 1.1139127875 1.9541913632 -1.463648069
H -0.3856321925 2.6836773431 -2.0609019949
H 0.1139779126 1.2669981672 0.6041243925
H -0.3139566373 2.9387692813 0.3031443013
H -2.4726524526 2.1160844724 0.9518496712
H -3.2582549998 -0.2142505356 0.4644431585
H -1.1643630684 -1.5430673591 0.1915477556

