# b3lyp 6-31G(2df,p) opt Freq 

 titel

0 1
C 0.0220352209 -0.0528515539 0.2431571419
C 1.5171716749 0.0114393305 -0.0240140858
C 1.9572291811 1.2254126922 -0.8866042632
C 2.9040190965 1.8421666322 0.1940990507
C 2.2708584563 1.642734688 1.626190821
C 2.5022241298 0.203799038 1.1405006672
C 2.5275886217 -1.3215946197 1.2138662792
O 2.0274926042 -1.3617267057 -0.1576704239
O 3.7095802163 0.6669372786 0.4648807104
H -0.2104028135 -0.7056907308 1.0902837976
H -0.4041490106 0.9356805365 0.4390113771
H -0.4802682534 -0.4643279523 -0.6389249702
H 2.5509706037 0.9600879073 -1.7630290931
H 1.1153614698 1.8510829199 -1.194129454
H 3.4738006719 2.7378627751 -0.0545383852
H 2.9711973471 1.9835263439 2.3890723331
H 1.250529985 1.9710412142 1.837054971
H 3.5192041559 -1.7703404359 1.3094203528
H 1.8257243024 -1.7824277982 1.9181225634

