# b3lyp 6-31G(2df,p) opt Freq 

 titel

0 1
C -0.0051756845 0.1436459137 -0.0092049469
C 1.499911222 0.0376115317 0.0363472256
O 2.0157272335 -0.8312631165 -1.0671777208
C 2.8953771344 -1.3901968013 -0.0879555184
C 4.1270215274 -0.5729600429 0.4206401418
C 3.5389966877 -1.2728288323 1.6475645313
C 3.4682458502 -2.6132119215 0.7170533191
O 2.6988084596 -3.7069463703 1.0603437262
C 2.0922661106 -0.9479193021 1.1160182321
H -0.3626986895 0.7717634529 0.8137077383
H -0.3260323504 0.5923447665 -0.9540458909
H -0.4680301203 -0.8440428009 0.0732358971
H 1.9716675661 1.0212509768 -0.0328349509
H 5.1126616238 -0.9000222022 0.0824273465
H 4.0319510225 0.5108311591 0.3898299033
H 3.9153560537 -1.2486387508 2.6706616888
H 4.4476463349 -2.9985048884 0.4191900543
H 1.788869295 -3.4227061143 1.2057160471
H 1.2983604334 -1.612986707 1.4692789667

