# b3lyp 6-31G(2df,p) opt Freq 

 titel

0 1
C -0.1162921868 -0.0973771022 0.2499147072
C 1.084560577 -0.0804704641 0.2017447177
C 2.5396589446 -0.0306240168 0.139685125
C 3.0756249871 1.3901655381 -0.1208913345
C 4.5902406687 1.4112285452 -0.2101753013
O 5.0480148971 2.7267503135 -0.4041993176
C 6.3777109318 2.7311018871 0.0907199741
C 6.3003435817 1.775697559 1.2945039487
O 5.1736894151 0.9525000591 1.0040041801
H -1.1765358315 -0.1251991698 0.2951576867
H 2.966639052 -0.403584892 1.0774320307
H 2.8938148112 -0.7081599016 -0.6489695052
H 2.6659210655 1.7817232296 -1.0570632351
H 2.7701837793 2.0632939301 0.6851914841
H 4.946249088 0.7647971688 -1.0368466299
H 7.0797284605 2.3572414843 -0.6699710139
H 6.6489591362 3.7555157433 0.3530437021
H 7.2015957495 1.1618603669 1.4029743835
H 6.1235899131 2.3120210313 2.2345520175

