# b3lyp 6-31G(2df,p) opt Freq 

 titel

0 1
C 0.1081951844 -0.0105662372 0.5128001146
C 1.1087786632 0.8645013086 -0.1831636201
C 1.9346063693 1.9177383599 0.5003058729
C 2.6469342714 0.8152888839 -0.236766614
C 2.638473132 1.1576427947 -1.7289328601
O 2.9262791729 0.0921131334 -2.6117900702
C 1.7728130826 -0.7151123058 -2.6590209998
O 0.6621708663 0.147016714 -2.526994622
C 1.0657013201 1.2085418189 -1.682314383
H 0.4751399332 -0.3273302952 1.4944115306
H -0.8397086923 0.5186522815 0.6673503957
H -0.1083129245 -0.9058588601 -0.0783860912
H 1.9643892017 2.9392280686 0.1229733388
H 1.9657362731 1.8505022353 1.5833653388
H 3.3402834959 0.1384952292 0.2487227351
H 3.2161026404 2.0270519224 -2.0520658085
H 1.7242587373 -1.2149553323 -3.6302243231
H 1.7850386831 -1.461015672 -1.8465837522
H 0.5192536299 2.1058429223 -1.9849690622

