# b3lyp 6-31G(2df,p) opt Freq 

 titel

0 1
O 0.4075838964 0.6369823666 0.1954705178
C -0.7734413359 -0.0247252272 0.6191479078
C -1.087094953 0.2732436168 2.085148248
O -1.6499233511 1.5848179674 2.0474016445
C -2.5095681767 1.6653916232 0.9013969215
C -3.992538244 1.3539948051 1.239193391
C -4.2481843659 0.0192274095 0.5878561074
C -3.2093380469 -0.404501131 -0.1308803092
C -2.0370455945 0.5412469355 -0.0789969994
H 0.3620870328 1.5360374538 0.5425117648
H -0.6217824357 -1.0878146762 0.4160354238
H -1.7948846974 -0.4580996734 2.5017996355
H -0.1917672081 0.3046355679 2.710569853
H -2.3932260163 2.6759620127 0.5027999381
H -4.1346743124 1.3412356806 2.3262172323
H -4.6664646108 2.1268825235 0.8474351858
H -5.1905774437 -0.5084074408 0.6904842428
H -3.175679121 -1.330252472 -0.6955243095
H -1.7520341258 0.9116071578 -1.0685487359

