# b3lyp 6-31G(2df,p) opt Freq 

 titel

0 1
O 0.1061897647 -0.911637984 0.7309981025
C 0.3149449882 0.00814026 -0.0161836978
C 0.4018895908 1.4671634847 0.4102355474
C -0.879180023 2.171162882 0.0223157714
C -0.9925362449 2.9562026677 -1.0505055869
C -2.2837315514 3.6456005434 -1.4023257216
C -3.2387018472 3.6096199228 -0.2068747148
O -3.3025879973 2.3086184464 0.351761372
C -2.0725141186 1.9036121621 0.9126876118
H 0.4163040571 -0.1486325544 -1.1140698252
H 0.5619801056 1.4980711608 1.4933529298
H 1.2543407091 1.9335288418 -0.0955646339
H -0.1335447795 3.124402766 -1.696642183
H -2.0948438701 4.6861449135 -1.6955364112
H -2.7470555787 3.1600672865 -2.2722761127
H -2.9087142176 4.3357921013 0.5547027383
H -4.2595767268 3.868156025 -0.5004431267
H -1.9093587164 2.3939548631 1.8915117047
H -2.1620390542 0.8295791114 1.1134458459

