# b3lyp 6-31G(2df,p) opt Freq 

 titel

0 1
C 5.4725084416 -2.4581838907 -0.8295378924
C 4.5297067022 -1.2923373938 -1.021597145
C 3.2710810703 -1.4315798688 -1.8239030261
O 2.9311012934 -0.3630424424 -2.6613082722
C 3.1855740417 -1.2507972838 -0.3231212052
C 2.6616814554 0.0628446986 0.2323176129
O 3.1505696259 0.344124558 1.5400197737
C 1.1919765604 0.0930776886 0.1816553759
C -0.0103958144 0.0798172814 0.1433919766
H 6.0536736413 -2.3474496647 0.0920995723
H 4.9253529093 -3.4045758221 -0.7636024171
H 6.1763082239 -2.539540959 -1.6649130687
H 5.0081232775 -0.3214654232 -1.1257500023
H 3.0342416073 -2.4189288052 -2.2219940632
H 1.9724923716 -0.2614468565 -2.6341368635
H 2.8929366136 -2.1256289394 0.2542241337
H 3.0436100686 0.8763859235 -0.3920890515
H 2.7593298663 -0.2991702733 2.1414345724
H -1.072224756 0.0897223127 0.1149944898

