# b3lyp 6-31G(2df,p) opt Freq 

 titel

0 1
O 1.3401986185 1.7175599252 2.4701277567
C 0.6946681584 2.9428743081 2.1504477547
C -0.4059682128 2.7680451151 1.1322585268
C -1.7604452805 3.4416411606 1.2566689943
C -1.6310686649 1.9741042098 1.5022516556
O -2.2098333095 1.1165714643 0.560391917
C -1.6815560799 -0.1975027557 0.59842996
C -0.3038525081 -0.3241496622 0.1040370345
C 0.8147010113 -0.4626415039 -0.3174964008
H 1.3252367352 1.1612376863 1.682629418
H 0.2833521543 3.3307152728 3.0908498334
H 1.4227070889 3.6876927601 1.790594883
H -0.0714836097 2.6171617002 0.1099619811
H -1.951272534 4.0843283836 2.1094450386
H -2.2469535106 3.7461877573 0.3371044721
H -1.7022742021 1.614768555 2.5296267383
H -1.7345131369 -0.6049041238 1.6201433272
H -2.3433618867 -0.8029633132 -0.0296500095
H 1.7950100391 -0.5959899096 -0.705516681

