# b3lyp 6-31G(2df,p) opt Freq 

 titel

0 1
C 2.7002730416 0.2480876296 -0.2585526141
C 1.3922583447 -0.3306082303 0.291514858
C 1.1190847155 -1.7104786744 -0.225572149
C 2.1283017559 -2.8169800276 -0.4969666838
O 3.2352643318 -2.4588248271 -1.3103439597
C 2.8952945933 -1.9892594815 -2.5900365069
O 2.8805615736 -0.5912451459 -2.6860759197
C 2.1187675661 0.0840593114 -1.7059795754
C 0.8388007351 -0.5402600278 -1.1357723684
H 2.8481741314 1.2986897701 0.0017692331
H 3.6116893435 -0.3096850556 -0.0437034144
H 0.8562714842 0.0593003153 1.1485157632
H 0.1975029281 -2.1227679548 0.1843869385
H 2.5611664386 -3.1788159434 0.4419484789
H 1.5919923224 -3.6629165994 -0.9576854309
H 3.6748436617 -2.3176268195 -3.2832932568
H 1.9242088005 -2.4137703858 -2.8942611049
H 1.9068385123 1.0638792579 -2.1394865098
H -0.1576833805 -0.3524804313 -1.5186529978

