# b3lyp 6-31G(2df,p) opt Freq 

 titel

0 1
C -1.6009508582 3.1589723349 1.2912537282
C -0.4472559021 2.4143863298 0.6628616726
C -0.249198272 2.419825552 -0.8301948119
C -0.7269165286 1.1616197355 -0.1688603754
O -2.0422139049 0.7279521335 -0.3915063457
C -2.1652146116 -0.5708682316 0.207055377
C -0.7996740967 -1.2397684779 0.0130555877
C 0.1474474262 -0.0355332791 0.0054034092
O 1.3469705251 -0.0365627212 0.1320674217
H -1.8127492149 2.7836344665 2.2980117626
H -1.3766573853 4.2278030255 1.37376993
H -2.5089902193 3.0423026153 0.6940839971
H 0.4645947201 2.3531552362 1.2513536046
H -0.9875336476 2.9395865952 -1.4321973216
H 0.7614047283 2.4097422089 -1.2246239422
H -2.4052164651 -0.4753309422 1.276352316
H -2.9906522332 -1.0818090392 -0.2917648233
H -0.5245828924 -1.9635942059 0.7819688275
H -0.7312585777 -1.7332832062 -0.9634179141

