# b3lyp 6-31G(2df,p) opt Freq 

 titel

0 1
C 1.3477985214 0.6022615211 -0.4205161874
C -0.0844211958 0.2638215417 -0.1071078364
C -1.1258048526 1.119519102 -0.0415182176
C -2.5083268072 0.6344117422 0.3370368275
C -2.4355188506 -0.7330596543 1.0042515065
O -1.6412717366 -1.6207858265 0.2296334374
C -0.3004217723 -1.2087839538 0.1663033804
C -1.0075860982 2.5591780898 -0.3283783086
O -1.9397540025 3.3323938544 -0.2513288002
H 2.0097921085 0.1611653912 0.3351053278
H 1.641178569 0.1628052212 -1.3822641232
H 1.5549851988 1.6703957706 -0.4594938373
H -2.979207964 1.3690367508 0.9982207623
H -3.1412226933 0.5836026668 -0.5576535582
H -2.0184215573 -0.6410737011 2.0209898273
H -3.4222133505 -1.1961102736 1.0842787485
H 0.2370258485 -1.4639644758 1.1011841585
H 0.1698138603 -1.799867147 -0.6300579947
H -0.0076422853 2.92441092 -0.6358056425

