# b3lyp 6-31G(2df,p) opt Freq 

 titel

0 1
C 2.4576805203 2.3092724849 -1.0300188999
C 3.0000882846 1.4718530742 0.1288826285
C 2.5269535662 -0.0016676449 0.0984078847
C 3.2168007223 -0.7965280207 1.2116216353
O 2.8836718614 -2.1863233872 1.0389601988
C 3.3230036126 -3.0133540508 1.9959022227
O 3.9670103664 -2.6992696361 2.9588698284
C 1.0722479464 -0.1070084904 0.2014570191
C -0.1234229335 -0.1697930387 0.3073116106
H 2.7803704476 1.9046082683 -1.995618948
H 1.3643491229 2.3274273983 -1.0225665805
H 2.8162629049 3.3405177266 -0.9635554931
H 4.0966251553 1.4755497924 0.1079938116
H 2.700425459 1.9180310096 1.0844434844
H 2.839836903 -0.4423878843 -0.8585082433
H 4.3035523055 -0.6801782183 1.15176185
H 2.8909621603 -0.4656237921 2.2014996981
H 2.9967543038 -4.0366986739 1.7546607031
H -1.1797953591 -0.2385285969 0.3916885695

