# b3lyp 6-31G(2df,p) opt Freq 

 titel

0 1
C 0.7649059683 -0.5987403126 -0.2320021771
O 0.5382070974 0.785575686 -0.0378325855
C 0.0219639145 1.0945536536 1.227619473
O -1.3053050493 0.6040454892 1.4124235895
C -2.1839737664 1.7164576749 1.2728739253
C -2.0653708299 2.3856239548 -0.135223771
C -1.0498836714 3.3497312704 0.4802837716
C -1.4547949317 2.9399662823 1.8894811432
C -0.0854620698 2.6013977957 1.3890994325
H -0.1691619887 -1.1703633326 -0.1783134888
H 1.2058308489 -0.7150706375 -1.2244972903
H 1.464958425 -0.9980522276 0.5181037702
H 0.6464617888 0.6204501361 2.0012544588
H -3.171409073 1.4235088812 1.6254101852
H -1.7409062423 1.7373169553 -0.9517532158
H -2.9901882532 2.9040205648 -0.4049291714
H -0.7967135695 4.3368197621 0.1124533879
H -1.6941681726 3.5116829382 2.7756986106
H 0.7759702249 3.1499490458 1.7486336822

