# b3lyp 6-31G(2df,p) opt Freq 

 titel

0 1
C -1.0749421246 -0.5375944059 -2.8048240283
C -0.0232525712 -1.0656933358 -1.874920863
C -0.2387000131 -2.0851458005 -0.760560882
O 1.0895357296 -2.6387285238 -0.965325393
C 1.2875542455 -1.7712239579 -2.0914131707
C 2.0265965749 -2.3172606186 -3.2683397107
C 1.308339295 -0.3209393567 -1.627922709
C 1.8198041796 0.0999850231 -0.3037792779
O 2.3157762463 1.1832203876 -0.0932252103
H -1.7282213748 -1.3442070372 -3.1562090676
H -1.7028631757 0.2128844309 -2.3113011846
H -0.6253913366 -0.0634775052 -3.6825552695
H -0.3989382076 -1.7314898649 0.2632459349
H -1.0041757474 -2.8275791811 -1.0161961987
H 1.557784428 -3.2393692084 -3.6255956094
H 2.0418594663 -1.5897261962 -4.08445457
H 3.0633358091 -2.5437552751 -2.9970692506
H 1.5219590807 0.3957888468 -2.4164949944
H 1.7409983261 -0.6584829512 0.5009476848

