# b3lyp 6-31G(2df,p) opt Freq 

 titel

0 1
C 0.7102619781 -0.1765013203 -3.2166672536
C -0.0334469843 -0.481052173 -1.9456651472
O -0.9628700456 0.5187953619 -1.4827530823
C -1.4709608722 -0.7747949674 -1.8491830294
C -1.7426830195 -1.6761630415 -0.6661600993
C -0.4708144256 -1.5346747768 0.2038576597
C 0.6796079113 -1.179817005 -0.7791089546
C 1.7208400049 -0.2881280439 -0.1400156123
O 2.8990792776 -0.5313911098 -0.0815283318
H 1.1228670474 -1.0925571831 -3.6521368565
H 0.0442044591 0.2913752903 -3.9454491258
H 1.5453681384 0.5066772532 -3.0288895483
H -2.1164729756 -0.786320441 -2.7244843743
H -2.6507036903 -1.4008364408 -0.1212265425
H -1.8724519776 -2.704461897 -1.0248417724
H -0.6039435093 -0.714999521 0.9153124901
H -0.2474693844 -2.4347935679 0.7799358059
H 1.1866242267 -2.0751650338 -1.1543228521
H 1.3022782409 0.6528369469 0.2846793367

