# b3lyp 6-31G(2df,p) opt Freq 

 titel

0 1
C 2.2723322055 3.2987462392 -1.836721642
C 1.6164158639 2.1020273279 -1.1714799794
O 1.7882248149 2.2131783924 0.2313633684
C 1.2163335312 1.1520290204 0.9509357468
C 1.4296473151 1.319467344 2.4559367928
O 0.9991386945 0.4935472395 3.2182152847
C 2.201876223 2.568902547 2.8913779721
C 2.3815037288 2.6878437616 4.3267685004
C 2.5339300197 2.7928439983 5.5129772571
H 3.3404845197 3.3307774948 -1.6043085128
H 2.155282897 3.2394870898 -2.9226730789
H 1.8165452465 4.2301024841 -1.4891249024
H 0.5418730547 2.0601536615 -1.414393954
H 2.0653758358 1.1610178032 -1.5297321016
H 0.1299782088 1.07825223 0.7760050079
H 1.6502242398 0.1806408894 0.6604435275
H 3.1641482918 2.5609203095 2.3628688941
H 1.6782077959 3.4398585411 2.4759802194
H 2.6661616335 2.8812454863 6.5626376301

