# b3lyp 6-31G(2df,p) opt Freq 

 titel

0 1
C -2.2780179801 2.6974297852 1.2107689016
C -1.7631743868 1.2716948847 1.106724092
C -2.8560952892 0.2358925192 0.8564565961
C -2.2491362804 -1.1410806465 0.6080885861
C -2.0098087105 -1.5908833723 -0.8018776989
C -0.8354169751 -1.1620337422 0.0644166365
C -0.1436440642 0.1175438647 -0.2810680077
O 0.9155789694 0.1660118342 -0.8454980807
O -0.795587017 1.2715215861 0.0278587355
H -2.9751003018 2.7879497 2.0492941914
H -1.449891234 3.3927090031 1.3677385985
H -2.7985658844 2.9849124948 0.2921960713
H -1.2256347285 1.0067401603 2.0279997006
H -3.5204937353 0.2066033099 1.7258312841
H -3.4639423197 0.5576528667 0.0027382441
H -2.4919964291 -1.9105797567 1.3330090523
H -2.0793574577 -2.6459513699 -1.03976552
H -2.3152771945 -0.9273647044 -1.6043916778
H -0.151892411 -1.9445124467 0.3700034849

