# b3lyp 6-31G(2df,p) opt Freq 

 titel

0 1
C -0.2117733401 -0.434595505 0.28479124
C 1.1914069935 0.0487819701 -0.0568916982
C 2.2347296606 -0.3644668641 0.9811622033
O 1.5269505221 -0.4494448611 -1.3498017374
C 2.2557304217 0.561548521 -2.0122188809
C 1.5828897928 1.8463797566 -1.4897481836
O 1.1996449706 1.4816982205 -0.1649212303
C 2.4494737742 3.0165908922 -1.4892739293
C 3.1707401357 3.9763987612 -1.5274766005
H -0.5198626909 -0.0390291844 1.2558220633
H -0.9161586758 -0.0941379339 -0.4773674392
H -0.2365714063 -1.5269496742 0.3249876232
H 2.242173708 -1.4513746646 1.0996361932
H 3.2300457522 -0.0345732079 0.6732846447
H 2.0066773313 0.0959256618 1.9460587347
H 3.3220545891 0.5513786865 -1.7472811038
H 2.1498152537 0.4245380525 -3.0901284699
H 0.6833491091 2.0596067362 -2.0866929536
H 3.8041492385 4.8286175666 -1.5524053958

