# b3lyp 6-31G(2df,p) opt Freq 

 titel

0 1
C -4.7154702874 0.6060876793 -2.117493534
C -3.2275350117 0.4289063049 -1.8105056474
C -2.9735238577 0.0512262309 -0.340711805
O -3.6055133399 -1.1924595877 -0.1001992697
C -3.6694742345 -1.5553856739 1.2641749512
C -1.5356269712 0.0106513242 -0.0463029469
C -0.3479543661 -0.0090927075 0.1783242548
C 1.0641789833 -0.0674369788 0.4532766633
O 1.8270882504 0.8621523866 0.3217315118
H -5.1486408923 1.41792264 -1.5225375163
H -4.8629106737 0.8514836259 -3.1730645487
H -5.2685277228 -0.3091779194 -1.8955479756
H -2.7963752001 -0.3587310906 -2.4373546567
H -2.6742144093 1.349013271 -2.0240285329
H -3.4236224344 0.8261330882 0.3063823467
H -4.2000496416 -2.5084818873 1.3143137798
H -2.6691166719 -1.6783950079 1.701486785
H -4.2200471249 -0.8071794853 1.854761503
H 1.4145896357 -1.0588712126 0.8059252374

