# b3lyp 6-31G(2df,p) opt Freq 

 titel

0 1
C -4.6068292717 1.0189207424 -0.5023241569
C -3.2001825419 0.4854208808 -0.3470229886
C -2.4585554924 -0.0482386723 -1.5478756715
C -1.4818208915 -1.1921785341 -1.403604511
O -0.8156031146 -1.2206372233 -0.1314737765
C -0.3323437315 -0.0835551847 0.4348986446
O 0.3278370562 -0.1658977416 1.4335289461
C -0.677817708 1.2371852655 -0.2388819733
C -2.0305254106 1.252515285 -0.9245874415
H -4.8473927637 1.7380600514 0.2880393995
H -4.7326032503 1.5283648277 -1.4638138855
H -5.3455346054 0.2114734188 -0.4556235604
H -3.0145427039 -0.0307545707 0.5916191422
H -2.9680266092 -0.0250143375 -2.5073010103
H -1.9800170856 -2.1634859515 -1.4742071516
H -0.7250030674 -1.1478115922 -2.1993131743
H -0.5852378388 2.0091049463 0.5292893889
H 0.1100017373 1.4359215547 -0.9793789718
H -2.2656258572 2.1739076553 -1.4495796481

