# b3lyp 6-31G(2df,p) opt Freq 

 titel

0 1
C -0.1288883766 1.6689690105 -0.156450258
C -0.0276647077 0.1603084486 0.0371140502
O -1.2592068715 -0.3649821104 0.5201478568
C -1.0241449087 -0.8927740648 1.8380124417
C 0.4837394836 -1.0668285298 1.9442169957
C 1.0348788441 -0.3975009109 0.9396184144
C 2.0443835741 -0.5496741696 -0.1705569055
C 0.7662267466 -0.5635415945 -1.1131180475
O 0.8157112684 0.1277216373 -2.3328555326
H 0.8175323966 2.0980777657 -0.4944679448
H -0.8848154886 1.8924239091 -0.9139113208
H -0.42068718 2.146235786 0.7831225243
H -1.4509910657 -0.2172307862 2.596922374
H -1.5427095902 -1.8561574996 1.9318717572
H 0.9517315349 -1.7493543911 2.6427003844
H 2.6371597877 0.3484763071 -0.3681504529
H 2.6938316694 -1.4267111335 -0.1526897626
H 0.3897759968 -1.5883124357 -1.2210330768
H 1.3267655969 -0.3929823583 -2.960357657

