# b3lyp 6-31G(2df,p) opt Freq 

 titel

0 1
O 0.2494841159 -0.3578690865 0.3025819989
C -0.6958376863 0.548530292 0.7703193567
C -0.4188047713 1.7833138879 1.6669822171
C -1.8860640835 2.0815074331 1.2025756589
C -2.1722009951 3.4408806602 0.5787596987
C -1.2817872689 2.9319103185 -0.6261192532
C -1.5264234383 1.447916574 -0.1604460943
O -2.6662476381 1.152009323 1.94202773
C -1.9053299859 -0.0433363243 1.6003672152
H 0.6572401945 -0.7966137032 1.0581450196
H -0.2868288537 1.6222407852 2.7393054682
H 0.3402830917 2.4586660681 1.2770329002
H -3.2167369992 3.5445903909 0.2726294441
H -1.8599769011 4.3350855747 1.1238719694
H -1.688831031 3.1389814857 -1.6161429418
H -0.2508151414 3.2850267649 -0.5961510313
H -2.3179239366 0.963056438 -0.7352063428
H -1.5639039844 -0.5430621787 2.5148027283
H -2.5242162471 -0.7332023335 1.0157171782

