# b3lyp 6-31G(2df,p) opt Freq 

 titel

0 1
C -0.5256752592 2.3317772332 1.1103315232
C -0.9024792631 1.2180475655 0.1383608946
C -2.3674773919 0.7061527173 0.2093630744
O -2.912151533 0.7518701893 1.5200284309
C -2.307035316 -0.7374099615 -0.2915891123
C -1.5348198811 -1.0327735459 -1.5321839124
C -0.8634138721 -1.2249589884 -0.1770964937
C -0.0590447039 -0.0629311557 0.3111591391
O 1.0343131705 -0.1183313021 0.8195134301
H -0.8031391551 2.0712535005 2.1338699175
H 0.554110398 2.4951556719 1.0809886105
H -1.0340084612 3.2656638668 0.8549342258
H -0.7167766218 1.5710038725 -0.8859182379
H -3.0423068148 1.3240565272 -0.3910512354
H -2.4085803353 0.1465536954 2.0769292936
H -3.1359680239 -1.3808344001 -0.0190187799
H -1.7814566143 -1.9459480722 -2.0620746007
H -1.2016357496 -0.2254297956 -2.1750308383
H -0.5802763723 -2.2212528682 0.137146791

