# b3lyp 6-31G(2df,p) opt Freq 

 titel

0 1
C 1.4582127661 -0.0280247304 0.0057198712
O 0.0457863903 -0.0088764469 0.0911307983
C -0.4189894794 0.6059160874 1.2466659046
C -1.7995596531 1.209311757 1.1629306836
C -2.4731261237 1.3832834741 2.4787012156
C -1.8051588869 2.2251303536 3.2759012217
C -0.6119967855 2.8485600079 2.5786476963
O -0.7336248324 4.2614822152 2.4350076108
C -0.5666171729 2.1073761556 1.2397136161
H 1.9057712764 -0.5796110914 0.8460791239
H 1.716523858 -0.5338055231 -0.9272555878
H 1.8779974964 0.9878031192 -0.0049639764
H -0.1366100629 0.1086037065 2.1779118444
H -2.359715822 1.0540857501 0.2481868062
H -3.3700165599 0.8387270819 2.7526098457
H -2.0643443676 2.4767289616 4.2976225281
H 0.3159892138 2.7132523946 3.1469609773
H -1.6037286522 4.4288759154 2.0550278737
H -0.2051939028 2.6400088716 0.3679799167

