# b3lyp 6-31G(2df,p) opt Freq 

 titel

0 1
O 1.5134755034 0.9851982477 0.7807940754
C 0.5768900287 -0.0615575815 0.6042877241
C -0.8502717759 0.3594023377 0.7896374925
C -1.285857908 1.5271953695 1.2733323008
C -2.7782184779 1.5702436301 1.3671392108
O -3.4609283406 2.7371258761 1.0191117078
C -3.3959445776 0.5819793347 2.3331672541
C -3.2432366282 0.2213804657 0.8668814977
C -2.0069663173 -0.5621164885 0.4345020853
H 1.2836513631 1.6801207603 0.1546119908
H 0.6886521606 -0.5414897956 -0.3846269106
H 0.8463634403 -0.8299664409 1.3413883109
H -0.6529028336 2.341754139 1.6053615759
H -3.5130987789 3.2957878741 1.8017627805
H -2.7611862429 0.1065284533 3.0746521389
H -4.4109549458 0.7913552764 2.6568487135
H -4.1518911902 0.151655348 0.2817190907
H -1.9293800194 -1.5296485993 0.9487111119
H -2.0192231297 -0.7868531671 -0.6408145012

