# b3lyp 6-31G(2df,p) opt Freq 

 titel

0 1
C 1.3289389206 1.0871138922 0.6402592761
C 0.8027988546 -0.28525319 0.2076119598
C 1.565661196 -0.8622386723 -0.9786414283
C 1.335732038 -0.2183844801 -2.3596885049
O -0.041541109 -0.4340003593 -2.7169462822
C 0.8884015384 -1.4879322284 -2.942873285
C 1.077209679 -2.2248318913 -1.5854574572
C 2.109885614 -3.3215625405 -1.6468865586
O 3.2766060327 -3.1944678876 -1.3714204885
H 0.7624246808 1.4773661294 1.4910107704
H 2.3824450404 1.0337883448 0.9361669491
H 1.2483450286 1.8175045966 -0.172262204
H 0.8680515554 -0.9878313885 1.047971038
H -0.2574809762 -0.2119845015 -0.0596511534
H 2.6366754695 -0.9436510923 -0.7690921048
H 1.8327556536 0.6276655087 -2.8191272286
H 0.9669489238 -1.889205766 -3.9467706532
H 0.1348545462 -2.6301243311 -1.201038183
H 1.7164195338 -4.2996262529 -2.0068771218

