# b3lyp 6-31G(2df,p) opt Freq 

 titel

0 1
C 0.9374099602 -3.356850743 -0.0769645789
C 0.6424330035 -2.1817136352 -0.9643856115
C -0.6842740928 -1.9517667119 -1.7328453141
C -0.0545538237 -0.5400679348 -1.9267792071
C 1.1753574938 -0.9222322325 -2.7553662827
O 1.6407401198 -2.0635280437 -2.0029084437
C 0.4958700213 -0.70218674 -0.4572071448
C 1.7123660999 0.0390179218 0.0123936534
O 1.7121638602 0.7978383117 0.9523297208
H 0.1900507041 -3.4352810442 0.7170563913
H 0.9270560808 -4.28316513 -0.659523813
H 1.925062564 -3.2560411897 0.3831168131
H -0.853084464 -2.5650177439 -2.6219429331
H -1.5628931732 -1.9441104056 -1.086402341
H -0.6291679238 0.3342324605 -2.227383542
H 0.9198456223 -1.2202544761 -3.7789329357
H 1.953391327 -0.1526347225 -2.7968724344
H -0.3050761778 -0.5842018393 0.2745861621
H 2.6457680083 -0.1659685616 -0.5530953988

