# b3lyp 6-31G(2df,p) opt Freq 

 titel

0 1
C 0.2435283908 -0.7926023122 0.7230574781
C 1.5107845942 -0.2396998169 0.1392385295
C 2.23226902 -0.7190618024 -1.1227144579
C 3.3175771117 0.3031595116 -0.6084707055
C 4.6475823336 -0.3627206092 -0.2651214352
O 3.9750768006 -1.0901524677 0.8126509665
C 2.8982977675 -0.1063112735 0.8215897307
C 2.590168658 1.6162699322 -0.7825292782
O 1.3307672632 1.19290823 -0.1591083024
H -0.0330820742 -0.2404912124 1.6265011444
H -0.5804653167 -0.712614175 0.0073840653
H 0.3785292169 -1.845677606 0.9853923245
H 2.5789013383 -1.7497502512 -1.0711531774
H 1.7468837716 -0.5014591034 -2.0763797649
H 5.0894030118 -1.0390580607 -1.0031362815
H 5.4144206912 0.3115740801 0.1377016115
H 2.9646621917 0.5665756336 1.6820336137
H 3.0175248554 2.4500666551 -0.2169006431
H 2.4000617044 1.930070028 -1.8146729582

