# b3lyp 6-31G(2df,p) opt Freq 

 titel

0 1
C 1.5087640771 0.122760183 0.0845047452
C 0.0543796511 0.0580603663 0.0721236688
C -1.1485859042 0.0056712008 0.0511401076
C -2.6092666978 -0.0311304215 0.0449704042
C -3.1385742766 -0.7853096737 1.2757153102
O -4.5456627751 -0.8934834842 1.1366732659
C -3.2185839979 1.3872232758 -0.0428131735
C -2.9179036846 2.0676599942 -1.3575565418
O -2.582375189 3.2168023264 -1.4799246408
H 1.9132394939 -0.2136645292 1.0454399317
H 1.942271059 -0.509756801 -0.6978252599
H 1.8598457675 1.14671746 -0.0831247908
H -2.9505075804 -0.5975258847 -0.8339395942
H -2.6596908836 -1.7738507576 1.3200963953
H -2.8595000612 -0.2349502695 2.1866713543
H -4.9035774973 -1.2780643904 1.9416359923
H -4.3084318011 1.2822016569 0.0389749461
H -2.8696102434 2.0235368336 0.7750729995
H -3.0529873365 1.4128021947 -2.25156041

