# b3lyp 6-31G(2df,p) opt Freq 

 titel

0 1
C 1.5705395574 -0.0966615914 -0.0099988079
C 0.1180442295 -0.0417489425 0.0550296632
C -1.0832612498 -0.0034794466 0.1083366385
C -2.533848633 0.0718682528 0.1762222983
O -3.0989995781 -1.2171729346 -0.045383037
C -4.5126080351 -1.2169937258 -0.0007996165
C -4.9730314771 -2.6724178182 0.0847782185
C -5.0892227834 -0.5839335955 -1.2664691307
O -6.1419872703 -0.0056286023 -1.3243938074
H 2.025438842 0.2630036748 0.9192965435
H 1.9148018771 -1.1239241653 -0.1717659895
H 1.9572746756 0.5162356459 -0.8313698551
H -2.8505982963 0.4519168669 1.1620011577
H -2.9064371408 0.7933121222 -0.5705031201
H -4.8860248733 -0.6512703365 0.8667686778
H -4.5390564981 -3.1406816913 0.9715225418
H -6.0630151366 -2.7216974712 0.1466554946
H -4.6414041012 -3.2314656669 -0.7955583007
H -4.4441554284 -0.7410056747 -2.1633218791

