# b3lyp 6-31G(2df,p) opt Freq 

 titel

0 1
C -0.086794787 -0.3600918947 0.0282124262
C 1.3480991167 0.102517657 -0.0109191623
C 1.8864087811 0.7078324835 -1.3456381154
C 3.2919123813 0.0893202509 -1.2422371626
O 2.9483626521 -1.3287350851 -1.1309354906
C 2.4887968029 -0.9582111508 0.1892096137
C 3.5881337241 0.1158227479 0.296182612
C 2.9974667432 1.2612456651 1.1061091815
O 1.5775325435 1.0466582744 1.0430263103
H -0.3338809424 -0.7570101873 1.0175161903
H -0.7713699559 0.4657831021 -0.1877797459
H -0.2458375086 -1.1452054552 -0.7166872577
H 1.3761783 0.3342529986 -2.2359634364
H 1.8472438913 1.7997508907 -1.3300568525
H 4.0415887022 0.3073310319 -2.0025851086
H 2.3315053343 -1.7853572291 0.8804300976
H 4.5838990777 -0.2317386052 0.5644013539
H 3.3080661428 1.2314100014 2.1565075604
H 3.2585567307 2.2505255238 0.703804986

