# b3lyp 6-31G(2df,p) opt Freq 

 titel

0 1
C -0.9608918635 -0.053176269 -2.3710523098
C -1.5447839087 -0.0393102633 -0.9671918387
O -2.9368344849 -0.1478085081 -1.1199260019
C -0.9741575096 1.1006566873 -0.0305292081
C -1.7205602182 0.8305830197 1.2954661654
C -1.6052105729 -0.741759937 1.3587363199
C -0.819452177 -1.0052408271 0.0543498575
C 0.2100859578 0.1344753678 0.148204791
O 1.3986963782 0.2254144574 0.2366315836
H -1.2332892487 -0.9823886453 -2.8797905128
H -1.364771304 0.7811695264 -2.9517258225
H 0.1288047874 0.0285761184 -2.3572229417
H -3.3639481376 -0.1420831856 -0.2583720135
H -0.8542926637 2.1298189211 -0.3634268331
H -1.2406174613 1.3190556726 2.1463129531
H -2.7561967883 1.1835843692 1.2620178956
H -1.0644414294 -1.0854908068 2.2432129767
H -2.5781498124 -1.2433540631 1.3592154576
H -0.5488275631 -2.0292015947 -0.1958997684

