# b3lyp 6-31G(2df,p) opt Freq 

 titel

0 1
C -0.1982472 1.2080208905 0.7245896754
O -0.1150149859 -0.1897742003 0.3667887611
C 1.1333651777 0.0055438635 -0.3268534536
C 1.1496422702 1.495014525 0.0566356943
C 1.4599197072 2.6179033659 -0.9773917466
C 2.9633579473 2.355237704 -0.6430515348
C 2.3568521168 2.1486870236 0.7651503619
O 1.8591255882 3.4493029548 1.1187112835
C 1.1997644179 3.8531357966 -0.1071761389
H -1.0706462446 1.6963790252 0.2684100643
H -0.2333988355 1.3597708724 1.8102070201
H 1.9375589263 -0.6146725899 0.0909373684
H 1.0451220595 -0.2068023579 -1.4012454737
H 1.0612054358 2.6098270183 -1.9915460579
H 3.3458850713 1.4380199406 -1.0940624562
H 3.6727950889 3.1771020085 -0.7641098927
H 2.8810593715 1.7086526521 1.6124483432
H 0.1364174591 4.0400466108 0.0836730928
H 1.6578335282 4.7688420963 -0.4981146106

