# b3lyp 6-31G(2df,p) opt Freq 

 titel

0 1
C -0.122679208 2.5602418535 0.0536222234
C -0.6842131074 1.1649614577 0.04441305
C -1.7277904892 0.6147950884 1.0861375191
C -2.0039982668 -0.4573942969 -0.0064286966
C -0.6719100425 -1.2300574656 -0.0223609464
C 0.276886551 -0.0112641925 0.0053731054
O 1.4788522153 0.0053668577 -0.0295824447
C -1.7174786398 0.6546876382 -1.0577160035
O -2.751589635 1.5394784189 -1.3894258678
H 0.3250023762 2.799636159 1.0234820186
H 0.6617453492 2.6617281833 -0.7027876353
H -0.9039091084 3.2965698042 -0.158797161
H -1.351865113 0.2785322859 2.0567998483
H -2.5551290425 1.3092395732 1.2552198221
H -2.9279468645 -1.034656514 -0.0321246857
H -0.5276258751 -1.8711966391 0.8528050992
H -0.5092173992 -1.8341900119 -0.9205098282
H -1.2919505408 0.3362665912 -2.013925184
H -3.2209228196 1.803906659 -0.5915158628

