# b3lyp 6-31G(2df,p) opt Freq 

 titel

0 1
O -2.6885958043 -0.943296666 -1.4921606387
C -2.4118633239 -0.7969651393 -0.1031235681
C -1.0049497128 -1.3122382808 0.2325662824
C -0.0700727194 -0.1585470216 -0.1607423835
O 1.084270034 -0.2671166162 -0.4840957078
C -0.8583677454 1.1437553849 -0.0619000363
C -0.845197221 1.7638378518 1.3751679634
C -2.2637644165 1.1807059346 1.6332796023
C -2.3414865446 0.716489447 0.1499305695
H -2.5743473399 -1.8694689062 -1.7283025601
H -3.193785601 -1.2750561525 0.5052741983
H -0.8957534044 -1.4874877917 1.3113079625
H -0.733304417 -2.242284982 -0.2734408822
H -0.593860496 1.817344773 -0.8770090513
H -0.0426538615 1.4269745451 2.0363538658
H -0.8259102393 2.855129448 1.3488453148
H -2.2876454562 0.359915143 2.3564411119
H -3.0207713069 1.9083153703 1.9324731078
H -3.0900907839 1.2318932385 -0.4520729206

