# b3lyp 6-31G(2df,p) opt Freq 

 titel

0 1
C 2.8631380598 -3.724271525 -1.2170292035
C 3.2129764466 -2.253246712 -1.2074885629
C 4.4968343046 -1.7676165171 -0.5529640076
C 3.1756523487 -1.459040184 0.0751589659
O 2.9209498151 -2.117223697 1.2917968471
C 2.6517479324 -0.0288882593 0.0960795298
O 3.2573565434 0.7128234342 1.1418711146
C 1.1827455516 -0.0506964911 0.2253640584
C -0.0091911664 -0.1228375795 0.3714362965
H 3.1140898412 -4.18842747 -0.2597503804
H 1.7924843787 -3.8754164396 -1.3945514311
H 3.4084348124 -4.2523275732 -2.0061259778
H 2.907030894 -1.7074124916 -2.0972974574
H 5.1031747993 -2.5091968762 -0.0440547708
H 5.054819779 -0.9584631599 -1.0111700618
H 1.9624505048 -2.2230869891 1.3620099849
H 2.9260257348 0.4754930324 -0.8370384102
H 3.2342317168 0.1357149299 1.9167789815
H -1.0651252465 -0.1512190119 0.4848977351

