# b3lyp 6-31G(2df,p) opt Freq 

 titel

0 1
C 1.1864077348 -0.8984311561 -1.0573621921
C 0.9420600187 -0.03047548 0.1584234884
C 1.8439967293 -0.2682952088 1.3632553066
C 1.3827515895 0.6399128415 2.5022017067
O 1.412066896 1.7985156198 1.630490111
C 1.9491531561 1.0107950445 0.5467210027
C 2.9931643288 1.6623297535 -0.2983070675
C 2.4170629667 0.7699711792 3.6042967186
O 2.3717004798 0.1570504174 4.6381628176
H 0.650743471 -1.8491194227 -0.9677424691
H 0.8437464571 -0.404118426 -1.9724269917
H 2.2484874555 -1.1328832581 -1.1815288932
H -0.1022013117 0.2106760043 0.3518705607
H 2.4990272562 -1.1251377075 1.4523562757
H 0.3939840772 0.44723174 2.9335547054
H 3.8410141986 1.9945913658 0.3084192047
H 3.3612857367 0.9782369032 -1.0666622168
H 2.5721762344 2.5406978718 -0.8008862381
H 3.2426543751 1.4754976883 3.3593934806

