# b3lyp 6-31G(2df,p) opt Freq 

 titel

0 1
O 0.3595725042 -0.1424193554 -2.0978375877
C 0.3202848089 1.1468282391 -1.56939396
C 0.8205064843 1.4076020127 -0.1066336229
C 1.4933828696 2.7394091881 -0.6246799849
C 1.3198221502 2.2138673247 -2.052006427
C 1.3510397703 2.945687204 -3.3561637978
C 2.4251320546 1.9333426363 -3.0260296559
C 1.8707503536 0.4628913834 0.3961124739
O 2.4228677655 -0.3903794732 -0.2642371807
H 1.201240776 -0.5278295462 -1.8106788108
H -0.7114555216 1.5004580064 -1.6783716084
H 0.0622190204 1.5452149148 0.6700005419
H 0.874630134 3.6110756474 -0.3951843873
H 2.5145366187 2.9344725782 -0.2849551008
H 0.6117698988 2.6771690842 -4.1046808079
H 1.6194556337 3.997611842 -3.3487748767
H 2.3960812821 0.9792821956 -3.5421245905
H 3.4218222747 2.2952135431 -2.794657757
H 2.1642408122 0.6161874649 1.4584871306

