# b3lyp 6-31G(2df,p) opt Freq 

 titel

0 1
O 4.2883668537 -0.1871851392 2.1579683567
C 2.9283400389 -0.2863056605 1.9321604766
C 2.2214485647 -1.6022797085 1.7965686224
C 2.2391526159 -0.637389459 0.6230522478
C 1.1955332225 0.4511436801 0.8626318268
C -0.3243230322 0.2138503602 0.7290661025
C -0.2613522719 1.3273275704 -0.3324482492
O 1.1573008785 1.497695923 -0.1301189376
C 1.9197893161 0.8429926364 2.1880795297
H 4.4726235097 -0.5088291978 3.0473124276
H 2.8807659556 -2.4557829487 1.6729739822
H 1.2974037716 -1.8145131365 2.3316044884
H 2.653685003 -0.9041045767 -0.341153478
H -0.6060586709 -0.7755356329 0.36404331
H -0.9104073564 0.4505401688 1.6190407544
H -0.4928764998 1.0212273461 -1.3597516305
H -0.8189578049 2.2425729642 -0.1012257496
H 2.3755491764 1.8273260769 2.0596079536
H 1.3460073595 0.8149039537 3.1216988664

