# b3lyp 6-31G(2df,p) opt Freq 

 titel

0 1
C -4.1743773569 -0.4798879384 1.05682936
C -2.7793612705 0.0870768472 1.3550569539
C -1.9358222938 -0.8398862327 2.2672705219
C -1.2901357421 -1.8655722691 1.3090594598
C -1.0190488911 -1.0629859924 0.0241489909
C -1.9465330063 0.1768951312 0.0764195505
O -0.7676734395 1.047718158 0.2324597039
C 0.0932138617 -0.0188226637 0.1556394324
O 1.2811367343 0.002832562 0.2033925696
H -4.7550140543 -0.578805386 1.9786729043
H -4.7307696673 0.174215683 0.3776015948
H -4.1215513519 -1.4704141232 0.5914425057
H -2.8864170568 1.0836882625 1.7950546928
H -1.1559991342 -0.2561591629 2.7665489326
H -2.5358193679 -1.3130101177 3.0490535739
H -0.3791811018 -2.3132394187 1.7144400186
H -1.9835579322 -2.6828502965 1.0860321338
H -0.9739180667 -1.6559737013 -0.8892814953
H -2.4983799027 0.4647483387 -0.819767884

