# b3lyp 6-31G(2df,p) opt Freq 

 titel

0 1
C 1.2549665992 1.1978624486 0.1306948437
C 0.1830625114 0.7961904323 -0.8391729168
C 0.4002560906 -0.659831188 -1.2687125811
C 1.8090455084 -0.2621440597 -1.8098969451
C 2.0396228127 -0.4489212047 -3.3145807792
O 3.4507160286 -0.5541821656 -3.4149370332
C 3.8234160095 -1.2875583596 -2.2759443038
O 2.9264021854 -0.9401208122 -1.2369970906
C 1.5825163287 1.1765478057 -1.3366062799
H 1.1543073489 2.1890747698 0.560981766
H 1.6987881214 0.462112636 0.7960522562
H -0.7411664919 1.3488738107 -0.9467112405
H 0.4015403328 -1.4042340508 -0.4671442671
H -0.2676705698 -0.9967325774 -2.0670752344
H 1.5474721355 -1.3691788445 -3.6701029485
H 1.7075612306 0.3944665967 -3.9228801117
H 3.7610908134 -2.3741534034 -2.4672820409
H 4.8481889169 -1.0143042968 -2.0022976442
H 1.9149376678 2.0625189328 -1.8656106486

