# b3lyp 6-31G(2df,p) opt Freq 

 titel

0 1
O -2.4848117449 4.6860773158 0.4225650709
C -1.8357894469 3.5313782814 0.0369299799
C -2.1485923293 2.0580131195 0.4473908151
C -0.9907293179 1.9915522228 -0.6006756639
C -0.3053701245 0.7569887774 -1.1442604987
C 0.3045456747 -0.0927123799 -0.04892806
O 1.4665322084 -0.3994174037 0.0170040306
C -1.7775737724 3.0535883549 -1.4303273138
C -0.3196784649 3.1811436975 0.1547080308
H -2.3739113962 4.7984717131 1.3728586707
H -1.9024336312 1.7692370506 1.4737862795
H -3.1164651935 1.6567377421 0.1342713093
H -1.0487020242 0.1380516005 -1.6680756688
H 0.4813294188 1.0227569989 -1.8568881184
H -0.4212958063 -0.4306956716 0.726719487
H -1.1907175714 3.6652908004 -2.1206966917
H -2.7198494068 2.724288212 -1.8766984046
H 0.0654864598 2.9694710401 1.1569316763
H 0.3730041583 3.7978124083 -0.4240794002

