# b3lyp 6-31G(2df,p) opt Freq 

 titel

0 1
C 1.4089048682 0.1644348084 0.0227399102
O 0.0096665777 -0.0180483386 0.1757060015
C -0.5023831909 0.5869540758 1.2954094896
C -0.3875408378 0.1174906446 2.746979865
C -1.5674316355 1.0948822368 3.0106091274
C -1.9170884331 1.0433647642 1.4628876189
C -0.8194850057 2.0984773918 1.3164582177
C -0.9604630263 2.5110561674 2.7790724503
O -1.851776928 3.5807850732 3.0033564056
H 1.9680655896 -0.277323594 0.8588842785
H 1.6960679168 -0.3404320187 -0.901850652
H 1.6680883976 1.229602406 -0.0485025718
H -0.6905950993 -0.9290951638 2.8432278623
H 0.542322746 0.2909240744 3.3012148396
H -2.2632420473 0.9324617195 3.8308494122
H -2.8080545099 0.8304671944 0.8911375471
H -0.6052489109 2.7161994019 0.4526923059
H -0.0571076699 2.7578490865 3.347558227
H -2.6128025012 3.4477862202 2.4250961549

