# b3lyp 6-31G(2df,p) opt Freq 

 titel

0 1
C -0.0030906064 0.2844186371 0.1962054347
C 1.490592285 0.0959701209 -0.0228790792
C 2.3631540875 -0.5322138133 1.091520312
C 3.6526761718 0.1995892793 0.5714464087
C 3.9924139787 0.7168086126 1.9815261747
O 4.7367449126 1.9008607382 2.1505237635
C 2.4576827293 0.7937278658 1.907421804
O 1.5706577341 1.1720071717 2.8954707282
C 2.4771505569 1.2206051027 0.3718766456
H -0.2110414636 0.7119402361 1.1800462782
H -0.4261356985 0.9511123033 -0.5641625901
H -0.5315955906 -0.6727255884 0.1208490263
H 1.6884916547 -0.3250449729 -1.0169695867
H 2.33570534 -1.5374128764 1.5154416246
H 4.3133026097 -0.1674283058 -0.2110471236
H 4.4063474525 -0.0121487792 2.6854920436
H 4.4946726677 2.510129821 1.4441316479
H 1.9154637484 1.9722386398 3.3085411839
H 2.5519203101 2.2311986576 -0.0371622764

