# b3lyp 6-31G(2df,p) opt Freq 

 titel

0 1
O 0.3018137829 -0.23991353 0.3715951994
C -0.8251610847 0.4443104954 0.8595240436
C -1.1497494962 0.3179629579 2.3792350623
C -1.2855423231 1.8561010955 2.4731001566
C -0.7356624404 1.999166488 1.0041118862
C -2.0135077792 2.7688259678 0.581913122
C -2.6108650913 2.4401315267 1.9576572815
C -3.9846425925 2.1000814145 2.3371242612
O -3.3948858346 3.358041832 2.6958774192
H 1.0544981182 -0.0166842315 0.9298139406
H -1.6502066979 0.1341384446 0.2104544132
H -2.0088176583 -0.2936088837 2.6693666771
H -0.2712744414 -0.0418569262 2.9263155171
H -0.8635782348 2.3701698303 3.3374410053
H 0.2348743626 2.4337208031 0.7612518561
H -1.8428905188 3.8449138479 0.4828390572
H -2.544544592 2.4105257223 -0.3052963514
H -4.7801787565 2.1530774363 1.5945335029
H -4.1680553421 1.4182413492 3.16693528

