# b3lyp 6-31G(2df,p) opt Freq 

 titel

0 1
O 1.1387257536 -0.136254783 0.6767745813
C 0.0146110264 -0.0871591591 0.2699781655
C -1.0838114355 -1.134561579 0.0262475482
C -2.1098957074 0.0376257695 0.0926660103
C -3.240488742 0.1093801847 -0.9270841552
O -2.7796118678 0.3849652711 -2.237472754
C -2.0838784632 1.6202841283 -2.2937465469
C -0.7459041788 1.5196318873 -1.5629728963
C -0.9372943882 1.0677591276 -0.092608756
H -1.0094349564 -1.5564189515 -0.9821965318
H -1.1626590686 -1.9494803975 0.7488958248
H -2.5271272075 0.1157931395 1.1008282676
H -3.7785309808 -0.8425993495 -0.9836205927
H -3.9622875063 0.8853208248 -0.6186006675
H -1.9305315259 1.8415749686 -3.3539206234
H -2.7068454794 2.4240999436 -1.8653140818
H -0.1258789529 0.7968438518 -2.1054938056
H -0.2128935255 2.4746039311 -1.5941948685
H -0.9302249539 1.9236471015 0.5865337819

