# b3lyp 6-31G(2df,p) opt Freq 

 titel

0 1
C -0.0354078165 -0.0636032884 0.1491024413
C 1.476148776 -0.1303130288 0.0603789666
O 1.9504743764 0.296299882 -1.2642918903
C 2.8563855502 -0.8222503581 -1.3524187473
C 2.1523711515 -1.5080258857 -0.1581430304
O 2.8650056472 -2.0913034629 0.8955908704
C 3.7351111084 -1.2309722609 1.6125142887
C 3.2041336771 0.1579856951 1.8154265402
C 2.1745602728 0.6535833668 1.1336635737
H -0.381433593 -0.5009796821 1.0914941117
H -0.3773012648 0.9762729594 0.1099324337
H -0.4924351478 -0.6053881604 -0.6836593679
H 2.798675112 -1.3235029479 -2.3238750246
H 3.897116505 -0.5311062138 -1.1570608504
H 1.4404842545 -2.2686781322 -0.4861565935
H 3.9042629026 -1.7198263281 2.5793355035
H 4.7206227972 -1.1772061049 1.1169648575
H 3.730487099 0.7625525217 2.5502231813
H 1.8309544721 1.6716177593 1.3014505959

