# b3lyp 6-31G(2df,p) opt Freq 

 titel

0 1
O -0.5910948427 1.4089191117 -0.0002177654
C -1.4248318746 1.1431695964 1.1087895572
C -0.9687004986 -0.0445106756 2.0247265607
C -2.2433691959 -0.9033247965 1.9718026505
C -3.3666210112 0.1786649572 2.1408533672
C -2.8456396236 0.6509827942 0.7548409831
C -2.6144108649 -0.8570252873 0.4503686861
C -2.2945369503 -2.1885687497 2.728532952
O -1.3868111452 -2.6409852137 3.3818147399
H -0.4814772718 0.5947443367 -0.5025149207
H -1.4644546735 2.0885449524 1.6569796769
H -0.0984095733 -0.5567873429 1.6049552221
H -0.7142117621 0.2619242488 3.0417418325
H -4.3733944038 -0.2432559862 2.0959545396
H -3.2771644128 0.8593489885 2.992334377
H -3.433599153 1.2915029128 0.098045832
H -3.5417710723 -1.3879859424 0.2241765083
H -1.8393523257 -1.1520542646 -0.2648357225
H -3.2670217048 -2.7299473398 2.6489939635

