# b3lyp 6-31G(2df,p) opt Freq 

 titel

0 1
C -0.1134724001 0.3456515348 -3.1640935966
C -0.3066845294 -0.1808674197 -1.7432836762
O -0.4220384504 0.9263550632 -0.8288143005
C -1.4782442426 -1.1277768436 -1.5722633846
C -1.1699872469 -2.1869190173 -0.8296552625
C 0.2750797008 -2.1807573005 -0.3969290983
C 0.8999889851 -1.0458296858 -1.247362232
C 1.9270292484 -0.2155357568 -0.5035615528
O 3.0006387451 0.0927457891 -0.9548947852
H -0.0312063215 -0.4759305593 -3.8820103673
H -0.9669780473 0.9663286471 -3.4634915639
H 0.7920800954 0.9564466147 -3.2223130416
H -1.15944801 1.4749244904 -1.1163412687
H -2.4589446662 -0.8988350727 -1.9775401386
H -1.8619967819 -2.9658411719 -0.5278096101
H 0.3567275005 -1.9783480867 0.6809635066
H 0.7783745982 -3.1381377098 -0.5685590586
H 1.3991766506 -1.4672287376 -2.1230028364
H 1.6190411323 0.0938965225 0.5176033673

