# b3lyp 6-31G(2df,p) opt Freq 

 titel

0 1
O 0.4048864421 0.4395862743 1.1392387195
C -0.9444925077 0.9020625152 1.0965974634
C -1.0571843813 1.8627592754 -0.0547166932
C -2.2189753157 2.1291063347 -0.6479894956
C -3.5039980999 1.4687094683 -0.2198384072
C -3.281896896 0.0389364611 0.2666662441
O -2.9546024149 -0.8484441656 -0.826330461
C -1.6920225047 -1.2094540649 -0.2291232939
C -1.9295121094 -0.2680430901 0.9683388199
H 0.5115701283 -0.0916540026 1.9349762661
H -1.1730724693 1.4485287478 2.0291862123
H -0.1340807324 2.349511425 -0.3538819158
H -2.2637705395 2.8538991171 -1.4557361743
H -3.9835487252 2.0504103723 0.5819005951
H -4.2223647442 1.4370026932 -1.0465372952
H -4.1664238835 -0.3212067717 0.8078543238
H -1.6451852263 -2.2782367123 0.0131982079
H -0.841317425 -0.9437551137 -0.8654672499
H -2.0307807252 -0.7822957237 1.927987804

