# b3lyp 6-31G(2df,p) opt Freq 

 titel

0 1
C 0.0085215365 0.0158597465 0.0317679239
C 1.5211361535 0.0628162373 0.015793347
C 2.2673864204 -0.9337340119 -0.8347983273
C 2.2907725334 -1.0499897842 0.6838702151
C 3.772459816 -0.8025104924 0.9665790486
O 4.4853657995 -1.9873120661 0.6012416138
C 4.5229538847 -1.9451587209 -0.838256524
C 3.7386496864 -0.6440959084 -1.1398947146
O 4.1514498114 0.1480217104 -0.0123798801
H -0.3887472845 0.4423040036 0.9590994619
H -0.4120710993 0.5843739002 -0.8046848824
H -0.3608315237 -1.0122671498 -0.0456457472
H 1.953028743 1.0564915449 0.0867148213
H 1.7289850209 -1.6422801131 -1.4535179997
H 1.7833439225 -1.847083885 1.2129746962
H 4.0782107077 -0.4841347297 1.9626471212
H 5.5646035944 -1.8909929978 -1.1739920574
H 4.047629789 -2.8375775671 -1.2591653298
H 3.9843784478 -0.1323079267 -2.0696645864

