# b3lyp 6-31G(2df,p) opt Freq 

 titel

0 1
C 2.4697117789 0.0386041787 2.8183787267
C 3.5938335051 0.0503311224 1.7959550617
O 4.7481040203 0.2434347114 2.1263003413
C 3.2582130906 -0.1824415745 0.3771829212
C 1.9636302735 -0.7651723954 -0.1881426575
C 2.3568494367 0.6000957939 -0.6210171661
C 1.5485381362 1.8516899854 -0.5185345479
O 3.3464911436 0.5447980897 -1.640597891
C 4.2822861117 -0.1247552075 -0.7462703007
H 2.0461246528 -0.9683613604 2.9040486884
H 2.8682341527 0.3443272982 3.7862317099
H 1.6531400991 0.7090855179 2.5294673758
H 2.0265999689 -1.5953113636 -0.8872483357
H 1.1405978921 -0.8193194692 0.5167477045
H 0.8688631312 1.8131558384 0.3367497407
H 2.1935584745 2.7296986687 -0.4239973902
H 0.9420759432 1.9713812597 -1.4238213074
H 4.6363639549 -1.0765085242 -1.1571199715
H 5.1275245738 0.5251358403 -0.5083808521

