# b3lyp 6-31G(2df,p) opt Freq 

 titel

0 1
C 1.0752368411 -4.6287021576 0.7560308855
C 0.6172071236 -3.6270873452 -0.3057429258
O -0.8038326946 -3.4505476342 -0.2328318072
C -1.1350051921 -2.0703592144 -0.1329517115
C 0.1901961582 -1.3497465649 -0.0341813564
C 1.1743773675 -2.2449296826 -0.144004532
C 0.3908965977 0.1136671802 0.1389576349
C -0.8578270091 0.9706665394 0.2286370813
O 1.5039970241 0.5945823881 0.205336507
H 0.543947657 -5.5751317617 0.6247750199
H 2.1495373789 -4.8197467076 0.6672266198
H 0.8663813155 -4.2472155516 1.7594839797
H 0.8770095109 -4.029512412 -1.3007036972
H -1.7146771662 -1.7551209908 -1.0160586035
H -1.7776191167 -1.909890981 0.7458039275
H 2.2313580285 -2.0126516654 -0.1227962733
H -1.4758190624 0.6583690907 1.0787205873
H -0.5776510047 2.0178627149 0.3440988708
H -1.4724194073 0.8494426458 -0.6711699369

