# b3lyp 6-31G(2df,p) opt Freq 

 titel

0 1
C -2.2792849681 1.4821302149 0.7158829567
C -1.2441730165 1.8126518445 -0.33017929
O -0.6578292508 0.631057001 -0.9081559543
C 0.206363593 -0.0700065855 -0.1558734572
O 0.5637693298 0.1834132699 0.9605841866
C -1.3650999396 2.8487356734 -1.4115531279
C -2.0378204265 4.1239952736 -0.8954485407
C -0.941165853 4.2379541235 0.2167514673
C -0.2805215465 2.9636725681 -0.3200633304
H -1.8102338622 1.0044598856 1.5790987012
H -2.7945508857 2.3806888155 1.0605722208
H -3.0302635676 0.8025243342 0.299887462
H 0.5426694939 -0.9392304827 -0.7437034414
H -1.2676553549 2.5508208346 -2.4485460185
H -1.9753274323 4.9434333773 -1.614114385
H -3.0787975603 4.03264587 -0.5698311366
H -0.3123735764 5.1199983388 0.0811272514
H -1.2754793906 4.2111640332 1.2580299227
H 0.7850492242 2.78296699 -0.3816038066

