# b3lyp 6-31G(2df,p) opt Freq 

 titel

0 1
C 3.5264564174 -0.4590133578 -3.4497582226
C 2.3739633215 0.2725401328 -2.7479063168
C 2.7846904631 0.9744690805 -1.4625174985
C 2.5617029173 2.4173270476 -1.2883821387
O 3.8633475722 1.9090380949 -1.5860551981
C 2.8389589622 0.1438168064 -0.1793484902
O 3.6624967093 -0.994921627 -0.4071211587
C 1.4942092804 -0.2462100561 0.2594095748
C 0.4078093444 -0.5957898967 0.637790594
H 3.1847942113 -0.8775982364 -4.4013938806
H 4.3447866992 0.236369504 -3.6566729415
H 3.9147122238 -1.2679514625 -2.8298937006
H 1.9565633329 1.0229385641 -3.4281228528
H 1.5620064397 -0.4258371857 -2.5158360581
H 2.0797767242 2.97720921 -2.0881969929
H 2.4408638026 2.8402898963 -0.2913176547
H 3.2901871212 0.7874074582 0.5916136564
H 3.5431514078 -1.5973536287 0.3343280001
H -0.5557916705 -0.8961231138 0.9692938794

