# b3lyp 6-31G(2df,p) opt Freq 

 titel

0 1
C 0.5066316063 -2.1533686811 -0.6439358639
C -0.3327123941 -1.2405542504 0.2573207496
C -0.0812474403 0.2581418702 0.1475028743
C 1.3042124691 0.8212969322 0.1760757553
C -1.221393488 0.9534505405 0.0533567706
C -2.4465399056 0.0852473797 0.138069044
O -3.4401115773 0.3590250013 -0.8234982333
C -1.8285076429 -1.3067093228 -0.0616237993
O -2.4349387703 -2.238637159 -0.5269219252
H 0.1231085353 -3.1755021907 -0.595910791
H 0.4563231211 -1.8256115201 -1.6869134741
H 1.5554462227 -2.1608604939 -0.3352895954
H -0.1991774926 -1.5653441737 1.3024157399
H 1.8207873045 0.5558232806 1.1075942779
H 1.9141844419 0.4224278444 -0.6429646441
H 1.291475808 1.9111179243 0.0922544247
H -1.2866021415 2.0328767555 -0.0235388636
H -2.8817512815 0.131510606 1.1555036146
H -3.7950616449 -0.502022793 -1.0863202907

