# b3lyp 6-31G(2df,p) opt Freq 

 titel

0 1
C -0.1263401532 0.6591490169 -0.7666954013
C 1.3805289337 0.6677195421 -0.8802099693
C 2.2410000908 1.2919174391 0.2128592522
C 3.5312875458 0.9509669061 -0.5355620793
O 3.3610775271 1.5901545296 -1.7943435623
C 2.0495009202 1.1770190785 -2.2181380693
C 2.1162014499 -0.2832351349 -2.721448608
C 2.1347706301 -0.6769599112 -1.2265399643
O 3.4553524756 -0.4596744017 -0.6979960976
H -0.4487408963 0.1206942567 0.1311480742
H -0.5204874611 1.6792822974 -0.7036244385
H -0.5980291652 0.1756963072 -1.6288008085
H 2.092131105 2.3677694132 0.3300889428
H 2.164950783 0.7841157396 1.1770777008
H 4.5007392023 1.2180730354 -0.1195216055
H 1.60070816 1.966227924 -2.8241692064
H 1.1936984449 -0.5928091162 -3.2209394866
H 2.987226217 -0.5614285797 -3.3164728094
H 1.7669556604 -1.6483526021 -0.8909128437

