# b3lyp 6-31G(2df,p) opt Freq 

 titel

0 1
O 1.407554676 -0.5786662704 5.8305995075
C 1.8027990347 0.122468379 4.6645028719
C 0.6090810772 0.5947446629 3.82700345
C 1.0233632974 1.3695092654 2.5918500788
C 0.090285809 2.3619155111 1.9984427403
C 0.6725781626 2.9021469184 0.6826553991
C 1.8695036968 3.4378818 1.5204093529
O 2.7725887331 4.1825795639 1.2654127665
C 1.329022712 2.8590583849 2.7920195042
H 0.9724248158 -1.3916786288 5.5548382396
H 2.3767099911 0.9861220804 5.0156422025
H 2.4817634243 -0.4811599586 4.040574422
H 0.0199152669 -0.2803939538 3.5175217681
H -0.045467272 1.2058023447 4.4592495663
H 1.6669445388 0.8126322331 1.9111425567
H -0.9426743624 2.4517498881 2.3082387126
H 0.8815681308 2.1721130666 -0.1050341573
H 0.1170058652 3.7423433788 0.2562516213
H 1.4127335327 3.2770137543 3.788023227

