# b3lyp 6-31G(2df,p) opt Freq 

 titel

0 1
C 0.6235844671 1.0664641371 -1.5443452403
C -0.7506039982 1.6643862728 -1.1771935616
O -1.8310751939 1.0414221675 -1.8803783749
C -2.0405998361 -0.3426283756 -1.6349055459
C -0.865648481 -1.2727563126 -1.9632475938
O 0.192185925 -1.3462541528 -1.0183897916
C 0.7664885454 -0.112356671 -0.5648954662
C 0.0104206711 0.4079457226 0.6506684289
C -0.8128301231 1.4006876744 0.3160988869
H 0.7047945326 0.7903342867 -2.5968297589
H 1.4050901012 1.8003107571 -1.3251151264
H -0.8370094866 2.7207517082 -1.4436027989
H -2.3652378312 -0.5255907655 -0.6018975572
H -2.8682781314 -0.6119482694 -2.3002303757
H -1.2579686366 -2.2948413767 -2.0114045642
H -0.4852144302 -1.0213315766 -2.9650133475
H 1.8102471314 -0.3553545944 -0.3451771306
H 0.1055495972 -0.0483344102 1.6293884503
H -1.5214598926 1.8969160583 0.9693957175

