# b3lyp 6-31G(2df,p) opt Freq 

 titel

0 1
C -0.1694111498 -0.1709708004 0.0691028722
C 1.3343247978 0.0815590277 -0.0287505702
C 2.0215018192 -0.5790440194 -1.2650941453
C 3.3776808279 -1.0437932291 -0.7391771319
C 3.3495356082 -2.0045071255 0.4587173354
O 2.0655312953 -1.9593942509 1.0832150414
C 2.1453050519 -0.4930713766 1.1333147589
C 3.6230557385 -0.5454955591 0.6579538597
O 4.6958728934 0.2231184028 1.0437873799
H -0.6046169995 0.3374887165 0.9362813576
H -0.6893668724 0.1912579674 -0.8236466484
H -0.3659020878 -1.2426500898 0.1688940317
H 1.5251829938 1.1637335565 -0.049472331
H 1.426185443 -1.4210020842 -1.6332721414
H 2.1328802341 0.1286070252 -2.0915548994
H 4.2353023401 -1.1477518868 -1.3952230724
H 3.9337167452 -2.9132589502 0.5421091557
H 1.9120211023 -0.1155622082 2.1323005223
H 4.9035702889 0.0181116442 1.9626640352

