# b3lyp 6-31G(2df,p) opt Freq 

 titel

0 1
O 0.4703639612 0.0165830323 -0.1036415591
C -0.5626889724 0.8380952393 0.3599894779
C -1.8202333788 1.1379701391 -0.5243082985
C -1.188449037 1.7624436164 -1.7877445002
C -0.1321104526 2.7099483516 -1.1129346945
C -0.4160697452 2.3974728218 0.3727025469
C -1.9485865868 2.3788604098 0.3660347814
C -2.9256456647 2.7452756591 1.3810255619
O -2.7985289034 3.4831309045 0.146010626
H 0.7505168691 0.3227954017 -0.9718887071
H -0.8424535311 0.4508829613 1.3416169657
H -2.6275786734 0.4184635392 -0.653145258
H -0.7387437156 1.011033194 -2.4448912761
H -1.9240777934 2.3160971228 -2.3747398684
H 0.899782549 2.4807498389 -1.3981747319
H -0.3127479493 3.761414484 -1.3453873158
H 0.1640802395 2.922521126 1.1302286231
H -3.8482390063 2.1755758765 1.4842604359
H -2.6120272488 3.2844192715 2.2739764509

