# b3lyp 6-31G(2df,p) opt Freq 

 titel

0 1
O 0.3593762214 -0.0830799953 -0.0834577705
C -0.693582455 0.5537033146 0.5803938043
C -2.1906054215 0.2158023247 0.2787391715
O -2.5041391333 1.5715172848 0.782266497
C -1.3390229755 1.773372454 -0.1307775733
C -0.8112957806 3.1558883252 -0.336392671
C -2.0196773245 0.8055992134 -1.1204993908
C -1.6751531511 0.2647678342 -2.4606165264
C -2.9722270324 1.0366722407 -2.2381186653
H 0.6464533986 -0.8308184849 0.4491730455
H -0.503967895 0.7292017419 1.645583461
H -2.8159428647 -0.6078422578 0.6244508508
H -0.5357211223 3.607078872 0.6214858333
H 0.0789504458 3.1233949757 -0.9722617455
H -1.562495601 3.790151156 -0.8167172161
H -0.8826400335 0.7467775335 -3.0237822189
H -1.7380891215 -0.8071044592 -2.6178898842
H -3.0474039564 2.0357833312 -2.6563350465
H -3.9056819275 0.4830292553 -2.2469164149

