# b3lyp 6-31G(2df,p) opt Freq 

 titel

0 1
O -3.4322713169 4.8507943342 1.8635163011
C -2.7160829967 3.983444608 1.0323682158
C -3.1889394478 2.568653858 0.8756258152
C -2.3676110736 1.8431425639 -0.1934399966
C -1.0553600453 2.1659498552 0.6061299405
C -0.3224821597 0.9229727067 1.1312504564
C 0.3338188278 0.1697136606 -0.0022476552
O -0.0066311016 -0.9173024051 -0.3940150221
C -1.896468836 2.8929589164 1.6628764218
H -3.812777245 4.342433075 2.5877360476
H -2.33498561 4.5397589184 0.177789069
H -4.1650075245 2.2671268071 1.2407744582
H -2.5596109446 0.7684491991 -0.2351225929
H -2.4366517342 2.2480030981 -1.2086274804
H -0.3439464192 2.8140297216 0.0779195038
H 0.4566855978 1.2379973153 1.839313742
H -1.0163793288 0.2529302556 1.6479896832
H 1.170806888 0.7178851288 -0.4960906324
H -1.7092553696 2.8847115431 2.7319986251

