# b3lyp 6-31G(2df,p) opt Freq 

 titel

0 1
C -2.3523702385 2.992114476 1.3366036211
C -1.1070537663 2.5055742082 0.6309818766
C -1.0408901602 2.4326928797 -0.854565795
O 0.110599196 2.7160117636 -1.5707238211
C -1.1215156601 1.1322244652 -0.0483693069
C -2.1185057403 -0.0397937749 -0.0252252983
C -0.9028737088 -1.032083053 -0.0343904958
C 0.025057059 0.193416948 -0.0845624175
O 1.2155269168 0.3674679212 -0.2024246836
H -2.4585615679 2.5338527254 2.3256145809
H -2.3184486096 4.0782694748 1.470926808
H -3.2537133091 2.7550531561 0.762223048
H -0.1636499998 2.7295214205 1.1260705993
H -1.9310924791 2.7136056298 -1.4120445467
H 0.8377510755 2.1935526066 -1.1967039687
H -2.7385688877 -0.0979120162 0.8722905883
H -2.7621643568 -0.1159227323 -0.9043395226
H -0.7866957262 -1.632906125 0.8719888519
H -0.8231521869 -1.6925647538 -0.901964008

