# b3lyp 6-31G(2df,p) opt Freq 

 titel

0 1
C 0.2223478362 2.9944225491 -1.1508448984
C -1.13940615 2.3447283687 -1.2458504643
C -1.8416660008 2.2637247761 -2.5357874144
O -2.2133751419 3.2413072328 -1.5651703351
C -1.4946192067 1.3188872202 -0.1802515765
O -1.1855736049 1.8817536329 1.078889379
C -0.7409892057 -0.0211327 -0.389656901
C -1.0430201861 -0.9589733311 0.6841761498
C -1.324844809 -1.6732516539 1.6102780288
H 0.3402169399 3.4722195832 -0.1759022646
H 1.0263851959 2.2600074435 -1.2668003987
H 0.3298005816 3.7495824107 -1.9327713441
H -1.3567403543 2.6483976184 -3.432308062
H -2.5771089237 1.4785120733 -2.7128602351
H -2.5737595903 1.1224287888 -0.2659460485
H -1.3417222122 1.2007658709 1.7446303163
H -1.0185612641 -0.4506637369 -1.3593524628
H 0.3382205254 0.1695879231 -0.415591242
H -1.5593643592 -2.3340138898 2.4081056436

