# b3lyp 6-31G(2df,p) opt Freq 

 titel

0 1
C -2.004545987 -0.1503673399 -1.4212204658
C -0.6558155185 -0.6947536811 -1.9479712046
C -0.0741095989 0.6302655468 -2.483303032
C -0.1016905567 1.4093648554 -1.1463220008
O 1.1299294867 1.1693243358 -0.4713052835
C 1.4371245599 -0.2297522315 -0.4890454472
C 0.10749507 -0.9855430014 -0.5866972144
O -0.6985187601 -0.3402774713 0.4184333137
C -1.293432405 0.7031526847 -0.3566608592
H -2.5589343027 0.3994008545 -2.1856461485
H -2.6549514279 -0.8876451028 -0.9479626385
H -0.6817343466 -1.5373545725 -2.6389325118
H 0.9401017879 0.5797095713 -2.8834722761
H -0.7198689135 1.0635007179 -3.2518487905
H -0.209959259 2.4912036547 -1.2286145179
H 2.1267383755 -0.4797954229 -1.3092488716
H 1.931952725 -0.4601678326 0.4590336239
H 0.2021581972 -2.0478555188 -0.3523853707
H -1.8838253363 1.3444095835 0.2968811854

