# b3lyp 6-31G(2df,p) opt Freq 

 titel

0 1
C -4.3989178569 -0.2800546486 0.8648601744
C -3.41641934 -1.1590365284 0.1248435079
C -3.3551649911 -1.1211185731 -1.3968787819
C -2.2292258889 -0.5611002593 -0.5990329755
C -0.8305860661 -1.1338711554 -0.5059180427
C -0.0826403613 -0.0291934202 0.2464415926
O 1.0024541533 -0.0902920539 0.75709684
C -1.0116797538 1.190833891 0.2343490572
O -2.0915656472 0.8524522153 -0.6175987579
H -4.1175872018 -0.1704533066 1.9181350043
H -4.4290533174 0.7185732871 0.4217881617
H -5.4092852165 -0.7013922087 0.8326894185
H -3.2401559092 -2.1344504025 0.5735533122
H -3.1964955847 -2.0429591206 -1.9465128757
H -3.994180949 -0.3992418832 -1.8956153022
H -0.7532012179 -2.089583303 0.0155723244
H -0.3700755905 -1.2461821785 -1.4962908142
H -1.3415947842 1.3966380825 1.2653155132
H -0.5064939165 2.081182756 -0.1505920962

