# b3lyp 6-31G(2df,p) opt Freq 

 titel

0 1
C 1.5759324493 -2.576969627 -1.691954036
C 0.4570981017 -1.7090395697 -1.1784916016
O -0.5897550184 -1.5997318186 -2.1902512389
C -1.4026229571 -0.475779335 -1.8243294992
C -0.7460097822 0.057607054 -0.5210073618
C -0.952652514 -1.0346591896 0.5156241071
C -0.2393360554 -2.0989204404 0.1221025764
C 0.7401813738 -0.2072787642 -0.9038199812
O 1.7069368901 0.087909166 0.0666082917
H 2.415248428 -2.5490285348 -0.9907545169
H 1.2505295094 -3.6150684337 -1.8085271052
H 1.9216213814 -2.2151340385 -2.6641286199
H -1.3713163208 0.2744583838 -2.6245182394
H -2.4417231756 -0.7934645946 -1.6777159925
H -1.0221029393 1.0744048203 -0.2450623998
H -1.6474538942 -0.9776782264 1.3446693096
H -0.2293830502 -3.0903997846 0.5582044522
H 1.0480210997 0.3109505424 -1.8161377973
H 1.4311925837 -0.3549329593 0.8797158426

