# b3lyp 6-31G(2df,p) opt Freq 

 titel

0 1
O 0.4177712743 0.1837569411 0.0961726279
C -0.8452324685 0.3995187599 0.7184450463
C -2.0746998332 0.1814365973 -0.2149072541
C -2.6218910889 1.5905900168 -0.4713578527
C -1.5472169655 2.5089092531 -1.1485231258
C -1.1559809889 2.9803567985 0.2521562647
O -0.6250033526 4.2236067053 0.5454979254
C -2.3960158202 2.3720484442 0.8588518529
C -1.0440482832 1.8181506394 1.2417220531
H 0.5744754021 0.9167191601 -0.5069558955
H -0.8604952807 -0.3176742519 1.5447378548
H -1.7790616939 -0.3464164204 -1.1262479977
H -2.8286199624 -0.4278159201 0.296008717
H -3.6143678476 1.626643663 -0.9191395603
H -0.7988949639 2.0294187182 -1.7936341918
H -2.0118192876 3.3296745477 -1.7014982844
H 0.3361536796 4.1587486079 0.5368990084
H -3.1286380085 2.785621402 1.5382116219
H -0.6244573102 2.104806898 2.1999474801

