# b3lyp 6-31G(2df,p) opt Freq 

 titel

0 1
C 0.6521490555 0.8987572677 -0.1047382688
C 0.9251048477 -0.5644551447 0.2234760363
C 2.0854311228 -0.8171076502 1.2105252154
O 2.3052209054 -2.2336326698 1.2533634998
C 2.9172853954 -1.4827271872 0.1866804633
C 4.3857387897 -1.5898028236 -0.0491588388
C 1.8010584245 -1.2899469797 -0.8367924099
C 1.4738096367 -2.0466401044 -2.0406440706
O 2.0439112737 -0.7247261845 -2.1127055656
H 0.1756936306 1.4029416881 0.74212428
H 1.5772718315 1.4316085164 -0.3455750203
H -0.0098627608 0.9853480771 -0.9706924256
H 0.007077537 -1.090989353 0.5012112553
H 2.3729228877 -0.2370253816 2.0809931314
H 4.9344481823 -1.4878146462 0.8906289384
H 4.6396706227 -2.5612455974 -0.488107426
H 4.7138260714 -0.8106394215 -0.7432749814
H 2.1250368509 -2.8528625435 -2.3748014567
H 0.4375272453 -2.1197507121 -2.3671291861

