# b3lyp 6-31G(2df,p) opt Freq 

 titel

0 1
C 0.0390300692 0.1532456208 -0.0157530851
C 1.5565600646 -0.0402949421 0.0155319377
C 2.0027612253 -0.9388386884 1.1613876112
C 3.3634730674 -1.58397776 0.9397357002
C 4.2344548256 -1.051442733 -0.1846122823
O 3.4694888508 -0.6947692708 -1.3418380129
C 2.0846657324 -0.8771406017 -1.1738586528
O 1.7939141708 -2.2263000202 -0.8319343567
C 2.1092993304 -2.3122272798 0.5436062891
H -0.3105202046 0.6527258311 0.8936187426
H -0.2628528296 0.7673502886 -0.8707026187
H -0.4724169387 -0.8109971507 -0.0916791064
H 2.0649208088 0.9290129491 0.0132715869
H 1.62344686 -0.779168092 2.1637537494
H 3.9008272505 -1.9319999261 1.8163495713
H 4.7988956965 -0.1690686031 0.1487751095
H 4.9638004389 -1.8140596718 -0.4875827616
H 1.626116206 -0.6621337573 -2.1397819285
H 1.7814681756 -3.2373252126 0.9992567672

