# b3lyp 6-31G(2df,p) opt Freq 

 titel

0 1
O -0.1386365073 -2.4237155887 0.4031719051
C -0.8543194097 -1.2934326875 -0.0022288942
C -2.2120050995 -1.1783459047 0.6907320576
C -3.4914336711 -1.15328269 -0.1022887638
C -2.9451376248 0.129398161 0.4714417852
C -2.2114751333 1.1372986851 -0.4069453935
C -0.7597606159 1.3069344581 0.0761043091
C -0.0483332262 -0.0214494132 0.2848399444
O 1.0925402764 -0.1115806286 0.6851800177
H 0.7332341682 -2.0847062701 0.6673479004
H -1.0151356724 -1.3130166823 -1.0966949428
H -2.2217243485 -1.6288846886 1.677208774
H -3.4239930968 -1.2998089905 -1.176919255
H -4.3789440327 -1.5811721284 0.3503962061
H -3.4694651811 0.5492603866 1.3244976874
H -2.2118659219 0.7974647817 -1.4489856688
H -2.7226759957 2.1045674349 -0.404131086
H -0.1612506689 1.9135622427 -0.6131887529
H -0.7301935788 1.8309057427 1.0397532701

