# b3lyp 6-31G(2df,p) opt Freq 

 titel

0 1
O 0.8197038017 0.7489398691 0.6408898824
C -0.0064174167 0.7638217882 1.7637783807
C -1.4451245357 0.173980414 1.6879216695
C -1.947118448 1.3956289372 2.5051326428
C -0.6375813072 2.1535435369 2.1427067324
O -0.7927279518 2.9150501119 0.9308142272
C -0.2681974657 4.2340211358 1.0999976002
C 0.2472425413 4.2676762517 2.5098507246
C 0.0298894142 3.0925150899 3.0901919632
H 0.4512660961 1.4224724236 0.051655847
H 0.5571415003 0.3413556286 2.6023207644
H -1.8135551255 0.1969597244 0.6589957995
H -1.6049934116 -0.8236921631 2.101926979
H -2.8670071596 1.883258546 2.178234986
H -2.0094135532 1.1926619283 3.5780898441
H 0.5210541945 4.4188154137 0.3561884498
H -1.0637011575 4.9738008883 0.9220959119
H 0.7180005063 5.1386001604 2.9474803269
H 0.2868980482 2.8088030651 4.1027735283

