# b3lyp 6-31G(2df,p) opt Freq 

 titel

0 1
C -2.3187381939 -3.2364829542 1.9496596244
C -1.0321163729 -3.2744113837 1.0971063814
C 0.1449777212 -3.8994414369 1.871504551
C -0.704017039 -1.9360973591 0.6122629222
C -0.457191142 -0.8198099134 0.2174683875
C -0.1583466433 0.5084817442 -0.2834008147
O -0.8590394775 1.0786538717 -1.0903736094
C 1.1386463709 1.1355582379 0.2386901096
O 1.6581813875 0.5514354884 1.4082619161
H -2.1704733707 -2.6246892398 2.844245124
H -3.1545952781 -2.818202479 1.3839946629
H -2.5830248888 -4.250183254 2.2649634524
H -1.2321624263 -3.8985469889 0.2150538286
H 0.372967772 -3.312811825 2.7666635401
H -0.1104256675 -4.9162833171 2.1842290415
H 1.0454679432 -3.946456595 1.2533462077
H 1.8560844572 1.1129449496 -0.6001454195
H 0.9328574839 2.1879256594 0.4540841845
H 1.6513267442 -0.4054643553 1.2904343797

