# b3lyp 6-31G(2df,p) opt Freq 

 titel

0 1
C 5.2924851221 1.9671515341 3.0969280937
C 5.434248916 2.0155689258 1.5943042718
O 6.0897393607 2.8660645527 1.0292785474
C 4.7234230822 0.9538215655 0.7481715551
O 5.0236253777 1.1533439019 -0.6064633877
C 3.2010200389 0.9693972085 0.9801421576
C 2.4890896924 -0.0642380034 0.0851109176
C 1.044159134 -0.0636297574 0.2717130765
C -0.1449043292 -0.0421259328 0.4470842956
H 5.3340283367 0.9399442603 3.4707386695
H 6.073875045 2.5714760052 3.5594473775
H 4.3175121119 2.3774991475 3.3845067975
H 5.1120255879 -0.0281312727 1.0754001043
H 5.5843413665 1.9472450005 -0.6257548848
H 2.9775034481 0.7571329713 2.030892134
H 2.813329555 1.9689795245 0.754305568
H 2.7372070505 0.150461386 -0.959463351
H 2.8872513024 -1.0656350518 0.2970461655
H -1.1971887988 -0.0339010957 0.5874943821

