# b3lyp 6-31G(2df,p) opt Freq 

 titel

0 1
O 1.421654267 0.327550054 -0.4324897774
C 0.0671743881 0.4815804165 -0.0395659412
C -0.8702136529 0.5537961113 -1.2355335965
C -2.1069799169 -0.3446075604 -1.2899119847
C -0.9121411135 -0.641064681 -2.1257374075
O -0.0586783576 -1.7831436895 -1.8497984832
C 0.073783311 -2.0056142476 -3.2644765818
C 0.7204870786 -0.8373362642 -3.9397794161
C -0.7635217931 -0.8012158501 -3.6169740137
H 1.4605289891 -0.5391166635 -0.858104007
H -0.2452546017 -0.3385036812 0.6237771664
H 0.0139696692 1.407138948 0.5421102183
H -0.9339326528 1.5214681088 -1.725582866
H -2.2893263705 -0.9909476833 -0.4369128833
H -3.0021978038 0.0222514247 -1.7817641674
H 0.0751407447 -3.0321473007 -3.6091483087
H 1.4093492117 -0.2083166807 -3.3825841853
H 0.9576310895 -0.9773416184 -4.9898594486
H -1.544123746 -0.6727672729 -4.3539256864

