# b3lyp 6-31G(2df,p) opt Freq 

 titel

0 1
C 1.5908700104 0.4855123933 -0.1002530987
O 0.2065525438 0.7386525358 -0.0527838179
C -0.4290955363 0.0916941874 1.0239433365
C -1.8880688837 0.4022636464 1.0133532856
C -2.5771239381 1.1655114512 0.1556143625
C -4.0499155415 1.2419258175 0.4736599339
C -4.2105875455 0.3660892941 1.7319627186
C -2.7995314269 -0.1529918757 2.0425174902
O -2.4847503879 -0.8794855597 2.9591735649
H 1.8054934405 -0.5879996269 -0.2205096909
H 1.9918999803 1.0252034112 -0.9613468309
H 2.1013677224 0.8367316645 0.8102355844
H -0.2849549823 -1.0020207034 0.9726547958
H 0.0068814653 0.4035428482 1.9894963887
H -2.1355269077 1.6833940896 -0.6875816992
H -4.3608687384 2.2803844531 0.641251131
H -4.6518000411 0.8816031079 -0.3695930992
H -4.5909403899 0.9193998163 2.595616186
H -4.8836097535 -0.4831758408 1.5819845389

