# b3lyp 6-31G(2df,p) opt Freq 

 titel

0 1
C -0.4078864379 4.2499947848 0.9121911918
C -1.2992641508 4.885005327 -0.1361993696
C -0.0538627873 4.168871766 -0.5481576167
O -0.2364608444 2.9651086653 -1.2412602177
C 0.799525708 2.0237766715 -1.0628758644
O 0.6981934428 1.3234042528 0.167628437
C 0.2771463593 -0.018172956 -0.0643720897
C 0.3403807353 -0.191562984 -1.5546944574
C 0.6657448074 0.9626080462 -2.1222699941
H 0.1868619546 4.8930360901 1.551788259
H -0.750382485 3.3332614457 1.3742307624
H -2.2349039552 4.3858259136 -0.3607167365
H -1.3274083629 5.9654456542 -0.2211603928
H 0.790132853 4.7583070619 -0.9073097833
H 1.7640605845 2.5542510776 -1.0605194721
H 0.9541285603 -0.6959205623 0.4736509528
H -0.7378185333 -0.1873643157 0.3278852283
H 0.1303135967 -1.1300649268 -2.0515958501
H 0.7728153949 1.1800769681 -3.1758920667

