# b3lyp 6-31G(2df,p) opt Freq 

 titel

0 1
C 1.3057138021 -0.200734953 -1.5520506
C 0.0894073772 -0.4615307416 -0.7102623693
C -0.1832922587 -1.6281949199 -0.122464523
C -1.453705905 -1.8352503671 0.6588273936
C -2.7128134187 -1.7326213057 -0.2209150008
C -3.0328410327 -0.4732016162 -1.035969272
O -4.1077882745 -0.3737434493 -1.5647988517
O -2.1328977604 0.5169702205 -1.2497181963
C -0.8926937177 0.6713234826 -0.5271455336
H 1.9028657879 0.6255711493 -1.1454389789
H 1.947300959 -1.0834331424 -1.6151721808
H 1.0218555578 0.0909518044 -2.571133376
H 0.4921988883 -2.471647139 -0.2424641233
H -1.4554570209 -2.8239704428 1.127086941
H -1.5199398741 -1.1125833693 1.4832230224
H -2.6883859479 -2.5332232057 -0.9703757331
H -3.6120324964 -1.9165828317 0.3749040646
H -0.4894348245 1.607171808 -0.9191311902
H -1.1183669107 0.8292723788 0.5342810775

