# b3lyp 6-31G(2df,p) opt Freq 

 titel

0 1
C 0.2395661142 -0.5346666346 -0.2805867878
C 0.9856205928 0.5600082044 0.4528996246
O 2.3092544903 0.8336495505 -0.1064460112
C 2.8971529235 0.7336728072 1.1873302919
C 2.7547586859 -0.6456356964 1.7429644592
C 1.5921603295 0.3280486786 1.8449031429
C 0.9792079006 0.7336818851 3.1293547025
C -0.4680792515 0.6600448518 3.3817128899
O 0.1649325986 1.9137865783 3.1201541244
H -0.7594929961 -0.6689504885 0.1479497869
H 0.1196040453 -0.2617752635 -1.3338424834
H 0.770494762 -1.4891011652 -0.2341133585
H 0.4084235021 1.492003679 0.4584418375
H 3.6580621413 1.4546463698 1.4630369218
H 2.7178833323 -1.5004271202 1.0743008387
H 3.2659054461 -0.8236453143 2.6850692938
H 1.6411628913 0.6613555192 3.994154882
H -1.133580586 0.3005738328 2.5979196605
H -0.8349951623 0.5208553862 4.3978952043

