# b3lyp 6-31G(2df,p) opt Freq 

 titel

0 1
C 1.3308304679 -0.5284760404 -1.084910361
C 1.072598821 0.09379075 0.2820911689
C 1.8279638692 1.4118043378 0.5164672809
C 2.1017450848 1.5533628623 2.0184012924
C 3.0184912522 0.7272169369 1.1314186651
C 1.9586118288 -0.4645834561 1.4148025049
O 2.1892618028 -1.8123666924 1.5249255015
C 1.5312808135 0.3131562261 2.6863505231
O 2.2537922088 -0.1425151574 3.8221531619
H 0.9752475603 -1.5626403371 -1.1110116107
H 0.8140799446 0.0293059329 -1.8731394116
H 2.4004799658 -0.5339922504 -1.3191857887
H -0.003872336 0.0944885773 0.5028453139
H 1.8356495678 2.2832892779 -0.1259819396
H 2.2939438295 2.5181096416 2.4715545786
H 4.0749310873 0.7908255528 0.9151491705
H 2.41789177 -1.967061978 2.4538236383
H 0.4730712552 0.2781337212 2.9679718503
H 3.1660168065 0.1560286447 3.7175111514

