# b3lyp 6-31G(2df,p) opt Freq 

 titel

0 1
C -0.0908169587 -0.288484531 -0.1539482192
C 1.4006825857 -0.0672639382 0.0199986486
C 2.192795157 -0.8604422518 1.0969943376
C 3.4665020475 -0.5636196002 0.2734431658
C 2.4584254009 -0.8074678747 -0.9047927998
C 2.0964214816 -2.2725225283 -0.6419831422
O 1.9036830399 -2.2334514816 0.7932595699
C 2.7288908748 -0.3549325383 -2.2966772388
O 2.6228143175 -1.0535623403 -3.2755895351
H -0.6476685005 0.3054544235 0.5784969505
H -0.427819602 0.0154699503 -1.1506688916
H -0.3576900668 -1.3364741065 -0.001154826
H 1.645278631 0.9977347357 0.0639678474
H 2.1004589206 -0.6947126205 2.1694287545
H 3.8044407554 0.4716786864 0.3387144723
H 4.3008434199 -1.2613910579 0.3692435596
H 1.1805381171 -2.5961149738 -1.1441794779
H 2.90457417 -2.9642536614 -0.8993692154
H 3.0395308491 0.7120639585 -2.3843548203

