# b3lyp 6-31G(2df,p) opt Freq 

 titel

0 1
C 1.4848410359 -0.1448377717 1.3503272849
C 0.9450521397 0.1750598537 -0.0468461569
C 1.5979858729 -0.6552155063 -1.1507472978
C 1.1278413973 -2.1068131433 -1.3338368182
C 1.86018521 -2.7334611606 -2.473984779
C 0.7365481967 -1.8231454021 -2.866136522
O -0.2639674005 -2.2703723687 -3.680737619
C 0.9697225729 -0.3949014921 -2.5481226486
O 0.4415421093 0.5858188915 -3.0136573631
H 1.3145082476 -1.1933477001 1.6175988735
H 2.5631432382 0.0393144465 1.4088501431
H 0.9988548037 0.4747677124 2.110208715
H -0.1410960052 0.0214399371 -0.074341253
H 1.1043875365 1.2336605203 -0.2796457766
H 2.6898731271 -0.556673268 -1.1089697942
H 0.5366330716 -2.6661559458 -0.6211153652
H 2.8964124878 -2.4685232819 -2.6746785655
H 1.6202156362 -3.7741768095 -2.6729371876
H -0.9135735276 -1.5570231413 -3.7441230897

