# b3lyp 6-31G(2df,p) opt Freq 

 titel

0 1
C -1.6442895782 -1.2701093965 -2.3681797712
C -2.1023380276 -1.2276571011 -0.9032364737
C -0.9229765017 -1.3278338261 0.0790557785
C -0.0492108256 -0.0817069691 0.0705699573
O 1.1514199542 -0.1202620318 0.2473187044
C -0.764567171 1.2043195925 -0.1153710918
C -2.0673157771 1.2618967532 -0.4079187601
C -2.9299526287 0.036423084 -0.5927765738
O -3.6788273881 -0.0967473115 0.6186968692
H -1.0975085031 -2.1953402743 -2.5736328216
H -2.499542064 -1.2283397952 -3.0509470094
H -0.9825696098 -0.4329206267 -2.6117588823
H -2.7650189008 -2.0874905944 -0.7347394967
H -1.3196467996 -1.4237408909 1.098159368
H -0.2923924467 -2.1989609446 -0.1151411879
H -0.160984229 2.0991309634 0.003548387
H -2.5691056491 2.2219050531 -0.4981737797
H -3.6174704904 0.2232345296 -1.4332037258
H -4.3653189436 -0.7553577937 0.4673621395

