# b3lyp 6-31G(2df,p) opt Freq 

 titel

0 1
O 0.961023137 1.0037235996 0.4838901633
C 0.0274382588 -0.0050768778 0.1749680821
C -1.1562424109 0.548098248 -0.6206679956
O -0.5755548208 1.165651087 -1.7782991793
C -1.3049049616 2.2341766242 -2.3359582607
C -2.6806971948 1.9179866757 -2.8460244308
C -3.4054813186 0.799854705 -2.6939611885
C -3.0999658506 -0.393628165 -1.9105680636
C -2.1421084417 -0.5280273065 -0.9850033332
H 1.1316542629 1.4533839817 -0.3530535614
H 0.4861265679 -0.8244131461 -0.4032946873
H -0.331617951 -0.4229441996 1.1212858345
H -1.6468452987 1.3286025044 -0.0166791031
H -1.367638809 3.0828825141 -1.6303117828
H -0.6917391148 2.5846510486 -3.1772341875
H -3.1094935827 2.7245802247 -3.4390556265
H -4.3668817393 0.7714339415 -3.2022580876
H -3.758150451 -1.241218973 -2.0868239137
H -2.0428498712 -1.4767118665 -0.4622461382

