# b3lyp 6-31G(2df,p) opt Freq 

 titel

0 1
O 1.2275851793 -0.1159083937 -0.0291662477
C 0.040535564 -0.0935487757 0.1071079143
C -1.0289937115 -1.1789769388 0.3167764702
C -2.0938649479 -0.1268163967 -0.1164642798
C -1.0309382223 1.0155894784 -0.0143765931
C -0.9209869564 2.0077528973 -1.1558603556
C -2.0488006622 3.0570702299 -1.3107626362
C -0.9052505088 4.0832797542 -1.1830400215
O 0.0562422901 3.0429090908 -0.9092170663
H -0.919827357 -2.0860453594 -0.2826400061
H -1.1073269075 -1.4668490629 1.3703739159
H -2.4321886327 -0.2816100916 -1.1445286866
H -2.9668494968 -0.0266987692 0.5287525922
H -1.1106282251 1.5632620525 0.9325089629
H -0.6914016604 1.4743478593 -2.0902115281
H -2.5933933598 3.0471901538 -2.2556992191
H -2.7617106517 3.0680179618 -0.4836164136
H -0.6665652337 4.625996631 -2.1066311532
H -0.9775221297 4.8024204492 -0.3592527885

