# b3lyp 6-31G(2df,p) opt Freq 

 titel

0 1
O 0.3796582077 0.7410655346 0.7240717924
C -0.971391341 0.683648544 0.351381428
C -1.8943500291 -0.3863836413 0.8826271872
C -2.0839499662 1.0811793005 1.2754125624
O -3.1293048168 1.8675810357 0.7634316605
C -2.9073849198 2.342045058 -0.5645660176
C -1.4366864197 2.7956685196 -0.7961314895
C -1.1419867752 1.280719094 -1.037499453
C -2.6092833688 1.1700148973 -1.5360803353
H 0.4572461548 0.5002813999 1.6523584491
H -2.6129662361 -0.8705416867 0.23249507
H -1.5025501823 -1.0302033631 1.6657542447
H -1.8622766524 1.3393623924 2.3082309871
H -3.7302549685 3.0267594347 -0.7726947936
H -1.3525461048 3.390847346 -1.708306917
H -0.9154274575 3.288935993 0.0265067861
H -0.328533339 0.9764289165 -1.6978623563
H -2.6835826508 1.4957522864 -2.5766622205
H -3.1665189346 0.2402316384 -1.4116369748

