# b3lyp 6-31G(2df,p) opt Freq 

 titel

0 1
C -0.1274667493 -0.4135890023 -0.0202746346
C 1.3699571161 -0.2134113124 -0.0885122624
O 2.0817541181 -1.0612215856 0.7778897324
C 2.1499135986 0.0098138269 -1.3285522419
C 1.4268453687 0.8798360058 -2.3588914887
C 1.2698165261 2.021076714 -1.302857842
C 2.0113577567 1.1715754859 -0.2685149697
C 3.0533376865 1.6850862919 0.6224305207
O 3.3300382953 2.8617618127 0.7249043722
H -0.5012441808 -0.1630076885 0.9798595969
H -0.6683241032 0.2054438902 -0.7374860987
H -0.3652174235 -1.4630951997 -0.2198984669
H 1.7692714394 -0.9028795971 1.6758537371
H 3.0364409438 -0.5875377474 -1.5060769171
H 2.0804963591 1.1689874833 -3.1834202065
H 0.5093968777 0.4573403788 -2.7797027482
H 1.8410510471 2.9159694977 -1.5535250257
H 0.250910952 2.3227730328 -1.0444967152
H 3.5953620316 0.9115019329 1.2047006682

