# b3lyp 6-31G(2df,p) opt Freq 

 titel

0 1
O 0.6386000239 -0.9004549795 -0.6641045127
C 0.2164703541 0.0522887206 -0.0572242001
C -0.6241680544 1.1480881411 -0.6387810182
C -1.931881142 1.5334584812 0.1232886099
C -1.6918397146 2.9629956649 -0.4240844738
C -0.1741205078 2.6310006627 -0.4068286703
C -2.157806452 3.022996617 -1.8860944659
O -1.3680144827 2.185789009 -2.718858261
C -0.9570303547 0.9609667367 -2.1263969751
H 0.4338974757 0.1822651065 1.0299181587
H -2.847518598 1.0102134301 -0.1692846504
H -1.8057377665 1.4756214578 1.2087325294
H -2.0659277375 3.8150181073 0.1478956817
H 0.4675650877 3.0791498265 -1.1674598892
H 0.2630260216 2.7651864727 0.5861491009
H -3.2252409458 2.7515928564 -1.9487490409
H -2.0448037086 4.0336562627 -2.2931627593
H -1.7311770018 0.1854493423 -2.237460219
H -0.0744232264 0.630999004 -2.6804707148

