# b3lyp 6-31G(2df,p) opt Freq 

 titel

0 1
O 0.297865977 -0.192458843 0.0400454953
C -0.8083432974 0.4128901364 0.6791614105
C -2.1114551859 0.0152914394 -0.0610216511
C -2.334342161 1.4844102782 -0.5126166562
C -3.2136441467 2.3515335778 0.4314650281
C -1.9629382257 2.6606324118 1.2640057651
C -1.8104366051 2.8961000438 2.7033254341
O -1.6726839594 3.9595275943 1.7517004517
C -1.0473855343 1.9035127429 0.2959092909
H 1.101254836 0.1804137294 0.418411055
H -0.7935509673 0.2184208573 1.761464181
H -1.8891762796 -0.6705348348 -0.8808734846
H -2.9027332585 -0.4165002257 0.5577729676
H -2.4479189795 1.6572319329 -1.5817744762
H -3.5924221685 3.2559794154 -0.0532019408
H -4.043205654 1.8482896647 0.937285871
H -2.6938658166 2.9496526404 3.3389197993
H -0.8919767894 2.6037900264 3.2120288551
H -0.2046092041 2.4589235024 -0.1188580858

