# b3lyp 6-31G(2df,p) opt Freq 

 titel

0 1
C 0.316436079 -2.9456421669 -1.0834805056
C -0.9357495752 -2.0963109888 -1.0988456487
C -2.1641108814 -2.596888148 -1.7325516044
O -1.3452832941 -1.6252146675 -2.39259684
C -1.0271479077 -1.0620361337 0.0064476651
C -2.120574142 0.0491868705 -0.0501504567
C -1.0462476906 1.1471193824 0.2131005797
C 0.0282375937 0.0725322295 0.0024642239
O 1.2114343008 0.0979061226 -0.1759086099
H 0.357938537 -3.5528483457 -0.1723783332
H 0.3343066617 -3.6128765474 -1.9486076041
H 1.2048492932 -2.3089811887 -1.1044099938
H -2.1675431294 -3.5873791691 -2.1860937424
H -3.1369965462 -2.2374003042 -1.3998187696
H -1.0026107978 -1.5705235351 0.9790464768
H -2.546490573 0.1284838512 -1.0513556521
H -2.9200823276 -0.0270172132 0.6869910458
H -1.0057298005 1.9974660669 -0.4720090144
H -1.0397576499 1.5281552353 1.2396950136

