# b3lyp 6-31G(2df,p) opt Freq 

 titel

0 1
O -0.8972886299 -1.4553032257 -2.5157453741
C -0.9922407169 -2.0519044 -1.2475612834
C -1.8378381515 -3.289404919 -1.2037718173
C -0.3324614071 -3.3962961201 -1.0589587784
C -1.0293303634 -1.0557694147 -0.1171410064
C -2.1464345289 0.0419544521 -0.0651480441
C -1.0750755199 1.1324792401 0.2446140985
C -0.0284934935 0.1138667125 -0.2197430097
O 1.0598097806 0.2038457459 -0.7170585765
H -0.013681886 -1.0697860947 -2.5779133865
H -2.4589900776 -3.4630581869 -0.3319906061
H -2.271095611 -3.6053639425 -2.1454496466
H 0.0827134525 -3.6472735015 -0.0888608349
H 0.2194854026 -3.7849692506 -1.9069024122
H -0.9310186541 -1.556470816 0.8525349165
H -2.5952006277 0.1826589874 -1.0498155379
H -2.9283723155 -0.1001371932 0.6807862916
H -1.1070267609 2.0779784532 -0.3009459368
H -0.9837309819 1.3430735937 1.3153674744

