# b3lyp 6-31G(2df,p) opt Freq 

 titel

0 1
C -3.3630965161 -1.5682418311 0.4923768376
C -2.2675696006 -0.8038656673 -0.2100033372
C -2.56531651 0.0091372894 -1.4431841382
C -2.1721333138 0.7246912811 -0.1754906798
C -0.71955343 1.1507013718 -0.019571706
C 0.0255963522 -0.1534304082 0.2581620119
O 1.0737956427 -0.2851264861 0.8387424987
C -0.8402566705 -1.362139515 -0.1562510064
O -0.6768648359 -2.4084714275 0.7693472897
H -3.1015964837 -1.7597629642 1.5360426934
H -4.3005842912 -1.0037301063 0.4657641965
H -3.5394142194 -2.5380597928 0.0147540688
H -1.8557396754 -0.0085361997 -2.2678826065
H -3.6020334512 0.0768118794 -1.7565795156
H -2.9290826856 1.3010996854 0.3443639397
H -0.3055215332 1.6381148269 -0.9114794688
H -0.5578600429 1.8336344554 0.8189582297
H -0.515195606 -1.6873711134 -1.1612596655
H 0.1988977507 -2.274787388 1.1612094579

