# b3lyp 6-31G(2df,p) opt Freq 

 titel

0 1
C 2.4480701392 -0.0794426571 -1.4625024064
C 1.5999780576 0.1866353588 -0.2468123441
O 2.0618012397 1.2103059087 0.6560371264
C 2.0436320348 -0.1331836202 1.112782183
C 1.2807897372 -0.5764175287 2.3624698308
C 2.5651654783 -1.3191809699 2.8402758251
C 3.3306928484 -0.8796806084 1.5507808734
C 4.5158225972 0.0328677473 1.7422635039
O 5.4824084378 0.0480567754 1.0243304077
H 2.1502630721 -1.021539969 -1.935984681
H 2.3217648421 0.7203393232 -2.1992501942
H 3.5065622671 -0.1373646364 -1.1966315806
H 0.5220753193 0.2217840567 -0.4182796767
H 0.9712749503 0.2601171958 2.9939549995
H 0.4124719987 -1.213260403 2.1752390508
H 2.9951732456 -0.9191495712 3.7623484069
H 2.4661201084 -2.4000130231 2.9469875052
H 3.6197117809 -1.68883954 0.876086934
H 4.4306425153 0.729326691 2.6079197863

