# b3lyp 6-31G(2df,p) opt Freq 

 titel

0 1
C -0.5819815919 1.3136759918 0.0627143139
C -0.886355735 1.2714963851 -1.4465388755
C -1.9222882536 0.124007653 -1.4531231532
C -0.8663062388 -0.8832024185 -0.9798525095
O 0.0276681182 -0.8214371443 -2.1101932297
C 0.3757287522 0.5584307264 -2.0958053034
O 1.5335658555 0.7029882625 -1.2962598506
C 1.3819797318 -0.1252951671 -0.1294669471
C -0.1170710788 -0.1620309375 0.2155075375
H 0.2030630815 2.0202351384 0.336768664
H -1.4802352025 1.549624404 0.6390984868
H -1.1624462218 2.2136572175 -1.9197008619
H -2.7518447839 0.3026582377 -0.7642092392
H -2.3072120491 -0.152906622 -2.4358665212
H -1.1517924692 -1.9211913064 -0.8131497645
H 0.63040548 0.8929398446 -3.101959778
H 1.7846640237 -1.1263764109 -0.3218182287
H 1.9645201371 0.3442114109 0.6689532872
H -0.3064142653 -0.6153530252 1.189844703

