# b3lyp 6-31G(2df,p) opt Freq 

 titel

0 1
C 1.5111636168 0.0680188088 0.0363022457
O 0.0847074729 0.0162958175 -0.0039440381
C -0.5060797917 0.6308469237 1.0689214372
C -0.8689829916 2.1293706336 1.0569439773
C -0.7287730758 2.8343186901 -0.2761429375
C -1.96379762 1.125045934 1.2282328253
C -1.9963924892 0.6618384388 2.6927350404
C -0.5629607616 0.1001587666 2.4726779718
O 0.1327779054 -0.6486639825 3.1008466836
H 1.8935417091 -0.4296808653 0.9337377887
H 1.8663423555 -0.45582668 -0.8531195984
H 1.8728865883 1.1044760102 0.015228588
H -0.6053200948 2.7363922906 1.9219960827
H -0.9190719012 2.1499602439 -1.1062186591
H -1.4370049745 3.6665458981 -0.3441905527
H 0.2785803019 3.2428493439 -0.4037148617
H -2.7646920418 1.0002312128 0.511261094
H -2.1241189793 1.4404523681 3.4505534198
H -2.6893559083 -0.159969463 2.8946728532

