# b3lyp 6-31G(2df,p) opt Freq 

 titel

0 1
C 1.5837042624 -1.4702526579 -4.7138707548
C 0.7811888101 -0.1939970157 -4.6348073638
O -0.0183722605 0.1505638938 -5.4772852535
C 1.0153286821 0.7150641904 -3.4344282779
O 2.0385932792 0.2739059196 -2.5177384688
C 2.8080016318 1.4883770319 -2.6962091398
C 1.7980889598 2.0056089216 -3.7146221554
C 1.272722539 3.3893340119 -3.9222849928
C 2.0346548177 2.6895007991 -5.0255473877
H 2.6529185522 -1.2360922552 -4.7544653969
H 1.4404656615 -2.0643515159 -3.8053340038
H 1.2883052465 -2.0381633447 -5.596700226
H 0.051234974 0.8690952604 -2.9296759587
H 2.8796000899 2.0618194489 -1.7632891155
H 3.8182763255 1.2799185093 -3.0710003891
H 0.2011226564 3.5087976268 -4.0438347051
H 1.7601330745 4.2023119988 -3.3929881496
H 1.4724933613 2.3368088128 -5.8832650728
H 3.0430428265 3.0254077841 -5.2463061877

