# b3lyp 6-31G(2df,p) opt Freq 

 titel

0 1
C 2.591223505 -0.5380734945 -1.1181511485
C 1.6867686976 -0.0007410757 -0.0119994935
O 2.1398731217 -0.5827301656 1.2076680886
C 1.5914208125 0.0212445117 2.3625467769
C 2.0387824073 1.4780307709 2.5065241374
C 1.8761589329 2.1784528222 1.1845343499
C 1.6893663018 1.5063718462 0.0512190647
C 1.9815535081 -0.8572414461 3.539735209
O 2.0526819325 -0.4679323836 4.675809583
H 2.5777736918 -1.6311541198 -1.1160324419
H 2.2486647855 -0.1866495452 -2.0958052937
H 3.619693557 -0.199956938 -0.9641789749
H 0.6536905189 -0.3471451236 -0.2060391131
H 0.4851469814 -0.0062209289 2.3092510837
H 1.4475088723 1.9662770741 3.288341662
H 3.0818206862 1.5172914769 2.8468335276
H 1.9043284149 3.2647540595 1.1820619729
H 1.5364333624 2.0254999706 -0.891303873
H 2.1874404003 -1.912472411 3.2549893828

