# b3lyp 6-31G(2df,p) opt Freq 

 titel

0 1
C -1.0176269949 -2.3476969754 -2.6176014272
C -1.1606598124 -1.3586726861 -1.4755226165
O -2.2293006455 -1.1354441179 -0.9486519611
C 0.0948382681 -0.6321331814 -1.0286071107
C 1.3691715946 -1.4146124241 -0.5289353823
C 1.3192622612 -0.6048465 0.7732295921
C -0.001007996 -0.8616572646 1.464289973
C 0.0502075034 0.1007503009 0.3125706125
O -0.2787460962 1.4350563269 0.4407716909
H -0.3687705375 -3.178911674 -2.3191142302
H -1.9971222332 -2.7341990221 -2.9020758841
H -0.5395912949 -1.87017878 -3.48039741
H 0.3900145318 0.0544872572 -1.8311111855
H 1.2527529532 -2.4967651442 -0.4076776301
H 2.2487722796 -1.2223671741 -1.1457058313
H 2.1774708268 -0.2060116363 1.2984690468
H -0.4978775681 -1.8260402854 1.3890656684
H -0.1069773923 -0.3703794992 2.4260911524
H -1.2367520577 1.4855226598 0.5411259131

