# b3lyp 6-31G(2df,p) opt Freq 

 titel

0 1
C 0.0929351084 -3.0588739 0.2987213724
C -0.1568743414 -1.9076268832 -0.6592383766
O -1.0213432194 -1.0823140784 -0.4371069903
C 0.707791309 -1.8008720405 -1.8696696907
C 0.2257517099 -0.8721790034 -2.986848381
C 1.3838258259 -0.4499705985 -2.1549412916
O 2.6866734282 -0.6563204747 -2.6046744312
C 2.7866611699 -2.0016470168 -3.0733333602
C 1.7597222445 -2.8289077766 -2.2625290925
H -0.0022811277 -4.0223372137 -0.2136503802
H 1.1104409803 -3.0115281378 0.7033152211
H -0.6248262034 -3.0035173109 1.1176037053
H 0.3840712002 -1.1817150717 -4.0138567904
H -0.71909096 -0.3841169594 -2.7779333136
H 1.3003722343 0.3811812359 -1.4654635631
H 2.5616705535 -2.0473254245 -4.147263718
H 3.8200400973 -2.3272971559 -2.9315683381
H 1.3646998068 -3.6598653902 -2.8552414506
H 2.2274788636 -3.2498386799 -1.3677292008

