# b3lyp 6-31G(2df,p) opt Freq 

 titel

0 1
C -6.3085321834 0.6620169116 -0.819144813
O -5.4280944887 0.0674858842 0.1049810145
C -4.0862028485 0.4430672138 -0.0948983444
C -3.2444108282 -0.2701958153 0.9690340209
C -1.8255161481 0.0428329935 0.8595597786
C -0.6596534528 0.3281570571 0.7611109813
C 0.7530911767 0.6364867175 0.5935219875
C 1.3325679475 0.0244726054 -0.6838762363
O 2.1342283039 0.5788402367 -1.3847827027
H -6.291332762 1.7612063706 -0.7509231161
H -6.0646567621 0.379445738 -1.8553957693
H -7.3155521352 0.3092798502 -0.5843894086
H -3.7419877816 0.1580814524 -1.1024901101
H -3.9632861726 1.5345987404 -0.0041837534
H -3.6218403749 0.0124041918 1.9591368024
H -3.4056362971 -1.3506886531 0.87368037
H 0.9494432698 1.7135319881 0.5754633715
H 1.3335374998 0.2209715871 1.4320940135
H 0.9566020476 -0.9971049303 -0.9099585264

