# b3lyp 6-31G(2df,p) opt Freq 

 titel

0 1
C -1.1277464067 2.0386138931 1.3452649629
C -1.0471489063 1.1351255206 0.1176513556
C -2.1311886231 0.0121720127 -0.0672020329
C -2.9132539604 0.0312471033 -1.3757043327
C -1.0141206774 -1.0502748788 0.0152749221
C -1.0043253111 -2.4031789925 0.5939239586
O -0.9045669803 -2.196306722 -0.8121461082
C 0.0416142974 0.0380426088 0.1541562267
O 1.2324599069 0.0430652217 0.2740571689
H -1.2507506312 1.4523179835 2.2621312464
H -0.2129823965 2.6300054991 1.4466554009
H -1.974440417 2.7281481536 1.270877703
H -0.936495059 1.7395830734 -0.7913666979
H -2.814122188 -0.041501204 0.7869409173
H -3.5100567802 -0.8786578824 -1.4892893325
H -3.5898725441 0.8908266038 -1.4124998845
H -2.2398649014 0.0906497709 -2.2369709935
H -0.1002959141 -2.7682804655 1.0785393131
H -1.9438675573 -2.8307410193 0.9423061467

