# b3lyp 6-31G(2df,p) opt Freq 

 titel

0 1
C -0.2599099092 0.0154438344 -6.9880001535
C 0.9588629467 0.0673091933 -6.0911418264
O 1.6630355158 1.0469484124 -6.0031940884
C 1.2696920558 -1.2212679883 -5.3309355863
C 2.564880893 -1.1652458692 -4.4761578897
C 3.3379120429 -1.9286529648 -5.5951784271
C 1.9868372341 -2.2672522042 -6.2201290589
C 1.4725586155 -3.5537206144 -6.6895405442
O 1.7389135376 -2.4717294614 -7.5991405242
H -1.1577171849 -0.2159609483 -6.4036962794
H -0.3892860397 0.9684150194 -7.5022718349
H -0.1259985452 -0.7934159594 -7.7151534212
H 0.3582090031 -1.5846174292 -4.8460356248
H 2.9120574584 -0.1543382053 -4.2656313672
H 2.4801033137 -1.7356017356 -3.549746167
H 3.912716364 -1.2506962874 -6.2316628979
H 3.9717640385 -2.7671631085 -5.2990264669
H 2.1449564183 -4.405998562 -6.7774770176
H 0.4202126716 -3.8017870215 -6.5558240545

