# b3lyp 6-31G(2df,p) opt Freq 

 titel

0 1
C 1.5637181661 0.7403590683 0.0739678139
O 0.1870930971 0.9940189607 0.2308584456
C -0.4702128442 -0.003419424 0.9845796606
C -1.9202569736 0.3518779634 1.0964339845
C -2.564535906 1.6329520392 1.738530039
C -3.8090593509 0.823306793 1.2368769838
C -2.969847375 0.5439014747 -0.0568306372
C -3.0667376026 -0.3929514566 1.8070131376
O -3.255674991 -1.3799818057 2.4486876775
H 1.7465977516 -0.2094437721 -0.4530361966
H 1.9815089975 1.5587835148 -0.5170491462
H 2.084540803 0.6988714917 1.0436719132
H -0.3624672991 -0.9907233289 0.5033070223
H -0.0263797471 -0.0876204676 1.9915171256
H -2.4491440838 1.7721009085 2.8153256505
H -2.3690579225 2.5516089551 1.1820572692
H -4.8581442829 1.0989341071 1.3065284017
H -3.2322487802 -0.3320545514 -0.6534983694
H -2.7886503764 1.4241650799 -0.6765933458

