# b3lyp 6-31G(2df,p) opt Freq 

 titel

0 1
O 0.3276682276 2.4133920196 -1.9352066519
C -0.1086697574 1.1285466663 -2.3714240033
C 0.8609360138 0.026355169 -1.9153230907
C 0.9879361783 -0.1585153643 -0.4187690762
O 0.4994750368 0.895625504 0.4395699325
C -0.1398779586 -0.3882454478 0.4907237862
C -1.5942787971 -0.5211271099 0.1017628485
C -2.1581941904 0.2751464657 -1.0451597681
C -1.5710798815 0.9291793449 -2.0462212584
H 0.258724817 2.3898442583 -0.9708885712
H -0.0294607993 1.1709324492 -3.4645452229
H 0.5801501212 -0.9313556322 -2.3725352312
H 1.8458721645 0.2914937386 -2.3148262546
H 1.953093078 -0.5506278872 -0.094113305
H 0.0887737886 -0.9299608531 1.4113453513
H -1.7853293224 -1.5928468764 -0.0684501969
H -2.1923900415 -0.278350308 0.9915618656
H -3.2465202818 0.3118071022 -1.0182199246
H -2.2302663057 1.4633387511 -2.727862239

