# b3lyp 6-31G(2df,p) opt Freq 

 titel

0 1
C 0.0169668251 0.3335893521 -0.1289719394
C 1.5262475575 0.3261335464 -0.1349064789
C 2.2669319066 1.6094300548 -0.5153218875
O 3.5291427224 1.5514536394 0.1545224425
C 3.700196725 0.2065551586 0.5785692834
C 3.729398348 -0.7777413388 -0.6396804922
C 2.2345757595 -0.9856197563 -0.4111402483
O 1.4942674087 -2.0573343173 -0.8691296149
C 2.3108157319 -0.3373197043 0.9777863501
H -0.3658068346 1.1072732199 0.5455847922
H -0.378017351 0.5364454819 -1.1307664778
H -0.3808100381 -0.6328678034 0.186669814
H 2.4127172578 1.703388845 -1.6007693456
H 1.7256750348 2.4979696183 -0.1670286987
H 4.5290832468 0.1657416543 1.2829294585
H 4.0790105921 -0.374033412 -1.5958206403
H 4.2908187056 -1.6880857008 -0.4004705088
H 1.9221359819 -2.8683977142 -0.5722186579
H 1.9208850999 -0.6079062837 1.9500467698

