# b3lyp 6-31G(2df,p) opt Freq 

 titel

0 1
C 1.0199397479 -0.4928205477 -1.1242180022
C 0.9514348882 0.164601718 0.2437383604
C 1.6510718402 1.5457483688 0.4551955323
C 2.4216856894 0.9824062351 1.6774602689
C 3.7645197046 0.3201592909 1.3368118741
O 3.1182879688 -0.9211830341 0.9599178404
C 1.8241368163 -0.4415304062 1.3759281879
C 1.1848274863 -1.3174565536 2.4122238222
O 0.0266391492 -1.2328538026 2.739619676
H 0.5359363542 -1.4751445967 -1.1173154564
H 0.5144322764 0.124435171 -1.8743334044
H 2.0592232559 -0.6333064038 -1.4348831891
H -0.0783457498 0.2007667084 0.6117423277
H 2.3042012574 1.8587922394 -0.365152474
H 0.9689487146 2.3665065465 0.6846137295
H 2.3189084439 1.4888603454 2.6355559254
H 4.3317223178 0.7616554079 0.5085650115
H 4.4342337038 0.1698973332 2.1928783508
H 1.8813050147 -2.0505781697 2.8767096791

