# b3lyp 6-31G(2df,p) opt Freq 

 titel

0 1
O 0.123395702 1.4330124728 -0.0452521305
C 0.0256978563 0.0046601511 -0.042712117
C -1.449835971 -0.4680357225 -0.1095687722
C -2.135337423 -0.5889176923 1.2717794534
C -1.3350565743 -1.6440316027 2.0147611947
O -1.3263365237 -1.6806106365 3.4720714713
C 0.1308311676 -1.6780385417 3.4943003864
C 0.1248452488 -1.2980861458 2.0349418046
C 0.7656070688 -0.5313046234 1.1663524932
H -0.1665847369 1.7424347854 0.8201711907
H 0.5258561763 -0.2913881966 -0.9721339845
H -1.9861010739 0.2335508798 -0.7537047981
H -1.4870367076 -1.4477593439 -0.6037445164
H -2.0852171155 0.3576893372 1.822551592
H -3.1905174251 -0.8550905554 1.1595569141
H -1.5667418923 -2.646261816 1.6214242814
H 0.540357198 -0.9483505951 4.2019791336
H 0.5302655913 -2.6743863364 3.7306646242
H 1.7692443241 -0.1495503279 1.333885329

