# b3lyp 6-31G(2df,p) opt Freq 

 titel

0 1
O 0.3984654906 -0.0987509304 0.3548704447
C -0.7419250457 0.6576962955 0.6438930618
C -2.1032050751 0.0592765436 0.395524233
C -3.2964006093 0.4145827404 1.2633197489
O -3.3304112835 1.7791820474 1.6432416315
C -3.1568764087 2.715018645 0.6131150966
C -3.6907604614 2.5532480668 -0.7841871398
C -2.1889325113 2.4670420912 -0.5100259836
C -1.5452253702 1.1172411749 -0.5425202293
H 0.5176395548 -0.7396437932 1.063709104
H -0.6454814192 1.3567989748 1.4744137633
H -2.1028334 -0.9606683348 0.0210504389
H -4.2271498324 0.1389808358 0.7417526435
H -3.2757474934 -0.143499289 2.2058726436
H -3.1973939765 3.7076610938 1.0478082338
H -4.1885052364 1.6308657479 -1.0596732265
H -4.0859591078 3.436049455 -1.2749283966
H -1.5685623691 3.2985489001 -0.8332196237
H -1.1843081358 0.7657190753 -1.5050372542

