# b3lyp 6-31G(2df,p) opt Freq 

 titel

0 1
C 1.5162715505 -0.4066083915 0.0079665583
O 0.1587115015 -0.0219437669 -0.1069559558
C -0.3567771761 0.5861488844 1.0356269064
C -1.8682772622 0.8236724321 0.9789978278
O -1.713759233 2.2308534573 1.2494138597
C -0.2581306075 2.1600249725 1.1619165148
C 0.2448113198 2.8902990988 -0.0791381386
C 0.3778348955 2.6387144334 2.381520164
C 0.9217571166 3.006336632 3.389070241
H 1.6623407003 -1.1069857096 0.8434050533
H 1.7885725202 -0.9027257663 -0.9260107723
H 2.1786433388 0.4566265381 0.1587776442
H -0.011132214 0.0813153754 1.9461160114
H -2.2912106515 0.6317121719 -0.0145211527
H -2.4730688132 0.3204543698 1.7404511435
H -0.1650732546 2.4278074747 -0.9790893628
H -0.0745011614 3.9347338776 -0.0326124872
H 1.3368911403 2.8652948845 -0.1345225987
H 1.3933896701 3.3415946618 4.2797257736

