# b3lyp 6-31G(2df,p) opt Freq 

 titel

0 1
C -0.176334545 0.3056771422 0.0775923447
C 1.3033528745 0.0651015655 -0.0263644064
O 2.0011061945 1.3158476522 -0.042965694
C 3.3664854305 0.926267399 -0.1655996028
C 3.2208077049 -0.5935038802 -0.1885395184
O 4.3540853475 -1.3781139933 -0.3696674283
C 1.9639340599 -0.9165686169 -1.0508878462
C 1.6523454371 -2.0997056041 -0.1023260049
C 2.0904654891 -0.9604099462 0.8479781602
H -0.4043036165 0.8595870385 0.9933357556
H -0.5210672849 0.9036350779 -0.771503676
H -0.7361419059 -0.6322625739 0.0914449276
H 3.8079737655 1.321037516 -1.0892964044
H 3.9525010284 1.2909295822 0.6900490276
H 4.9388347949 -1.2511197776 0.3852557843
H 1.901318569 -0.8786680076 -2.1394430519
H 0.6149726642 -2.4354629434 -0.0401484661
H 2.3384013513 -2.9442046257 -0.1713559607
H 2.1735433009 -0.9708578347 1.9367428099

