# b3lyp 6-31G(2df,p) opt Freq 

 titel

0 1
C 0.0436674114 -0.4336369565 -0.3825935575
C 1.4988219488 -0.2462587104 -0.0683909071
C 2.6124570249 0.1251403603 -1.0904468845
C 3.1850102174 0.7351114506 0.2113133718
O 1.8199452701 0.9983171898 0.6430187091
C 3.5584720241 -0.5156734565 1.0320617798
C 3.115555696 -0.5367671124 2.5101424998
O 1.9094275073 -1.2735234052 2.1906021775
C 2.2405981888 -1.2997919657 0.7950799582
H -0.5240665652 -0.5369024411 0.5473683744
H -0.3514689525 0.4192869044 -0.9407185414
H -0.1044701003 -1.3408496887 -0.9775544571
H 3.1650479738 -0.6735706675 -1.5948220538
H 2.2769604133 0.8865545103 -1.7955177903
H 3.8336391167 1.6106535566 0.2357966892
H 4.5188284125 -0.9651693978 0.7817073912
H 3.7652399125 -1.1140913718 3.1782250475
H 2.8915727492 0.4384496503 2.9535771403
H 2.2338285512 -2.3100652487 0.3735082628

