# b3lyp 6-31G(2df,p) opt Freq 

 titel

0 1
C -0.9658679952 -0.3551632029 -0.9168295285
C -0.7512895159 -1.5781038062 0.0027358562
C 0.1297739711 -1.0542845889 1.1491054066
O -0.7381084285 -0.4925790436 2.1576864176
C -0.5625880301 0.8691647677 2.4055496515
O -0.6248799932 1.638763004 1.2241073589
C 0.4768934022 1.358588666 0.4067935478
C 0.3296823483 0.4490957824 -0.7831637603
C 1.0521504334 -0.0319773548 0.471492598
H -1.1500806345 -0.6443706178 -1.9539145711
H -1.8199560188 0.2385779715 -0.5774560968
H -1.6753483009 -2.024660824 0.3790912058
H -0.1914990057 -2.3494830442 -0.5397799347
H 0.703850558 -1.8515053784 1.6327394767
H -1.3946148763 1.1838559954 3.0392100941
H 0.3976999056 1.0618593257 2.914002258
H 1.1635132618 2.1980749095 0.3154587921
H 0.8900552135 0.7100563819 -1.6737094073
H 2.1244648353 -0.1756098234 0.5203262755

