# b3lyp 6-31G(2df,p) opt Freq 

 titel

0 1
C 1.5789134686 0.7260708913 2.8347393464
C 1.0897746336 1.5860717227 1.6294362311
C 1.1516797659 0.5598449888 0.5224755379
O 1.0936743522 0.7917876591 -0.8741781592
C 0.0676975122 -0.0312299905 -0.2615816043
C 0.2597840622 -1.5292528545 -0.3754932384
C 1.6830570255 -1.7977257027 0.19201082
C 2.0804130435 -0.5469609803 0.9891631951
O 1.742890673 -0.6216442187 2.3710778222
H 2.5340855769 1.1099576409 3.2206565289
H 0.863798977 0.7007124732 3.6605873283
H 0.0872561132 1.9925443501 1.7795931952
H 1.7667872174 2.4225773474 1.4322566603
H -0.9278687109 0.4049393385 -0.2914338676
H -0.5103185083 -2.0157432606 0.2337410722
H 0.1435171733 -1.8971811383 -1.399412119
H 1.7245492712 -2.6914384085 0.8187209662
H 2.3978067417 -1.9350192682 -0.6228830687
H 3.1469260019 -0.2991067595 0.8677807832

