# b3lyp 6-31G(2df,p) opt Freq 

 titel

0 1
C 1.1365063838 2.5095136651 -2.0474993722
C 0.1954767505 1.678149707 -2.8893750328
O -0.4140198229 2.1391996714 -3.836458735
C -0.0070672052 0.238533878 -2.5299482014
C 0.9485051019 -0.8630103831 -1.9867168335
C -0.4284369515 -1.5688002154 -2.1866522343
C -1.0846289668 -0.3212278992 -1.5286617137
C -0.5161932515 -0.8238456863 -3.5467038799
O -1.7807198321 -0.6430628602 -4.1158689465
H 2.1545813504 2.1109251297 -2.1274055706
H 1.1206085338 3.5491184092 -2.3770675249
H 0.8564739147 2.4456716956 -0.9899872645
H 1.7660763465 -1.1702586426 -2.6455394535
H 1.2828686966 -0.7559518398 -0.9528522192
H -0.6600138394 -2.6157328582 -1.99163586
H -2.1218207967 -0.1216406409 -1.791637006
H -0.8803112243 -0.1618074345 -0.4669908071
H 0.2268838003 -1.1320231185 -4.2958898788
H -1.7714914879 0.2410065727 -4.5052273959

