# b3lyp 6-31G(2df,p) opt Freq 

 titel

0 1
C 0.1240151097 0.009597916 -0.6265035957
C 1.5685049619 -0.0049556794 -0.0938237285
C 2.060189714 1.3211257658 0.2651624647
C 2.446046514 2.4257452134 0.5474744888
C 2.9212108425 3.7505402551 0.9199430455
C 4.0300760724 4.3321675182 0.0430177444
O 4.9283987686 5.0142523617 0.4645105921
O 3.8534490431 4.0329777246 -1.252917085
C 4.834214933 4.578732153 -2.1449478273
H -0.562664392 0.4104615053 0.1239914411
H 0.0467664889 0.6332824437 -1.5211546224
H -0.1985525403 -1.0039691999 -0.882836537
H 1.6300852039 -0.6652773471 0.7808262245
H 2.2328236443 -0.4448006456 -0.8488216268
H 2.0922177423 4.4721432682 0.8872022508
H 3.3020921342 3.7677224651 1.9453303883
H 4.8328930785 5.6706906861 -2.0978377827
H 5.8324384905 4.2175428101 -1.8857672802
H 4.5500581506 4.2379299758 -3.1403608947

