# b3lyp 6-31G(2df,p) opt Freq 

 titel

0 1
O -0.0345771293 0.0442786025 -0.6384630007
C -0.0445499549 1.1709427619 -0.1885942108
C -1.3637372246 1.9199322372 -0.0098263762
C -1.7029799254 2.5076470867 1.3695646264
O -0.873485594 3.6070258618 1.6966123244
C 0.0300640289 3.4080228869 2.7626337786
C 1.0063919754 2.2368143605 2.5375963577
C 1.7319599035 2.3169537507 1.2220429797
C 1.2602545374 1.8777982083 0.055784505
H -1.3534455601 2.7591271867 -0.7185415789
H -2.1571458133 1.229816428 -0.3136756922
H -2.7365908811 2.8736332847 1.328599908
H -1.6712474136 1.7320349234 2.1458344569
H 0.5810540973 4.3499898959 2.8500522044
H -0.5084651619 3.2452244626 3.7102075135
H 1.7203800967 2.2323809278 3.3685329372
H 0.4575656495 1.2912957176 2.6064700955
H 2.7217120836 2.7680856448 1.2380079317
H 1.8881739459 1.9292555721 -0.8310990902

