# b3lyp 6-31G(2df,p) opt Freq 

 titel

0 1
O 0.9720291236 0.7497839646 -0.5079085363
C 0.2949359933 -0.1170366011 0.4168854334
C -0.8942512226 0.5979688554 1.034129679
C -2.2015968765 -0.1512262433 1.3905363263
C -3.0887212791 1.1145175786 1.0916748573
C -4.0420026964 0.3134609052 0.183127712
C -2.6554667236 -0.2981709774 -0.1006308229
C -1.9426966073 1.1161333805 0.0352588734
O -1.7488439504 2.0676803662 -0.9398894768
H 1.3661300164 1.4662725209 0.0012700088
H -0.033706544 -0.9712326258 -0.1826792919
H 0.9933905975 -0.4965534899 1.176129636
H -0.5731134844 1.3402262516 1.7790726922
H -2.3825672875 -0.8727897715 2.1845807149
H -3.3046175354 1.9163701089 1.7995992638
H -4.7688351085 -0.3336680232 0.6843441578
H -4.5139162674 0.8626230592 -0.6360124571
H -2.3928682717 -1.1083210523 -0.7814028364
H -0.8813710661 1.8747556434 -1.3223150737

