# b3lyp 6-31G(2df,p) opt Freq 

 titel

0 1
O 0.0484085224 1.3372507254 0.2463286292
C 0.0454992422 -0.0619387912 0.0589319929
C -1.3768789077 -0.5835339119 -0.1500479053
O -2.1670941509 -0.1376049181 0.9873652203
C -2.9547036674 -1.226853642 1.4266066254
C -2.7041100553 -2.034011088 2.756489774
C -2.7355466905 -3.3545111311 1.8915773667
C -2.4343678089 -2.4364868058 0.7267341648
C -1.480588133 -2.1009657777 -0.1333935567
H -0.6153980186 1.5099653633 0.9254051837
H 0.6558650151 -0.2718812112 -0.8265814934
H 0.4950588729 -0.58937854 0.9161175696
H -1.7892063075 -0.1146416856 -1.0572568183
H -4.0227126188 -0.9995209632 1.3046411009
H -1.7040896921 -1.8387658523 3.1473742749
H -3.4504716572 -1.9385194423 3.5483227598
H -2.0117214124 -4.1390154398 2.116840987
H -3.7394391856 -3.7885021438 1.8650531401
H -0.7613993567 -2.7403144548 -0.6301633957

