# b3lyp 6-31G(2df,p) opt Freq 

 titel

0 1
C 1.3043702458 -0.7957841667 -1.0239731625
C 1.239309389 0.0933977499 0.2231529746
C 1.8675609177 -0.5134822291 1.4583213947
C 2.6786848635 0.322730935 2.1028759953
C 2.7775458282 1.660597015 1.4132987696
O 4.0967398855 1.9995384787 0.9814882304
C 4.2393236596 1.390219574 -0.2753702654
O 2.9844709178 1.4805002853 -0.9200408022
C 1.976371018 1.4592688486 0.0894197291
H 0.7689506162 -1.7350508923 -0.8506157037
H 0.8474741421 -0.2988543811 -1.8847422968
H 2.3379133555 -1.0315413484 -1.2876751549
H 0.1793412187 0.3015033403 0.4311368353
H 1.64001072 -1.5277727313 1.7729217676
H 3.2235086142 0.1094909569 3.0152393621
H 2.4295294154 2.492399705 2.0327034422
H 4.9827774232 1.9437094716 -0.8564168924
H 4.5444261709 0.3344922451 -0.1728435839
H 1.2821108487 2.2739991435 -0.132523839

