# b3lyp 6-31G(2df,p) opt Freq 

 titel

0 1
C -0.4402177584 -4.3569264868 0.9779059891
C -0.6812592697 -3.2140052804 -0.0087424717
O -1.8787242288 -2.5679645519 0.3872211894
C -2.0818872257 -1.3103435603 -0.2412408682
C -1.0103205255 -0.3060547385 0.1832699336
C 0.3488914731 -0.9374693889 0.0316049903
C 1.5444435885 -0.0795491359 -0.0299751467
O 1.5226355574 1.1289508385 0.0317334969
C 0.483853919 -2.266216345 -0.0779456734
H -0.2681026584 -3.9610421769 1.982387093
H -1.3174830135 -5.0078245356 1.0053991505
H 0.4282266468 -4.9502543704 0.6773708438
H -0.8155256246 -3.6499892407 -1.0187602124
H -2.0743022165 -1.4264413082 -1.3374258457
H -3.0810499995 -0.9817202348 0.0559674025
H -1.0626305373 0.6070469336 -0.4193219892
H -1.1681186932 0.00251256 1.2238417242
H 2.5031103501 -0.6353183329 -0.1437624114
H 1.4678613862 -2.7069949849 -0.2300657747

