# b3lyp 6-31G(2df,p) opt Freq 

 titel

0 1
C 1.5059178874 -0.1179286178 0.0585483569
C 0.0519405617 -0.0517395259 0.0476466654
C -1.1524054166 -0.0195661827 0.0375612406
C -2.6122202242 0.0733924201 0.0393849757
O -3.0874924115 0.998710658 1.0204292232
C -3.1680108311 0.4376775772 -1.3431180173
C -2.7209613649 1.7568729332 -1.9248015886
C -4.4510593647 -0.1594532197 -1.7322999968
O -3.2154882446 -0.6706056305 -2.2469622665
H 1.8728312694 -0.6652089212 0.9335212287
H 1.8806959181 -0.6280561225 -0.8353790391
H 1.9503896284 0.8830149353 0.079930813
H -3.0332976525 -0.903545895 0.3062998339
H -2.4001709866 1.6597249825 1.1496017139
H -3.0193887284 2.5799111285 -1.2680152949
H -1.6323399435 1.7785153046 -2.0340702618
H -3.1714869722 1.9133497278 -2.9074209526
H -4.9781865167 -0.815510358 -1.0408014833
H -5.0821258075 0.3522542762 -2.4574990903

