# b3lyp 6-31G(2df,p) opt Freq 

 titel

0 1
C 1.3313032182 -0.6811340724 -0.8008045656
C 1.5927392643 0.2160001278 0.4100349384
C 1.2409550898 1.6910941222 0.1273756682
C 1.4656229335 2.5769679523 1.2596935736
C 1.6445287626 3.3110949357 2.2037265114
C 1.8724566652 4.2113601792 3.3178192264
O 1.6007376925 5.3909748097 3.2746705372
C 2.5312050811 3.5838513964 4.550757447
O 2.4720617656 2.1796626134 4.6126339739
H 1.5881969917 -1.7210787491 -0.5803802483
H 0.276529226 -0.6535170333 -1.0953946032
H 1.9262078807 -0.3664685071 -1.6652757062
H 1.0078649954 -0.1286175082 1.2698320295
H 2.646472075 0.1533631497 0.7047127013
H 1.8246417726 2.0551925178 -0.7290709526
H 0.1880578564 1.7697105501 -0.1757220247
H 3.5666914039 3.9655510616 4.5796686987
H 2.0210591451 3.9785212736 5.4340698057
H 2.7369439004 1.8329543305 3.7528715293

