# b3lyp 6-31G(2df,p) opt Freq 

 titel

0 1
O 1.2541100595 -0.1656178213 -0.4962626549
C 0.107038027 -0.0497904676 -0.1577066753
C -0.9073862766 -1.1844725138 0.0110846497
O -2.0909898218 -0.5946717712 0.5048484168
C -2.1153539842 0.8044783538 0.1494028892
C -0.6424222021 1.2386899493 0.1799756926
C -2.7808626747 1.0363009023 -1.1881618861
C -4.2817391137 1.0115151206 -1.2866046934
C -3.54281136 2.3185178086 -1.4239567332
H -1.054093693 -1.6826515564 -0.9608498875
H -0.5453046259 -1.9359116819 0.7208831357
H -2.7066135416 1.2943771617 0.929641073
H -0.3862125886 2.042853462 -0.5117980762
H -0.3412024992 1.5470172187 1.1878180126
H -2.2325113713 0.6423307155 -2.0411695289
H -4.7307996836 0.5767667176 -2.172268338
H -4.8414392272 0.8360084471 -0.3739244607
H -3.4804868993 2.780430597 -2.4026428188
H -3.6082194836 3.027213388 -0.6043085666

