# b3lyp 6-31G(2df,p) opt Freq 

 titel

0 1
C 0.1438735902 -0.4689301504 -0.0668036434
C 1.5446098558 0.1105224605 0.0405651639
O 1.5616657522 1.568841626 -0.0209855373
C 2.6032538404 1.5505852844 -1.0287113635
C 2.0469263038 1.6713944041 -2.4644808799
C 1.9850865865 0.1127696434 -2.5577481162
C 2.5559786708 -0.0010055489 -1.1189767979
C 2.1540148794 -0.2726135607 1.3856092377
O 3.0106893135 -1.1012058206 1.5495736314
H -0.4583116053 -0.1710713238 0.798314888
H -0.3582120503 -0.1020905368 -0.9651355385
H 0.1830082122 -1.5626013261 -0.1000819965
H 3.4681999116 2.1504463516 -0.7359359971
H 1.0950981083 2.204171348 -2.517905549
H 2.7465730467 2.1244653419 -3.171665053
H 1.0004897525 -0.3294486236 -2.7256609644
H 2.6664565246 -0.2971050853 -3.3062832037
H 3.39715635 -0.6672213973 -0.9392228232
H 1.7325871872 0.3200741136 2.2294200025

