# b3lyp 6-31G(2df,p) opt Freq 

 titel

0 1
O 0.1370491061 0.0219802313 0.5799471359
C -0.3841688157 1.2332330982 1.0621275248
C -1.8068030944 1.4898247948 0.531229668
O -2.3247564441 1.6925674825 1.8609836589
C -1.0771085177 1.2811243762 2.4667189359
C -0.4235552715 2.3698311791 3.2726066566
C 1.0490059517 2.1812833262 3.5313046982
C 0.5976427293 3.0642692151 2.3937933844
C 0.5950996714 2.4373537189 1.0033998696
H 1.0411298197 -0.0725392735 0.8970083228
H -1.9523708004 2.3662866932 -0.1107601305
H -2.2362501085 0.6024562247 0.0502324471
H -1.1815314565 0.3207178393 2.9859723936
H -1.02656323 2.9153054988 3.9897656781
H 1.469525224 2.6561413646 4.4107026953
H 1.5011969908 1.2199575058 3.2965777229
H 0.7673958486 4.1314549748 2.4778644587
H 0.2752273832 3.1635330458 0.2494326976
H 1.593171424 2.095435044 0.7003285323

