# b3lyp 6-31G(2df,p) opt Freq 

 titel

0 1
C -0.1189843797 0.1033353422 0.0274220095
C 1.3898842542 0.1297724429 0.0546599333
C 2.1942454045 0.6750732948 1.2528137141
C 3.3724885372 -0.2135084936 0.7672997698
O 4.2023277343 0.4769929834 -0.1483449324
C 3.4266811109 1.1465325974 -1.1432767122
C 2.1220009833 0.3865037685 -1.3229524818
O 2.4843639406 -1.0213865868 -1.4343270076
C 2.3137175769 -1.1090518478 -0.0182519599
H -0.5222987941 -0.3146663016 0.9561458578
H -0.5311510194 1.1130833749 -0.0878376521
H -0.4860421474 -0.5052641583 -0.8059297687
H 2.3852658607 1.7480639162 1.3434848697
H 1.7697930953 0.3090925202 2.1935361324
H 4.0263155827 -0.684014899 1.5017955905
H 3.2389663769 2.1954435909 -0.8646689253
H 4.0123420286 1.1351272884 -2.067791603
H 1.5175265452 0.7363326847 -2.1647600316
H 2.0934050491 -2.1124015876 0.3526157975

