# b3lyp 6-31G(2df,p) opt Freq 

 titel

0 1
O 4.1589785722 -2.1782497921 0.1307948505
C 3.2187239983 -1.1993062368 -0.2833564573
C 3.8443118153 -0.0600566873 -1.1646433066
C 3.5976151476 0.9338661921 -0.0185679863
C 2.1298646725 1.0005529434 0.2808578275
C 2.9267297148 -0.1617989309 0.8160999491
C 2.0555443341 -1.9926963521 -0.8310388376
C 1.9874977136 -2.4028042724 -2.2365467344
O 1.1761649769 -1.331931615 -1.7415500631
H 4.8275450105 -1.7330558094 0.6631598833
H 4.89808761 -0.2775850534 -1.3536065369
H 3.3439179641 0.1742727696 -2.1081775409
H 4.286465458 1.7047966324 0.3039561558
H 1.837161921 1.7282730987 1.0312711849
H 1.4023968799 0.8470011894 -0.5093686512
H 2.9965492778 -0.3762538479 1.8772546052
H 1.5528980689 -2.6142482285 -0.0889254682
H 2.7818950614 -2.108051082 -2.9197893418
H 1.4470379332 -3.3071346179 -2.509346482

