# b3lyp 6-31G(2df,p) opt Freq 

 titel

0 1
O 0.0761110651 0.0246967388 0.9986585291
C 0.3420213002 -0.0122433134 -0.1761386171
C -0.2885663852 0.876829654 -1.2171297199
C -0.9047237792 2.2147302824 -0.7218896724
C -2.287097312 1.8143964788 -1.3062713406
C -1.7154888891 0.4376591083 -1.7497808686
C -1.4768724683 0.2243286535 -3.2473502487
C -0.2137940284 1.0567692956 -3.5160186838
O 0.5750336653 0.9385215401 -2.3333227006
H 1.0686342331 -0.7413316696 -0.5980276555
H -0.8830401098 2.2861264373 0.3669818207
H -0.431044049 3.0978941902 -1.1553819375
H -3.0923472297 1.7509411775 -0.5721143519
H -2.631252914 2.4367616086 -2.1372571485
H -2.1660117092 -0.4253207939 -1.2582535543
H -1.2799386675 -0.8324624709 -3.4527184284
H -2.3251856881 0.5398446594 -3.861626012
H 0.3872878139 0.696402605 -4.35443369
H -0.468301158 2.1106270183 -3.7051171098

