# b3lyp 6-31G(2df,p) opt Freq 

 titel

0 1
C -0.0400951462 0.0742385278 -0.1448164855
C 1.4711452312 0.0144688231 -0.0177055429
O 2.0398447945 1.3495436465 0.2410960372
C 2.8171431318 1.2005758173 1.482135051
C 1.8423228573 0.4107298521 2.3501623523
C 2.1234261998 -0.6340170296 1.1962568175
O 2.4902353761 -1.9519154298 1.5761444739
C 3.8059906133 -1.4097551725 1.9603460633
C 3.5694437265 -0.1046744283 1.1369275285
H -0.5184221008 0.3963504949 0.782949957
H -0.3209576139 0.7775692684 -0.9341541404
H -0.4304032062 -0.9132431139 -0.413617699
H 1.9064483549 -0.3759310021 -0.9454445194
H 3.2526631435 2.1695164922 1.7214735359
H 2.240785281 0.080147631 3.3079890443
H 0.8401437867 0.8211987868 2.466557858
H 3.9018673376 -1.3211514163 3.0462124867
H 4.6059490569 -2.0420923612 1.5687614245
H 4.0916715259 -0.1010647364 0.1799292073

