# b3lyp 6-31G(2df,p) opt Freq 

 titel

0 1
C 1.2738423555 0.9519469766 0.4540033292
C -0.0357248529 0.2167156198 0.3794888235
C -0.1477886232 -1.1221808 0.3361001971
C -1.4454744538 -1.8728062591 0.2196474134
C -2.5954899143 -0.9896943183 -0.2812155476
C -2.605638362 0.3295666511 0.4903659304
O -3.6542634978 1.1655205006 0.0882812078
C -1.263323245 1.040645117 0.3219255542
O -1.243956772 2.2500623056 0.1646110074
H 1.3177484051 1.5849082501 1.3468550773
H 2.1172517289 0.2575754606 0.4748142247
H 1.3887506683 1.6230183534 -0.4029728744
H 0.7583624812 -1.7240625257 0.388112466
H -1.3078753676 -2.7404175807 -0.435793524
H -1.6967873313 -2.2926492115 1.2066621413
H -2.466753927 -0.7707382934 -1.3478587203
H -3.5599102357 -1.4926932293 -0.1664805286
H -2.6896478896 0.0945913632 1.5707221362
H -3.2571769668 2.0492232601 0.0206510664

