# b3lyp 6-31G(2df,p) opt Freq 

 titel

0 1
C -0.7539849935 1.9454515663 -1.3174376264
C -0.6892557144 1.202566478 0.0188884044
O -1.956422276 0.7170225323 0.4539686485
C -2.0559887288 -0.6607139351 0.1333217022
C -3.0294700615 -1.0738414343 -0.9421204029
C -3.3212011899 -1.3359805919 0.5282957178
C -0.6655370771 -1.2459870433 0.2537632621
C 0.2146336179 -0.0369597427 -0.0676848357
O 1.3823732711 -0.0333505032 -0.3517532959
H -1.1392930852 1.2955775 -2.1086429295
H -1.4103746721 2.8150819254 -1.232377156
H 0.2483527187 2.2792400545 -1.6002232905
H -0.3051675217 1.8733297963 0.7969263951
H -3.5966340892 -0.2848286051 -1.4224708083
H -2.7796936542 -1.9162520842 -1.5791772525
H -4.0741320828 -0.7161507628 1.0022452334
H -3.2712373995 -2.35501754 0.8966811558
H -0.448057078 -1.5617643928 1.2826725006
H -0.4510042338 -2.0833271775 -0.4122440221

