# b3lyp 6-31G(2df,p) opt Freq 

 titel

0 1
O -0.0315742795 0.628937166 -0.1356563637
C -0.8280640901 0.0021901684 0.8508216495
C -1.000723649 0.7866408464 2.196960355
C -2.0870398771 1.9153116865 1.9358135987
C -2.9553484543 0.6614040653 1.6644004372
C -4.2202102704 -0.0238728338 1.1189155499
O -3.3526117861 -0.9174472061 0.340804387
C -2.3083896096 0.0968985448 0.4182040137
C -2.1617205127 -0.0402692081 2.7965109587
H 0.8759160945 0.6541212991 0.1832643026
H -0.4858155977 -1.0220153997 1.0516136723
H -0.0938575376 1.0094047432 2.7626786068
H -2.3080681177 2.4581631385 2.857604053
H -1.9274950649 2.607856075 1.1062099036
H -4.8476802736 -0.5755787615 1.8247151704
H -4.8424441626 0.5911348832 0.4559929836
H -2.3671810915 0.7444342079 -0.4670490656
H -2.4696470865 0.3027378199 3.7874547636
H -2.0889172337 -1.1307254351 2.7725735938

