# b3lyp 6-31G(2df,p) opt Freq 

 titel

0 1
C 1.0186410004 0.423702203 -2.6970306642
C 0.5469196099 0.6327608874 -1.2696369278
O 1.3995753319 1.5943908988 -0.6541331954
C 1.0961521369 1.8409155316 0.6714754996
C 1.5603519827 3.1361862287 1.1991577654
C 1.2801556491 3.208330015 2.7079981876
C -0.2331046784 3.0797603488 2.3664211801
O -1.2288436153 3.1993173342 3.023112622
C 0.0400047692 2.9476925564 0.9050352153
H 0.3859523585 -0.3134349528 -3.1998993073
H 0.972799455 1.3609807783 -3.2586312447
H 2.0513281154 0.0643029919 -2.7126856528
H -0.4941793259 0.9876000074 -1.2460867017
H 0.5840236742 -0.3108419923 -0.7031450654
H 1.0883555605 0.952619579 1.3084831878
H 2.2480595499 3.7616322895 0.6467545326
H 1.727262869 2.433370814 3.3382688375
H 1.4827981786 4.1896174809 3.1459374746
H -0.5660917616 3.2783659701 0.0711302469

