# b3lyp 6-31G(2df,p) opt Freq 

 titel

0 1
O -0.8366712521 0.8219196132 -0.307890661
C -0.096556036 0.6062147658 -1.4590899364
C 0.151048825 1.9068966878 -2.2522399703
C 1.6901294684 1.6861627403 -2.1970176477
C 1.5158236844 0.313473259 -1.5140275333
C 1.1947303973 -0.8701116563 -2.4595918656
C -0.3389436147 -0.666647674 -2.2900756146
C 2.243247626 0.0143778278 -0.2567827747
O 2.3899086163 -1.0942699887 0.2072153
H -0.9685233124 -0.0213719901 0.1402523452
H -0.2980230527 1.9217599721 -3.2489171148
H -0.1923247781 2.7835657139 -1.7002448239
H 2.2154243621 1.6648424903 -3.1552234523
H 2.1908645614 2.410589365 -1.5470196622
H 1.5698873031 -0.7372638098 -3.4770990735
H 1.5598310696 -1.8185666738 -2.0637497794
H -0.9412444941 -0.5399218774 -3.1945556745
H -0.7918460921 -1.4601488577 -1.6857710466
H 2.6126167286 0.9114943326 0.2924693056

