# b3lyp 6-31G(2df,p) opt Freq 

 titel

0 1
C 1.3774528236 0.1516253993 -0.0553881705
O -0.0024286573 -0.0687192476 0.1434760368
C -0.5223822909 0.6318187856 1.2414787817
C -0.2545245628 -0.0482170691 2.6348336402
C -1.7599482875 -0.3153013957 2.7547020402
C -2.5090502266 1.0061664843 2.6726903727
C -3.9694823382 0.9349722453 2.9025022985
O -4.6276841703 1.8000621262 3.4246991637
C -2.0106571892 0.3230582939 1.4089396201
H 1.979378416 -0.1969198496 0.7970807944
H 1.6694574835 -0.4112273719 -0.9446274765
H 1.595740325 1.2182225279 -0.2188301514
H -0.2613841331 1.6998401261 1.1725524454
H 0.3188601312 -0.966409999 2.4899096007
H 0.2035570774 0.5515514181 3.4269448864
H -2.2231352952 -1.1883662313 3.1986039196
H -2.0411126398 1.9238657471 3.0212537902
H -4.4399909745 -0.0133563975 2.5472402535
H -2.6776345114 0.0378526478 0.6046226543

