# b3lyp 6-31G(2df,p) opt Freq 

 titel

0 1
O 0.0311543629 1.3584096134 0.2777113536
C 0.0642585056 -0.038776337 0.0262308968
C 0.6374835649 -0.4396370584 -1.3821865415
C -0.5533652161 -0.9828562087 -2.2153649671
C -1.4162144546 -1.6571800857 -1.1326147847
O -2.8076503441 -1.7914226865 -1.3801938276
C -3.5317409635 -1.1733691057 -0.3092912519
C -2.5064449555 -0.3686138726 0.4567697969
C -1.2979490316 -0.6737558535 -0.0006786549
H -0.6691870059 1.7313107732 -0.2694224056
H 0.703447768 -0.4423572458 0.8184842549
H 1.1389276699 0.4153519751 -1.841445643
H 1.3904700679 -1.225007071 -1.2547486662
H -1.1340115268 -0.1652813698 -2.6570328903
H -0.2417319167 -1.6513370498 -3.0216255975
H -0.9880717226 -2.6444276549 -0.8846189641
H -4.3268697137 -0.5420197759 -0.7301177061
H -4.022926933 -1.940716049 0.3124418641
H -2.7638589849 0.3712171226 1.2042701042

