# b3lyp 6-31G(2df,p) opt Freq 

 titel

0 1
C -0.0476330082 0.0568036752 0.0388745831
C 1.4711446938 -0.0650470235 0.0723174002
C 2.1123072528 -1.1305988314 0.9997641034
O 3.5189192419 -0.8614918653 0.8198125687
C 3.621976247 -1.0371373187 -0.60666127
O 4.0433570554 -2.3478064062 -0.8765842878
C 3.0020479873 -3.1840387731 -0.333756897
C 1.8434362686 -2.2152093935 -0.098808824
C 2.1272748908 -0.9718901664 -1.0066700382
H -0.4175210706 0.5201132187 0.9598719421
H -0.3634657832 0.6903880495 -0.7968169982
H -0.5506472495 -0.9078340171 -0.0738091766
H 1.9282039344 0.9226020815 0.192138711
H 1.8831995239 -1.2516142895 2.0583106537
H 4.3388762473 -0.3377325187 -1.0339233925
H 2.7631583644 -3.965600248 -1.0630406553
H 3.3473318777 -3.6592902397 0.5923521475
H 0.8440451934 -2.6416741238 -0.1231911465
H 1.8978909928 -0.9332922198 -2.0706762737

