# b3lyp 6-31G(2df,p) opt Freq 

 titel

0 1
O 1.7124183972 0.1906494455 -0.0470515416
C 0.3022865335 0.331463341 -0.0795266653
C -0.1672335322 0.5896469145 -1.4875385598
C -0.1606947612 -0.5158628461 -2.5717861466
C -1.3568560285 0.1871459356 -3.2708585427
C -0.9319433473 1.4772060061 -4.0245676713
C -0.7739873374 2.1968789004 -2.6667346368
O 0.4517516114 1.8063375395 -2.0028487475
C -1.5715629775 1.0588936963 -1.9707869667
H 2.0687611542 0.9763607274 -0.4792130677
H -0.1220120096 -0.6030808386 0.3028671821
H -0.0372333694 1.1519812991 0.5729367885
H 0.7654057002 -0.6506704611 -3.1356783203
H -0.4671272942 -1.4750149134 -2.1411733583
H -2.1236156501 -0.4404632729 -3.7233591422
H -0.0520154554 1.438740435 -4.6727160863
H -1.7771070996 1.897344126 -4.5803245719
H -0.9548810426 3.2708216345 -2.5914439262
H -2.4736002315 1.151445141 -1.3715102295

