# b3lyp 6-31G(2df,p) opt Freq 

 titel

0 1
C 0.0781522768 0.0419891119 0.762346345
C 1.4504582883 0.0772984331 0.1512999717
C 2.3114597352 1.3350077018 0.0554276175
C 3.5384144159 0.6379310953 -0.5742175806
C 2.9323245102 -0.0494231627 -1.8164241563
C 1.8540933643 -0.7984757473 -1.0368816134
O 0.9205096234 -1.6393812129 -1.6234393262
C 2.4800331145 -1.0311607499 0.3243206801
O 3.7773665427 -0.4637236941 0.3252819197
H 0.106448541 0.3327044341 1.8184824215
H -0.6049883004 0.7249538982 0.2447885599
H -0.3520819728 -0.9609669906 0.6937854079
H 1.8851853535 2.1066263346 -0.5928910798
H 2.5394401781 1.7677866829 1.0341156868
H 4.4527017189 1.2138935375 -0.7004134931
H 2.5296736111 0.6594415123 -2.5449402531
H 3.6453727444 -0.7189706288 -2.3082265213
H 1.3651862607 -2.4566308511 -1.8748033638
H 2.3525382439 -1.9129439343 0.9376577273

