# b3lyp 6-31G(2df,p) opt Freq 

 titel

0 1
C 1.3436180364 0.6635057399 0.254876472
C -0.0141328468 0.0391293044 0.2896098039
C -0.3375817426 -1.2581960954 0.2668467817
C -1.8352519024 -1.4979346609 0.3611267982
O -2.2143146477 -2.2604556389 1.4966611248
C -2.4133627152 -0.0695510571 0.4123751459
C -3.8047965783 0.2100728879 -0.0738309601
O -2.0090912412 0.577748716 1.6351138968
C -1.2741514104 0.8515223608 0.4072479545
H 1.5293956533 1.2517035968 1.1622522285
H 2.1295771889 -0.0910156185 0.168266268
H 1.4418746492 1.354880215 -0.5915003294
H 0.3665966422 -2.0833173113 0.2624843383
H -2.2208297226 -2.0497510661 -0.5044163313
H -2.0017780518 -1.7021724071 2.2568931134
H -4.5225380399 -0.4146227084 0.468989255
H -4.0685791975 1.2585322116 0.0852078649
H -3.8975720814 -0.0200996159 -1.1404348803
H -1.3324342921 1.8813430272 0.0644995152

