# b3lyp 6-31G(2df,p) opt Freq 

 titel

0 1
C 1.2717795224 1.1812300991 0.1346632568
C 1.0423489684 -0.3242882492 0.0990804948
C 1.8319043649 -1.0568207129 -0.9845161642
C 2.0999166636 -2.493728623 -0.4575052268
O 2.3496232721 -3.4844882931 -1.3828518775
C 1.4448023165 -2.6096980875 0.9152771511
C 1.8996754696 -1.1324783874 1.1205356678
C 2.9814927843 -1.3537127018 -0.0376108486
O 4.3445308982 -1.2488412188 -0.1152210382
H 0.8450370362 1.6235447909 1.0417379947
H 2.3423601087 1.4187534594 0.119292014
H 0.8114401077 1.6757495922 -0.727574399
H -0.0323504699 -0.5436569717 0.1413783549
H 1.867825631 -0.8836705711 -2.0533512984
H 3.0839401379 -4.0186509897 -1.0597232237
H 0.3702057301 -2.814946471 0.9782377171
H 1.9939301948 -3.2997815321 1.564084198
H 2.0940812003 -0.7446600892 2.1190655069
H 4.579162373 -0.326229153 -0.2652585797

