# b3lyp 6-31G(2df,p) opt Freq 

 titel

0 1
C 1.6038026227 0.2704500206 -0.1183617929
C 0.1568579536 0.1064239721 -0.1204953527
C -1.0410299197 -0.0183957729 -0.1318556246
C -2.4908762194 -0.1785289823 -0.1191299944
C -3.001555542 -1.2005520223 0.9315916215
C -4.536005918 -1.2123428516 1.0251323654
O -5.0109731452 -2.0389214594 2.0622564168
C -2.4484723413 -2.583980302 0.6510491365
O -3.0930140727 -3.6058517934 0.7277909253
H 2.0538806081 -0.1802101896 0.7729391999
H 2.0598677956 -0.2021056395 -0.995121963
H 1.882483458 1.3298351162 -0.1297477091
H -2.9659998039 0.787917875 0.0912054108
H -2.8448025779 -0.4757207275 -1.1156512344
H -2.5934155995 -0.907443795 1.9103920286
H -4.8924530732 -0.1985653093 1.2384524726
H -4.951233625 -1.5044513928 0.0461293008
H -4.7246333536 -2.9326614042 1.8313950917
H -1.3778621465 -2.6143017822 0.3608038414

