# b3lyp 6-31G(2df,p) opt Freq 

 titel

0 1
C 0.9028625108 -0.8169628025 0.4409708003
C 0.8919633537 0.4186279305 -0.4544520336
C 1.785258643 1.5321527496 0.0534133084
O 2.4619684054 1.4448515951 1.0517561306
C 1.7940048565 2.8528786116 -0.74292746
O 1.2458861448 2.7139849616 -2.0490449574
C 0.1512830114 3.6153707884 -2.2327552469
C 0.0006525891 4.3155032517 -0.9121157176
C 0.9355471739 3.8943617134 -0.0686727383
H 0.5570652468 -0.5744252828 1.4493436713
H 0.255278471 -1.5969944628 0.0311002832
H 1.914203062 -1.2208128397 0.5352844272
H 1.2059695803 0.1877019357 -1.47996897
H -0.1200274255 0.8309791719 -0.5674016056
H 2.8466367893 3.1697588726 -0.8026539958
H 0.376601556 4.3122239708 -3.054977797
H -0.747983275 3.0511873194 -2.5226341221
H -0.7625849131 5.0583111638 -0.7190028313
H 1.1012711596 4.2036876218 0.9540807446

