# b3lyp 6-31G(2df,p) opt Freq 

 titel

0 1
O 1.0070923953 -0.6752546499 0.0835900535
C -0.1245361792 -0.3095186012 0.0460751239
O -1.2560240919 -1.0807654814 -0.0298291865
C -2.1155650386 0.1061164686 -0.0418799519
C -0.877566385 1.0257842721 0.047411408
C -0.7175104346 1.8927345151 1.3262026057
C 0.014402736 3.1661760435 0.8675792535
C -0.5216852417 3.3870935179 -0.5535517539
C -0.5408828387 1.964939664 -1.142709302
H -2.691224143 0.1538681669 -0.9692974438
H -2.7807805654 0.1057758745 0.8250518594
H -1.7137682242 2.151071906 1.7034250742
H -0.1955328432 1.3621393525 2.1266717611
H -0.1571777534 4.0134534156 1.5369730582
H 1.0950184033 2.9853529012 0.8333667727
H -1.539022316 3.7956448889 -0.5103067976
H 0.0834444043 4.0787977736 -1.1456162084
H -1.239563149 1.845383933 -1.9750289664
H 0.4566463551 1.7089052892 -1.5163652497

