# b3lyp 6-31G(2df,p) opt Freq 

 titel

0 1
C 1.2484853878 0.079724235 -0.1532112708
O -0.1521311051 0.1548376921 0.0669627847
C -0.4996801205 0.7050341108 1.2878050292
C -0.1689392366 0.2387322378 2.7202511066
C -1.0990864185 1.4645445252 2.8800425428
C -1.9746477603 1.071067966 1.6399946236
C -1.833383937 2.4778281729 1.01873473
O -1.9118227647 2.6205384343 -0.3738509466
C -0.4562739776 2.237516216 1.6805688669
H 1.7371079615 -0.5531132023 0.5990019993
H 1.3926788659 -0.3639122338 -1.1401996764
H 1.7126750015 1.0751148782 -0.1328385955
H -0.5745122139 -0.7299071882 3.0285634506
H 0.8619824256 0.3611462351 3.0666819964
H -1.469345373 1.9179330835 3.7957609454
H -2.8183031992 0.3793763646 1.6403397621
H -2.4511199096 3.2688059277 1.4545685138
H -1.4182762493 1.8877787695 -0.7643071896
H 0.4244632131 2.8796080254 1.7283689276

