# b3lyp 6-31G(2df,p) opt Freq 

 titel

0 1
O 0.4107559606 -0.2855297532 0.2317978565
C -0.5830847781 0.5895178184 0.6761994479
C -2.0306121897 0.1654141656 0.6125291779
O -2.9033542619 0.8362020612 1.4896597844
C -3.2007890563 2.1158162556 0.9424109507
C -4.3392691824 2.1829273049 -0.1180840265
C -3.3336871136 2.7928036722 -1.1357792738
C -2.1603263036 2.4673979797 -0.1660076944
C -1.4790011286 1.1310394921 -0.4098438197
H 0.5459456844 -0.9507762389 0.9154441244
H -0.3088798382 1.2583124964 1.494383823
H -2.2998135414 -0.8605260196 0.3823536788
H -3.3060957323 2.8189559971 1.771362515
H -4.6888437783 1.184484369 -0.3901475264
H -5.2047752028 2.7963269461 0.1417825074
H -3.286882251 2.3229570981 -2.1213436863
H -3.4689633716 3.8679328753 -1.2747179379
H -1.4528231471 3.2768014051 0.033470547
H -1.2667688279 0.8026342048 -1.421279978

