# b3lyp 6-31G(2df,p) opt Freq 

 titel

0 1
O -2.0599995891 -2.3758361216 -2.0045196921
C -1.9351610021 -1.2795833622 -1.1368407591
C -3.2039978378 -0.6984485117 -0.5583808823
C -2.4528461334 0.0170212227 -1.673089639
C -1.6501870752 1.2803479833 -1.4199795941
C -1.0064018003 1.3127981867 -0.0269386093
C -0.3130545371 0.0223764779 0.4089388621
O 0.4741596333 0.0160370155 1.3258925488
C -0.6381441257 -1.264061068 -0.3504784744
H -2.1977706107 -3.1647883361 -1.4677085223
H -4.1288105455 -1.190414535 -0.8371853305
H -3.1968281483 -0.2920685213 0.4477429117
H -2.9161274993 -0.0497316357 -2.652380318
H -0.8687873732 1.3558848974 -2.1873906707
H -2.2858331648 2.1647288786 -1.5427149792
H -0.2798902946 2.1249418263 0.0653530887
H -1.7703177302 1.514795429 0.7357842902
H 0.1846488604 -1.4158508242 -1.0644132688
H -0.5782457364 -2.0940445514 0.3632893485

