# b3lyp 6-31G(2df,p) opt Freq 

 titel

0 1
C -0.2051806891 0.0713545319 -0.0662854124
C 1.3121903553 0.0154008462 0.0083146703
C 2.1995041795 1.2730847161 -0.2845463937
C 1.9118114897 1.0750321977 -1.8119397898
C 2.177309538 -0.3512731999 -1.2575951479
O 2.1374723709 -1.4911411525 -2.0312570114
C 3.3559727254 0.2861629902 -0.4891005788
C 4.4988506435 -0.1805959126 0.2784292054
O 4.6468627185 0.5608643663 -0.9616824348
H -0.6162414107 0.5363470803 0.8361479378
H -0.5801167345 0.6305020174 -0.9261359036
H -0.6166894867 -0.9420411759 -0.1291308926
H 1.6219159546 -0.5248389345 0.9117715504
H 2.2184316071 2.2082440621 0.2686171083
H 0.9025227911 1.2915358438 -2.1593798937
H 2.6643176328 1.4678901488 -2.4973292681
H 2.3791966736 -2.2454652856 -1.4826477562
H 4.8185778315 0.3517077799 1.1730797997
H 4.8146410296 -1.2222809797 0.225619101

