# b3lyp 6-31G(2df,p) opt Freq 

 titel

0 1
C 0.4040855777 0.7669778648 0.1670996534
C 0.8493407491 -0.6570533759 -0.1156462318
O 1.481932793 -1.2069904692 1.0570221749
C 2.5864726268 -1.9821234315 0.6417990289
C 2.9666639907 -3.0678318629 1.603344655
C 3.6407009897 -1.2617099787 -0.1911130884
O 3.1013778673 -0.0523019618 -0.7226697594
C 1.9318329937 -0.8036630187 -1.1828585828
C 2.6123962903 -2.1500265911 -0.8543569598
H -0.2532459667 0.7912304381 1.0401518576
H 1.2762916886 1.394434145 0.3614453408
H -0.1473141742 1.1719776991 -0.6879552112
H -0.0165593846 -1.2849192681 -0.3871869775
H 3.1794936346 -2.6458823836 2.5903854196
H 2.1559060761 -3.7955969333 1.7100738744
H 3.8608368195 -3.5948847216 1.2571056127
H 4.7166132565 -1.3359626353 -0.0738488331
H 1.6523735603 -0.5525195142 -2.2069637565
H 2.6633795814 -3.0582545709 -1.439946467

