# b3lyp 6-31G(2df,p) opt Freq 

 titel

0 1
C -0.6905330447 1.7191341429 -1.5439859204
C 0.2021246992 2.9790760376 -1.3696361381
C -0.554082125 3.6410150914 -0.1887466763
O -0.81412942 2.4848335068 0.6672729896
C -0.1733543096 1.4766640062 -0.0953231916
C 0.1549348949 0.1058592064 0.4225987619
O 1.240382743 -0.2988875791 -0.4220345425
C 1.9015987998 0.8413386595 -1.0334183757
C 1.1798894912 2.0912730927 -0.5366346504
H -1.7673806675 1.8639377959 -1.6561283682
H -0.3184076177 1.0043198615 -2.2757434113
H 0.5032983512 3.6326338907 -2.1886977089
H 0.0442560888 4.3739656662 0.3637987219
H -1.5013511081 4.1002946102 -0.4904128759
H 0.4563306442 0.1518732647 1.4800083997
H -0.6440159058 -0.633814899 0.3137200421
H 2.9525865644 0.8401014918 -0.7245493583
H 1.87218254 0.7057060631 -2.1206055037
H 1.7383166419 2.6073825202 0.248978626

