# b3lyp 6-31G(2df,p) opt Freq 

 titel

0 1
C -0.0498713082 0.1355774924 -0.1434325742
C 1.4569001243 0.015264216 -0.1140013991
C 2.254308561 1.2702410182 0.3506133213
O 2.7836757723 0.5762950457 1.5202683265
C 2.2643896869 -0.6402516637 1.0394859449
C 1.83308806 -1.8855791398 1.7832392767
O 2.1826685092 -2.673820065 0.6101110685
C 2.9319010131 -1.5839683447 0.003234537
C 2.1778526768 -0.8957944474 -1.1584346633
H -0.4301011648 0.6324526802 0.7559481456
H -0.3797040929 0.7198097872 -1.0110797041
H -0.5204157859 -0.8507953099 -0.2124370841
H 3.0565034098 1.6021656677 -0.3191323986
H 1.6457785086 2.1303618842 0.6487560942
H 2.4648043437 -2.1402752438 2.6454727514
H 0.7768508389 -1.9882639404 2.057006354
H 3.9996482486 -1.8050354857 -0.0771093425
H 2.8167947333 -0.3684025245 -1.87368704
H 1.5154139756 -1.5735317365 -1.702751504

