# b3lyp 6-31G(2df,p) opt Freq 

 titel

0 1
C 0.9408137776 -2.6279710433 2.3092196949
C -0.3368648182 -1.985114369 1.8831376472
C -0.9353285384 -1.9893610649 0.5072321837
C -0.6971465366 -0.6667227129 1.2111876401
C -1.713752233 -0.531158061 2.3399565127
O -1.3779274685 -1.841071804 2.8637114201
C 0.1538298295 0.4194361601 0.667845285
C 0.0969331237 0.8478239512 -0.7394910538
O 1.1663182288 0.0262687307 -0.2651704162
H 1.3433304842 -2.1457733439 3.2053142882
H 0.779070545 -3.6877746124 2.537185981
H 1.6821616246 -2.5586875522 1.5088387033
H -0.2333175057 -2.1818062797 -0.2979039957
H -1.9454616043 -2.3623278791 0.3572644644
H -1.4586887863 0.2511266895 3.0658034622
H -2.7724951827 -0.4477913573 2.0660291931
H 0.4932887506 1.1535783467 1.4015417996
H -0.6028685121 0.3560951989 -1.4129506086
H 0.3764091017 1.8651979624 -1.0089934112

