# b3lyp 6-31G(2df,p) opt Freq 

 titel

0 1
C 1.1727096105 -0.6452996547 -0.4318694329
O -0.0503076295 -0.0901541368 0.01234674
C 0.0143104484 0.5615690184 1.2519007711
C -1.2598106558 1.4021165282 1.3970510442
C 0.1410211206 -0.4269977692 2.4215036898
O 0.0824448627 -1.620731569 2.2703525209
C 0.2994305632 0.14871642 3.8491901959
C 1.0121226401 1.4114852551 3.9696631188
C 1.6069517977 2.4507944935 4.0752558017
H 1.5066508984 -1.4689133979 0.208836865
H 0.9962450464 -1.0283246483 -1.4396262441
H 1.9641274443 0.1192855782 -0.4785997977
H 0.8903732674 1.2307500394 1.2977161878
H -1.2398685978 1.9985895468 2.3118674443
H -1.3369529832 2.0775434712 0.5421384151
H -2.1414323361 0.7547015781 1.4041444582
H -0.7181308981 0.2565596703 4.2512196803
H 0.7796856037 -0.6349637917 4.4435356231
H 2.1345843271 3.3678509284 4.1683646982

