# b3lyp 6-31G(2df,p) opt Freq 

 titel

0 1
O 0.1995621178 0.0899114283 -0.0366326701
C -1.0439465188 0.3315146693 0.54625928
C -1.8113342421 1.5947082456 0.2906368229
C -2.3081226701 0.2656174682 -0.2728337684
C -3.2438790113 -0.6574462689 0.54342214
C -3.6705609626 0.0419045346 1.8391763013
O -2.4310628357 0.1821375913 2.5665419163
C -1.4279932159 -0.5024442249 1.7976878281
C -2.2120861731 -1.652464149 1.1460576838
H 0.8501670006 0.6438247644 0.4089783964
H -2.3187554235 2.0893436036 1.1090316693
H -1.37799977 2.2605988679 -0.449227872
H -2.260326528 0.1321017057 -1.3472367932
H -4.0698143667 -1.0829841145 -0.0266489316
H -4.1155141199 1.0293850019 1.6778307711
H -4.3738992899 -0.5667836713 2.4219635107
H -0.5911955282 -0.7459831677 2.4529116222
H -1.6328837557 -2.1792843673 0.3848552995
H -2.6324478969 -2.3625020273 1.8647470741

