# b3lyp 6-31G(2df,p) opt Freq 

 titel

0 1
C 1.5242525035 1.0965844264 -0.8384542211
C 1.988685681 0.3811057759 0.418806739
C 3.4891347222 0.0601494084 0.6306968414
C 3.0973599043 -1.3118491252 1.2314469529
C 1.686100969 -1.186530273 0.6046342234
C 1.5406586142 -1.8776369434 -0.7341904016
O 2.4716740493 -2.297780035 -1.3762947468
C 0.4745465906 -1.4099990727 1.4740820008
O -0.6512513495 -1.531070581 1.0584729009
H 1.9211661502 0.6228383381 -1.7414741943
H 0.4317519299 1.114009517 -0.9096925922
H 1.8747833141 2.1344000069 -0.8254154755
H 1.5899763008 0.8938420065 1.301950879
H 4.0079054439 -0.0595056255 -0.3236241839
H 4.0552486025 0.7503505037 1.2598662194
H 3.6740791588 -2.1765114155 0.9024409198
H 3.048575299 -1.2974401339 2.3247566797
H 0.497108737 -1.9611131906 -1.095420381
H 0.6876489293 -1.410768517 2.56855312

