# b3lyp 6-31G(2df,p) opt Freq 

 titel

0 1
O 1.2344890651 0.8822991489 0.0669861888
C 0.3862682596 -0.0715693239 0.6716790665
C -0.899978758 0.5865143039 1.145439223
O -1.5330889223 1.2510491757 0.0158816994
C -2.684358808 0.3831093118 0.0872810891
C -3.8045102194 0.9620721238 0.9341500028
C -4.5596446308 -0.1565064576 1.5980667279
C -3.2379472084 0.2592657733 2.1790630527
C -2.1083875609 -0.3445548506 1.3546117272
H 0.6832293183 1.3455413223 -0.5767011076
H 0.1412289268 -0.8932742494 -0.022344852
H 0.928805273 -0.5016145095 1.5215535064
H -0.6887945792 1.3003344914 1.9512510904
H -2.9165561973 -0.0739793506 -0.8788017582
H -4.205901554 1.9628109416 0.8337836071
H -5.4348598975 0.1525376729 2.1600057181
H -4.6675034194 -1.1224105755 1.1090774768
H -3.1452401842 0.6394403628 3.189854449
H -1.9060514734 -1.4149621014 1.4345078525

