# b3lyp 6-31G(2df,p) opt Freq 

 titel

0 1
C 2.4292268854 -1.1433556949 -1.1513049782
C 1.8809458545 -0.0900700134 -0.1987959262
C 2.7183696109 1.2211404212 0.0286061
C 2.7951258242 0.8750631327 1.5128042473
O 3.3847514683 -0.43520916 1.6312525861
C 2.0008730039 -0.3855996894 1.3157948244
C 1.0387960495 -1.1272862641 2.1877268999
C 2.8338139745 1.7574585698 2.6892508126
O 2.7223133144 2.9590535525 2.628862537
H 3.4458329738 -1.4252207462 -0.8629496148
H 1.8088852404 -2.0462753863 -1.1494816896
H 2.4578007705 -0.7623365199 -2.1772749449
H 0.845862393 0.1631440967 -0.4494035562
H 3.6863230507 1.271731111 -0.4753661676
H 2.1548975515 2.135585381 -0.1615943166
H 1.3198678697 -1.0464241545 3.2402333071
H 0.0229114483 -0.7414471747 2.0602473245
H 1.0303642086 -2.1902490751 1.9199916986
H 2.9599536679 1.2189690235 3.6533660664

