# b3lyp 6-31G(2df,p) opt Freq 

 titel

0 1
C -0.0698550539 0.2924075837 0.1948826861
C 1.3844561329 -0.1265511043 -0.0282874296
C 1.9733025454 0.3108612758 -1.4031053776
C 2.9110398677 -0.822962724 -1.8559477817
O 4.248722368 -0.4681009765 -1.4773635725
C 2.3951023916 -2.0105826736 -1.0718034172
C 1.5888105733 -1.6324211197 -0.0810479469
C 2.2824027697 0.4051115538 1.0969053142
O 1.882506288 0.9181013107 2.1098762153
H -0.4227870308 -0.0359408763 1.1755894937
H -0.1689445699 1.3815123277 0.1626042792
H -0.716279247 -0.1393042402 -0.5749640528
H 1.1477898241 0.4141364516 -2.1132573146
H 2.5081088365 1.2641636434 -1.3699239937
H 2.873077076 -0.9792223977 -2.9433512872
H 4.8048582264 -1.2484200962 -1.5735690393
H 2.6988824743 -3.0311119567 -1.281927497
H 1.1349223942 -2.2887259948 0.6543652912
H 3.3659193733 0.2638245435 0.8962862705

