# b3lyp 6-31G(2df,p) opt Freq 

 titel

0 1
C 1.7208070557 -0.9125814377 -1.0207738648
C 1.4584738088 0.1326046694 0.0443795097
O 1.8909068328 -0.3211813948 1.3604565137
C 2.839559505 0.7491218948 1.4871326503
C 2.3001096574 2.0197999665 2.1861556493
C 1.860673959 2.6001614412 0.8072809918
C 2.4153679954 1.3429533954 0.0922591296
C 4.2286917678 0.2732430463 1.7924504329
O 5.1089065349 0.9861338053 2.2068988323
H 1.1696659306 -1.8302991949 -0.7940072714
H 1.3960190515 -0.5480884297 -2.001535894
H 2.7862708154 -1.1579398216 -1.0753379025
H 0.3943250196 0.4044168123 0.0613709193
H 1.5088200472 1.8135072641 2.9089332694
H 3.1015321549 2.5855098811 2.665299784
H 0.787996947 2.7632953936 0.6725348347
H 2.3848221272 3.5190951504 0.5380989999
H 3.0984750999 1.4731844696 -0.7467874939
H 4.3903579297 -0.8062594512 1.5754735095

