# b3lyp 6-31G(2df,p) opt Freq 

 titel

0 1
C -0.9767176161 2.0530545586 1.2640722075
C -1.1374729641 1.0874388632 0.0926612797
C -1.1304323486 1.8374580839 -1.247000165
C -2.2577647767 0.0216388743 0.1536896507
C -2.0642934764 -0.8966760759 1.3165098775
C -1.2320282298 -1.1325680901 0.0611580919
O -1.3164254291 -2.295716044 -0.6694882777
C -0.1325853257 -0.1068924667 -0.0156597582
O 1.0367147348 -0.1581896519 -0.2765025197
H -1.021359422 1.5498402645 2.2338468289
H -0.0095738455 2.5619912654 1.1991002206
H -1.7604239658 2.8187661742 1.248527353
H -1.2497906619 1.1522366623 -2.0922434683
H -1.947341826 2.5665856977 -1.2809006033
H -0.1854816786 2.3722360613 -1.3782017213
H -3.1943575357 0.0857390076 -0.3856775899
H -1.6155960439 -0.5585864291 2.245424452
H -2.8326214687 -1.6544449256 1.4388844534
H -0.9175583101 -3.0101728996 -0.1606364119

