# b3lyp 6-31G(2df,p) opt Freq 

 titel

0 1
C -1.3470220255 -0.3315983851 -2.6302709627
C -1.8703049963 -0.899152504 -1.3201300633
C -2.9085716002 -1.9945080417 -1.5251331278
C -0.9235957629 -1.2077813185 -0.1316418284
C 0.0806549273 -0.1243212072 0.0464911863
O 1.2617298301 -0.1105545961 0.2623928988
C -0.9919333951 1.0016440556 0.075856647
C -2.0518083801 -0.0945782036 -0.0895765557
O -3.2634551262 -0.093845086 0.559316223
H -0.9020446481 -1.1301526852 -3.2334304119
H -2.1665386995 0.1060111549 -3.2116309766
H -0.5847760035 0.4376847347 -2.4914214918
H -3.2700276404 -2.3974351745 -0.5774707008
H -3.7728765514 -1.5983958465 -2.0684631152
H -2.4850852982 -2.8125509008 -2.116779491
H -0.8697794677 -2.2153225493 0.2640279995
H -1.0139016294 1.4421391439 1.0795644108
H -0.9438654462 1.8070358099 -0.6618694566
H -3.1202217266 0.1384259695 1.4840000764

