# b3lyp 6-31G(2df,p) opt Freq 

 titel

0 1
C 0.7854046798 -0.1482422672 -1.0912476803
C 0.9580184049 0.2864798321 0.353986126
C 1.8537883698 1.514661576 0.651906908
O 3.0049522255 1.6089834366 -0.2141617353
C 3.8700556318 1.0308363384 0.7959242494
C 2.6742723386 0.7155545177 1.7010304083
C 1.9030505224 -0.5654736574 1.2992932268
C 1.1575617657 -1.2747397298 2.3915518854
O 1.1650604465 -0.958808886 3.555556242
H 0.3206475502 -1.1376597279 -1.155278927
H 0.1478596516 0.5557143077 -1.6368377355
H 1.7544564279 -0.1826312852 -1.5960136815
H -0.0168272314 0.4266947691 0.8367859479
H 1.3746387409 2.4850320425 0.8091591597
H 4.4497493741 0.1811058137 0.4140559595
H 4.5590910158 1.7833216737 1.2002944298
H 2.719766302 0.9355379207 2.7647014003
H 2.4950362919 -1.301038083 0.7407019914
H 0.538792682 -2.1326689614 2.0385369351

