# b3lyp 6-31G(2df,p) opt Freq 

 titel

0 1
O 0.3180429553 0.1605252998 0.3263706908
C -0.9015743711 0.4299475617 0.9822756726
C -2.1112969464 -0.3697637598 0.4676541435
C -3.3666970169 0.1803178961 1.0810377313
C -2.7389591908 0.9114431493 -0.0755665792
C -1.545030266 1.7320383722 0.4098103503
C -1.6921872031 3.0459584544 1.2009740221
O -0.9477356708 3.7826050507 0.2123638422
C -0.7380434627 2.5936822375 -0.5810073237
H 0.6231650013 -0.7069593288 0.6106292644
H -0.7704692973 0.4166662484 2.076003706
H -2.0570042085 -1.3555105196 0.0210168889
H -4.2774261284 -0.3629924833 0.8507511094
H -3.3498927744 0.6095371471 2.0812755163
H -3.2690297331 1.0793630415 -1.0061270048
H -2.7206101422 3.4156463777 1.3088803647
H -1.2012189736 3.0643255682 2.1836876639
H -1.1778992304 2.6854261851 -1.5826780771
H 0.3203201293 2.3334780917 -0.6695630816

