# b3lyp 6-31G(2df,p) opt Freq 

 titel

0 1
O -1.467099859 2.8290940663 -1.8897298321
C -1.4604488214 2.7180929137 -0.482995068
C -1.8455544294 1.3066698923 -0.0034527252
C -1.5282363685 1.0919414385 1.4964114122
C -0.1037133856 1.1333905197 1.8006772228
C 1.0747705827 1.1622045933 2.0346153235
C -3.3219629587 1.0479134514 -0.2386516897
C -3.8209162589 -0.1157052176 -0.9824448243
O -3.7947977185 1.1811485655 -1.589927733
H -2.2959161162 2.445594345 -2.202772224
H -0.4429415947 2.9477389335 -0.1521797918
H -2.1331638572 3.4565685098 -0.0099174985
H -1.2587243508 0.5955566423 -0.5955107676
H -2.051812836 1.8543893982 2.0898312794
H -1.9392576438 0.1260421905 1.8174247794
H 2.1145518902 1.1894884923 2.2484397342
H -3.9924906995 1.5069149807 0.4914945062
H -3.1095444714 -0.8333838256 -1.3875331709
H -4.8170855532 -0.5059633799 -0.7830129826

