# b3lyp 6-31G(2df,p) opt Freq 

 titel

0 1
C 0.6483715437 -0.3505815865 -0.7067214278
C 0.9018624243 0.211610764 0.6871382149
C 1.806794282 1.4487114931 0.7072469888
C 3.0679634222 0.619926408 0.8813825109
C 2.5817086441 1.4422877331 2.0362413624
O 3.2079526642 2.5668933913 2.5339116681
C 2.109841731 0.2240800236 2.8302940153
C 2.0572007976 -0.4885484433 1.4491623202
O 2.1412452037 -1.8630816378 1.3295641838
H 0.2131309404 -1.3522411555 -0.6475827523
H -0.0434039619 0.2895282349 -1.2644976399
H 1.5797994575 -0.4207066388 -1.2778818857
H -0.0407033979 0.2776017693 1.2473176903
H 1.7093574004 2.3608233594 0.1311032613
H 4.0047990893 0.6015138338 0.3445762071
H 2.5306576745 3.1782190158 2.8441046034
H 2.9235657153 -0.1640167471 3.4534570959
H 1.1804294307 0.274554234 3.4106282117
H 2.858942609 -2.1788713611 1.8884734417

