# b3lyp 6-31G(2df,p) opt Freq 

 titel

0 1
C -1.9491537052 -2.6396898206 -1.9106799844
C -1.597869615 -1.2886000551 -1.3275241375
C -2.3527209963 -0.7568854812 -0.1576238758
C -2.3716513854 0.758024078 0.0633800424
C -0.8994582993 1.2001202563 -0.0399868728
O -0.562322086 2.2832191948 0.7838542101
C -0.1201784875 -0.0636034858 0.3785785538
O 0.9113999224 0.0030420427 1.008892197
C -0.9151629576 -1.2642201252 0.0441243136
H -2.3091535011 -3.3233139174 -1.1352166023
H -2.7387140208 -2.5423637944 -2.6633992115
H -1.0814395726 -3.1035483025 -2.3905975099
H -1.2380454946 -0.5682314915 -2.0578371288
H -3.1791290053 -1.3460720774 0.225591838
H -3.0264750328 1.2779016162 -0.6422529844
H -2.7175739688 0.9860754612 1.0766564804
H -0.6442753518 1.4272350007 -1.0897675788
H 0.2816727177 2.0349697777 1.1939420118
H -0.6723111601 -2.2049811965 0.5221020292

