# b3lyp 6-31G(2df,p) opt Freq 

 titel

0 1
C 1.4652179434 -0.0014720782 0.0005542976
O 0.0520360146 -0.0114108813 0.0630540756
C -0.4460032505 0.6103659978 1.1968880541
C -1.81617146 1.2002575904 1.1015828819
O -2.6331166423 1.067942415 2.2281050873
C -2.8341526514 2.2604213163 2.9790824349
C -1.5584963017 3.0143288148 3.2605504625
C -0.5233703047 2.9386348457 2.4249124389
C -0.6289183938 2.1320063417 1.1880389251
H 1.9105842935 -0.5365018346 0.8524196003
H 1.7497799158 -0.5075910127 -0.9246235574
H 1.8627558867 1.0236551164 -0.0105620626
H -0.1812334114 0.1542875311 2.1519285985
H -2.3346069428 1.1053771471 0.14922599
H -3.5564157427 2.9207435268 2.4685087761
H -3.3048723204 1.9371945208 3.9130614517
H -1.5237128916 3.6203892319 4.1608464723
H 0.404523209 3.4679096976 2.623875018
H -0.3311720894 2.6103123936 0.2586825251

