# b3lyp 6-31G(2df,p) opt Freq 

 titel

0 1
C 1.411711421 -0.0113087738 -0.0876938149
O 0.0220270177 -0.1023825297 0.203694136
C -0.3961917375 0.6968920342 1.2641237768
C -0.0083293201 0.2244515527 2.647131331
C -0.5607697313 2.169985324 0.9745366556
O -0.1955026801 2.6987201367 -0.2548927674
C -1.8061828742 1.2761438668 1.0762167253
C -2.5260101202 1.0315083865 -0.1338242138
C -3.102789103 0.8928328841 -1.1819896169
H 2.0286062044 -0.4266244282 0.7208781333
H 1.5753140145 -0.6081677244 -0.987895304
H 1.7102574852 1.024894739 -0.2781508099
H -0.3893366352 -0.786146369 2.8262954228
H 1.0793956088 0.2096962334 2.7715615839
H -0.4178028439 0.887805229 3.4145892374
H -0.3946856118 2.8796894887 1.7803683027
H -0.7654691988 2.3046253558 -0.9299300553
H -2.4093687367 1.3692995584 1.9743590427
H -3.627454479 0.7260019358 -2.0899754454

