# b3lyp 6-31G(2df,p) opt Freq 

 titel

0 1
O 1.5805383756 0.836142774 0.2020805813
C 0.5356862937 -0.0497038973 0.587277546
C -0.3663668496 0.5511954513 1.6616557721
C -1.4088886476 -0.4062815539 2.2878684619
C -2.1979820953 0.5570422198 3.2123269837
C -0.8872277064 0.6161728427 4.013486532
C -0.5449893071 -0.8239738873 3.5800924507
O 0.8355061379 -0.5180348718 3.3556236825
C 0.3277292866 0.8115129843 3.019682391
H 2.2579459383 0.7949311107 0.8838097837
H -0.0543071682 -0.2332951577 -0.3175030992
H 0.9339514253 -1.01214065 0.9292233861
H -0.8378699355 1.4588466815 1.2706367424
H -1.9039018735 -1.1338998704 1.646374964
H -2.6045734669 1.4685972795 2.7660405402
H -2.9771331824 0.0511322633 3.7901663003
H -0.7847826414 0.986706145 5.0318330992
H -0.7484976185 -1.7490448366 4.1169173182
H 1.069437905 1.6031240829 3.1180555939

