# b3lyp 6-31G(2df,p) opt Freq 

 titel

0 1
C -1.7127049715 -3.627214423 0.9462869624
C -2.4740147263 -2.8418832004 -0.1352151798
C -3.4275430441 -1.8060241175 0.4843947037
C -1.5042198934 -2.1736159704 -1.1056323471
O -1.4722028597 -2.4361296275 -2.28979501
C -0.5990537824 -1.1861768783 -0.5393645131
C 0.1557699251 -0.3594217637 -0.084180773
C 1.1195807185 0.6248428649 0.4041285137
O 1.7095798041 1.4041500854 -0.6203646422
H -1.0967809379 -2.9597386407 1.5571908385
H -2.4205002428 -4.1344125124 1.6091633871
H -1.0589969733 -4.3854724073 0.5046830131
H -3.048200895 -3.5393649549 -0.7537617895
H -2.8769114092 -1.0699378487 1.0785021378
H -3.9905607164 -1.2698683304 -0.2854270378
H -4.1445507496 -2.3047092111 1.1438411671
H 0.6204624555 1.3334234743 1.0746695934
H 1.8771948646 0.0999681049 1.009374754
H 2.0541000138 0.8016381769 -1.2882652884

