# b3lyp 6-31G(2df,p) opt Freq 

 titel

0 1
C 1.2686524273 -2.5650187103 -5.1136865341
C 1.7658498593 -2.7621179523 -3.6777824834
C 1.0751895338 -1.8498030727 -2.6643474405
C 1.4141986367 -0.3624558539 -2.7478804458
C 2.62834066 -0.2065889842 -1.8354752212
O 2.9293975957 -1.4763730992 -1.2847820573
C 1.5974126234 -1.9756532541 -1.2097029212
O 0.8756187658 -0.9678284208 -0.5102311866
C 1.2544591667 0.1340053532 -1.3160300012
H 1.7632837306 -3.2602059084 -5.7988961221
H 0.1888794589 -2.736227495 -5.1880892365
H 1.4682545835 -1.5498316526 -5.4723224405
H 1.5983720654 -3.8061035449 -3.3806796107
H 2.8468449048 -2.59615219 -3.6277942937
H -0.0085776542 -2.0088103701 -2.6695422017
H 1.2363036583 0.2600655326 -3.6127772538
H 3.4705470549 0.4560339589 -1.9656273591
H 1.5593626796 -2.9283799568 -0.6884292526
H 0.8898523697 1.0964613906 -0.9899896781

