# b3lyp 6-31G(2df,p) opt Freq 

 titel

0 1
C -0.3685458546 -0.0608146516 -0.1832073117
C 1.1266803936 -0.1435128284 -0.0123974565
O 1.9516679806 0.5128079219 -0.9387689441
C 1.5707126934 1.8928422508 -1.0061039161
C 2.8083628953 2.8110198311 -0.9281252137
O 2.6386128465 3.6383842602 0.2180739309
C 1.8392316366 2.9214976346 1.1438678993
C 0.7743482044 2.2080836986 0.2903642528
C 0.3468781809 0.8484795878 0.8031393543
H -0.7696779993 0.3656386283 -1.0967849291
H -0.9608330127 -0.8692668384 0.2319317141
H 1.5946357221 -1.0334671166 0.3911298557
H 0.9863990834 2.0611422141 -1.9167298884
H 3.702253746 2.1771886673 -0.8395800562
H 2.9212664545 3.467851296 -1.7949714899
H 2.4394891184 2.1807314382 1.698473865
H 1.4281929882 3.6401017141 1.8575197454
H -0.0602828215 2.8845789753 0.0863095171
H 0.1786192742 0.7170546967 1.866196941

