# b3lyp 6-31G(2df,p) opt Freq 

 titel

0 1
C 3.8074186224 0.8739603537 0.3506186035
C 2.3864669685 0.3984559661 0.1046412187
O 1.8511740479 -0.4103493686 0.824758861
C 1.6566000586 0.9589189841 -1.1167258065
C 1.7666546998 2.4864486304 -1.3205078873
C 0.9930361819 2.9286302028 -2.5866502291
O 1.1098111403 4.3095312781 -2.8363391342
C 1.2766366283 3.2330139932 -0.162342488
C 0.8409825296 3.866867375 0.7629096543
H 4.2717104245 0.2499086033 1.1148453647
H 4.402630501 0.8489924711 -0.5686577217
H 3.7923913374 1.9128461361 0.6993140286
H 2.0787321716 0.4671889142 -2.0046655313
H 0.6100407976 0.6544146154 -1.0355303506
H 2.8174559274 2.7570328107 -1.4839821052
H 1.417142705 2.4186088216 -3.4576518423
H -0.0578354492 2.6142319682 -2.4898055488
H 0.7652024204 4.7703167978 -2.0617885984
H 0.4698675172 4.4102729068 1.5970168326

