# b3lyp 6-31G(2df,p) opt Freq 

 titel

0 1
O 1.0542802214 0.9041194133 0.3778475347
C 0.4031127239 -0.3136651233 0.6644105191
C -0.9124710999 -0.0841197857 1.4074447901
O -0.5394882648 0.651577321 2.5804124378
C -1.5379443816 0.8203710934 3.5470793998
C -1.3862249126 0.0197728187 4.8116512241
C -2.464216566 -0.3350417735 3.7940821842
C -2.3161453256 -1.4919476636 2.8774462168
C -1.6217556928 -1.3698690513 1.7476173218
H 1.0675222616 1.3928627585 1.2096385396
H 0.2024283242 -0.8093034004 -0.2914647849
H 1.0346796531 -0.9836290904 1.2702015858
H -1.5557085446 0.5505576569 0.7741684249
H -1.9230861795 1.8363972149 3.6053672865
H -0.5184858953 -0.6276253521 4.86232493
H -1.6960095954 0.463258687 5.7517330425
H -3.4838522655 -0.0981493822 4.0858236024
H -2.8103642918 -2.4240456835 3.1373900432
H -1.5353261389 -2.1903179577 1.0405370815

