# b3lyp 6-31G(2df,p) opt Freq 

 titel

0 1
C 0.1050283418 -0.7496795254 0.227606
C 1.5083350001 -0.2212933281 0.2174694803
C 2.7050137705 -1.0286765584 0.6884749133
C 2.7154510467 -0.5172200427 -0.7125612871
O 2.8993216166 -1.3515052198 -1.7896340294
C 3.0325160513 0.9539047381 -0.7543853263
C 4.2398284479 1.6527462273 -1.1907822272
O 3.0737856796 1.5731422148 -2.0387327794
C 1.8947188146 1.2740017163 0.2310251649
H -0.3534144964 -0.6605650659 1.2202702975
H -0.5306407032 -0.2051613696 -0.4799965817
H 0.0860236542 -1.8082226078 -0.0514211533
H 3.3920413381 -0.6499148109 1.4440407004
H 2.5208186389 -2.0976684059 0.7515285245
H 2.740359571 -0.8129149235 -2.5766632795
H 4.4605937011 2.6495387503 -0.8122554691
H 5.101566538 1.0818489691 -1.5333202116
H 2.181482929 1.6960078422 1.2002806071
H 1.1475575103 1.9192961598 -0.2392987536

