# b3lyp 6-31G(2df,p) opt Freq 

 titel

0 1
C -2.0882189774 -2.0672615314 1.708106782
C -1.7030179813 -1.262435974 0.4668346315
O -2.2038732164 0.0739240157 0.5905874403
C -1.1582694396 1.0140496303 0.4142918339
C 0.1035115042 0.2156156403 0.2362559914
C 1.4279235673 0.8761236408 0.0582641181
C -0.2111141296 -1.0925346116 0.2543730531
C 0.6893506356 -2.2357282312 0.0599897218
O 1.8944160212 -2.1823727867 -0.0764457474
H -1.7797211349 -3.1133519442 1.6085116552
H -1.6156610698 -1.6458295219 2.6001919751
H -3.1730883878 -2.0437824064 1.8431721119
H -2.1711894495 -1.7307668453 -0.4156202615
H -1.3501869656 1.6502410431 -0.4667871673
H -1.0997724511 1.6882128491 1.2840049893
H 1.6752337852 1.4729905916 0.9457422256
H 2.2154065455 0.1436105678 -0.1085554631
H 1.3935448701 1.5780120023 -0.7846016168
H 0.1741509337 -3.2222439883 0.0350094269

