# b3lyp 6-31G(2df,p) opt Freq 

 titel

0 1
O 1.5443247576 0.4832478709 0.1875578479
C 0.3473921042 0.0402198716 -0.4212106597
C 0.2231892713 0.555457759 -1.8368537697
C -1.0925928075 0.2403730625 -2.6222476882
C -1.1251808711 1.4221083725 -3.6357078034
C 0.1854364418 2.1799592806 -3.2430282463
O 0.1853076786 1.9995521787 -1.8202573591
C 1.3548024441 1.3031484531 -3.6750891047
C 1.3778473633 0.2956137868 -2.8040499116
H 1.6091175342 1.4252298214 -0.0111389126
H 0.3716945535 -1.0550402043 -0.4222643529
H -0.5407666982 0.3547843887 0.1499396401
H -1.06902697 -0.7421315285 -3.0979883659
H -1.9508912783 0.2753793404 -1.9458500795
H -1.1288960927 1.10217244 -4.6799107677
H -1.9936158897 2.063488262 -3.4683547078
H 0.220417858 3.2379737783 -3.4998991334
H 1.9451799264 1.4410343641 -4.5708090311
H 1.9966223944 -0.5911925477 -2.8003745942

