# b3lyp 6-31G(2df,p) opt Freq 

 titel

0 1
O 1.5069399212 -0.1239333686 0.2704976657
C 0.257386799 0.3824677704 0.7115570205
C -0.5970839181 0.9234603031 -0.4061271356
C -0.5752249051 0.3926747187 -1.8101830475
C -0.227620462 1.8401816385 -1.574230015
C -1.515908895 2.663036271 -1.3879298176
C -1.8897252283 1.717877533 -0.1825165576
C -1.2648822668 4.0725624968 -0.9274052051
O -1.759637499 5.0586667694 -1.4095175988
H 1.3508880524 -0.9817976627 -0.1356096521
H -0.3071942077 -0.3778926603 1.2760919303
H 0.4930657661 1.1884140827 1.4172536241
H 0.2820125352 -0.2248035538 -2.0578064319
H -1.4943366972 0.1173465329 -2.3229433672
H 0.7399925463 2.2406793646 -1.8517473679
H -2.2079184999 2.6810306837 -2.2340387798
H -1.8971297185 2.2577078027 0.7699325933
H -2.8321290622 1.170636724 -0.2782955666
H -0.5595941808 4.1466928639 -0.0643958413

