# b3lyp 6-31G(2df,p) opt Freq 

 titel

0 1
C 1.3249287315 -0.1218338237 -0.0258924789
O -0.083869662 0.0633280726 -0.0645637978
C -0.6117007717 0.5354212469 1.1124381818
C -0.6579687162 -0.1206498806 2.5147596901
C -1.4478768544 1.1985702601 2.6586027045
C -2.0601878789 1.0965160693 1.2213795748
C -1.6307100499 2.5295103413 0.8312174019
C -0.478145831 1.9866888252 1.7020843501
O 0.739050822 2.5630443336 2.0194260333
H 1.609611751 -0.872022292 0.724522165
H 1.6236295943 -0.4781327968 -1.0140010482
H 1.8461601866 0.8164949125 0.1984462664
H -1.231827808 -1.0481913916 2.6016278666
H 0.2826840787 -0.1854352059 3.0680867318
H -1.955759346 1.6024693555 3.5321141596
H -2.9675316916 0.5566664863 0.9613987346
H -1.407586488 2.7027118126 -0.2247811451
H -2.226733435 3.3481773756 1.2484322549
H 0.577547009 3.3783640891 2.5070899746

