# b3lyp 6-31G(2df,p) opt Freq 

 titel

0 1
O 0.2392061747 1.0659040153 1.0587343966
C 0.2079263543 0.3135192046 -0.1574953182
C -0.8111347316 0.9492391401 -1.100154216
C -2.241050913 0.7967993444 -0.6232962669
C -3.299037356 1.8183420732 -0.9583168823
C -2.7784616175 1.7296626304 0.4597373086
O -1.962144293 2.7883017443 0.8632183932
C -3.6212131915 1.1645326722 1.485746161
C -4.3085459845 0.6886098203 2.3511483451
H 0.6552795633 0.539687487 1.7465097957
H 1.2031265847 0.3144554322 -0.6251626646
H -0.0674341814 -0.7316226052 0.0447724149
H -0.5641571415 2.0091150196 -1.215731964
H -0.7009064019 0.4852829606 -2.0881905771
H -2.5858847504 -0.2313607869 -0.5488558597
H -2.9881669394 2.7058459907 -1.4987141561
H -4.3080196383 1.4788092793 -1.159432049
H -1.1586505639 2.3839188298 1.2295425853
H -4.922026763 0.2820169581 3.1161946633

