# b3lyp 6-31G(2df,p) opt Freq 

 titel

0 1
C 1.4423983322 -0.1315881289 -0.2194131089
O 0.0506932313 -0.0321209934 0.0084754512
C -0.3672704158 0.6645178676 1.1825901424
C 0.0387147469 2.1507845557 1.2510306839
C 1.3595965828 2.426272419 1.9847327623
C 1.4536716552 1.7091292779 3.3243710869
O 2.0651579842 2.1680938783 4.267611261
C 0.807345896 0.3772272814 3.3956430571
C 0.0157553905 -0.0995431608 2.4279191886
H 1.9865499947 -0.5072420169 0.6577342538
H 1.5717736267 -0.8408196359 -1.0408123673
H 1.8833453127 0.8287272518 -0.5224362058
H -1.4598598065 0.6241053124 1.0963478643
H 0.0618624743 2.5544033088 0.2339305557
H -0.7637808395 2.6811462194 1.7769052862
H 2.216366306 2.0840867028 1.3905208926
H 1.5075640794 3.4954103408 2.1571856269
H 1.0219994931 -0.1953989573 4.2935109251
H -0.4005177341 -1.1018166928 2.5055217741

