# b3lyp 6-31G(2df,p) opt Freq 

 titel

0 1
O 0.631665981 0.3750939152 0.7579819211
C -0.6485567539 -0.1670212774 1.0363341659
C -1.7592445151 -0.0154376971 -0.0164424586
C -1.859303196 1.5257735811 -0.1973486319
C -2.3733602466 1.4920562551 1.248170432
C -2.996742908 0.0871976646 0.9904601043
C -2.5849614228 -0.3635122177 2.4066367075
C -1.4026834466 0.5937549006 2.1555771415
O -0.6204813858 1.0933101571 3.1796189775
H 0.5254019455 1.1528006203 0.2003697769
H -0.4630289678 -1.207949399 1.3158780182
H -1.7546200636 -0.693051997 -0.8698486634
H -0.9667884014 2.1086692302 -0.4622357891
H -2.6540111685 1.7979513004 -0.8979141013
H -2.9029143412 2.3063107824 1.7406070963
H -3.992404526 -0.0551249551 0.5759884408
H -3.2912722433 0.0234213821 3.1464343
H -2.3601659981 -1.4138527164 2.6183716783
H 0.2755135579 1.1610352006 2.8181934241

