# b3lyp 6-31G(2df,p) opt Freq 

 titel

0 1
C -0.3227369808 1.7702375031 -0.4838801669
C 0.0828115311 0.3221121738 -0.1909666692
C 1.0118782958 -0.2332807367 -1.2540800873
O 0.4086231609 -0.3169092635 -2.5752421996
C 0.8233090711 -1.6849255228 -2.7409716075
C -0.3039004861 -2.6881134822 -2.3991516302
C 0.2047604988 -2.6781478125 -0.9400298777
O -0.1408422927 -3.2309604028 0.0626039584
C 1.3783224496 -1.7426126599 -1.2834475712
H -1.0050364014 2.1494235595 0.2820801296
H 0.5520389657 2.4294320054 -0.5101503363
H -0.8240158127 1.8395699306 -1.4534532589
H 0.595332935 0.2553245153 0.7774510757
H -0.808326348 -0.3110095055 -0.1182075382
H 1.9219827901 0.3813357251 -1.3120156729
H 1.4156009436 -1.8479565502 -3.6427299573
H -1.3265005996 -2.346355198 -2.5746844001
H -0.1687259372 -3.6764778178 -2.8539746849
H 2.3789558669 -2.036962291 -0.9702154255

