# b3lyp 6-31G(2df,p) opt Freq 

 titel

0 1
C -2.9430971841 -1.2531255014 -1.3232430155
C -2.434746215 -0.8073138841 0.0534948126
C -0.9699315869 -1.2494704683 0.2818630239
C -0.1363658521 -0.1199445275 -0.3253505607
O 0.9277534424 -0.21444643 -0.8775413241
C -0.9352836716 1.1753915422 -0.1221684106
O -0.767255518 1.6278387831 1.2462502136
C -2.146432157 1.3242918331 1.5619095674
C -2.3940614178 0.7379344675 0.1581191326
H -2.9420641001 -2.3441694665 -1.4088625233
H -3.9638102349 -0.8994204841 -1.5005505816
H -2.309563753 -0.8597866148 -2.1275820489
H -3.094597528 -1.2178157046 0.8258107124
H -0.7341146503 -1.2982480673 1.3521904877
H -0.7152127978 -2.2150069121 -0.1589738836
H -0.7016931931 1.951862564 -0.8549543844
H -2.2345340861 0.6223909438 2.4010448963
H -2.7102710481 2.2344599805 1.7984523685
H -3.1880677585 1.2175119666 -0.4152533224

