# b3lyp 6-31G(2df,p) opt Freq 

 titel

0 1
C -1.1367946455 1.2866766941 -2.604357726
C -1.8241489621 0.7984047089 -1.3252220831
C -3.1828851212 1.4771174348 -1.1299312355
C -1.9399128867 -0.775712043 -1.2429789263
C -1.1002592278 -1.0155773904 0.0222739199
O -1.5322717004 0.073762254 0.9067869269
C -0.9296978269 0.9871725349 -0.0693214279
C 0.1370121652 -0.119413854 -0.2183357458
O 1.3210519734 -0.2246411962 -0.2746501645
H -0.16483504 0.8051325992 -2.7543013184
H -1.7556850157 1.072493031 -3.481846734
H -0.9710840547 2.3693711027 -2.5730957562
H -3.6262285635 1.1847233223 -0.1745443438
H -3.0871046539 2.5686451722 -1.1473111789
H -3.8746341564 1.1899250226 -1.9297474706
H -2.972004118 -1.1064386265 -1.1032214006
H -1.5269126079 -1.2808860446 -2.1210711264
H -1.0694292978 -1.9959839496 0.49337739
H -0.7345663 1.9899715376 0.3077287512

