# b3lyp 6-31G(2df,p) opt Freq 

 titel

0 1
C -2.314510858 1.6270912029 -2.5486624578
C -1.7709466982 1.8533615392 -1.1379298905
O -0.383364763 1.5156369741 -1.1711554149
C 0.2220876977 1.4696588488 0.0840814287
C 1.4380645134 0.5976202647 0.2015292324
C 0.1445556659 0.2073889968 0.8912457368
O 0.0170242908 0.3507414257 2.2741326177
C -1.9849042478 3.2345225843 -0.685646065
C -2.1610301285 4.3670828747 -0.3235469499
H -2.1524141314 0.5863270446 -2.8400203939
H -3.3838797781 1.8483862218 -2.5837907959
H -1.7963682869 2.2774917905 -3.257308528
H -2.2848275627 1.1784938538 -0.4354284221
H 0.2120205882 2.4030669401 0.6438513632
H 1.7297856839 0.0299043896 -0.6749426232
H 2.2518362335 0.9625901806 0.818352515
H -0.4095536314 -0.6186056465 0.4444175161
H 0.5712778711 -0.3150192486 2.6950009444
H -2.3169006187 5.365679963 0.0030810969

