# b3lyp 6-31G(2df,p) opt Freq 

 titel

0 1
C -5.1069878329 3.2333275148 0.6403078916
O -3.7526588103 2.8444507939 0.7221707368
C -3.1590367358 2.5414438507 -0.5335519328
C -2.7691470755 3.8060227894 -1.3197073861
C -1.9870206554 1.7026862486 -0.2909846866
C -1.0046479824 1.0180277177 -0.1395069817
C 0.1730593201 0.192876267 0.0550632928
C 0.5596855862 -0.0544873458 1.498795444
O 0.7938885239 -0.2592132609 -0.8836609709
H -5.4659979046 3.3399867173 1.6663625391
H -5.243770318 4.1933016524 0.1222475149
H -5.7169823486 2.4727564696 0.1284291123
H -3.871401034 1.9549418009 -1.1397568584
H -2.0670690989 4.4051403714 -0.7350861709
H -2.2979322028 3.5328905172 -2.2673112778
H -3.6546022257 4.4089021335 -1.5369271784
H -0.2651311757 -0.5408677523 2.0305472147
H 1.45182101 -0.6813332263 1.5354212563
H 0.7472323306 0.8980717108 2.0059077411

