# b3lyp 6-31G(2df,p) opt Freq 

 titel

0 1
C -3.2325749152 -1.4432267711 0.7895173953
C -1.948883322 -1.4472771322 -0.0347835173
C -0.9729152352 -0.2747970211 0.237735005
C 0.379714719 -0.8822008685 -0.0596135284
C 1.6073055027 -0.0991224893 -0.2313900122
O 1.6628282219 1.1073251803 -0.1394509329
C 0.3160505978 -2.219380635 -0.1252819969
C -1.0871502825 -2.7208440889 0.1327652313
O -1.5449049338 -3.7170887164 -0.7715036023
H -3.0135799552 -1.4601309787 1.8636565778
H -3.8318039666 -0.5498637287 0.5871114838
H -3.8447328668 -2.3192931966 0.5536798834
H -2.2080274347 -1.4282555153 -1.1007061616
H -1.1751541206 0.6124910745 -0.3685357961
H -1.022226802 0.0503516449 1.2858983517
H 2.5139002487 -0.7021516955 -0.463565555
H 1.1582959486 -2.880339878 -0.3077381819
H -1.1553637592 -3.0959428471 1.1695297461
H -1.1786596449 -4.5661652777 -0.5062728496

