# b3lyp 6-31G(2df,p) opt Freq 

 titel

0 1
C 1.3748667931 0.7530352598 0.3601292178
C -0.0180292382 0.211981256 0.2711095474
C -1.1428222107 0.9158869652 0.0857144956
C -2.3433144947 0.0412361247 0.1976893148
O -2.470396662 -0.5821365096 1.5010567787
C -1.8485813179 -1.322043953 0.4516693807
C -0.3226168312 -1.2750079084 0.4461487832
C 0.2569565191 -2.1484164783 -0.6796716435
O -0.1010148175 -3.5148188496 -0.5477652999
H 1.8178708514 0.5393937757 1.3413111591
H 2.0383552559 0.2999666613 -0.3866195183
H 1.3905394606 1.8361766129 0.2129599577
H -1.1923346401 1.9880780748 -0.064437232
H -3.2841349691 0.2668206357 -0.2943296057
H -2.358010634 -2.2270215938 0.1351772213
H 0.0792727496 -1.6364562969 1.4047948023
H -0.153632789 -1.825985842 -1.6425688943
H 1.3488063741 -2.0238424591 -0.7312596879
H 0.2813181506 -3.8441101354 0.272262533

