# b3lyp 6-31G(2df,p) opt Freq 

 titel

0 1
O 1.0615242297 0.6685896956 0.4146498749
C -0.1703602706 0.1048260351 -0.0200403651
C -1.3718433006 0.9558208922 0.3457330983
C -1.6912174723 1.0665550491 1.8759287207
O -3.0362518954 1.5452534985 1.9273178071
C -3.4521555879 1.7008768653 0.5360782576
C -2.7801483697 0.4896431494 -0.1241533749
C -2.6408385168 2.8479128039 -0.0474782703
C -1.3863218407 2.3958002925 -0.1490871249
H 1.0841909776 0.6350753032 1.3759486554
H -0.0876878196 0.029272159 -1.1094444998
H -0.3022947245 -0.917511541 0.3694197391
H -1.6333756266 0.0831946987 2.3649663127
H -1.0226778909 1.7633837281 2.3959321459
H -4.5378211388 1.777661668 0.5221898795
H -3.1024080338 -0.4626338699 0.3079211693
H -2.8751256037 0.4710603755 -1.2111145002
H -3.0024426773 3.8553813182 -0.2072072507
H -0.4899288281 2.9433641785 -0.4099210347

