# b3lyp 6-31G(2df,p) opt Freq 

 titel

0 1
C 5.157600499 -2.8503128419 0.0477910239
C 5.3570092003 -2.137492231 -1.2943678246
C 4.79226347 -0.7225058054 -1.3128838674
C 3.2694534766 -0.5077458186 -1.4953642985
C 3.3347654014 -0.6797698161 -3.0478656362
O 2.6179131218 0.5559894362 -3.3313628229
C 3.4498035105 0.8791785923 -2.1806113072
C 4.6774254403 0.0183414941 -2.6697499876
O 5.6601063932 0.3308191952 -3.5784016498
H 5.5883230283 -3.8561926841 0.0317187733
H 5.6355645022 -2.2965592041 0.8636346928
H 4.0946317844 -2.9465597052 0.2936404549
H 6.4282837486 -2.0936487109 -1.5298848115
H 4.8965983074 -2.7272159701 -2.0973391879
H 5.2288020611 -0.1165464827 -0.5070093157
H 2.4406881399 -0.795276298 -0.8535562917
H 3.1430569205 -1.5497328847 -3.6736244904
H 3.4026992434 1.8813729055 -1.7547616208
H 6.3009533812 0.9136449697 -3.1563221428

