# b3lyp 6-31G(2df,p) opt Freq 

 titel

0 1
C 4.5386092509 0.3646044514 1.406632536
C 3.3129363246 0.1627446128 0.5546725079
C 3.2048807554 -1.0236970985 -0.3901267458
O 1.9077148611 -0.8226092635 -0.9831017858
C 1.4474038108 0.3583152501 -0.3678058637
C 0.0864837907 0.7794994107 -0.8334617409
C 2.6273268396 1.3680620943 -0.1757044891
O 2.0423274462 1.846919001 1.0805535399
C 1.8758918767 0.3912718902 1.1368583473
H 4.6995763557 -0.4840422934 2.0806269683
H 5.4381300116 0.4748653868 0.7909361387
H 4.4199833229 1.2682361843 2.01059858
H 3.9766280524 -1.0241263633 -1.1702332484
H 3.2332458567 -1.9904680134 0.1282454056
H -0.2004540248 1.69727468 -0.3152180957
H 0.0867902329 0.96125846 -1.9123400699
H -0.6522940559 0.0010029876 -0.6209326599
H 3.05574263 2.1046599288 -0.8571568984
H 1.4067911925 -0.0387841258 2.0231373941

