# b3lyp 6-31G(2df,p) opt Freq 

 titel

0 1
C 0.3139809745 -0.1113703941 -0.7710462219
C 0.972925529 0.2551351089 0.5391902433
O 2.057658844 -0.6079537319 0.8037030307
C 2.9187318128 0.0944329379 1.6912744111
C 4.3922946216 -0.1996956252 1.3563637995
C 4.8324066882 1.0238329669 0.5888420716
C 3.9117149715 1.9856567002 0.5732178488
C 2.6659724769 1.586398054 1.3194149756
O 1.5107233453 1.5639970325 0.4764014844
H -0.0930634559 -1.1242670069 -0.715647967
H -0.5008480252 0.5848790525 -0.98420982
H 1.0504371944 -0.0606092485 -1.5764053442
H 0.2496046219 0.201629557 1.3764807726
H 2.6598556154 -0.1356623565 2.732737057
H 4.9889413732 -0.3420363012 2.2658756946
H 4.4743230034 -1.1237723161 0.7736264816
H 5.8057085892 1.0863206854 0.1134160443
H 4.0048124955 2.949711046 0.0875329996
H 2.4640571144 2.224861729 2.1899888285

