# b3lyp 6-31G(2df,p) opt Freq 

 titel

0 1
C -1.6879961534 -3.219832397 1.1292212504
C -0.999046276 -1.8729329807 1.382953573
C -1.8488834446 -0.9210592696 2.265855424
C -2.7829487063 -0.1855372394 1.2799069058
C -1.9434574719 -0.0134659896 0.0221096578
O -0.9378431377 1.0563713742 0.1656465061
C 0.0935249193 0.1510545436 0.1909744754
O 1.2565636474 0.3782412661 0.2914276721
C -0.815876683 -1.0742866191 0.0739431731
H -1.8395067382 -3.7598753915 2.0691616091
H -2.6689042813 -3.0922560431 0.6577494088
H -1.0847385574 -3.8534355404 0.4711487687
H -0.0240674562 -2.0599344728 1.844303786
H -2.3962689849 -1.4562241741 3.0460674917
H -1.1979692485 -0.1972803862 2.7665879804
H -3.656566395 -0.8007222208 1.0357485101
H -3.1513268926 0.7710350774 1.659492294
H -2.4980778074 0.1299025842 -0.9054572786
H -0.6277829223 -1.6891840812 -0.8071083078

