# b3lyp 6-31G(2df,p) opt Freq 

 titel

0 1
C 1.3589487402 -0.0337860929 -0.1759437355
O -0.0211843567 -0.128456683 0.1009467955
C -0.4167364397 0.5632248858 1.2713016439
C -0.0424620881 -0.1248700691 2.5989937774
C -1.3548320752 -0.1740605691 3.3989926861
O -1.4656506017 -0.5037997455 4.556877798
C -2.4298189005 0.2557546281 2.4820638264
C -1.9353909021 0.6389426752 1.2959607
C -2.6770893926 1.1108621858 0.0921521498
H 1.9727145896 -0.4980816768 0.6096431515
H 1.5359893785 -0.5607254522 -1.1163247124
H 1.6774960658 1.0145398829 -0.2881549707
H -0.006073355 1.588496807 1.2351666493
H 0.2872836098 -1.1507347089 2.4031576401
H 0.7402248568 0.3757182236 3.1734077115
H -3.4735305375 0.2520395229 2.7721195252
H -2.4345529762 0.4752795896 -0.7657799636
H -3.7577053478 1.1069287293 0.2497625236
H -2.3663277574 2.1279108171 -0.1788081963

