# b3lyp 6-31G(2df,p) opt Freq 

 titel

0 1
C 0.6103006766 1.0003366895 1.1273048144
O 0.95234613 1.8683994112 0.0430935303
C 0.368355654 1.3858143495 -1.1591346929
C -0.4876161409 2.453061175 -1.8640514706
O -1.2101757161 1.8531616833 -2.9288981209
C -2.1374960775 0.8782101401 -2.4846615938
C -1.4348542047 -0.3124454905 -1.7933770637
C -0.5201553489 0.2404692272 -0.7509273432
C -0.3898542032 0.0309501737 0.5551118007
H 1.5138828271 0.4990580284 1.5122244904
H 0.197893429 1.5990467555 1.9527926545
H 1.1543220621 1.058483812 -1.8605350966
H -1.1682305855 2.9057151178 -1.1251937966
H 0.1268511498 3.2421558657 -2.3049471039
H -2.8582729091 1.3314869107 -1.7845986625
H -2.6817387424 0.5464537199 -3.373137485
H -2.1742420226 -1.0009317056 -1.371722875
H -0.8605110184 -0.8591473046 -2.552787094
H -0.9132590795 -0.7047928389 1.1532242282

