# b3lyp 6-31G(2df,p) opt Freq 

 titel

0 1
C -0.3968573224 1.3142792428 -0.0568205773
O -0.2113170897 -0.0005167073 -0.6488160261
C 1.1445344003 -0.0684230884 -0.1336171855
C 2.3441084354 -0.236546648 -1.0842011179
C 2.9098073976 1.2079626476 -0.9947754462
C 3.420464731 1.5525973701 0.4425692454
C 2.0874324738 1.9037378568 1.2009327476
C 1.112258322 1.4494878606 0.1263567733
O 1.7041313178 1.9746080357 -1.0717374614
H -0.8621883186 2.023509921 -0.7467880602
H -0.9695502545 1.2589544616 0.8776031511
H 1.1847155322 -0.7183655626 0.7483854731
H 3.0411781045 -1.0136554128 -0.7595476988
H 2.0185246435 -0.4505104965 -2.1049488952
H 3.5894787805 1.4933355881 -1.7980038422
H 3.9595608583 0.7208443956 0.9041567603
H 4.0937640779 2.4113238106 0.411970932
H 1.9751875008 1.3586662516 2.1414014497
H 2.0135890095 2.9746465733 1.4041908283

