# b3lyp 6-31G(2df,p) opt Freq 

 titel

0 1
C -1.6492429492 1.2556474416 -2.3359893185
C -1.2939073195 1.8825547834 -1.0281607857
O -1.1981568988 3.3179373872 -0.9645772424
C -2.0624915692 2.650230258 -0.0319634913
C -1.1760891755 2.1589560056 1.1175876667
C -0.3286078671 1.3758177336 0.0650903471
C 1.1900493006 1.519474284 -0.1258964647
O 1.3681737712 0.0847785973 -0.1118306046
C -0.0161030473 -0.1243457673 0.2251254119
H -1.9777540226 0.2204449452 -2.2015745231
H -2.4543938134 1.8181852021 -2.8156366977
H -0.787286231 1.2495012623 -3.0128108564
H -3.1029695727 2.95485704 -0.0186915197
H -0.6628943383 2.9406703794 1.6839631857
H -1.6939878037 1.4858131868 1.8073738068
H 1.5188065872 1.9731055763 -1.0682316333
H 1.7157116138 2.0050217555 0.7070546571
H -0.512067837 -0.8130173506 -0.4708992883
H -0.1387152573 -0.5071887304 1.2482012304

