# b3lyp 6-31G(2df,p) opt Freq 

 titel

0 1
C -0.0443640943 0.136534893 -0.0716916843
C 1.4516160972 0.0473143025 0.1006447535
C 2.0980818962 -1.1608518615 0.7495308875
C 2.2900409193 -0.880185792 -0.7344433444
O 1.5878653113 -1.6980469336 -1.638927212
C 3.5684470641 -0.3287731601 -1.260132596
C 3.801203333 0.9796222603 -1.2185113863
C 2.8040341838 1.9066996655 -0.5690755241
O 2.0483002532 1.2752823925 0.453019198
H -0.5106017852 0.4648956088 0.8625421653
H -0.2986913728 0.8621450688 -0.851794283
H -0.4609274244 -0.829777599 -0.3605359252
H 2.9272537997 -0.9695752981 1.4207058233
H 1.4577432389 -1.9994225709 1.0051683865
H 1.9886902948 -2.5739375567 -1.6149756875
H 4.2703519362 -1.0250530851 -1.7127983581
H 4.6993130773 1.4179424858 -1.6437436491
H 3.3147931864 2.7425306115 -0.080041206
H 2.1427636055 2.3433738482 -1.338597418

