# b3lyp 6-31G(2df,p) opt Freq 

 titel

0 1
C -0.6413574116 2.0621997148 1.1516027762
C -1.0112143466 1.2010901431 -0.07469278
C -0.8300551315 2.0433950874 -1.356436707
O -0.972217068 1.290804071 -2.5469625247
C -2.3737774832 0.5625210053 0.0563643215
C -2.3262692753 -0.7619958732 0.2009200265
C -0.9189539076 -1.2951517035 0.1661230983
C -0.0938978096 -0.0414094872 -0.146318189
O 1.0714571105 -0.0155607575 -0.4557230199
H -0.7892373401 1.5103913715 2.0842109943
H 0.4061623919 2.3741642024 1.0953937241
H -1.2680751191 2.959857322 1.1919137397
H -1.6015927689 2.8211634325 -1.3846768561
H 0.1477297882 2.5423066778 -1.3143489244
H -0.1560479173 0.79449086 -2.6686359818
H -3.2829503096 1.1544467714 0.0471487857
H -3.189141218 -1.4054673731 0.3270062395
H -0.5912352774 -1.7328247557 1.1193793314
H -0.744042037 -2.0630485892 -0.5970947542

