# b3lyp 6-31G(2df,p) opt Freq 

 titel

0 1
C 1.5407088325 -0.0289676141 -0.0343481751
C 0.0857582943 -0.0494454347 -0.0037898099
C -1.117165542 -0.0851069155 0.0425473352
C -2.5746026181 -0.0678015088 0.0374617165
C -3.0467969077 0.8681703779 -1.0781757707
O -3.900639922 0.5961628733 -1.879152242
C -3.1647050228 0.3932001628 1.4129321296
C -4.689626333 0.2991150751 1.43795105
O -2.5794789863 -0.3256156599 2.4814885466
H 1.9600603986 -0.3109049693 0.937603205
H 1.9331859479 -0.7262025493 -0.7825827155
H 1.9179496778 0.9693949563 -0.2812391989
H -2.9798251711 -1.0624055397 -0.1914006741
H -2.5260596442 1.8512986379 -1.0854528394
H -2.8535108522 1.4312029913 1.5785248322
H -5.0608103822 0.6304771168 2.410900591
H -5.1509270529 0.9109995302 0.6579023499
H -5.0158616074 -0.7360796382 1.2792588359
H -2.8436042691 -1.2492221919 2.4004984339

