# b3lyp 6-31G(2df,p) opt Freq 

 titel

0 1
C 1.2506828047 0.6611426141 -0.2607844854
C -0.1339340649 0.2207270418 0.0995195809
C -1.2405540339 0.9756552696 0.1407739675
C -2.4795471299 0.1924740419 0.5105551433
C -1.9401700153 -1.1958921724 0.8241218802
O -2.7860291193 -2.2588306774 0.5487957917
C -0.9474256683 -1.3427753127 1.9389449546
O -0.9668948975 -2.6294017467 2.4969911539
C -0.4410131241 -1.1845352738 0.5023243775
H 1.9512177726 0.4970067592 0.5679544972
H 1.6377521728 0.0879448593 -1.1129226625
H 1.278910798 1.7214385553 -0.526609383
H -1.2674151592 2.0389967752 -0.0707930328
H -3.0212802463 0.6233579192 1.3616116622
H -3.1957538965 0.1352201891 -0.3204869057
H -2.532360533 -2.9686237279 1.155118913
H -0.7728745114 -0.5308238589 2.6459099503
H -0.0608986185 -2.9386598556 2.5974625965
H 0.0608654 -2.0339395294 0.0478299207

