# b3lyp 6-31G(2df,p) opt Freq 

 titel

0 1
O 0.2468656454 0.2790268678 1.0662662049
C 0.1402046035 -0.0952701577 -0.073760217
C -0.5342086525 0.6793685192 -1.1903975503
C -1.1429176359 1.9939251211 -0.695030082
O -1.2677279593 2.934324077 -1.7429064759
C -2.4381465901 2.8377955938 -2.5208822343
C -2.6511185632 1.5810529164 -3.3289855601
C -2.2724065182 0.3249032668 -3.092335956
C -1.5158585816 -0.2523335829 -1.9238319224
H 0.5519520622 -1.0832441443 -0.3888636721
H 0.2640353231 0.9470720292 -1.9004689144
H -2.1126004806 1.815579716 -0.2037475251
H -0.4775374967 2.4389710166 0.0485489874
H -3.3300976862 2.9954815714 -1.8840544746
H -2.3952177517 3.6919377843 -3.2054571854
H -3.2571803965 1.7528206919 -4.2178842634
H -2.5954292129 -0.4246692362 -3.8127498428
H -2.2515473423 -0.6338810405 -1.1969766863
H -0.9683190568 -1.1398219399 -2.2662359004

