# b3lyp 6-31G(2df,p) opt Freq 

 titel

0 1
O 1.586021486 0.6898125667 0.0906506485
C 0.5553039222 -0.1715941016 0.5602640884
C -0.3601449819 0.5227885609 1.5603987098
C -1.176997465 1.7383088985 1.029018792
C -1.9428265845 2.0751540371 2.3447707466
O -2.2197264705 0.7921170573 2.9229021355
C -1.6561777613 -0.1880151448 2.0004956919
C -2.4950945509 -0.1299225193 0.7328271798
C -2.2021428148 1.0391666354 0.1516823212
H 2.1420053635 0.9209923439 0.841699641
H -0.0018130312 -0.477903299 -0.3279367676
H 0.9777034222 -1.0817181475 1.0155140276
H 0.2254840092 0.7936913885 2.4490602786
H -0.6192676879 2.5635116941 0.5903641507
H -1.3221865813 2.6599098144 3.0356358687
H -2.8776480782 2.6170888102 2.1619884879
H -1.5856555935 -1.1377862842 2.5284964028
H -3.2604962025 -0.8423388298 0.4545866907
H -2.6748282895 1.4852256592 -0.7143236641

