# b3lyp 6-31G(2df,p) opt Freq 

 titel

0 1
O 1.2048993698 0.0674232425 0.2848110254
C 0.08834216 -0.0197457261 -0.1472161025
C -0.9932620527 1.0255645981 0.0660964657
C -1.8437348676 1.2325203114 -1.1954595569
C -2.4862178355 -0.0794534773 -1.6408379186
C -3.5872179841 -0.6683307622 -0.7052896121
C -2.6045009556 -1.778394794 -0.2353166849
C -1.5949817919 -1.3193319659 -1.319646649
O -0.2454161583 -1.0958186756 -0.9089127647
H -1.6251052872 0.7054579538 0.9042409814
H -0.4904577512 1.9410132555 0.3822947348
H -2.6116489321 1.993316255 -1.0167112001
H -1.2001259216 1.6153385904 -1.9960567889
H -2.7830187437 -0.014170529 -2.6902345375
H -3.9503440212 0.0062529749 0.0749446285
H -4.4525011241 -1.050995117 -1.2501710344
H -2.2228353073 -1.6309504448 0.7777990601
H -2.9499641451 -2.8106850618 -0.3208168808
H -1.5081922505 -2.0227467181 -2.1489531752

