# b3lyp 6-31G(2df,p) opt Freq 

 titel

0 1
C 3.2621206464 2.8487318833 -3.1909508775
C 2.081704773 2.6826767406 -2.2783377528
C 1.4406797063 3.8384146404 -1.550339154
C 2.11340822 2.7132686244 -0.7741219788
C 1.2130660755 1.5768800858 -0.3004619951
C 0.4298071652 1.2249878961 -1.599339705
O 1.2272366031 1.6401045162 -2.6991869436
C 2.0517581752 0.4011862797 0.1556670626
O 2.0056908186 -0.0926151276 1.2524484991
H 3.9281670916 3.6316044259 -2.8187488218
H 3.8272797299 1.9143549426 -3.2651197697
H 2.9350058506 3.1291907892 -4.1972460019
H 1.9609107142 4.7900513692 -1.5720628885
H 0.3596309646 3.9243452893 -1.5275637164
H 3.0228625996 2.9239295885 -0.2223861328
H 0.5396343852 1.8531053708 0.515344596
H 0.2330813891 0.1537195542 -1.7118409096
H -0.5379299712 1.7435155473 -1.5970125944
H 2.7378234932 0.0035029041 -0.6287544258

