# b3lyp 6-31G(2df,p) opt Freq 

 titel

0 1
C 2.2569151563 0.0776008229 2.3894425466
C 2.3204159743 0.0553109954 0.9032504892
C 1.3795538389 0.0202761279 -0.0859314309
C -0.1064176722 -0.0631088113 0.0600086981
O -0.6483307546 -1.2663587282 -0.4888385649
C 2.1029500957 0.0278268091 -1.3403651221
C 1.5066417928 -0.0043177999 -2.7129216473
C 3.4141017576 0.0695479975 -0.9995319233
O 3.5680950891 0.0900171429 0.3571489101
H 1.2238419508 -0.0177424914 2.7299891375
H 2.8389377669 -0.7432464177 2.8231374187
H 2.6614454223 1.0126246462 2.7941285502
H -0.3942176081 0.0528537345 1.1157129992
H -0.5994052864 0.7436981218 -0.4940988889
H -0.1366183594 -1.995782484 -0.1232718224
H 0.7943965397 -0.8293109177 -2.8070070163
H 0.9537343168 0.9176681848 -2.9310591917
H 2.2784114049 -0.116327198 -3.4793426966
H 4.3263636646 0.0858802154 -1.5736432952

