# b3lyp 6-31G(2df,p) opt Freq 

 titel

0 1
C -0.9691507618 2.0230713682 -1.3580677964
C -1.0416661722 1.1733427902 -0.0850416058
C -0.8376159935 2.0466920196 1.1608973433
C -2.2793931791 0.2451949273 0.0461164062
C -2.0555575479 -0.9023650726 -0.9676709494
C -0.9513545922 -1.2054220934 0.0726977079
O -1.8433954964 -0.6751967672 1.1078916191
C -0.0172711547 0.0025229022 -0.1074249064
O 1.1751922883 0.0477467792 -0.2310868161
H -1.154680585 1.4435168353 -2.2665748188
H -1.7018562269 2.8364895217 -1.3205767971
H 0.0262307257 2.4684999471 -1.447837552
H -0.9632209787 1.4609391022 2.0736454414
H 0.1706206649 2.4720214879 1.1593767872
H -1.5554165401 2.8745285868 1.1721488899
H -3.2535880763 0.6997699736 0.2277332281
H -2.8516159373 -1.6462904009 -0.9225670367
H -1.7785443033 -0.6763226884 -1.9994032363
H -0.5269005237 -2.1871228588 0.2721250019

