# b3lyp 6-31G(2df,p) opt Freq 

 titel

0 1
C 1.7753994822 -2.6493284576 -0.4958660257
C 0.7841977804 -1.6788541594 -1.0870213603
C 1.0638733766 -1.010407498 -2.4571145332
C -0.4602383819 -1.2217227142 -2.6245971868
O -0.3878743168 -2.3295382154 -1.6759213928
C -1.195966786 -0.0740939593 -1.9664643265
C -0.8549040081 0.1789381731 -0.7032042635
C 0.2411428657 -0.6485161779 -0.0620990709
O 1.2749247836 0.1717951902 0.4801317051
H 1.3001962116 -3.2355514991 0.2984824095
H 2.1466352109 -3.3391033847 -1.2584129112
H 2.6165018205 -2.1042457012 -0.0589246353
H 1.452028378 0.0097428387 -2.4976076942
H 1.650423025 -1.6702124775 -3.0995068407
H -0.8644241917 -1.5278160658 -3.591060003
H -1.9440987202 0.4939072351 -2.5095570363
H -1.3029686151 0.9681535911 -0.1065965855
H -0.1551273671 -1.20380835 0.7975522891
H 1.5245141324 0.809101172 -0.1982134678

