# b3lyp 6-31G(2df,p) opt Freq 

 titel

0 1
C -0.3337974974 1.2981930351 -0.1538586698
O 0.6969749787 2.1897291988 -0.5637319382
C 1.8755522096 1.7311666118 0.0830931366
C 3.1874683132 2.0552211782 -0.6033908967
C 4.2502060078 1.1631266663 0.0124269152
C 3.9962015874 0.0869221914 0.7641736598
C 2.6064197042 -0.4348546094 1.0815103664
C 1.6448876035 0.2326290542 0.1185341529
O 0.2666031433 0.160282298 0.4544170883
H -0.9969267206 1.7644725813 0.5886151017
H -0.9105403962 1.0191857352 -1.0471381009
H 1.907445713 2.1076335062 1.1196365701
H 3.1037370221 1.8765988826 -1.6838859846
H 3.4576511611 3.1100431099 -0.4830099578
H 5.2835750045 1.4456516339 -0.1709376544
H 4.8293994982 -0.4774427546 1.1747485514
H 2.5782318942 -1.5262063933 0.9903803125
H 2.3273604815 -0.2016374759 2.1179071465
H 1.807822472 -0.1732675497 -0.894316109

