# b3lyp 6-31G(2df,p) opt Freq 

 titel

0 1
C -0.1647119081 0.0492644906 -0.0451235444
C 1.3584525878 0.0671276444 0.0379622021
C 2.0581037026 -0.8723041401 -0.9658442172
C 3.5425010783 -1.1388962876 -0.4839103295
C 3.4839884561 -0.5843059253 0.9506910116
C 1.9744969513 -0.8847202626 1.0960369754
O 1.3806266101 -0.9341121699 2.3499295813
C 1.9091929479 -2.0700672338 -0.0050665243
O 3.2372827547 -2.5491737687 -0.2524135682
H -0.6012587086 0.4989837881 0.8512752763
H -0.5136179115 0.6150655728 -0.9153342483
H -0.5605390431 -0.9677242814 -0.1292209484
H 1.7217534814 1.0998946781 0.0857180327
H 1.8373896637 -0.913459542 -2.0304986683
H 4.4227806014 -0.9740011244 -1.1037251851
H 4.1273789717 -1.1726101301 1.6108827878
H 3.7109332925 0.4794661248 1.0552421549
H 1.8914559026 -1.5303713163 2.9079737328
H 1.1256813392 -2.8245999264 0.0243520089

