# b3lyp 6-31G(2df,p) opt Freq 

 titel

0 1
O 1.1345296691 0.1507487452 0.483398316
C -0.0073502751 -0.0011712423 0.1632311738
C -0.9225356643 -1.2234776839 -0.0457411144
C -2.1161609704 -0.2606148574 0.1820434052
O -2.4899490383 -0.3601267724 1.5420106394
C -2.9780941448 0.855104268 2.0975626028
C -1.8687027428 1.9033396919 2.1580846564
C -1.3729093272 2.2347459479 0.7426591722
C -1.1828654271 0.9658204156 -0.0852111482
H -0.8609244594 -1.5974620321 -1.0726646826
H -0.8292886718 -2.051802384 0.6582631861
H -2.9894393718 -0.3664184313 -0.4737256143
H -3.83576197 1.230440741 1.5134452263
H -3.3408230653 0.5990293742 3.0968350324
H -2.2323981732 2.8085531701 2.6562424745
H -1.0497908096 1.5002119483 2.764728311
H -2.1080835417 2.8797833395 0.2454158583
H -0.4312840273 2.7931203498 0.7752785154
H -1.1822559489 1.1929427419 -1.1594376902

