# b3lyp 6-31G(2df,p) opt Freq 

 titel

0 1
C -2.5529310017 4.044739286 1.5715063796
C -2.2033789513 3.365923908 0.6431491864
C -1.7710617615 2.5356667003 -0.4839256395
O -1.0109750871 1.4002389086 -0.0876598251
C 0.2898531194 1.7142201791 0.3758707437
C 0.9576393666 0.3882691894 0.7927000744
C 2.1022604138 0.2067178547 -0.2299981403
C 1.7146890429 1.1917308618 -1.3389028953
O 1.0867046371 2.2722802149 -0.6459442887
H -2.8677118581 4.6475172215 2.3872523404
H -2.6452800767 2.1386011669 -1.0096207626
H -1.1990643832 3.1441807804 -1.1961763932
H 0.2253589087 2.4691546354 1.1675224064
H 1.3220900828 0.4338514542 1.8206392276
H 0.215933998 -0.4103407328 0.7310831167
H 3.0617424919 0.4966225166 0.2076745928
H 2.1927598693 -0.820488071 -0.5907121245
H 2.5623494703 1.6014729915 -1.892815484
H 1.0152366188 0.7335716846 -2.0522696346

