# b3lyp 6-31G(2df,p) opt Freq 

 titel

0 1
C 1.9355710765 -1.09461797 -1.1192225448
C 1.4043161222 -0.263246303 0.0350433722
O 2.2185640422 0.9024597804 0.1447981527
C 1.821653374 1.8057734068 1.1470547963
C 2.4959187514 3.1730427176 0.9351721456
C 3.0542507629 3.5269290891 2.289398126
C 2.9310030044 2.5421965159 3.1886479596
C 2.2568616446 1.3781187846 2.577043375
O 2.0736930003 0.2876320359 3.0696727958
H 1.3241515632 -1.9922907843 -1.2512653195
H 1.9183694694 -0.5211512318 -2.0507009424
H 2.966589357 -1.4044493217 -0.9261498045
H 0.3598238298 0.0399024867 -0.1517704908
H 1.4231235731 -0.8281409784 0.9730265333
H 0.7236120397 1.9141665405 1.1559973532
H 3.2956996413 3.0704642876 0.1925216236
H 1.8110189029 3.9402479928 0.5587552346
H 3.5162736201 4.4899560198 2.4811221917
H 3.2808454451 2.5443667016 4.2130676822

