# b3lyp 6-31G(2df,p) opt Freq 

 titel

0 1
C 1.9443114997 1.7977634294 -0.4807403875
C 1.175239814 0.4725590746 -0.4783323205
C 1.8925391009 -0.6797021805 -1.2043014406
C 1.1142245138 -2.0172437782 -1.0954341482
C 0.3002017091 -2.135602945 -2.390293406
O -0.7403571844 -2.7218932377 -2.5416867808
C 1.010582573 -1.3062669471 -3.4289077066
O 2.42587342 -1.5867990221 -3.4328309104
C 1.9742151107 -0.4464903811 -2.7121322891
H 1.4109789924 2.5566641329 0.0993510688
H 2.938296623 1.677294795 -0.0361348716
H 2.0797934797 2.1969745062 -1.4908076922
H 1.0001686054 0.1628224032 0.5587068368
H 0.1805399274 0.6170721536 -0.9217627546
H 2.9046220646 -0.7794004048 -0.7947099386
H 1.7941364548 -2.8732002853 -1.0406301236
H 0.4505458929 -2.0654556585 -0.2297172346
H 0.5532768878 -1.0746903388 -4.3850664956
H 2.2835814953 0.5121983042 -3.119446495

