# b3lyp 6-31G(2df,p) opt Freq 

 titel

0 1
C 1.6909536113 -2.6550759749 -1.124626139
C 1.1124510355 -1.7505073493 -2.1730577078
C 1.032188529 -2.0960153769 -3.6551261677
C -0.2135648531 -1.7439577387 -2.9028438055
O -0.3548067912 -0.3182508073 -2.8062908345
C 0.8662729588 -0.2606866393 -2.0534603841
C 1.7918590768 0.9182608338 -2.1258018049
C 0.9820849547 0.6294063597 -0.8666536963
O 1.6178636707 0.1182799179 0.2687232004
H 1.5025292123 -3.7028520265 -1.3802682332
H 2.7760691691 -2.5251933616 -1.0435052119
H 1.2612211733 -2.4506812638 -0.1412445263
H 1.406686535 -1.4150181943 -4.4142829324
H 1.1668521033 -3.1521160121 -3.871521648
H -1.1101889959 -2.3458357488 -2.8138340989
H 2.8575998684 0.713326512 -2.0912547264
H 1.4961467485 1.7650525004 -2.7359558402
H 0.1275431218 1.2797906208 -0.6770277471
H 2.1555825816 0.8211453688 0.6492472536

