# b3lyp 6-31G(2df,p) opt Freq 

 titel

0 1
O 1.3624585404 0.5432112619 -0.014127635
C 0.3624134739 -0.1937557083 0.6777243928
C -0.8485176962 0.6564420948 1.0214743007
C -0.7802176769 1.6319373894 2.2231980794
C -2.3325429197 1.5790265478 2.4322490538
C -2.1620360793 1.2895297324 3.9362781887
O -3.1695690783 0.6238478302 4.6509139616
C -1.0154270112 0.4937392205 3.28039505
C -1.8953810806 0.12302796 2.024026825
H 1.6553534862 1.2523962724 0.5670107529
H 0.0703738733 -1.0013714437 -0.0032802711
H 0.7715031787 -0.6672242336 1.5842961407
H -1.2669601881 1.0954942424 0.1073770531
H -0.1569967754 2.516529829 2.3689387064
H -3.0684984445 2.1951199356 1.913240905
H -1.8619379459 2.1394401851 4.5573583464
H -3.461719573 -0.1335743805 4.1320305863
H -0.2552322528 -0.1296395115 3.7518284921
H -2.5454251105 -0.7477938138 1.9155122214

