# b3lyp 6-31G(2df,p) opt Freq 

 titel

0 1
O -1.0012638374 3.9931195785 -2.1375176909
C -1.7628667501 2.8438763935 -1.7973782494
C -3.1710833198 3.1171610095 -1.3237018577
C -3.4976643667 2.3666590977 -0.272870792
C -2.3731092727 1.4484596625 0.1446291397
C -1.1548537511 2.0171345417 -0.6274541037
C -0.1117205629 0.9867821751 -1.0810544887
C 0.6138819519 0.3610541252 0.0864266497
O 0.6413895745 -0.815933878 0.3388172905
H -1.06310772 4.608998963 -1.3983437526
H -1.7751708888 2.2530153566 -2.7237467839
H -3.8172843088 3.8203349497 -1.8371540028
H -4.464929777 2.3613728563 0.2180179855
H -2.2187882567 1.4215448556 1.2293467148
H -2.5846732662 0.413014033 -0.1576112796
H -0.6565705895 2.7502764289 0.022589931
H -0.5679034575 0.1919828215 -1.6795745839
H 0.6342209695 1.5065847982 -1.6997661048
H 1.1411644093 1.0977216015 0.7397516189

