# b3lyp 6-31G(2df,p) opt Freq 

 titel

0 1
C -1.1023810792 -1.8968837177 -1.2872958802
C -0.8047790657 -1.0743388615 -0.0409872144
C 0.1912506621 0.1242003094 -0.1363316799
O 1.3664261883 0.206528688 -0.3432487031
C -0.8825828092 1.1089588857 0.3217748479
C -0.7576409827 2.433618613 0.994499918
O -1.9529534606 0.9069501006 -0.6433109691
C -1.8430288261 -0.0304561651 0.4325571789
C -3.0109039221 -0.22909811 1.3421944013
H -1.8222796413 -2.6948294655 -1.0775911307
H -1.5098082128 -1.25840214 -2.0750845513
H -0.1857094208 -2.3623365301 -1.6618295701
H -0.4690194471 -1.7126310173 0.7874493255
H -0.0531909269 2.3733376826 1.8296344172
H -0.3832250861 3.1859217789 0.2928777718
H -1.7271753212 2.7705978697 1.3713168186
H -3.7801657552 -0.839232474 0.8561999741
H -2.7030629979 -0.7432250816 2.2581685766
H -3.4610180356 0.7307413048 1.6091202691

