# b3lyp 6-31G(2df,p) opt Freq 

 titel

0 1
O 0.1283160717 -0.234290109 -0.1011740124
C -0.8545278871 0.2719916779 0.7864336739
C -2.2084719467 -0.4418934867 0.4971142589
C -2.6918240076 0.7616260214 -0.3835276965
C -3.6950889309 1.737511091 0.2899339579
C -2.5045360981 2.4502345626 0.9930950807
C -1.7793768046 3.5631819226 0.1959331689
O -0.7965367149 2.6289404903 -0.3365188889
C -1.4930584506 1.5427717793 0.2527372753
H 0.7629525271 0.4743407298 -0.2585795126
H -0.4889449025 0.2809160748 1.8237545171
H -2.0700565875 -1.3794758924 -0.0421908162
H -2.8171294775 -0.6197538063 1.3871912553
H -2.7816945768 0.5548960807 -1.4492871553
H -4.2458266053 2.377889522 -0.4057671403
H -4.4165654398 1.2678131289 0.9649897044
H -2.5234094864 2.573462406 2.0764427731
H -2.3661255781 4.0346261626 -0.6020199691
H -1.2955900345 4.3393170344 0.798115066

