# b3lyp 6-31G(2df,p) opt Freq 

 titel

0 1
C -2.9896849119 0.2034624989 -3.9749463577
C -2.025212755 -0.5079714895 -3.0504890057
O -1.7158316385 -1.6787574081 -3.2387251494
C -1.4953245045 0.2654987548 -1.9078372666
C 0.0062513594 0.080013244 -1.6075151675
C 0.378763375 1.0293520318 -0.4643136246
C -0.6645160095 0.3035540188 0.4538721263
C -1.0138069076 -0.5969013554 -0.7241743739
O -1.3773955176 -1.9000650816 -0.5533383564
H -3.8664392228 0.5438070817 -3.4119801672
H -2.5200235356 1.0969367888 -4.4011754459
H -3.3041569385 -0.4687199313 -4.7738682974
H -1.9384888736 1.246627807 -1.7460310205
H 0.6589184364 -0.3217074965 -2.3729279096
H 1.404058257 0.8884514805 -0.1165623818
H 0.2120632239 2.0952703413 -0.6496473844
H -0.1840250687 -0.2595643208 1.2565057039
H -1.4789349853 0.9009726608 0.873438541
H -1.4600149626 -2.2756866753 -1.4492905925

