# b3lyp 6-31G(2df,p) opt Freq 

 titel

0 1
C -0.5416972355 -2.8028198529 2.1679545849
C -0.4487537357 -1.5076371009 2.9887896429
C 0.2548455063 -1.754733341 4.3126002729
O 1.1762283061 -1.1068402644 4.7371064989
C -1.8280839719 -0.9305134767 3.2852000857
C -1.8781856486 0.5242050647 3.7252729844
C -3.3299492446 0.9262472408 3.9566959883
O -3.7170532783 0.4286053787 2.6429465597
C -2.3557129338 0.1200541981 2.3509480753
H -1.06804244 -3.5843770106 2.7272438551
H -1.0947371713 -2.6287399803 1.2408809674
H 0.4513589841 -3.182916674 1.9100984408
H 0.1473152744 -0.7584454689 2.4548316942
H -0.1761087073 -2.5981637851 4.9043135301
H -2.5498624532 -1.629865487 3.7064797072
H -0.9973261184 1.066482334 4.0413447104
H -3.8760014755 0.4302633778 4.7677140372
H -3.4831031651 2.0094520864 4.0125777754
H -1.987080912 0.3107475813 1.3489480592

