# b3lyp 6-31G(2df,p) opt Freq 

 titel

0 1
C -2.3627235723 5.4076093537 -2.1887094978
C -1.9667000188 4.302398209 -1.2340935706
C -0.5215162293 3.9158326758 -1.1665010483
O -0.2807918649 2.9933682385 -0.0998505463
C -1.1460824369 2.0071896824 -0.7434710461
C -0.3419980071 0.7885738185 -1.188985752
C 0.2869762675 0.0616787695 -0.0179509012
O 0.1939842905 -1.1238521336 0.1755006964
C -1.5060557414 2.9937626291 -1.8514539131
H -1.7157545107 5.4184558339 -3.0727845702
H -3.3933284511 5.2808983389 -2.5363250847
H -2.2863339149 6.3883104157 -1.7082312676
H -2.5287597728 4.2576976956 -0.3025812137
H 0.3102450178 4.5133973128 -1.5231224592
H -1.9651310198 1.7103715886 -0.0754073116
H -0.9733295038 0.0875868725 -1.7444062594
H 0.4652924696 1.1343274076 -1.8490409691
H 0.8611937774 0.7175460943 0.6707161372
H -1.6440089888 2.7475257173 -2.896494053

