# b3lyp 6-31G(2df,p) opt Freq 

 titel

0 1
O -1.3572648652 3.8997260754 -0.5174789677
C -1.1904957103 2.4850398836 -0.4743498626
C -1.2322364917 1.9782253979 -1.9285346865
C 0.2287942569 2.0425694361 -2.4334809409
C 1.0743492365 1.869670021 -1.1793618988
C 0.6946609922 0.7069818075 -0.2620455186
C 1.7488765992 0.1734446938 0.6256020402
O 1.8553450395 -0.9810464076 0.9587453033
C 0.2110900748 2.1293536989 0.0113189515
H -1.2846272713 4.2393924366 0.3803414361
H -1.9782877478 2.0265873116 0.1405097318
H -1.6106922994 0.9528598826 -1.9552893677
H -1.9139230996 2.5933865284 -2.5185961834
H 0.4392888503 1.2922114247 -3.2015635095
H 0.4405866096 3.0260858677 -2.8656351293
H 2.1169940031 2.1684399643 -1.1967935811
H -0.0119134413 -0.0383524313 -0.6113598302
H 2.4740187983 0.9446614214 0.9833829311
H 0.5879270862 2.6245777277 0.9016850423

