# b3lyp 6-31G(2df,p) opt Freq 

 titel

0 1
C -2.9578026299 -1.1299744826 -1.1707124341
C -2.3039419168 -0.7915167277 0.1791730187
C -3.1285010358 -1.3534634253 1.3431732134
C -0.8240923397 -1.2726013806 0.2061113619
C 0.0137448192 -0.0896329509 -0.2922988322
O 1.0688076564 -0.1380307019 -0.8701820406
C -0.7801092242 1.1587612549 -0.0023784883
O -1.3028256667 1.1434725062 1.3439501562
C -2.1610011215 0.7297135046 0.2886369094
H -3.0563777799 -2.2135114992 -1.2900759413
H -3.9601635738 -0.6938166586 -1.243240665
H -2.3657706369 -0.7531226828 -2.0120205802
H -3.153515708 -2.4477315369 1.3110778137
H -2.700233577 -1.0480532517 2.3022813942
H -4.1633633737 -0.9955258821 1.3026970064
H -0.5061756851 -1.5107804593 1.226678328
H -0.6411892229 -2.1533735689 -0.4127639287
H -0.4935784154 2.124504309 -0.405113375
H -3.0133902382 1.3774993938 0.0916360337

