# b3lyp 6-31G(2df,p) opt Freq 

 titel

0 1
C 1.7583562671 -0.5100495141 -1.8523192516
C 0.9358583086 -1.0532417553 -0.7046846493
C 0.3010998552 -0.1207101882 0.3028032302
C 1.4545319312 -0.9936776705 0.7005191037
C 2.8386519267 -0.6095193578 1.2147177673
O 2.7996989097 -1.6852616529 2.184492553
C 1.4947095979 -2.1122218452 1.7539282707
C 0.4537358108 -1.994398595 2.8479320104
O -0.6900322133 -2.3468497539 2.7108464348
H 2.4795606629 -1.2505142351 -2.2152976202
H 1.1169519211 -0.227779084 -2.693752213
H 2.3194804025 0.3816379724 -1.552625087
H 0.3559576268 -1.9427162319 -0.9415592512
H 0.4906694155 0.9442299763 0.2007883797
H -0.6800306915 -0.3705069061 0.6929908235
H 3.6664457596 -0.7336071489 0.5053332167
H 2.922603117 0.3712206805 1.6995774757
H 1.4919929039 -3.134754055 1.3523926003
H 0.8303059783 -1.5188155253 3.7816599364

