# b3lyp 6-31G(2df,p) opt Freq 

 titel

0 1
C 0.0419652759 -0.0797052008 0.1506297465
C 1.5167173926 0.0438094406 -0.094006188
O 2.2510036486 -1.1883161658 -0.0183064121
C 3.2695218878 -0.6073495013 -0.8957343781
C 4.3669711601 -0.0116057654 -0.0181160494
C 3.6514103198 0.7763437088 1.1121582358
C 2.3211818418 1.254911563 0.5401254288
O 2.5686317246 1.8003663628 -0.7973062153
C 2.2607769222 0.5162134014 -1.3436317978
H -0.1503256373 -0.3739430973 1.1885265653
H -0.4550552356 0.8780454512 -0.0309661395
H -0.3965046169 -0.8366557234 -0.5056600547
H 3.6120824742 -1.3266528238 -1.6428743979
H 5.0068340202 -0.7999050785 0.3876616692
H 4.9923627702 0.6555854691 -0.6188623388
H 3.4639240009 0.1306431735 1.9755823279
H 4.2535430658 1.6242744652 1.4503307332
H 1.7747795219 1.9630154655 1.168589416
H 1.905282973 0.5379431251 -2.3750431613

