# b3lyp 6-31G(2df,p) opt Freq 

 titel

0 1
C -3.129057957 -2.358565367 -0.5381353405
C -2.1268231833 -1.2697558907 -0.9408669789
O -1.6734148287 -1.4944450034 -2.2835577639
C -0.9178680308 -1.2549908882 0.0224733603
C -0.0120137069 -0.0668167864 -0.2409272978
O 1.1758566549 -0.1714533955 -0.427430009
C -0.7171525929 1.2849275266 -0.2208805281
C -2.1609605265 1.2173009892 -0.6391315122
C -2.7895711734 0.0908689288 -0.9637833826
H -3.5525572101 -2.1656084708 0.4523388364
H -3.9451324058 -2.3993220118 -1.2654139847
H -2.6430249831 -3.3409147563 -0.5104621824
H -1.3138194161 -2.3883468054 -2.3281926371
H -1.2872978309 -1.181593996 1.0542935075
H -0.3336412507 -2.1758488655 -0.0665943151
H -0.6390541164 1.6830927656 0.8032664405
H -0.1479367182 1.9792761732 -0.8487739606
H -2.6924783973 2.1646832039 -0.6902483183
H -3.824379027 0.1162526697 -1.2937700735

