# b3lyp 6-31G(2df,p) opt Freq 

 titel

0 1
C 1.4623717166 1.1561842913 -0.4662278432
C 1.3058232989 -0.2830872648 -0.0156369777
O 2.0730819096 -1.1955569859 -0.8555195581
C 2.9364607692 -1.5591436299 0.2364046857
C 2.5055492168 -2.8657380559 0.941077689
C 1.6007409295 -2.0071552192 1.9046326409
C 1.9595753652 -2.1865447006 3.3535388376
O 2.4951110085 -1.357197803 4.0452832871
C 2.1030114244 -0.7068838698 1.2325159613
H 0.8897646969 1.8253057701 0.1855219929
H 2.5131932432 1.4610484287 -0.4415236651
H 1.095081277 1.273354006 -1.4904099851
H 0.2437271319 -0.5660391788 -0.0044616398
H 3.9944091544 -1.423132299 -0.0018879227
H 1.9896212707 -3.5805491114 0.2980917145
H 3.3254877696 -3.3712186644 1.4608805405
H 0.5286974902 -2.209781206 1.7914016585
H 1.7099077538 -3.1946698974 3.7598278253
H 2.4997252337 0.0604729699 1.8941056383

