# b3lyp 6-31G(2df,p) opt Freq 

 titel

0 1
O 0.2251081905 0.1908525985 0.066025209
C -0.6443301956 0.4201001553 1.1288752086
C -0.8330780925 1.8792245782 1.6078931775
C -2.1216949643 1.3008465303 2.2531491505
C -2.2132054622 0.3704418981 1.0030866359
C -1.5570081014 0.3046187915 3.2825482186
O -0.5651064957 0.8185542241 4.2021612509
C 0.5009797865 0.115007692 3.519544187
C -0.4629324012 -0.3898029859 2.4315775164
H 0.2927675012 -0.7595179338 -0.0761649923
H -0.0862922123 2.3291808994 2.2624924797
H -1.0553716559 2.5394512176 0.767815335
H -2.9470133992 1.9419873234 2.5569529292
H -2.714472307 -0.5976266858 1.1099801426
H -2.5702113612 0.8915022123 0.1130245879
H -2.3194260633 -0.2907246535 3.7949343426
H 1.3060401546 0.7858294013 3.1966504145
H 0.9233592232 -0.6750982704 4.1525094352
H -0.5077081043 -1.4697101426 2.2716075311

