# b3lyp 6-31G(2df,p) opt Freq 

 titel

0 1
C 4.4940341706 1.0045353615 -3.5455040141
C 3.2215421577 0.7763635374 -2.7815872203
C 1.803258419 0.823873857 -3.4051336781
C 1.50678148 1.2474696538 -1.9552767541
O 2.8117951195 1.8901986933 -1.9080049565
C 1.7492097301 -0.0589275617 -1.1395748792
C 3.128433566 -0.4137405327 -1.7948270766
C 1.847920347 0.2028537308 0.3413256339
O 1.2049221231 -0.3709178915 1.1844022368
H 5.3393138281 1.1156431094 -2.8585125195
H 4.6996111532 0.1535629366 -4.2029962553
H 4.4254146283 1.9079468851 -4.1571648551
H 1.6949605476 1.6580953646 -4.0994455245
H 1.3591564283 -0.0932473926 -3.800632485
H 0.6767601563 1.8931925378 -1.6701378849
H 0.9775026802 -0.8126220984 -1.3110547226
H 3.9549686994 -0.3889488649 -1.0787802068
H 3.1221568411 -1.3907313111 -2.2838064659
H 2.5817730245 0.9948172756 0.6100988078

