# b3lyp 6-31G(2df,p) opt Freq 

 titel

0 1
C 1.4661210498 -0.1402549914 0.3484025191
O 0.0675491835 -0.0375227569 0.1530044414
C -0.5707630027 0.8017118609 1.0563808316
O -0.1140716588 2.139372429 0.8499557891
C -0.1493570368 2.9627392557 1.9913796395
C -1.4933216718 3.1682249092 2.6302297546
C -2.6630161943 2.5721383807 2.3524187441
C -2.9433607666 1.4916274008 1.4094204151
C -2.0506659465 0.6857964042 0.8242281304
H 1.6998186364 -0.5022943083 1.3616634772
H 1.8346559945 -0.8642594364 -0.3810674147
H 1.9651282144 0.8219692175 0.1924750821
H -0.3149201452 0.5168598798 2.0979018175
H 0.5633133419 2.6131200152 2.7622896369
H 0.2298924113 3.9346990917 1.6491174216
H -1.4844722273 3.9326574618 3.4060565711
H -3.5299219924 2.9205570887 2.9098615902
H -3.996722332 1.3200324446 1.2021108067
H -2.3608597374 -0.098378517 0.1421361164

