# b3lyp 6-31G(2df,p) opt Freq 

 titel

0 1
O 0.7661017695 0.1753718836 -0.7684355093
C 0.185123186 -0.2010603965 0.2109312353
O -0.7837367731 0.4570130579 0.868141356
C -1.165286498 1.7202739678 0.3387894977
C -2.5490804879 1.8448220871 -0.2278199896
C -2.2042294011 2.4591441946 1.1196437519
C -2.112827928 3.9400801338 1.3037815995
C -1.7871265328 4.522424865 2.6576700923
C -3.1740232658 4.6773696998 2.0834993797
H 0.3706343695 -1.1524951249 0.7328944156
H -0.3447264851 2.2510378038 -0.1278127922
H -2.6877944292 2.4986704396 -1.0825224119
H -3.1665986229 0.9539007219 -0.2278655318
H -2.5906776534 1.9152086209 1.9781147969
H -1.7016180913 4.4686203915 0.4472133629
H -1.6550204722 3.8325800919 3.4847211038
H -1.1451506775 5.3950927173 2.7025933138
H -3.973394502 4.0905351972 2.5239971594
H -3.4835274848 5.6564075775 1.7350996699

