# b3lyp 6-31G(2df,p) opt Freq 

 titel

0 1
C -0.0550360409 -0.1860831456 0.1615068825
C 1.4471933839 -0.0704752792 -0.0366109036
O 2.1573576527 -0.7168503056 1.0090695309
C 2.0401860777 -0.2162852339 -1.4618372464
C 1.6513474152 1.256265157 -1.8525849324
C 3.0805792567 1.5743257673 -2.3376221984
C 3.2937720054 0.6561479022 -1.1178841705
C 2.0686161176 1.3007961968 -0.3521585993
O 2.0524439668 2.4469234717 0.4152231623
H -0.3429955453 0.2328199059 1.1306605746
H -0.6100589236 0.3391038909 -0.6201661609
H -0.3707205594 -1.2371653522 0.14083323
H 1.8015141176 -1.6049710005 1.1154263918
H 2.0260328451 -1.0746494372 -2.1315751243
H 0.695470431 1.5822009849 -2.2632833108
H 3.3680512169 1.1714408623 -3.3136982858
H 3.4096094077 2.6121548018 -2.2355176757
H 4.2176188929 0.2945889498 -0.6699706127
H 2.4780826922 2.2416818636 1.2557389787

