# b3lyp 6-31G(2df,p) opt Freq 

 titel

0 1
C 0.7522365247 -0.9469148542 0.58135507
C 1.8039470866 -0.4390529859 -0.3715078115
C 0.4345312739 0.18330811 -0.3706473773
C -0.5098010603 -0.0550121786 -1.514302274
C -0.0825422443 0.1265315875 -2.911571012
O -0.2213086088 -1.1833806153 -2.3406489394
C -1.9676346578 0.1199003887 -1.1698433869
C -2.9080517142 -1.0079000194 -1.2123872507
O -2.905223091 -0.0043476781 -2.2327825276
H 0.3173118172 -1.9159219875 0.3631845119
H 0.847611518 -0.7194263864 1.6369979458
H 2.6279137244 0.1430947515 0.0250806881
H 2.0525839607 -1.0774269564 -1.2113907487
H 0.3454274224 1.1736870236 0.0682357607
H -0.8279259676 0.3723567348 -3.6631304097
H 0.941071493 0.43338339 -3.1182476712
H -2.1705755319 0.9401938266 -0.4794243734
H -2.5388518836 -1.9801388497 -1.5284286146
H -3.7807479314 -1.0098544012 -0.5613308494

