# b3lyp 6-31G(2df,p) opt Freq 

 titel

0 1
C 1.2598446698 0.7251754758 -1.1377557614
C -0.0233663513 0.2098112073 -0.5673559592
C -1.1570852095 0.8952402445 -0.3716993979
C -2.1961649542 0.0599343146 0.2977854138
O -3.5238747634 0.0827965784 -0.1454805897
C -1.8743618324 -0.4236269893 1.7046742595
C -1.5565547204 -1.2937236308 0.502676983
O -2.3051818912 -2.4491689617 0.3035094298
C -0.1582445719 -1.2326665802 -0.0974318816
H 2.0745326024 0.6707708959 -0.4043566401
H 1.5778736772 0.1236378355 -1.9989330793
H 1.167074867 1.7650335775 -1.4625370483
H -1.3132940682 1.9383063996 -0.6256824876
H -4.0494132801 0.5977638958 0.4745416929
H -1.0858618146 0.0743552111 2.2602251759
H -2.7122962695 -0.7829457485 2.2951205905
H -3.1409951983 -2.1649399939 -0.0920231721
H 0.6239188781 -1.5010386447 0.6238848684
H -0.0733023196 -1.9392983068 -0.9330752966

