# b3lyp 6-31G(2df,p) opt Freq 

 titel

0 1
C 1.1323893059 0.6153322918 -0.8054977699
C -0.1453016905 0.0087792693 -0.3080719961
C -0.2979392295 -1.2593558188 0.0865189911
C -1.6670050614 -1.6599597984 0.5884450164
C -2.7402048048 -1.2466369245 -0.4495472342
C -2.5817344055 0.106022576 0.2782561009
O -2.1629558292 -0.6029700148 1.4755866733
C -1.3754106287 0.9113508764 -0.2400833769
O -1.6570704088 1.5396396771 -1.4891553869
H 1.478702321 1.4047375429 -0.1255244995
H 1.9255336169 -0.1318901594 -0.8922177063
H 0.9850143619 1.0919215549 -1.7804156583
H 0.5131551789 -1.9810672955 0.0612087539
H -1.7089500974 -2.6464604612 1.053372008
H -2.4901053538 -1.332823516 -1.5094354607
H -3.7149208194 -1.6927819889 -0.2459874391
H -3.4588899814 0.7382568424 0.4355787161
H -1.1854347035 1.7421828135 0.4508665854
H -1.7833953405 0.8428445533 -2.1431765471

