# b3lyp 6-31G(2df,p) opt Freq 

 titel

0 1
O -0.6176569116 -0.1122274836 0.5174993554
C -2.0228314233 -0.0122790103 0.3843712452
C -2.6601450531 1.0941239644 1.2642303383
C -4.1300482782 1.3998752047 0.8818971543
C -4.5964657643 0.1186547912 1.6117568423
C -4.3043278291 -1.1663765647 0.8148166593
O -4.6998066786 -1.1247870753 -0.5370509443
C -2.7969754413 -1.0919881156 1.1815188086
C -3.1693328047 -0.0121008323 2.2667132627
H -0.4096816014 -0.1599384825 1.4576185824
H -2.2173944737 0.0387362698 -0.6901331044
H -2.0049715539 1.9272682493 1.5252777118
H -4.4890437306 2.290080006 1.4058028514
H -4.3726029415 1.4883709494 -0.180463125
H -5.5386599289 0.1586244953 2.1580965854
H -4.7544304349 -2.0241554281 1.3370856514
H -4.4435416752 -1.9519663579 -0.9577598516
H -2.2646782443 -2.0276022729 1.3659310884
H -2.9655379815 -0.0721914769 3.3327821884

