# b3lyp 6-31G(2df,p) opt Freq 

 titel

0 1
C 0.8762246569 -1.6718424382 3.0302595244
C 2.1241727051 -1.2792643255 2.253209941
C 1.97867993 -0.782037238 0.7912262208
C 1.2943923271 0.4367730172 0.2473565435
C 1.8755438623 -2.2432270738 0.2214381774
O 2.9127758771 -2.0410206969 -0.7819239443
C 3.3930864848 -1.3111174594 0.383899049
C 2.8561967044 -2.3633704349 1.4229785963
O 3.4168889934 -3.5486531527 1.8381959989
H 1.1342264512 -2.2645397492 3.9143709501
H 0.3262071326 -0.7890791548 3.373555881
H 0.1946883325 -2.2733173018 2.4190439052
H 2.7919547587 -0.6576499003 2.8648393832
H 1.743276812 1.354886205 0.6417951024
H 1.3795985983 0.4555496347 -0.8440708724
H 0.2304283536 0.4472427798 0.5073290324
H 1.0043245321 -2.8410324308 -0.0432101698
H 4.3462682906 -0.7845636478 0.3245317536
H 4.1174648972 -3.3556804825 2.4709445973

