# b3lyp 6-31G(2df,p) opt Freq 

 titel

0 1
O 0.5069981216 0.3752927203 0.6367702871
C -0.7857454735 0.8220819302 0.2993806893
C -1.9241800406 -0.2583865566 0.3043406003
C -2.2320709709 0.1031876217 -1.1514293789
C -2.819179636 -0.6464959488 -2.3512530774
C -3.3148469039 0.7232338483 -2.9271540052
C -2.9204192432 1.4238118096 -1.5951074048
O -1.6786879108 2.1610541714 -1.6413930703
C -0.9550997115 0.9827633627 -1.2362329519
H 0.5193968067 0.1677475143 1.5768597343
H -1.0557168465 1.7483029058 0.8235949314
H -1.4814331467 -1.2561941188 0.3913717638
H -2.7298310743 -0.1555577254 1.0370458117
H -2.1214925843 -1.2281179711 -2.9602252118
H -3.651876808 -1.2979945136 -2.0683171945
H -2.7368119496 1.1028461218 -3.7718723212
H -4.3776689935 0.7626953776 -3.1761899857
H -3.7039172618 1.951492766 -1.0436061466
H -0.0644383334 0.7732972344 -1.8346966896

