# b3lyp 6-31G(2df,p) opt Freq 

 titel

0 1
C 1.3306366188 0.7589053846 0.5289958839
C -0.0573226268 0.2194283095 0.3855778711
C -1.1956765538 0.8995587807 0.1830346386
C -2.3940770457 0.021060532 0.1748634733
C -2.6246630538 -0.7365159498 1.4799346829
O -3.8717651932 -1.3099984385 1.7260120498
C -1.8421706534 -1.3862300807 0.3851706764
C -0.319029007 -1.2814393172 0.4171493546
O 0.312818798 -1.9587417906 -0.6685737333
H 1.724052771 0.5871742444 1.5393382664
H 2.0125550422 0.2498688099 -0.1613172948
H 1.3704237565 1.833617946 0.3314747903
H -1.2597175285 1.9796841168 0.0965071469
H -3.2531055273 0.2227796006 -0.4552235813
H -2.0892571751 -0.3708115414 2.3581282851
H -4.453838584 -0.6213271759 2.0644484244
H -2.2927279762 -2.2481523171 -0.0919514899
H 0.1038323399 -1.7539534106 1.3118919994
H 0.0144297383 -1.5264152327 -1.4772975136

