# b3lyp 6-31G(2df,p) opt Freq 

 titel

0 1
C 1.3493574163 0.8019675778 0.0334496058
C -0.042822037 0.2740019921 0.1658788129
C -1.1886872177 0.9356401698 -0.0350278016
C -2.3704973952 0.0838185539 0.3001068615
C -3.7261757009 0.3102920391 -0.318524801
O -3.6609840818 0.4105258305 -1.73230726
O -2.3884308056 -0.3419244858 1.6873041771
C -1.8250167258 -1.2260602256 0.7152516149
C -0.3077516105 -1.1584683401 0.6119176325
H 1.8707362998 0.7866619631 0.999088419
H 1.9452513659 0.1850440355 -0.6513170323
H 1.355738658 1.8301623005 -0.3376414327
H -1.2762985295 1.9634988233 -0.36575601
H -4.4120265335 -0.4805492576 0.0187062502
H -4.1359114158 1.2661054038 0.0267039681
H -3.2740732446 -0.4056264611 -2.0658372532
H -2.3542497338 -2.1671599641 0.5816986415
H 0.1742042005 -1.3860889666 1.5708662191
H 0.0765290912 -1.8854902583 -0.1162900717

