# b3lyp 6-31G(2df,p) opt Freq 

 titel

0 1
O -0.2401125798 -0.0499765012 -0.1625962069
C -0.4939738928 0.8315996824 0.9170312472
C -1.8107917625 1.5925340516 0.6263457236
C -2.536796032 0.5986480684 1.5622544442
C -1.1814762216 0.1403554235 2.1321213303
C -3.8249204361 0.8053895352 2.3888473917
C -4.6688368815 0.698802471 1.0965837593
C -3.6051897435 -0.4238337143 1.1060833075
O -3.9186042743 -0.6698220755 2.5362770764
H 0.431559148 -0.6787501028 0.1213048747
H 0.3866018233 1.4473927122 1.1412194937
H -1.7978782997 2.6118415835 1.0230981072
H -2.1029385893 1.6170825226 -0.4255849551
H -0.9391746126 0.629285112 3.081109932
H -1.0201654618 -0.935116329 2.2364895616
H -3.9894279751 1.4108061205 3.2818256205
H -5.6948553335 0.3609103578 1.2456603252
H -4.5814281395 1.4921603093 0.3505068858
H -3.497758736 -1.2921571674 0.455404241

