# b3lyp 6-31G(2df,p) opt Freq 

 titel

0 1
O 1.9353306273 -1.6345235638 2.4346410077
C 0.9923885991 -0.9166807175 1.6433540828
C 0.9353456678 -1.6231028931 0.2862484798
C 0.0224302791 -0.902340468 -0.7225492851
C 0.0787848657 0.6151683647 -0.564653833
O -0.7450483709 1.0661930326 0.5644568366
C 0.4083251294 1.6271225623 1.1945904909
C 1.33573244 1.2016664282 0.0918289733
C 1.414933 0.5468182325 1.4642928422
H 1.8894437721 -1.2915482603 3.3324928709
H -0.0020673605 -0.950581429 2.1121767641
H 1.9623979838 -1.6498512298 -0.0967534584
H 0.6199256931 -2.6606932106 0.4270284882
H 0.3057373987 -1.1806358319 -1.7437157888
H -1.0239732149 -1.2021223069 -0.5926026763
H -0.24096645 1.1415568112 -1.4691095919
H 0.287778554 2.550061469 1.7494707202
H 2.15472742 1.7075169614 -0.3997610077
H 2.2791216862 0.8503740489 2.0490285445

