# b3lyp 6-31G(2df,p) opt Freq 

 titel

0 1
C -0.126576893 -0.0901808498 0.0014910496
C 1.3926452588 0.0488535145 -0.0216585034
C 1.8726197604 1.4912116124 0.0446299301
O 1.0978824352 2.4249045031 0.1074696294
C 3.3443101643 1.7090165657 0.029554361
C 3.9345468578 2.9058215565 0.0803733752
C 5.4207146293 2.7497861997 0.0458437504
O 5.6517765314 1.3462197052 -0.0312536535
C 4.4132646282 0.6418751504 -0.0441734522
H -0.5427099429 0.3423811271 0.9147854429
H -0.5781303666 0.439118339 -0.841274519
H -0.420114583 -1.1421999937 -0.0503887955
H 1.8557857905 -0.4979513533 0.8124976876
H 1.8205793563 -0.405507341 -0.9271221601
H 3.4158503694 3.8537228203 0.1383368777
H 5.8726806987 3.2569356014 -0.8219896363
H 5.9038950579 3.1652655641 0.9450645964
H 4.3426764972 0.0343465472 -0.9600902485
H 4.37487956 -0.0551517886 0.8077322183

