# b3lyp 6-31G(2df,p) opt Freq 

 titel

0 1
C -0.3609568483 -0.8902837446 -3.2792893045
C -0.0895346613 -1.0747030147 -1.8155192827
C 0.3257534646 -2.4010258938 -1.1563087478
C -0.530278582 -2.0332821968 0.1013964947
C -0.9091003067 -0.7138098019 -0.5734487432
C 0.3023068278 0.1297943309 -0.9434747838
O -0.0353216241 1.3624186892 -1.4952620096
C 1.5529893708 0.1961915709 -0.1614720395
O 2.1898390119 1.2289350895 -0.0896041148
H -1.1362541686 -1.5847741972 -3.6221762532
H -0.6861737311 0.1304445413 -3.4877483804
H 0.5434652924 -1.0852317249 -3.8680506283
H -0.0894963422 -3.2573779744 -1.6938471835
H 1.3951486818 -2.5816890383 -1.0132299026
H -1.3898299205 -2.6970099746 0.2160417747
H -0.0184069722 -1.9732824531 1.0661599872
H -1.8547135977 -0.1882144542 -0.5049758903
H 0.7044055067 1.9434957339 -1.2529870324
H 1.8957267386 -0.7220543874 0.34567617

