# b3lyp 6-31G(2df,p) opt Freq 

 titel

0 1
O -1.4663686097 0.4118005863 -0.4958333419
C -0.0739567252 0.1694387531 -0.5373928971
C 0.5998331269 0.4498836804 0.7962842868
C 0.4665198456 1.8569994555 1.2452600801
O -0.1911324243 2.6985174808 0.6721941588
C 1.9051379574 -0.181524446 1.2700271869
C 2.022001449 -1.6388514586 0.7983285232
C 0.6804140375 -1.9616107881 1.5334850636
C 0.6110549679 -0.500173925 1.9936881708
H -1.5573742403 1.3575975014 -0.3223572984
H 0.0516338417 -0.8747785908 -0.8299201322
H 0.4177199438 0.7830092632 -1.3080997697
H 1.0155626898 2.1098481579 2.180991213
H 2.7347834143 0.4416368034 1.5848370942
H 2.0675971604 -1.8095358936 -0.2804596884
H 2.8708297245 -2.1448209307 1.2626389967
H -0.1570113799 -2.3202438774 0.9299619598
H 0.8257738903 -2.6486854895 2.3693337858
H 0.2663152402 -0.1642663424 2.964700588

