# b3lyp 6-31G(2df,p) opt Freq 

 titel

0 1
C 1.6030801473 -0.1961614241 0.4798143741
O 0.1969449924 -0.1992259734 0.6188836812
C -0.2940534441 0.7983292043 1.4884396489
C -0.1802391245 2.1485018573 0.9154970644
C -0.0967161577 3.2500666266 0.4420289854
C -1.7490844822 0.4903618032 1.826410166
O -2.0158690896 -0.8046454738 2.3459466524
C -2.5601447837 -0.4596328596 1.0581465303
C -4.058925929 -0.3497407563 0.9656567693
H 2.1019305375 -0.3522364733 1.4482955783
H 1.8562063906 -1.022523445 -0.1875505333
H 1.966435087 0.7443058262 0.0437975025
H 0.2750246408 0.7737658885 2.4352254546
H -0.0191039006 4.2239378109 0.0248910381
H -2.2469263734 1.3089541115 2.3478324322
H -2.0616372845 -0.9697414672 0.2366876487
H -4.515641226 -1.3445413469 0.9371654955
H -4.466414117 0.1896114158 1.8250433797
H -4.3478078433 0.1782769751 0.0505213718

