# b3lyp 6-31G(2df,p) opt Freq 

 titel

0 1
C -3.3028147032 0.5999483715 4.7702266899
O -3.5219362639 0.9996383299 3.4381453092
C -2.9019731256 0.1465142744 2.5032408631
C -3.2346460542 0.6666687755 1.1035258881
C -2.5477406208 -0.132331605 0.0075098519
O -3.1622876398 -0.8080858396 -0.7911517324
C -1.1000335321 -0.0405776495 -0.0296607689
C 0.1041591652 0.038580291 -0.0684912002
C 1.5532013744 0.1202558267 -0.1308763123
H -3.7015761676 -0.40804334 4.9656897668
H -2.2312656748 0.5994741436 5.0264834746
H -3.8195526846 1.3150889197 5.4146510838
H -1.8103357258 0.1293830657 2.6556159026
H -3.2656360999 -0.8883233821 2.620566379
H -4.3121014057 0.6197671975 0.9308996187
H -2.9105400456 1.7123652999 1.0440587708
H 1.9398364035 0.9171658942 0.5125775357
H 2.0062010846 -0.8239975386 0.1908130649
H 1.8884730658 0.3149293351 -1.1552193755

