# b3lyp 6-31G(2df,p) opt Freq 

 titel

0 1
C -4.4881112942 3.134231091 0.8861011622
C -3.0088934378 3.0531103023 0.5327764797
C -2.6380668458 3.6934975125 -0.8530017474
C -2.1897340441 2.3203223664 -1.3599319052
C -1.1271497801 1.7781250493 -0.4614092248
O -0.5788965384 0.5617876047 -0.9522317362
C 0.2564647717 -0.0874158925 -0.1231824142
O 0.580020324 0.261281626 0.9770743879
C -2.5509185487 1.6881216819 -0.0035595579
H -4.7154188894 2.5408232124 1.7783989621
H -4.7852885663 4.1694303247 1.085721698
H -5.1096870926 2.7570180086 0.0660505645
H -2.4071725407 3.4191445367 1.3734952094
H -3.5243316296 4.0675483606 -1.3716584922
H -1.8760493385 4.480098122 -0.8508949462
H -2.3118414464 1.9230130474 -2.3600997378
H -0.3952921397 2.4028092548 0.0438337266
H 0.6088868 -0.9977156687 -0.6323254749
H -3.0022756835 0.7266319201 0.2118890366

