# b3lyp 6-31G(2df,p) opt Freq 

 titel

0 1
C -0.5659571931 -1.4821628894 -2.6423956686
C -1.4495561979 -1.6162953126 -1.408750494
C -2.6517518628 -0.6319874084 -1.2475700011
C -2.1058803193 -0.1600706315 0.1226866307
O -2.9695245088 -0.07468302 1.2126858158
C -1.1323168453 1.040843143 0.0620191336
C 0.0358622661 0.0527592947 -0.1019088671
O 1.2195218327 0.1946956051 -0.2249526099
C -0.8761399343 -1.1700664137 -0.015945351
H 0.317037698 -2.1248595537 -2.567897426
H -1.1186025116 -1.769408247 -3.5434046671
H -0.21163826 -0.4556504368 -2.7811661909
H -1.7954862246 -2.6507552007 -1.3276480923
H -2.7465076399 0.1472108278 -2.0102286967
H -3.6173265515 -1.1413099872 -1.1655349232
H -3.5281590513 -0.8589043804 1.2260485043
H -1.2734283415 1.7921340441 -0.7198559824
H -1.0802796267 1.5427878212 1.0343567923
H -0.6022761883 -1.9561998942 0.6893375136

