# b3lyp 6-31G(2df,p) opt Freq 

 titel

0 1
C 0.2261191654 -0.7635338474 -0.033427807
C 0.6165384829 0.6962490554 0.0958921409
O 2.038910241 0.7757052989 -0.0770425783
C 2.6071651765 1.9823052704 -0.0023156864
C 3.9122486266 2.3463590765 -0.1229145468
C 3.9336023692 3.7780823078 0.0477425716
C 5.1366791621 4.6672454426 0.0036332829
C 2.6468070951 4.1530899945 0.2553875696
O 1.8136244036 3.0527109591 0.2274393845
H 0.7263021476 -1.3673365227 0.7286233652
H -0.8552805707 -0.8710941576 0.0926962058
H 0.5013050181 -1.1525398427 -1.0175123488
H 0.1210779794 1.3127963808 -0.6633086544
H 0.3449243134 1.098550361 1.0789787236
H 4.7445761147 1.6877111803 -0.3076248202
H 5.8672760351 4.3896986655 0.7720266749
H 5.6476671378 4.6007302103 -0.9636855002
H 4.8615035455 5.7131838983 0.1656080007
H 2.1608193065 5.0973179291 0.4311164725

