# b3lyp 6-31G(2df,p) opt Freq 

 titel

0 1
C 1.4998128859 0.6720392532 0.0447660242
O 0.1163357938 0.8648415895 0.2209486444
C -0.5271045429 -0.2503162667 0.7933856916
C -1.999478681 0.0902160407 0.9332503953
C -2.398710052 1.0493292055 2.0704339948
C -3.200027085 -0.1616847098 2.6224953903
O -2.7301048662 -1.0043608338 1.5353219717
C -2.8417805592 -0.6609818497 3.9392549993
C -2.5442728224 -1.058550405 5.0340833446
H 1.7110732592 -0.1745712976 -0.6272699138
H 1.9039023995 1.5851120901 -0.3990782687
H 2.0109527896 0.4847000765 1.0022149059
H -0.4166897183 -1.1471941214 0.1605426434
H -0.1057923536 -0.4920680338 1.7835481275
H -2.4095370235 0.354031408 -0.0493242795
H -1.5727413144 1.3731217629 2.7037187525
H -3.0031224076 1.9097700265 1.7844757208
H -4.2883098424 -0.0337953874 2.5602455502
H -2.2849680495 -1.4158275377 6.0000930653

