# b3lyp 6-31G(2df,p) opt Freq 

 titel

0 1
O -0.410654668 5.5904759704 2.4720099602
C -0.7252732523 4.7725551294 1.6491625958
C 0.0774682176 3.5163366635 1.357619201
O -0.4968107439 2.8787781787 0.2470353083
C 0.0530586204 1.5986002885 -0.044675615
C 1.455197911 1.6512000596 -0.710210257
C 1.4168925604 0.59766885 -1.8468532873
C -0.0604063414 0.3572913496 -2.0422928528
C -0.7951131504 0.899481642 -1.0747072709
H -1.6453302294 4.8638639827 1.0306548857
H 1.1295372314 3.7990419001 1.1947432257
H 0.0539665997 2.873740212 2.2562943495
H 0.0787716889 1.019503536 0.8962007696
H 1.5731154847 2.6531023965 -1.1352401222
H 2.2741652108 1.4861856879 -0.0062892702
H 1.9164465279 0.9400267114 -2.7600988734
H 1.9240401774 -0.3310482169 -1.5522259195
H -0.4508555101 -0.2262704762 -2.8690007278
H -1.8725050649 0.8440042549 -0.9748328598

