# b3lyp 6-31G(2df,p) opt Freq 

 titel

0 1
C 0.7144736749 1.0814829805 1.2510568751
C -0.1132957363 1.7061620878 0.0500130402
C 0.1185004918 0.3389650956 -0.6620151911
C -0.9589098783 -0.7415421665 -0.3872886645
O -0.7086152193 -1.3846054624 -1.6535584877
C 0.4203240649 -0.5365439024 -1.9095362413
C 1.7406778642 -1.2426380484 -1.4364451695
O 1.858372869 -1.0794134484 0.0003551778
C 1.3848463919 0.2429222094 0.1342098728
H 1.3473434823 1.7412640056 1.8464239057
H 0.0659344897 0.4968203041 1.9066326836
H -1.1520900454 1.9763266877 0.2461242108
H 0.4069975288 2.5520103336 -0.4042534167
H -0.7795296201 -1.4130472121 0.4607879564
H -1.9824897974 -0.3488499393 -0.3394088355
H 0.4658951945 -0.1858483659 -2.9440716239
H 1.7195720669 -2.3109753541 -1.6572741972
H 2.6089091443 -0.7780888129 -1.9291317884
H 2.1233601034 0.921757028 -0.3319227165

