# b3lyp 6-31G(2df,p) opt Freq 

 titel

0 1
C -0.0935147776 -0.3234272413 0.1164507107
C 1.2218325445 0.4109238299 0.2459959384
O 2.0643468881 -0.1956078013 1.2077783143
C 1.4596110637 1.9144917001 0.1802929486
C 2.0923903883 0.9681831106 -0.8493766892
C 1.4694176522 1.5882445032 -2.1148027576
C 1.7337317089 3.1060713263 -1.901624481
C 0.6726989381 2.8000637602 -0.8064454579
O 0.0814594382 1.8451900174 -1.7407932614
H -0.6299515987 -0.2898395105 1.0745788879
H -0.7306634458 0.1079031397 -0.6503046875
H 0.1026201385 -1.3754771 -0.1159630789
H 1.5741035399 -0.2278802328 2.0368858292
H 2.0386315159 2.3744590992 0.9723499256
H 3.1455829463 0.714532102 -0.8393780188
H 1.5842639937 1.0834385709 -3.0736506959
H 2.7310455073 3.4339960122 -1.5975662217
H 1.3289163133 3.713734726 -2.7128659783
H -0.030963315 3.5393735081 -0.4243249766

