# b3lyp 6-31G(2df,p) opt Freq 

 titel

0 1
O 2.5500900506 1.2363419113 -1.8349865254
C 3.6225154436 0.725527819 -1.0783023322
C 3.4438124704 0.7558408647 0.446328818
C 4.6240598702 0.0974033367 1.1059925023
C 3.5540141493 -0.7714469512 0.5138605543
C 3.7365787655 -0.8521176118 -1.0082208652
C 2.6553260421 -1.574877537 -1.7706985465
C 1.2956042414 -1.814697985 -1.2561664744
O 2.2674209623 -2.8595974859 -1.2741256623
H 1.7360723478 0.8393271501 -1.5066074562
H 4.5115848018 1.2396519327 -1.4567443395
H 2.7881801757 1.4396330013 0.9737047796
H 5.6087177306 0.1487763926 0.6450531452
H 4.6397482779 0.1493192928 2.1898824059
H 3.0021242053 -1.4874054774 1.1100947491
H 4.7057555727 -1.2571893606 -1.3257271542
H 2.7673017507 -1.5405976402 -2.8547930258
H 1.0131668508 -1.4606134636 -0.265742993
H 0.4706218313 -1.9316639683 -1.9579584598

