# b3lyp 6-31G(2df,p) opt Freq 

 titel

0 1
C 1.8617407982 0.2660678637 1.8016113725
C 0.6075917785 -0.3683124055 2.5062533231
C 0.2647254968 -1.0441533844 1.1617476299
C -0.9977199683 -1.2561548348 0.3393961427
O -0.4110027153 -1.6758531402 -0.9287116724
C 0.98227066 -1.8895823018 -0.6995732382
C 1.0349907542 -2.3279758494 0.7594398719
O 1.7047142955 -0.651698548 -0.6853672161
C 1.1354994501 0.0050443261 0.4479537298
H 2.0980141866 1.3038828224 2.0425274185
H 2.7606675078 -0.3407270334 1.9222506335
H 0.7788865041 -1.0179075923 3.3666991011
H -0.1224417842 0.3972804867 2.7836674505
H -1.6715500179 -2.0386049409 0.7130181077
H -1.5700123447 -0.3373694835 0.1725181185
H 1.3780173005 -2.5141191158 -1.4978297272
H 0.4795175856 -3.2452250792 0.969564443
H 2.0512364127 -2.4011479833 1.1451002868
H 0.5810427398 0.8919612737 0.1211435342

