# b3lyp 6-31G(2df,p) opt Freq 

 titel

0 1
C 1.4351474248 -0.2293662967 0.0841775268
O 0.0204174818 -0.2289781387 0.2446660648
C -0.449061105 0.6130432257 1.264952147
C -0.1009343382 2.092137304 1.1502649275
C -0.6002661989 2.7126719256 -0.0729530778
C -1.0100728689 3.2114477785 -1.0863232739
C -1.8003997187 0.1966611099 1.7893984871
C -0.5567500614 -0.0578499088 2.6168125279
O -0.0589465495 -1.3506261932 2.7703846447
H 1.9501206592 -0.4088474038 1.0365098631
H 1.6671613331 -1.0408276594 -0.6093378417
H 1.793230088 0.7118221162 -0.3512055368
H -0.518519694 2.6061267427 2.0243451074
H 0.985737121 2.2301955262 1.216904019
H -1.3757355594 3.6527464823 -1.9801210013
H -2.4977350622 0.9697294037 2.093964854
H -2.2530702536 -0.6651864802 1.3104411778
H -0.3988055226 0.5256095778 3.5184294212
H -0.0235211256 -1.7327180618 1.8837978731

