# b3lyp 6-31G(2df,p) opt Freq 

 titel

0 1
O 1.6334625644 0.1743758699 0.016605571
C 0.2423239924 0.4346058656 -0.1270756205
C -0.1411284306 0.7189031752 -1.559104643
C -0.1332945783 -0.4395319462 -2.5794980673
O -1.483152981 -0.1129225289 -3.0127159713
C -1.5967740723 0.933602309 -2.0186662127
C -1.2713151099 2.3713330246 -2.4769448581
C -0.1908258954 2.3598060516 -3.5170044116
C 0.1996691649 2.1427286631 -2.0830162532
H 2.1113626457 0.9639151778 -0.2574871148
H -0.2637465652 -0.4708111337 0.2250653154
H -0.0808588799 1.2658944736 0.5205748347
H 0.590262483 -0.3908198296 -3.40040148
H -0.0937515974 -1.4347904787 -2.1200224582
H -2.4643125631 0.8110882543 -1.3646833126
H -1.9036878046 3.2343641588 -2.3074807805
H -0.1555147434 1.5592224528 -4.2473524331
H 0.0700541893 3.3363373644 -3.9121435137
H 0.8722122015 2.8261367263 -1.5749133304

