# b3lyp 6-31G(2df,p) opt Freq 

 titel

0 1
C -2.2488644299 3.0771671391 -0.7714408426
O -2.6463679006 2.4555328703 0.4395490641
C -3.3311594853 1.2720450701 0.235847916
C -3.3073587265 0.2736857874 1.3478784351
C -2.5785886089 -0.0323910888 0.036029975
O -3.2172550536 -0.9091112288 -0.8573483372
C -1.1410987828 -0.0504926455 0.0242342712
C 0.0623354578 -0.1164594273 -0.0049049849
C 1.5158489375 -0.1797233593 -0.0405166446
H -1.5659492304 2.4369325715 -1.3435627121
H -3.1186787335 3.3206238402 -1.3996609999
H -1.7366697893 4.002841759 -0.4999378558
H -4.2448978626 1.3508993109 -0.3563339699
H -2.6932879013 0.5146240089 2.2075723537
H -4.2120633046 -0.2901735855 1.5444493486
H -2.9915157556 -1.8083883964 -0.5928009733
H 1.902239872 -0.9777731206 0.6034443423
H 1.8808949472 -0.3655806067 -1.0567764924
H 1.9570725005 0.7633268316 0.3008400966

