# b3lyp 6-31G(2df,p) opt Freq 

 titel

0 1
O 0.5222477459 -1.0143484285 0.1057774821
C 0.5499902892 0.1690868148 -0.1095691413
C -0.1858539979 0.8665395957 -1.231112094
C -1.1363798758 1.9557353088 -0.6988256242
C -1.7978098406 2.746163692 -1.8079421082
C -2.2824979417 4.1379462136 -1.5942317005
C -1.0396428136 3.9072261008 -2.4477368674
C -1.142800344 4.0944100439 -3.9105400996
O -0.2541121674 4.4895440666 -4.622993267
H 1.1434135613 0.8552147584 0.5412219079
H 0.564382482 1.3372421517 -1.8823187341
H -0.7239806735 0.1157818838 -1.8169520239
H -1.9099745333 1.4903470039 -0.0753760766
H -0.5827379203 2.6414087035 -0.0445280324
H -2.3814851185 2.1451847289 -2.5023358248
H -3.1871488453 4.4565861976 -2.1017601614
H -2.1201730501 4.6053175716 -0.6292009865
H -0.0780812296 4.1753887596 -2.0223513447
H -2.1445586068 3.8294824032 -4.3290794134

