# b3lyp 6-31G(2df,p) opt Freq 

 titel

0 1
C -0.6764514837 1.2763199527 0.9883766309
C 0.5269052079 2.077951588 1.5568349813
C 1.7719484702 1.3355989985 1.0523779748
O 2.1077296938 1.7641803031 -0.2939994604
C 1.7201253171 0.6903782083 -1.1352917707
C 2.1877593367 -0.5513294351 -0.3743818156
C 1.3416110716 -0.138201972 0.8341786623
C -0.0459657297 0.1246307083 0.19353437
O 0.3075843101 0.5650945563 -1.1444364933
H -1.2993216885 0.8749820345 1.7945143416
H -1.3224201283 1.8701690787 0.3383993449
H 0.549775127 3.1172961296 1.2227032193
H 0.5151867643 2.0838642079 2.6516961953
H 2.652181078 1.4760312201 1.6872809698
H 2.0690885491 0.8845999589 -2.1477978705
H 1.8722589405 -1.4857955319 -0.8427220398
H 3.2631295588 -0.5593156375 -0.1856397042
H 1.3424893331 -0.769185473 1.7220041588
H -0.6939598881 -0.7529496853 0.1064104354

