# b3lyp 6-31G(2df,p) opt Freq 

 titel

0 1
C -0.4028217396 -1.7281600555 -0.5499961714
C 1.1022553742 -1.9467208114 -0.7390169464
C 1.8733727896 -0.6508674999 -0.9814618835
C 1.6690040244 0.0134246612 -2.3640957657
O 2.0670969715 -1.0512845475 -3.281513915
C 3.3928767384 -0.8021409769 -2.8198753825
C 3.1228298321 0.6716325538 -2.51907568
O 3.7903284428 0.6407784668 -1.2603358406
C 3.3968879677 -0.7653084956 -1.2167162791
H -0.6051433501 -1.0445517932 0.2822662337
H -0.8608230941 -1.3021820422 -1.4487738706
H -0.912938987 -2.6723541056 -0.3366612855
H 1.5138440922 -2.4313240018 0.1556833425
H 1.2750918513 -2.6297984879 -1.5760110746
H 1.7097155225 0.0636739423 -0.1681221079
H 0.7313721376 0.4959214461 -2.6311193843
H 4.2019820848 -1.2525213627 -3.3910722045
H 3.2977398928 1.543955912 -3.1456199273
H 4.0186685189 -1.382557782 -0.5709748873

