# b3lyp 6-31G(2df,p) opt Freq 

 titel

0 1
C 0.7079733786 -0.3823731886 -0.7541420629
C 0.8465576746 0.1377590292 0.6713915446
C 1.6307582457 1.4481857225 0.7756008036
O 1.3552573435 2.6395315066 0.1373389291
C 2.3105345632 1.4785107372 2.1388045709
C 1.9550223397 0.1787308082 2.8600043727
C 2.0390022256 -0.4776677036 1.4559423055
O 2.2560806459 -1.8303913703 1.2699556369
C 2.9574056273 0.7462622579 0.9741962797
H 0.3530883046 -1.4163418027 -0.7593137754
H -0.0081853933 0.222437055 -1.3216538033
H 1.6698615764 -0.3594460734 -1.2787552981
H -0.1195826468 0.0979357856 1.1916641159
H 1.4437552272 2.4988185334 -0.8118505928
H 2.6256955682 2.4213361907 2.565603879
H 2.7783114098 -0.1458887925 3.5070040602
H 1.0042589213 0.0990337057 3.3998722854
H 3.0064085066 -2.0972423669 1.8114370198
H 3.9306422019 0.8412944259 0.5152008391

