# b3lyp 6-31G(2df,p) opt Freq 

 titel

0 1
C -0.0702799643 0.1857617069 -0.0670048978
C 1.4176727097 -0.0186381427 -0.0606552408
C 2.3148747514 0.3642348294 1.0789079039
C 2.5750354019 0.9813424588 -0.2687990487
C 3.2772803541 0.0136038058 -1.2415270568
O 3.5552038215 0.6318893583 -2.4554574272
C 4.2308819325 -1.0639430648 -0.6693907074
O 3.1065600289 -1.9254351197 -0.3550260712
C 2.1597964258 -1.0223755672 -0.9832907676
H -0.341108952 1.1067857005 0.4597416671
H -0.4637847488 0.2591663713 -1.0872785373
H -0.5866047345 -0.6444206931 0.4303826097
H 1.8654339767 1.0410528854 1.7994686728
H 2.9901076261 -0.3636779186 1.5153611588
H 2.5417563403 2.0509337514 -0.4386482384
H 3.8274227894 -0.0425467693 -3.0876592771
H 4.8806289468 -1.5171269267 -1.4327095574
H 4.8313266502 -0.8132688788 0.212047392
H 1.5636448844 -1.4961581969 -1.7682168466

