# b3lyp 6-31G(2df,p) opt Freq 

 titel

0 1
O 0.4758124569 0.6011848552 0.8078525722
C -0.856983143 0.6071589223 0.44574138
C -1.9870380851 -0.0745889952 1.1725010248
C -2.8557623154 -1.1208999528 0.4893315039
C -3.1621579577 -0.8177156401 -0.9927165212
C -1.9661282749 -0.2164538075 -1.7522156755
C -1.3837535784 0.949237278 -0.9614275197
O -2.4418572448 1.7809568131 -0.3788623975
C -2.0077459074 1.4334874508 0.9349185415
H 0.7692037757 -0.3136288992 0.8776312003
H -1.7317305361 -0.2880101197 2.2100797309
H -2.3298977324 -2.0833150417 0.5635104418
H -3.797032249 -1.2480942907 1.0369663993
H -3.5006343148 -1.7333367932 -1.4885847059
H -3.9845443128 -0.1003671476 -1.0469566881
H -1.1705691425 -0.9587950952 -1.906579619
H -2.2882223467 0.1130364529 -2.7461731671
H -0.6900817101 1.5703395704 -1.5364558984
H -2.1136656013 2.1726836101 1.7200386675

