# b3lyp 6-31G(2df,p) opt Freq 

 titel

0 1
C 0.4174644477 0.583021046 0.0464607712
C 0.8760440077 -0.8483246363 -0.1282906
O 1.9623089367 -0.9468292426 -1.1116955535
C 2.825952486 -1.4635355333 -0.0954141032
C 2.363252965 -2.7634699582 0.4694464611
C 1.7601342848 -1.4660136093 0.9783442255
C 2.3988542341 -0.8047796596 2.1746212566
O 3.8153390757 -0.7942817903 1.89075392
C 4.0197538128 -0.7368661615 0.4722264031
H -0.3582839684 0.6455651627 0.8176754314
H 1.2455328495 1.2389763323 0.3277920366
H -0.0019797053 0.9507626206 -0.8945318714
H 0.0358531338 -1.4841697832 -0.434830588
H 1.7622957505 -3.4162741518 -0.154886566
H 3.0426933477 -3.260404579 1.1536930449
H 2.0145811024 0.2166540931 2.3074637241
H 2.2859670746 -1.3399945178 3.1222168956
H 4.0257313738 0.2951542837 0.0897790658
H 4.9957489409 -1.1923920155 0.2810256063

