# b3lyp 6-31G(2df,p) opt Freq 

 titel

0 1
O 6.6932234988 2.2349414791 1.535828862
C 5.2814930915 2.2959660806 1.659333755
C 4.7113144877 1.1127756472 0.8841299893
C 3.1693585073 1.0754142573 0.9678929378
C 2.5349037094 0.0962544042 -0.041367333
C 1.0826100426 0.0497631 0.0718278807
C -0.1136951493 0.0330059487 0.1872791195
C 5.2740095592 -0.1858515298 1.4391174847
O 5.5311390125 -1.159899308 0.7810591588
H 7.0813121787 2.9273853785 2.078852215
H 4.967686425 2.2312857867 2.7148489099
H 4.876353187 3.2353936603 1.2540308279
H 5.0222984851 1.1848248753 -0.1640580988
H 2.8548820204 0.802813041 1.9829051954
H 2.7765998246 2.0817304666 0.7849206899
H 2.8152444614 0.3956369341 -1.059378218
H 2.9531923079 -0.9070157144 0.1002286877
H -1.1711494117 0.0045938095 0.277110576
H 5.3889066519 -0.195253527 2.5492084504

