# b3lyp 6-31G(2df,p) opt Freq 

 titel

0 1
C 5.6647618898 -2.720469515 2.438972986
C 4.5087328653 -2.8018797905 1.5003206209
O 4.7530027426 -3.0980446449 0.1140633732
C 3.8071308352 -3.9012105911 0.8408541643
C 2.4459305804 -3.1434241999 0.930088156
C 2.5136234003 -1.7832792818 0.2699559321
C 1.2345672415 -0.9767515545 0.2377039485
O 0.4313163328 -1.2793917664 -0.8922711306
C 3.1692343218 -1.9883261254 1.6095086049
H 6.3757532725 -3.5261296562 2.2384474613
H 6.1876368257 -1.7634506009 2.3287237892
H 5.3252646723 -2.7994100396 3.477015943
H 3.9641319838 -4.9737147086 0.8478929608
H 1.5182964154 -3.6123483146 1.2343308286
H 3.1442693557 -1.6700579073 -0.604108412
H 0.6748326805 -1.1176943855 1.1777136841
H 1.4669899471 0.0905020286 0.1568157994
H 0.3079256697 -2.2342913677 -0.9076189692
H 2.8712269078 -1.4522540789 2.5019666796

