# b3lyp 6-31G(2df,p) opt Freq 

 titel

0 1
C -0.56535188 -1.3705636781 -2.5561538469
C -1.5292164986 -1.3180548325 -1.3812133605
O -2.3362912426 -0.1189718353 -1.4385429025
C -2.2584723054 0.4987650114 -0.1446821132
C -2.1242128322 -0.6977254872 0.8138968444
C -0.9110948681 -1.2696657095 0.0439163561
C 0.0369197792 -0.0652796964 0.069381264
O 1.2367326121 -0.0764512495 0.1456563437
C -0.8802515915 1.1719208786 -0.0253244527
H -0.0040003485 -2.310523251 -2.5454044653
H -1.1236813429 -1.315114983 -3.494709582
H 0.1501061424 -0.5441882789 -2.5328546435
H -2.202008471 -2.1871039437 -1.4312047119
H -3.121203563 1.1526308038 -0.0190252125
H -1.8994199446 -0.4123261931 1.8448894674
H -2.9958052123 -1.3560206762 0.7960199046
H -0.460572525 -2.2034054683 0.3753353214
H -0.7829462958 1.7832514857 0.8792654625
H -0.6252927925 1.7910337434 -0.8887246831

