# b3lyp 6-31G(2df,p) opt Freq 

 titel

0 1
C 0.1071084764 -0.3845429233 -0.2852145104
C 0.9910846663 0.3929212484 0.6549517309
O 2.1649803801 -0.2823417692 1.1469099695
C 2.3356882846 0.848943432 0.3014232548
C 3.0610166424 2.1443204096 0.7257877818
C 3.7905511583 2.0966846816 -0.6289874794
O 3.9998799483 3.2006837369 -1.4332355459
C 4.551390669 0.8142138963 -0.7827355675
C 3.0505394584 0.8205488914 -1.0277627082
H -0.4787289425 -1.1273226658 0.2663291356
H -0.5941908512 0.2849286632 -0.7953471955
H 0.7015648876 -0.90963349 -1.036871614
H 0.4622776523 0.9601652458 1.4245988352
H 2.3817401059 2.9978148079 0.7972804688
H 3.6778773689 2.085002627 1.6280597577
H 4.8590659359 3.5771425146 -1.212976237
H 5.1406456038 0.752197703 -1.6922161318
H 4.9684396365 0.2891664246 0.0729467394
H 2.6322545291 0.5355291261 -1.984932484

