# b3lyp 6-31G(2df,p) opt Freq 

 titel

0 1
C -1.648208676 -4.7240364176 -1.7679882219
C -0.7799159761 -3.48798025 -1.5244878006
C -1.5910968405 -2.2628983196 -1.0118310415
C -2.5261549617 -1.7793218895 -2.1244740434
O -3.7145003878 -1.9528919617 -2.1360033922
C -0.7156299431 -1.1662210902 -0.6151290577
C -0.0031637214 -0.2327586647 -0.3416307064
C 0.8993459532 0.8570394534 0.0310282125
O 2.2632502971 0.5921320782 -0.2640439674
H -2.1342773761 -5.0526696742 -0.8434326983
H -2.4362435909 -4.5300146235 -2.5016995051
H -1.0386581179 -5.5526231418 -2.1397497235
H -0.0052042565 -3.706320015 -0.7827193346
H -0.2528957706 -3.1984948192 -2.4417281699
H -2.2245679954 -2.5771736748 -0.1739483074
H -1.997498612 -1.2593628136 -2.9546996097
H 0.644579416 1.7625736441 -0.5306327471
H 0.7569149108 1.0963271513 1.0970057372
H 2.4904045088 -0.2470477716 0.1498653168

