# b3lyp 6-31G(2df,p) opt Freq 

 titel

0 1
C 1.7414064869 0.8072955192 -2.9664690986
C 0.9206245528 -0.408783808 -2.6093284861
C 0.4156342024 -1.3371269598 -3.6911375807
C -0.5650911936 -0.5379431178 -2.8706281111
C -1.1471269254 -1.263332283 -1.6764397154
O -0.0348857888 -1.9001522054 -1.0362998734
C 1.1374841594 -1.1291913868 -1.2703411099
C 1.3835830162 -0.1758639049 -0.1026811409
O 2.4055430661 0.4365423844 0.0683907978
H 1.6327101613 1.6102212092 -2.2323732077
H 2.8070363356 0.5618418395 -3.0230412148
H 1.4349134597 1.1952784915 -3.9424204899
H 0.583970716 -1.0246665022 -4.7160825913
H 0.4641731125 -2.4093049794 -3.5270063138
H -1.130800588 0.2680437509 -3.3232494761
H -1.64175823 -0.5518257349 -0.9968035074
H -1.8632105147 -2.0526805021 -1.9279076374
H 1.9870364503 -1.8233149186 -1.3086213295
H 0.5284293812 -0.1124708819 0.6092167963

