# b3lyp 6-31G(2df,p) opt Freq 

 titel

0 1
O -0.2254136938 1.3584294924 0.1248589852
C -0.0085597889 -0.0168621952 -0.0773302283
C 0.1762619608 -0.3453982498 -1.5959388066
C -1.3115152229 -0.6387242805 -1.6228668599
C -2.3795519829 -0.3960682774 -2.3684325464
C -3.6977560122 -0.3843947937 -1.623923166
C -3.4901361318 0.3454991087 -0.2833230071
O -2.4813182639 -0.2454978162 0.5464953872
C -1.3695900186 -0.7995767874 -0.1294433198
H -0.9541981629 1.419233247 0.7567612068
H 0.7581082995 -0.4090082013 0.6034133085
H 0.5359231108 0.4783452844 -2.2156630443
H 0.8125789576 -1.2229907927 -1.7494357856
H -2.3277282555 -0.0948628332 -3.4101378947
H -4.4705247908 0.1438303665 -2.1917483459
H -4.077107275 -1.3974991743 -1.43775769
H -3.2316252442 1.392308371 -0.4950464057
H -4.4021915813 0.3295804122 0.3212340518
H -1.2426772942 -1.8349259003 0.2129278408

