# b3lyp 6-31G(2df,p) opt Freq 

 titel

0 1
C -1.4510721442 -2.4126579059 1.4057432239
C -0.5735868671 -2.2494559965 0.1819604506
C -0.4120443161 -3.3855611284 -0.7365711936
O 0.6240946597 -3.0444330144 0.1900205041
C -0.4283294675 -0.827537393 -0.3241852613
C 0.706349837 -0.5644853051 -1.3785869253
C 1.3391594313 0.4238905159 -0.3922626917
O 0.3552880814 1.4145740048 -0.0670013082
C 0.3058090265 0.1586824203 0.6166173665
H -1.4953876001 -3.4611818487 1.7092842444
H -1.06363532 -1.8322660571 2.2491788386
H -2.4687574053 -2.0640123357 1.2000657205
H -0.931678635 -4.3202072259 -0.5295970186
H -0.17710652 -3.2110116986 -1.7854219284
H -1.4161932761 -0.451788998 -0.6112284789
H 1.3301989155 -1.4497295302 -1.5162652208
H 0.4059419956 -0.150478066 -2.343599732
H 2.3795607275 0.7064522129 -0.2842860542
H 0.345719287 0.1784413697 1.6996045844

