# b3lyp 6-31G(2df,p) opt Freq 

 titel

0 1
O 1.484763022 0.9415832699 -0.202568792
C 0.196946802 0.4820227138 0.1748063741
C -0.8187539562 1.160188992 -0.7411197022
C -2.2405233946 0.7954887784 -0.4076692616
O -3.2046083221 0.9320600629 -1.4842378045
C -2.9848537668 -0.3686206265 -0.9336025686
C -4.0189546244 -0.7940334039 0.1018993363
C -3.8463322687 0.2420525114 1.1957962851
C -2.8573435977 1.0972279232 0.9267957687
H 2.1334158027 0.5259191648 0.3727201927
H 0.114222308 -0.6120444698 0.0733028611
H -0.0232862469 0.7267045448 1.2262166013
H -0.685727426 2.2464620114 -0.6641064711
H -0.6126123774 0.8875692017 -1.780142267
H -2.5484440097 -1.0949156367 -1.6151845609
H -5.0340677246 -0.7912016371 -0.3134931685
H -3.825607402 -1.8118417924 0.4649001721
H -4.4951003376 0.2835608673 2.0635504348
H -2.5436535401 1.9275437448 1.5484398101

