# b3lyp 6-31G(2df,p) opt Freq 

 titel

0 1
C -1.755398986 2.9692548994 -1.2943536774
C -1.4383412171 1.4806005352 -1.2382721377
C -2.6769988762 0.5963945358 -1.4187290504
C -2.3455234054 -0.7825914258 -1.9891521837
C -1.1940989851 -1.5039046276 -1.3595650718
C -0.3504341343 -1.1195522809 -0.3956938134
C -0.2890352299 0.1045273823 0.4485849892
O 0.2768200077 0.0702646067 1.514042747
O -0.8440793164 1.2749072406 0.0571581743
H -2.5178880146 3.2263618056 -0.5526808231
H -0.8595189476 3.5575826757 -1.0824680027
H -2.1279941365 3.2405150658 -2.2863895344
H -0.6911235269 1.236265054 -2.0057062179
H -3.1688791448 0.5099616152 -0.4433640993
H -3.3877621193 1.0932573384 -2.087348184
H -3.2301986007 -1.4323933736 -1.9428207087
H -2.1248318709 -0.6929183366 -3.0639922243
H -1.0300821817 -2.5021599164 -1.7642702343
H 0.4016907956 -1.8282264336 -0.0632993474

