# b3lyp 6-31G(2df,p) opt Freq 

 titel

0 1
C -0.1998952104 1.1528216903 -0.7132970465
O 0.1911628939 -0.2589277535 -0.6801675634
C 1.1837910866 0.0936328602 0.3228104641
C 2.7026002542 -0.0412545063 0.3518801157
C 2.967920569 1.1573641638 1.3448057466
C 1.8710291933 2.2586337455 0.9726615104
C 1.2072938326 1.5227072719 -0.1908962087
C 2.2488391516 1.4003923624 -1.3369304896
O 3.1453267611 0.3473257652 -0.9362713717
H -0.486643003 1.473340691 -1.7185197603
H -1.0146315952 1.3506051831 -0.0048234997
H 0.7497283224 -0.0279092807 1.3241034728
H 3.1837025843 -0.9797972962 0.6273832644
H 2.8827036841 0.8481333215 2.3901854654
H 3.9849881606 1.5187493511 1.1816100673
H 1.1857580805 2.4252871447 1.8079979138
H 2.3261631247 3.2165447293 0.7078690525
H 1.7961635853 1.1277668118 -2.294733668
H 2.8079717346 2.336059975 -1.4651283251

