# b3lyp 6-31G(2df,p) opt Freq 

 titel

0 1
C 0.9679379953 -0.2607500886 1.1666967599
C 0.7882501629 0.3269479293 -0.2401332955
C 1.4024135265 -0.5294061996 -1.3023213913
C 0.9398934289 -1.9156882744 -1.8151890723
C 1.5992879743 -1.5521960398 -3.1661055201
C 2.1648131422 -2.3610870292 -4.240944883
O 0.9065807544 -1.6747432926 -4.3921469082
C 2.0299039344 -0.2076065548 -2.6011066461
O 2.8338847253 -0.5160394685 -1.4485343185
H 0.4949468413 -1.2448176131 1.2500720443
H 2.0295070469 -0.3763462264 1.4043019092
H 0.5181484372 0.3910424234 1.9210268798
H -0.279012519 0.4525005939 -0.4609174991
H 1.2462664876 1.3208621166 -0.2922546802
H 1.3335008878 -2.7773255229 -1.2716602778
H -0.1447542432 -1.9996727133 -1.9265365696
H 2.9836986929 -1.9713591267 -4.8435855817
H 2.0952225525 -3.4466339992 -4.1933182191
H 2.2009322417 0.7345060262 -3.1097902705

