# b3lyp 6-31G(2df,p) opt Freq 

 titel

0 1
C -3.5491154099 2.3050806582 3.6987210248
C -2.6173245534 1.7277444228 2.6628783429
O -1.1976025851 1.8862977318 2.9794523944
C -1.7377750875 2.5983655276 1.8564846963
C -1.29604072 2.1364325035 0.4884058414
C -1.1347215396 0.6052013374 0.4188243075
O 0.0803839951 0.18883799 1.0380361007
C -2.3227928835 -0.1031269407 1.0342581155
C -2.9849274871 0.4106390437 2.0724716921
H -3.6521942298 1.6214127889 4.5483386357
H -3.1704529712 3.2595325352 4.0712451827
H -4.5458839957 2.4646446878 3.2736383923
H -1.8025305108 3.6769734222 2.0078228972
H -2.0387284624 2.4741495286 -0.245990243
H -0.3369895041 2.5931964184 0.2212908474
H -1.0337243118 0.3081360443 -0.6297955996
H 0.0031999845 0.4716878178 1.9604681243
H -2.5860935218 -1.0807837322 0.6418979329
H -3.8137324758 -0.1223489453 2.5305509043

