# b3lyp 6-31G(2df,p) opt Freq 

 titel

0 1
O 0.4198065159 0.2890836562 0.0250934191
C -0.7424811613 -0.1967604615 0.6392246489
C -1.0866484487 0.2577552589 2.0727616561
O -2.4126804281 0.6423455292 1.6662663762
C -2.1242908287 0.4093384051 0.2695057467
C -3.1606775931 -0.3782090635 -0.5829010076
C -3.2028342692 0.7969908936 -1.5663639333
C -3.6293817855 2.0388406693 -0.8432393731
C -2.20157249 1.5783593067 -0.7075026488
H 0.4683553021 1.2394290713 0.1754726184
H -0.7146773725 -1.2823452608 0.516971515
H -1.0948130913 -0.505752438 2.8586962384
H -0.4872409908 1.1146805036 2.4150595394
H -2.7312002677 -1.2943317633 -0.9977069199
H -4.1004719776 -0.6185496638 -0.0760314652
H -3.2299687661 0.7138689233 -2.6450015505
H -3.7648650027 2.9223697789 -1.4586162202
H -4.3020679785 1.9765885757 0.0081857544
H -1.3704259162 2.197141629 -1.0251242043

