# b3lyp 6-31G(2df,p) opt Freq 

 titel

0 1
C 1.4056388171 0.2247386079 -0.1517635844
O 0.0009060597 0.3279259419 0.0067361079
C -0.3903157837 0.6534111075 1.3140874873
O 0.007608312 1.9531711345 1.6868672135
C -1.0347538423 2.8524191066 1.3091079086
C -2.3190753396 2.1067796604 1.676855682
C -1.9519218145 0.6360156852 1.3351037652
C -2.5173763325 -0.3463302653 2.245526521
C -2.9816196912 -1.1519166881 3.0074979821
H 1.822162564 -0.5588947925 0.4988006397
H 1.5899480857 -0.0437813592 -1.1940875664
H 1.9062365159 1.1727539383 0.0758834808
H 0.0712753562 -0.0351586834 2.033115275
H -0.8881915643 3.7838466835 1.8602732756
H -0.9897741579 3.0674224126 0.2320428901
H -2.5183367279 2.2012592061 2.7469431339
H -3.1968732505 2.4539665337 1.1279979095
H -2.2641645329 0.4028519513 0.3122136035
H -3.3943461732 -1.8664445315 3.6756097752

