# b3lyp 6-31G(2df,p) opt Freq 

 titel

0 1
C 0.5782007545 1.3967612363 -0.9016690748
C 0.3510551605 0.3413052976 0.1586181159
C 1.5002033734 -0.0486358498 1.0664574673
O 2.610216741 -0.3143498106 0.2032549799
C 2.1586760774 -0.6275394984 -1.0913140139
O 2.0037602042 -2.0175486521 -1.3488397525
C 0.6470028528 -2.3227127361 -1.6895463011
C 0.0041144812 -0.9951395332 -2.1352398354
C 0.7622693909 -0.0473621232 -1.2432065261
H -0.3016272228 1.9044147923 -1.2829329445
H 1.4655013189 2.0207443373 -0.8369772366
H -0.6619456713 0.1643725117 0.5019671679
H 1.8161725753 0.7332911676 1.7657520429
H 1.2338892152 -0.9428350165 1.6483450631
H 2.9299513857 -0.2478633606 -1.7714001121
H 0.6581319041 -3.0873598515 -2.4716197139
H 0.1190962783 -2.7323289899 -0.8158358407
H 0.2049979008 -0.7991684285 -3.1949560222
H -1.0778545101 -0.9779874524 -1.9826708233

