# b3lyp 6-31G(2df,p) opt Freq 

 titel

0 1
C 1.383841254 1.238715519 -0.1964397075
C 1.0151039305 -0.246798277 -0.0969813564
C 1.6612312847 -1.0985478578 -1.2211892728
O 2.8929850297 -1.614648989 -0.6992501377
C 2.7760489081 -1.6705382113 0.6877612423
C 1.5549218078 -2.4009019562 1.2746150251
C 1.7082701155 -3.0001889657 2.6132791062
O 1.2069878151 -4.0392309909 2.968873971
C 1.6194565355 -0.8711801179 1.1573148033
H 0.9890419464 1.8037477662 0.6538594968
H 2.4709371889 1.3694685668 -0.2147067048
H 0.9749464392 1.6803169122 -1.1105927968
H -0.0739782518 -0.3569549683 -0.1252839344
H 1.0062318897 -1.9290370774 -1.5136598671
H 1.8981046762 -0.5194469262 -2.1177162389
H 3.7348025404 -1.73716649 1.1876103794
H 0.9140939157 -2.9564432555 0.5986804417
H 2.3540374727 -2.4089591891 3.3075050621
H 1.6489628116 -0.2888023019 2.0718086785

