# b3lyp 6-31G(2df,p) opt Freq 

 titel

0 1
O 1.4637848449 -1.0154426991 4.7594321893
C 1.0514075391 0.2697986694 4.3048759019
C -0.4817456047 0.4668210135 4.4550263925
C -1.0162358578 0.1041268649 3.0940976551
C -0.0459820143 -0.002807726 2.1819702524
C 1.3101288165 0.2975956283 2.7842498006
C -0.2431574414 -0.3169455688 0.7558738327
C 0.733996779 -1.081347028 -0.042786227
O 0.6362251006 0.3315856418 -0.1831556895
H 1.2538277944 -1.0789997154 5.696610138
H 1.6146710716 1.0537629882 4.8292758168
H -0.8814276222 -0.1612756641 5.2616064876
H -0.7317081416 1.5051994604 4.7156227428
H -2.0737855442 -0.0277279256 2.8908675061
H 2.0822664896 -0.4353800429 2.5314842344
H 1.6723417591 1.2757115504 2.447252747
H -1.2828774031 -0.355212017 0.4294510793
H 1.6476037413 -1.4461708894 0.4227233364
H 0.3797638932 -1.6653716708 -0.8917529262

