# b3lyp 6-31G(2df,p) opt Freq 

 titel

0 1
C -0.0955844748 0.3464631423 -0.0748984198
C 1.409597541 0.0299672895 0.0611253055
C 2.225492408 1.3594194162 0.0515841865
C 2.6092314126 1.4980868227 -1.4049470697
C 2.4323967939 0.3652677154 -2.0806779607
C 1.9478743621 -0.7443842929 -1.1839104599
O 1.0019429999 -1.579260259 -1.8263334259
C 1.5760828924 -0.7687537967 1.332984684
O 1.7752240234 -1.95926782 1.3674751891
H -0.4627575821 0.8617960909 0.8192208096
H -0.2591403231 0.9964300909 -0.9386680417
H -0.6791694177 -0.5635566923 -0.2236499288
H 1.6451720988 2.2091886406 0.4292102261
H 3.123002499 1.2913370176 0.6833831017
H 3.016338481 2.4176156794 -1.8099515819
H 2.6585896206 0.1933611359 -3.1261216043
H 2.8069920724 -1.3566339962 -0.8673781294
H 0.9243469604 -2.373434132 -1.2861833501
H 1.4641651622 -0.1856498621 2.2768327396

