# b3lyp 6-31G(2df,p) opt Freq 

 titel

0 1
C 0.6720682214 2.0540903663 -0.5157083167
C -0.3097007166 1.1754242454 0.2622016359
O -1.6194667483 1.3277151483 -0.2773301268
C -2.206682298 0.0548976223 -0.5366650806
C -1.1129157899 -0.943199637 -0.2592541339
C -1.3049233499 -2.374794732 -0.4671758376
O -2.3408044424 -2.8558842704 -0.8782815138
C -0.0223262286 -0.3089053705 0.2040169788
C 1.2912423228 -0.863757726 0.646446444
H 1.6673118083 2.0325889371 -0.0604994292
H 0.7474725498 1.7202420516 -1.5548591311
H 0.3162294789 3.0875080554 -0.5103017856
H -0.3061766917 1.5024400945 1.3189776548
H -3.0800145721 -0.1102660011 0.1117819176
H -2.5624063311 0.0132884343 -1.574313406
H -0.4353129074 -3.0226473658 -0.2258898297
H 1.5160266084 -0.5414701299 1.6708282056
H 1.320382188 -1.9540731909 0.6186973984
H 2.1046287786 -0.4854444717 0.0159978057

