# b3lyp 6-31G(2df,p) opt Freq 

 titel

0 1
C 1.3132793486 0.9304876126 0.4500253666
C -0.0365612469 0.3146795153 0.2869305158
C -1.2129600328 0.9182964294 0.1037726626
C -2.2797438983 -0.0974354768 -0.0055670804
O -3.4601915379 0.0339187854 -0.1720927728
O -1.6853952594 -1.3292290896 0.1205583526
C -0.262771532 -1.1893680316 0.3104307722
C 0.0933740597 -1.8164629982 1.6640683347
C 0.4377202457 -1.9076246859 -0.8496713393
H 1.7609366889 0.6521726993 1.4113477675
H 2.0023426392 0.5846574173 -0.3294128255
H 1.2600326587 2.0201746914 0.4004728359
H -1.418181484 1.9772714003 0.0371796917
H -0.1973596146 -2.8701482247 1.6702255268
H 1.1694064138 -1.7549487025 1.8515070605
H -0.4345847897 -1.3061395529 2.4737561573
H 0.1485034189 -2.96170349 -0.8590595853
H 0.1521217115 -1.4609723683 -1.8055466451
H 1.5251062906 -1.8497477104 -0.7448003659

