# b3lyp 6-31G(2df,p) opt Freq 

 titel

0 1
O 1.1454521215 0.067285384 -0.4558563281
C -0.0323337574 0.0184014893 -0.2149502144
C -0.9936608016 1.2151011642 -0.1088527722
C -2.3775530907 0.5636949713 0.0741767841
C -2.0372072507 -0.7118945597 0.8733554381
C -0.8645100654 -1.2502280836 0.0339127067
C -1.4472075834 -1.7229887801 -1.3219673811
C -2.1700195215 -0.5639711364 -2.0294058958
O -2.9954061239 0.2041488262 -1.160452967
H -0.727577064 1.797276702 0.78110782
H -0.9139788026 1.8815315777 -0.9711702845
H -3.0958189841 1.2173570642 0.5720352763
H -1.7279145385 -0.4625672463 1.8943167153
H -2.8868063988 -1.3970703782 0.9218980558
H -0.2639850437 -2.0330798902 0.4997426901
H -0.6543669425 -2.1030109959 -1.9746078068
H -2.1453152432 -2.5449234401 -1.1280691954
H -1.4263976223 0.0859124576 -2.5167032896
H -2.8320813072 -0.9373870963 -2.8152796116

