# b3lyp 6-31G(2df,p) opt Freq 

 titel

0 1
C 1.3272642607 -0.749916768 -1.0976293893
C 1.3091248391 0.0916898495 0.1843968679
C 1.9064769411 -0.6300168965 1.4212641722
C 2.7570251391 0.4238781839 2.1991553684
O 3.9759973162 -0.0979281995 2.6632457275
C 1.969865947 0.9674064162 3.3839414136
O 2.4047501108 0.9535426675 4.5100096161
C 2.9272607745 1.525910663 1.1663846959
C 2.1448430896 1.3500729578 0.1048052007
H 0.7370198503 -1.6638123116 -0.9743690088
H 0.9087538414 -0.1938624812 -1.9432585231
H 2.3509048563 -1.0403053418 -1.3568405275
H 0.2641668208 0.3687783477 0.3873753279
H 1.1455365674 -1.1124561925 2.0422370985
H 2.6137509387 -1.4038776289 1.1093611746
H 3.9782201649 0.0499517402 3.6227866827
H 0.9687104389 1.3811850445 3.1468408946
H 3.61092624 2.348701014 1.3401767437
H 2.0903840133 2.0215956357 -0.7464069856

