# b3lyp 6-31G(2df,p) opt Freq 

 titel

0 1
O 0.0741641614 -1.167342659 0.1940182108
C 0.3076776271 -0.0091965782 -0.0359351567
C -0.3210254288 0.8001687215 -1.1461311517
C -1.0516486996 2.0481011548 -0.602378952
C -1.6061649586 2.9132334998 -1.6972599787
C -2.9416459172 2.6767537266 -2.3834504962
C -2.6683049089 3.9900495392 -1.7175089523
O -1.9084776529 4.8423099484 -2.5771321831
C -0.8047338006 3.8985333582 -2.5516393457
H 1.0295116509 0.5640473683 0.5941048757
H 0.4864157664 1.1240371746 -1.8188039574
H -1.0007047328 0.158496326 -1.7129862161
H -1.8660782022 1.7277040126 0.0582491684
H -0.3599981055 2.6339069755 0.01821017
H -3.0206239318 2.6354030422 -3.4666386003
H -3.6083707217 2.0086555178 -1.8454937241
H -3.2711403973 4.4515581434 -0.943399533
H -0.5005443672 3.5837004529 -3.5570917302
H 0.0547613893 4.3296143754 -2.0229159375

