# b3lyp 6-31G(2df,p) opt Freq 

 titel

0 1
C 1.4838020781 2.8953144001 1.5351366748
C 0.0560553167 2.4084322361 1.2786340212
C -0.0076231305 0.8972879383 1.0019190839
O 0.7181522679 0.6410078914 -0.1667397938
C 1.0145760209 -0.7233503347 -0.4005965117
C -1.4728088355 0.4412913307 0.8835723593
O -1.9681294135 0.0665844596 -0.1545405101
C -2.2340414234 0.4861267076 2.1243316307
C -2.8487771328 0.5154477586 3.1592844857
H 1.9066746288 2.4250144203 2.4299565475
H 2.1294980557 2.6534864095 0.6879836308
H 1.5026889199 3.9786835003 1.6859612218
H -0.5860178932 2.6354820037 2.1357420714
H -0.3695862397 2.9226932599 0.4092040949
H 0.4277619114 0.3569994389 1.8637826528
H 1.5612509643 -1.1631008353 0.4479351532
H 0.1098191055 -1.3116103952 -0.589702726
H 1.6530352487 -0.7585816635 -1.286068943
H -3.4051543591 0.5374964236 4.0650545067

