# b3lyp 6-31G(2df,p) opt Freq 

 titel

0 1
O 0.2837599946 -0.0668281525 0.3698064518
C -0.4290465975 0.8536495282 1.1693298347
C -1.5527415081 0.2105435977 2.0212538951
O -2.4961438934 1.2561995583 2.2456706467
C -2.1474361068 2.3870764974 1.4226575022
C -1.2838676885 1.792689737 0.3075883308
C -1.3407568434 3.3943811271 2.261077716
C 0.0441565548 2.8655562771 2.5471086118
C 0.4692487525 1.7041960291 2.0502796807
H 0.8310156262 -0.609179142 0.9478923974
H -2.0082742467 -0.6165803176 1.4574145029
H -1.1986970094 -0.1682961992 2.9871433119
H -3.0794076973 2.8362993066 1.0684403651
H -1.8827746639 1.2163021334 -0.4030030726
H -0.6887363384 2.5318891295 -0.2315047775
H -1.2818742458 4.3652937089 1.7473482763
H -1.881151589 3.5760968538 3.1983520384
H 0.694784889 3.4680900377 3.1758491948
H 1.4657298911 1.3242224497 2.2637889434

