# b3lyp 6-31G(2df,p) opt Freq 

 titel

0 1
O 1.7512810381 0.7091922745 0.5224492665
C 0.7033729714 -0.2291895148 0.7319280789
C -0.4515647808 0.3508134061 1.5441194771
C -1.1354033025 1.5499087187 0.8930852086
C -2.5830871523 1.5642987144 1.3944513709
C -2.73477211 0.3714915866 2.332233859
C -1.7294862581 -0.5295910025 1.5803254934
O -2.2013524916 -0.4705835884 0.2233020219
C -2.2401086317 0.9376132554 0.0636066731
H 2.1188049496 0.9361010186 1.3826834399
H 0.345575159 -0.5077148375 -0.2624542736
H 1.0812624577 -1.143665842 1.2172196001
H -0.1157827742 0.5729962205 2.5656271686
H -0.5988097762 2.4387722943 0.5944676172
H -3.163834375 2.472291053 1.4823276904
H -2.4287141909 0.5754613338 3.3620312855
H -3.744324344 -0.0489014453 2.3276255727
H -1.6320966 -1.5678560959 1.89201505
H -2.5724945885 1.2748740604 -0.9072435902

