# b3lyp 6-31G(2df,p) opt Freq 

 titel

0 1
C 0.6934104947 0.9262033603 -0.759209691
O -0.0162079558 0.0332881379 0.0974134862
C 1.4135168156 0.13771724 0.2482300029
C 1.8908213786 0.8333161876 1.5121029474
O 2.358209001 -0.0802739986 2.4882103185
C 3.5333937734 -0.7460998645 2.0570833601
C 3.2937768485 -1.5566424449 0.7984750766
C 2.0231002469 -2.3463571738 0.6784093901
C 2.1995790995 -1.0824263394 -0.1386737384
H 0.7471483435 0.6333070023 -1.8078783399
H 0.5080647457 1.9881510404 -0.5915733225
H 2.69324773 1.5471832953 1.2565961876
H 1.0593977419 1.3835606172 1.9597125172
H 4.3388928482 -0.0111481817 1.8838281369
H 3.8379700273 -1.3909300241 2.8877934987
H 4.192617776 -1.963759556 0.3447045145
H 2.0459531947 -3.2915068054 0.1483190383
H 1.3245617887 -2.301142269 1.5061105551
H 2.3589467816 -1.2164886335 -1.2035476882

