# b3lyp 6-31G(2df,p) opt Freq 

 titel

0 1
C -3.1256506594 -0.9930411587 0.677572032
C -2.1124519569 -0.6847034668 1.7417642298
C -1.1555636643 -1.6774168949 2.3476003331
C -0.6029182334 -0.4527787621 1.6455984538
C 0.3193774848 -0.4914815816 0.4673901458
O 1.6890946742 -0.5572128226 0.848649756
C -0.7694706303 0.8106392136 2.5523182204
O -1.3703464 0.4450547419 3.8029324358
C -2.2071200541 0.5932142769 2.648172345
H -2.7667993154 -1.7744898634 0.0008851737
H -4.0650786655 -1.345887826 1.120561492
H -3.3573264802 -0.1089882228 0.0719272491
H -1.0702619471 -1.781099144 3.422063221
H -1.0553445819 -2.6006788922 1.7825405069
H 0.043206452 -1.3298555129 -0.19225006
H 0.2319705865 0.4264693016 -0.1260516752
H 1.7785162605 -1.2981666948 1.4576504661
H -0.1692883282 1.7119194927 2.5219084613
H -3.0433551813 1.2797865863 2.7138536034

