# b3lyp 6-31G(2df,p) opt Freq 

 titel

0 1
C -1.2891654677 3.4740626946 2.9952457235
C -1.4053682318 3.1160372956 1.5434938565
C -0.2622638299 3.1966426306 0.5436481305
C -0.9899673888 1.8974949948 0.7409577358
C -0.3881986739 0.5623929857 1.0710524236
C 0.2196837421 -0.1010468521 -0.1543236151
O 1.3195178686 -0.5890379532 -0.184673257
O -2.199707569 1.9013818416 -0.0322097719
C -2.7059837136 3.0190927761 0.7478052068
H -2.0524663675 2.9669981921 3.5960141683
H -0.3087668471 3.1940483332 3.39364583
H -1.4061611396 4.5535561853 3.1486481027
H -0.3717804281 3.7358720462 -0.3939903507
H 0.7234128362 3.2567900095 0.9963484068
H 0.3875464081 0.6562684431 1.8357967323
H -1.1789860302 -0.0982532661 1.4536966967
H -0.4417776944 -0.1079851391 -1.048080745
H -2.9873953719 3.8730433495 0.1200867125
H -3.5655339619 2.7052594725 1.3523127537

