# b3lyp 6-31G(2df,p) opt Freq 

 titel

0 1
C 0.0190255044 -0.041289251 -0.0430890894
C 1.5393529262 0.0223864078 -0.061284156
C 2.2269652141 -0.4198845544 1.2602613692
O 1.9201940764 0.908984353 1.8155070156
C 2.1492831903 1.3529691091 0.4352694214
C 3.6799315479 1.12811405 0.3443083451
O 4.1896789575 0.5829420103 -0.8954565421
C 4.3892770842 -0.7179961661 -0.2907795024
C 3.7447972225 -0.2583951402 1.0322930604
H -0.3761527659 0.3654560412 0.8909481596
H -0.4034580202 0.530837836 -0.8758274751
H -0.3282818655 -1.0752426344 -0.1437490421
H 1.9430563371 -0.3703256134 -0.9962097444
H 1.863179854 -1.2481319792 1.8692828989
H 1.7322526888 2.333775035 0.2060485612
H 4.2774258392 1.966417027 0.7105928997
H 3.8859263425 -1.518825261 -0.8459188914
H 5.4565835459 -0.955256246 -0.2094285735
H 4.3245242206 -0.3826785936 1.9455056452

