# b3lyp 6-31G(2df,p) opt Freq 

 titel

0 1
O -0.7586078727 -0.0167417607 0.4498310238
C -2.1491543281 0.0821330742 0.5437840292
C -3.0141681382 0.1757841257 -0.7371813887
C -3.4499053157 -0.9308763399 -1.6434476917
C -2.4421452813 0.0925214777 -2.1196827269
C -3.8098621177 1.3584634305 -0.1506237403
C -2.7077705396 1.4696069212 0.9066996282
C -2.4902044899 2.3044749057 2.0819668609
O -1.7732073826 2.5492665319 0.8550653885
H -0.4383743662 0.8847369622 0.3041820612
H -2.4995799404 -0.7109060186 1.215343588
H -3.0967015732 -1.9346857356 -1.4275958778
H -4.4528414022 -0.8894809278 -2.0570562206
H -1.4045059441 -0.2144112759 -2.2008772877
H -2.7615330342 0.8234036594 -2.8557337137
H -3.9341056117 2.2411342019 -0.7828004158
H -4.7797099475 1.0732153471 0.2699982504
H -3.2143641328 3.0728721943 2.3481490297
H -1.8838204219 1.9286493367 2.9048806635

