# b3lyp 6-31G(2df,p) opt Freq 

 titel

0 1
O 2.2664380071 5.05852063 -3.1819370871
C 1.9424392789 3.9158782585 -2.4441123734
C 2.2108853654 3.9296576312 -0.9559905519
C 1.479404467 2.9189471953 -0.0866859507
C 1.6337288078 1.5570756218 -0.8236445663
C 2.9633286389 1.6825823876 -1.6208380794
C 3.123800303 3.1677052016 -1.901707394
C 1.6652730526 0.3987995125 0.1443876012
O 0.8946445154 -0.5248738983 0.1592649147
H 1.5926684876 5.7246970363 -3.0094258276
H 1.0872446421 3.3539102034 -2.8232767368
H 2.5280640443 4.8716963372 -0.5221375794
H 1.964229012 2.8720550296 0.8978109634
H 0.4250829333 3.1584582122 0.0858535424
H 0.793762521 1.3914117192 -1.5022287832
H 3.8059200935 1.3404871355 -1.0052024725
H 2.9476170785 1.0603116761 -2.5210822398
H 4.1009839874 3.5570974612 -2.1628229951
H 2.4989791042 0.4647963291 0.8866373752

