# b3lyp 6-31G(2df,p) opt Freq 

 titel

0 1
C -0.0824941381 -0.0979608259 0.0658958805
C 1.4008745458 -0.3339466249 -0.0970325265
O 1.7546601422 -0.3185906618 -1.485131494
C 1.3448919103 1.0780308272 -1.6049625804
C 2.5390244235 2.0234716305 -1.7568728399
C 2.2869430101 3.3135017398 -0.9582711155
C 1.9910164529 2.9783685373 0.5043053915
O 0.8116420441 2.179601281 0.6412147927
C 0.8184794603 1.0720228873 -0.1715601006
H -0.7812331068 -0.4461567523 -0.6914258689
H -0.4324649327 -0.1637289052 1.0924278061
H 2.0332975708 -0.8814165667 0.5911371393
H 0.6029553731 1.21167846 -2.4015508882
H 3.4193904455 1.5128530479 -1.350814823
H 2.7437050548 2.2353012513 -2.8104892436
H 3.1606108077 3.9724015472 -1.0094446202
H 1.4375444494 3.8689520608 -1.3752044932
H 2.8486577768 2.4481313786 0.9480591398
H 1.8014623103 3.8793616677 1.092878834

