# b3lyp 6-31G(2df,p) opt Freq 

 titel

0 1
O 0.0842505692 -0.2433722722 0.0295809337
C -1.0555247773 0.2620004856 0.7073247704
C -1.792168229 1.336432213 -0.1625405988
C -2.613749281 0.1581212907 -0.8160118366
C -2.2767480546 -0.6432007923 0.4435676266
C -1.9461454542 -1.9635582979 1.1498982937
C -2.1035606229 -0.9642831469 2.3488060427
C -0.9684099785 0.0990353501 2.2494346414
O -3.1345491003 -0.2835765759 1.5720883872
H 0.7504478502 0.4513041019 0.0110749001
H -2.4272292001 1.9994721131 0.4245408383
H -1.1553769287 1.9220087651 -0.8300143758
H -3.6727808994 0.315144539 -1.026541303
H -2.107195768 -0.2318797294 -1.6999841234
H -2.758812711 -2.6909659745 1.1510279851
H -0.9768957448 -2.4215862689 0.9467937532
H -2.4307043041 -1.2963476678 3.3343448831
H -1.2369452551 0.9825415256 2.8333358152
H 0.0196082895 -0.2553488883 2.5539287368

