# b3lyp 6-31G(2df,p) opt Freq 

 titel

0 1
C 0.3365223651 3.1760318435 -1.1792810863
O -0.7067826015 2.6888062653 -0.3239219869
C -0.4190981923 1.4570091329 0.2766935282
C 0.0955173305 0.2763543021 -0.590988004
C 0.9745394099 0.8368824315 -1.7149343277
C 1.5142677718 2.1962677382 -1.2083998276
C 2.0214011609 2.0370509266 0.2453108803
C 0.9420588037 1.2469013697 0.9941751298
O 0.9527066175 -0.1252747351 0.5128864918
H -0.0822092128 3.3169479002 -2.1852904377
H 0.6534353035 4.1602727007 -0.8076763505
H -1.2746940654 1.1905081934 0.8968015619
H -0.5851567541 -0.5216403863 -0.8981187532
H 1.7799287915 0.1246938775 -1.9205676973
H 0.4000810093 0.9753193965 -2.6383453526
H 2.2930656293 2.5922093184 -1.8667334004
H 2.9628975985 1.4808957266 0.2945650919
H 2.183944424 3.0203988925 0.7018868867
H 1.0072040708 1.3039983457 2.0836422035

