# b3lyp 6-31G(2df,p) opt Freq 

 titel

0 1
C 1.2107251602 0.7550129867 -0.9631559145
C -0.0514146713 0.2311700993 -0.3527043533
C -1.049029815 0.9598067032 0.1610910099
C -2.1678394297 0.1281545133 0.7258576011
C -1.7256537105 -1.2974850234 0.3891322015
O -2.393953329 -2.297809871 0.5182124654
C -0.3188662798 -1.2534990479 -0.2198640987
C -0.2723600311 -2.0951890255 -1.5163041536
O -0.4771901189 -3.4623545262 -1.2531934866
H 2.0934229901 0.3638615746 -0.4414829293
H 1.3096634718 0.4509413328 -2.0122478392
H 1.2474829656 1.8470053137 -0.9241967419
H -1.057896007 2.0440024344 0.1915395815
H -2.288169563 0.2346676491 1.8132853769
H -3.1549043762 0.3307986541 0.2919746853
H 0.3851432137 -1.7286271127 0.4803957806
H -1.0108697173 -1.6950873878 -2.2318328041
H 0.7143205384 -2.0024347725 -1.982182351
H -1.2813469409 -3.5201335042 -0.7166578599

