# b3lyp 6-31G(2df,p) opt Freq 

 titel

0 1
C 1.4089814141 -0.0732232362 -0.0083600711
O 0.0039913967 -0.0184586162 0.0354487473
C -0.4839147723 0.7265775141 1.132186201
C -1.9981347024 0.74078916 1.0690323684
C -2.63876623 -0.6226917079 1.3363317535
C -3.9654459071 -0.2888960398 2.0378471601
O -4.0972437979 1.1329274929 2.0858671288
C -2.6787452612 1.1623952274 2.4047642691
C -2.7137047808 -0.3525206018 2.8403020351
H 1.8289478366 -0.5504890235 0.8917601643
H 1.6872092365 -0.6654465878 -0.883580079
H 1.855701327 0.9296914118 -0.1017524787
H -0.141574463 0.2787155352 2.0818559149
H -0.0921710091 1.7584745565 1.097090422
H -2.3412849915 1.2924294898 0.1874023336
H -2.455511808 -1.5604405328 0.8294601301
H -4.8567151367 -0.9013364426 2.0140215858
H -2.3773553164 2.0362389446 2.9801062344
H -2.4089929245 -0.9059914636 3.7169000105

