# b3lyp 6-31G(2df,p) opt Freq 

 titel

0 1
O 1.0753058657 -0.0218690848 0.5715430537
C -0.0674003249 0.0075598631 0.1690503996
C -0.7867525754 1.3193997991 -0.123841062
C -1.8726157204 1.1798103936 -1.1983898012
O -2.7376128584 0.0971813245 -0.9085285129
C -2.0475716318 -1.1349654301 -0.9858537401
C -0.9049844539 -1.2302620594 0.0153906328
C -1.1020894811 -2.0166382581 1.3105695462
C -0.2257628822 -2.5595996802 0.225674366
H -1.2646143338 1.6250577895 0.8166076936
H -0.0462901392 2.0823182145 -0.3794232856
H -2.4943346859 2.0779745839 -1.2420365711
H -1.4114744483 1.04111532 -2.1908729067
H -2.7851835253 -1.9227575204 -0.8049629153
H -1.652497688 -1.2737837582 -2.007408295
H -0.6222464932 -1.6284711575 2.2019387593
H -2.0800590948 -2.4591131195 1.4695489913
H 0.8465755626 -2.525601234 0.377617667
H -0.5908705417 -3.3974890859 -0.3594476094

