# b3lyp 6-31G(2df,p) opt Freq 

 titel

0 1
C 3.4446190431 -0.1489105369 0.5644195542
C 3.3693401248 -0.564469222 -0.9055749025
C 3.4578384901 0.6739011517 -1.887803911
C 4.8568957128 0.1928064879 -2.2922428605
O 4.7154178692 -1.1212953047 -2.8462940923
C 4.7642312961 -0.9897402861 -1.42454454
C 2.2000259111 -1.5127344338 -1.1212882163
C 2.3117073918 -2.8241089156 -1.7810086616
O 1.7248768624 -1.7102954446 -2.4512165355
H 3.5424730486 -1.0244713267 1.2169086705
H 4.3062957856 0.5011815125 0.7460793614
H 2.5423272209 0.394329665 0.8644713572
H 2.7322847141 0.6846177171 -2.7020541351
H 3.4505830397 1.629509182 -1.357807745
H 5.7183474313 0.7686866972 -2.6085236898
H 5.5265480521 -1.5533140821 -0.895732267
H 1.3928603874 -1.3923434281 -0.3941846774
H 3.2725954266 -3.1419875363 -2.1781188972
H 1.6239411422 -3.6246316065 -1.5099557422

