# b3lyp 6-31G(2df,p) opt Freq 

 titel

0 1
C -0.025627456 0.2126461036 -0.229333821
C 1.4320226297 -0.0708752263 0.0452287802
C 1.9828873584 -1.5286795866 -0.0360008856
C 3.0661770891 -1.0811233334 -1.0694057753
C 2.5682298094 0.3856126368 -0.9555142353
O 2.3409218868 1.1630302665 -2.0908095342
C 3.1643712843 1.2515291178 0.1805637455
O 3.4691781749 0.3947707729 1.2826059081
C 2.1107928024 0.826722607 1.1173655801
H -0.6607905814 -0.1313140498 0.5957888458
H -0.2015637796 1.2857783627 -0.3634258852
H -0.3664574249 -0.2960268553 -1.138293419
H 2.3839433913 -1.9183217845 0.9000209049
H 1.2554278556 -2.2399078934 -0.4360871278
H 4.1063856261 -1.2579683679 -0.7894599241
H 2.8992168194 -1.4853763373 -2.0735923236
H 1.8370218278 0.6414782171 -2.7242883211
H 3.7240421558 2.1754479763 0.0806983552
H 1.6539737607 1.3379653639 1.9591700426

