# b3lyp 6-31G(2df,p) opt Freq 

 titel

0 1
C 0.8448749683 -2.9387263028 0.0275192406
C 0.897417463 -1.4182190586 0.1204339516
C 1.7981677002 -0.7662300247 -0.9325770582
C 2.3628119695 0.547733139 -0.3148293662
C 1.7979902029 0.642090743 1.1032444061
C 1.9343596096 -0.892417543 1.1617225823
O 2.0932463881 -1.4676139458 2.4087259998
C 3.0061340066 -0.7901912097 -0.0533468138
O 4.2465520112 -1.3229190148 -0.2929385639
H 0.3830304066 -3.3740800064 0.9219448391
H 0.2529553966 -3.2642360362 -0.83382058
H 1.850003492 -3.3624677677 -0.0866964614
H -0.1135319917 -1.0048336856 0.2322393534
H 1.7664566506 -0.8961785861 -2.0068437542
H 2.7060350195 1.3477078809 -0.9575391371
H 2.4982962342 1.1309051525 1.786284226
H 0.7914387947 1.0505112122 1.2457555116
H 2.1351172691 -2.4243679444 2.3004713421
H 4.8926519788 -0.8412559217 0.2364385122

