# b3lyp 6-31G(2df,p) opt Freq 

 titel

0 1
C -0.7455708214 0.5968062914 -0.9228245757
C -1.1193212164 -0.2105937533 0.2992289517
O -0.8861542212 -1.5909366492 0.3981126551
C 0.4616401959 -1.9757218144 0.2259036501
O 1.3454378641 -1.2653190782 1.0457659138
C 1.4074845226 0.0997153418 0.6572891653
C 1.5553187632 1.0876869608 1.8403935
C 0.3178424484 1.8850552044 1.3184977198
C 0.0418635432 0.7274269278 0.3570057892
H -0.2696043087 0.106376728 -1.7667554076
H -1.4188384423 1.4031990952 -1.1971349974
H -2.0417125255 0.0426393676 0.8121922301
H 0.513011558 -3.0248725781 0.5220031439
H 0.7554745451 -1.8740940981 -0.834785358
H 2.1576767576 0.2302583451 -0.1364555135
H 1.3605972834 0.5741108315 2.7834254081
H 2.5002347268 1.6288761452 1.9104127177
H -0.4600051917 2.115432819 2.0512150171
H 0.592692609 2.8093756837 0.8014910904

