# b3lyp 6-31G(2df,p) opt Freq 

 titel

0 1
C -2.1209010246 -3.9156374526 2.6272221711
C -1.6499608561 -3.2537858879 1.3585721143
O -0.2349859077 -3.1822374964 1.1551657372
C -0.9496393526 -1.9590289562 1.3495563681
C -1.0192965957 -1.0149567992 0.1815585929
C -2.0994692547 0.1174972576 0.1675333653
C -1.0294141097 1.1530771423 -0.2908512451
C 0.0401638413 0.1087983187 0.070028117
O 1.2092893985 0.1654079871 0.3109409028
H -2.0242297763 -5.0037295853 2.551921014
H -1.5289014281 -3.579270159 3.4826020953
H -3.1747905785 -3.6837141533 2.8153580928
H -2.2058832494 -3.521655646 0.4573567356
H -0.7584271359 -1.4859676749 2.3150707247
H -1.0355488371 -1.5930865683 -0.7495461947
H -2.9465567678 -0.0394329091 -0.5005553287
H -2.4761803869 0.3332955948 1.1707208485
H -1.051809757 1.3470714087 -1.3682588042
H -0.9681740518 2.109167499 0.2340367233

