# b3lyp 6-31G(2df,p) opt Freq 

 titel

0 1
C 0.9277986696 3.9544967532 1.7375296394
C 1.4548466267 2.8523662601 2.7125830349
C 0.3813055902 1.887733686 2.1977117715
C -0.142369554 2.9838023674 1.2210886033
C 0.479382434 1.7417646013 0.7082477145
C -0.3368581231 0.6592787396 -0.0053813338
O 0.6218452492 -0.0251380274 -0.8080301937
C 1.8924610225 0.4427306278 -0.4082520089
O 1.7154553389 1.7679895459 0.0259998316
H 0.4958690572 4.8032229219 2.2712757906
H 1.6297951976 4.3251121393 0.9867216118
H 2.4878669833 2.5260430889 2.5667968815
H 1.3124629069 3.1245929122 3.760116286
H -0.1788684247 1.1793978298 2.7994159732
H -1.1615888797 3.252100583 0.9621564728
H -0.8175694796 -0.0281328884 0.7031364617
H -1.1045177372 1.0770703305 -0.6666191502
H 2.2962306891 -0.1838094607 0.407825431
H 2.5693189331 0.4321118795 -1.2669076773

