# b3lyp 6-31G(2df,p) opt Freq 

 titel

0 1
C -0.0104388013 0.3592310484 0.1887983561
C 1.434951295 -0.0266888451 -0.0432063129
C 1.9985822191 -1.0333815069 0.946421368
C 2.0067641247 -0.149449363 -1.4249755041
O 1.3942452047 0.7647138273 -2.343139448
C 1.902975312 1.8976198992 -1.5919795646
C 2.9816323382 2.6187881111 -2.3783754868
O 3.3308021294 3.7460009161 -2.1465692489
C 2.4883195137 0.9711416106 -0.5206774106
H -0.1210096583 0.9401349188 1.1110764832
H -0.4088964603 0.9438063591 -0.6424329257
H -0.6304823315 -0.5389960041 0.2852256061
H 1.4017396973 -1.9518165967 0.9455955552
H 3.0322715089 -1.3037474548 0.7062313528
H 1.9894610112 -0.6276812459 1.9639925903
H 2.4871333789 -1.0291240794 -1.839501162
H 1.1234083573 2.6047046646 -1.2889485306
H 3.4390475539 1.998602819 -3.1809624734
H 3.4296118471 1.1265031018 -0.009970154

