# b3lyp 6-31G(2df,p) opt Freq 

 titel

0 1
C -0.109957772 0.1325567142 0.0478095431
C 1.3941625207 -0.0123228994 -0.0533072559
C 2.1941070021 -0.2226796193 1.2308710033
C 1.6387360102 -0.6270737624 2.5649469582
C 3.7160286038 -0.3931398984 0.8843825905
O 3.9340097394 -0.3395349976 -0.5361269379
C 3.7580805669 0.886916429 0.1887956327
C 2.2333905372 1.1133979564 0.4825142972
O 1.6843808141 2.3490024257 0.7653418736
H -0.4088986568 0.7622290937 0.8890950485
H -0.5027023862 0.6007267028 -0.8603200767
H -0.591703545 -0.8449573742 0.1561603605
H 1.7417759203 -0.5217930625 -0.9456916368
H 1.593560851 -1.7193024206 2.6600533404
H 2.2585449519 -0.2546432535 3.3900679738
H 0.6263911113 -0.2426797804 2.7142927082
H 4.456453513 -0.9117131889 1.4834637206
H 4.5273562353 1.6467032198 0.1006934081
H 2.0619273827 2.6759410255 1.5894701887

