# b3lyp 6-31G(2df,p) opt Freq 

 titel

0 1
C 2.4324450908 -0.8151728761 1.1592338721
C 1.7455861855 -0.2027829448 -0.0486175638
O 2.2450975024 1.1148898847 -0.2280201236
C 1.6477905073 1.8091433569 -1.2795744472
C 2.0966574765 1.5189467553 -2.7269134861
C 3.5525215435 1.7862468193 -2.8469905707
C 2.6029651069 2.9805215711 -2.8851099697
C 2.142929744 3.2761305959 -1.4930425942
O 2.0197336128 4.274009806 -0.8435837944
H 2.0683188144 -1.8328712008 1.3285234571
H 3.5146045741 -0.854609854 1.0061589222
H 2.2345649062 -0.2197404489 2.0546915887
H 1.9337341554 -0.8071119463 -0.9501501163
H 0.6534569153 -0.1679715627 0.0984081837
H 0.5490762981 1.8130028923 -1.1877541135
H 1.5310399473 0.9621368693 -3.4620992439
H 4.1981128092 1.6358748186 -1.9881648125
H 4.0118094146 1.5619441426 -3.8037070196
H 2.5627485657 3.6428872416 -3.7402550883

