# b3lyp 6-31G(2df,p) opt Freq 

 titel

0 1
C 0.2825982118 0.2549370867 -0.2960141309
C 0.8864712812 -0.7041867424 0.7122799219
O 2.3204127631 -0.5317152511 0.8452555399
C 2.5923706351 -1.8633024671 0.3453548866
C 3.2463641559 -2.7674378598 1.4084634227
C 2.0921080461 -3.5466156282 2.0151135207
O 1.4852586883 -4.4478652451 1.0750568896
C 0.8256225629 -3.2075041163 1.3458370349
C 1.0712578703 -2.1743196124 0.2729835392
H 0.4435515071 1.2892843215 0.022822634
H 0.7388474883 0.1257592154 -1.2825425344
H -0.7965320372 0.08767964 -0.3868258366
H 0.3941151143 -0.5854724522 1.6881529088
H 3.151069826 -1.8233764981 -0.5948286457
H 3.9823319226 -3.4522840176 0.9751167288
H 3.7529575322 -2.1436888385 2.1511840221
H 2.1347757064 -3.9100926355 3.0388450935
H -0.1436701311 -3.2841465074 1.8352119492
H 0.642052907 -2.4473418019 -0.6930133343

