# b3lyp 6-31G(2df,p) opt Freq 

 titel

0 1
O 2.6942015279 -1.9110201947 -1.4620364821
C 3.0693860561 -0.5684555465 -1.2521560037
C 2.6182876823 -0.0325260873 0.1288183238
C 1.1660548868 -0.1679388457 0.2515381433
C -0.0290140136 -0.3023004281 0.2908175368
C 3.0774883033 1.4023158756 0.3412952853
C 4.4922242073 1.6936897329 0.8077626473
C 3.3109036802 1.947465238 1.7129350147
O 2.8793074461 3.2567668697 1.9369194363
H 1.7365104366 -1.9563471009 -1.351412536
H 4.1615385409 -0.5351970535 -1.3047446366
H 2.6733683798 0.0960656902 -2.036325693
H 3.0881562829 -0.6729311263 0.8878989854
H -1.0841294626 -0.4032720999 0.3592279665
H 2.6590070131 2.1214400291 -0.356746747
H 5.1480601352 0.8591021175 1.0354900199
H 4.9853354582 2.5601944623 0.381462756
H 3.1671061006 1.2634272901 2.5501221324
H 3.4962309688 3.6717348874 2.5490756809

