# b3lyp 6-31G(2df,p) opt Freq 

 titel

0 1
O 0.5931537591 0.0431048342 1.1912889145
C 0.5988089367 0.177071619 -0.0088023768
C -0.3313558814 1.0646512007 -0.7629394407
C -0.6161702247 2.4221777826 -0.1473984726
C -1.6812306378 1.3728041345 -0.136727675
O -0.1753903751 1.0311841274 -2.150018154
C -0.8196261788 -0.0412203298 -2.789118214
C -0.9010653487 0.0439276051 -4.2762648153
C -2.159352256 0.1837944688 -3.4400653903
H 1.3342520642 -0.3483171042 -0.6583873402
H -0.1038980071 2.6476740706 0.7806178211
H -0.70546442 3.2364355473 -0.8567712275
H -1.8921552415 0.8696230667 0.8001644641
H -2.5137807672 1.4777406715 -0.8202678935
H -0.6279091868 -1.0123447967 -2.3355306016
H -0.5075043632 0.9473735135 -4.7279143834
H -0.7498478916 -0.8588924348 -4.8566095199
H -2.5835010669 1.1783438627 -3.3632289667
H -2.8830105229 -0.6239067889 -3.4370413483

