# b3lyp 6-31G(2df,p) opt Freq 

 titel

0 1
C -0.3288647436 1.4710304224 0.2710999606
C 0.1169986415 0.0425358235 -0.0137032347
O -1.0014480583 -0.8506275811 -0.2183575186
C -1.3675883045 -1.5167212982 1.0050598175
C -0.2934953855 -1.1327022046 1.9651538177
C -0.1250281738 -0.8217898722 3.2427565537
C 1.1952268442 -0.0957754431 3.3875878081
O 1.6146814212 0.1917474911 2.0453758498
C 0.8692589458 -0.6235793464 1.1606088129
H 0.5405848216 2.1299169337 0.3515337591
H -0.9707978172 1.827100362 -0.5389747845
H -0.8870253632 1.5328544191 1.2100921972
H 0.6915537644 0.0080345798 -0.9443895148
H -2.3639094522 -1.197013117 1.3362305326
H -1.409134088 -2.5960864681 0.806513779
H -0.8079968003 -0.9804851489 4.0676585194
H 1.0936414476 0.8486779105 3.938406545
H 1.9623856567 -0.6962102974 3.9043141128
H 1.5000383536 -1.4385080349 0.7677668472

