# b3lyp 6-31G(2df,p) opt Freq 

 titel

0 1
O -3.8739446416 -0.0096482182 -0.3895851498
C -3.0677136882 0.5754516113 0.6384894107
C -2.5323286595 -0.4581820686 1.6418742408
C -1.7695126636 -1.6526756649 1.051140684
C -0.7107922377 -1.3202814793 -0.0274917881
C 0.0327873672 -0.0046716246 0.161521954
O 1.2157973107 0.0303850001 0.4318367363
C -0.7098382142 1.2606270447 -0.1131525984
C -2.0159285386 1.4964175608 0.0546650643
H -3.2844182965 -0.3755573663 -1.0567073958
H -3.7694758453 1.2167563037 1.1851577584
H -1.8976064501 0.0757815684 2.3593990925
H -3.3843782229 -0.846849651 2.2100182153
H -1.2768263109 -2.1774698994 1.8755688145
H -2.4841881206 -2.3599384167 0.6190513494
H 0.0389369194 -2.113647297 -0.0734188426
H -1.192853702 -1.2723044231 -1.0127039273
H -0.0643598256 2.060578248 -0.467973389
H -2.3909154299 2.4781633723 -0.2281190993

