# b3lyp 6-31G(2df,p) opt Freq 

 titel

0 1
C 1.0103406511 3.2484277495 1.2763779595
C 1.6334031054 1.8554637952 1.6038302336
C 0.7926518719 1.2657764406 0.4707990418
C -0.0038510183 2.5671489404 0.3068751252
C 0.3147795412 -0.1534620177 0.3108217656
O 1.0091201521 -1.1112305681 1.0854063199
C 2.1645922909 -1.432499782 0.3318443851
O 2.5321474952 -0.2674127176 -0.3874479464
C 1.3182195692 0.403228351 -0.6525241329
H 0.5757340414 3.7913190749 2.1179508782
H 1.7066931068 3.9128268083 0.7600667275
H 2.7146639022 1.7611656071 1.4843954112
H 1.3553525234 1.4690781039 2.5879828963
H -0.0626166816 2.9775895 -0.7053307949
H -1.0181420816 2.5043976695 0.7134645195
H -0.7128959492 -0.4046961243 0.0657619918
H 2.9745390953 -1.703418287 1.0143274373
H 1.9500055561 -2.2601829437 -0.3662366784
H 1.1236422987 0.6241856401 -1.6978261397

