# b3lyp 6-31G(2df,p) opt Freq 

 titel

0 1
C -1.0863257779 2.0019792308 1.1600590895
C -1.1366088562 1.0308143002 -0.0207173461
C -2.1610646067 -0.1421096179 0.0750446216
C -2.6480205263 -0.6874074458 -1.2979810229
O -3.9409473299 -1.2440397715 -1.3337866758
C -1.4644900243 -1.7032179228 -1.3169986881
C -0.9831941583 -1.196223899 0.0805024421
C -0.0046945514 -0.0226983775 0.0066695842
O 1.1888966431 0.0641755395 0.0545556164
H -1.0488369611 1.4656501822 2.1142529696
H -0.1943692875 2.6316888129 1.095629322
H -1.9686703995 2.649103739 1.1702129183
H -1.1881877968 1.5923775896 -0.961315231
H -2.9100627525 -0.0704405637 0.8649042261
H -2.6353340186 0.0540143963 -2.1024647226
H -4.0048842139 -1.9090309463 -0.6394382815
H -1.8246379218 -2.7352935651 -1.2872284961
H -0.746365984 -1.6176239097 -2.1364755406
H -0.7965893164 -1.9484588412 0.8480442749

