# b3lyp 6-31G(2df,p) opt Freq 

 titel

0 1
C 2.8619779373 2.4930475753 -0.5623084741
C 3.112183477 1.051477124 -0.971226943
C 2.5999604991 0.0359084456 0.0668911643
C 1.1458435233 0.0294241727 0.1640791265
C -0.0564106904 0.0411501335 0.1997941162
O 4.5229754918 0.8126092395 -1.2318777774
C 4.2906629572 0.6503432741 -2.6476795763
C 2.7708243581 0.6974866523 -2.4539602981
O 2.1382590452 1.6630164688 -3.2529577467
H 3.4472536846 2.7238586907 0.3335313504
H 3.1548282339 3.1767901135 -1.3610540969
H 1.8041771501 2.6572609164 -0.3360082555
H 2.9611446295 -0.9589361639 -0.2191637427
H 3.0485992403 0.261441299 1.0423231476
H -1.1167159994 0.0403083233 0.2583300464
H 4.6666280949 1.4993312562 -3.2317082864
H 4.7193928908 -0.2800571959 -3.0342878634
H 2.2816676027 -0.2804214387 -2.5442202012
H 1.1932577942 1.6296416236 -3.0711411998

