# b3lyp 6-31G(2df,p) opt Freq 

 titel

0 1
C -0.1417116345 -0.013690738 -0.1001520883
C 1.3677282905 0.0469513825 -0.1589234248
C 2.1088182877 1.2791900833 0.2838528327
C 3.503949758 1.5364585806 -0.2596383116
C 4.2120719686 0.17285887 -0.0841025951
O 3.5355227304 -0.5200635542 0.9679582125
C 2.2387991823 0.0038899123 1.1011356154
C 1.7031205018 -0.1435886432 2.4710187918
O 0.6551486782 0.3148615244 2.8646280183
H -0.5223530985 0.4867149132 0.7913601625
H -0.5726686358 0.4662550334 -0.9858839498
H -0.491223927 -1.0509143498 -0.0772321097
H 1.8105584318 -0.5043503944 -0.9856399711
H 1.5306328059 2.0999771082 0.693920033
H 3.515592616 1.8614204782 -1.3042716336
H 3.9897049519 2.3130094545 0.3393782515
H 4.1598426266 -0.4153525439 -1.0097070357
H 5.2654403889 0.2636831875 0.1950378086
H 2.3758887272 -0.7254389546 3.1371808435

