# b3lyp 6-31G(2df,p) opt Freq 

 titel

0 1
O 0.935350058 0.0280462794 0.8646160471
C -0.0622104042 0.0363804502 0.1968867453
C -0.8559483186 1.3055334949 -0.0862548275
C -1.8010487905 1.2371828273 -1.2890095607
C -2.5633927316 -0.0887643648 -1.2442588089
C -1.5706959852 -1.2232981966 -1.2540851772
C -1.9659022548 -2.6296099672 -1.565076057
C -1.1131229886 -1.8459524583 -2.5473320862
O -0.5582603063 -1.1469743834 -0.2526393147
H -1.434764637 1.4926408552 0.8283365594
H -0.1332342411 2.1207662056 -0.1614746178
H -2.4854464178 2.0908116436 -1.2792127886
H -1.2289034766 1.2951026558 -2.2224848958
H -3.1788449665 -0.1390653126 -0.3360448168
H -3.2380108137 -0.1937008353 -2.0989528325
H -1.4743320658 -3.4090763929 -0.9948756782
H -3.0031112534 -2.8265605274 -1.8135916798
H -0.0665513759 -2.1173914453 -2.6183304862
H -1.5638184102 -1.5040270281 -3.4730880539

