# b3lyp 6-31G(2df,p) opt Freq 

 titel

0 1
C -2.445191126 1.539626564 -2.2271715689
C -2.3529322373 0.9988796028 -0.8389283204
O -2.2602558855 -0.4348113896 -0.682732009
C -3.2948054524 0.2673612658 0.0350907185
C -2.6688258612 0.8707202694 1.3144856385
C -1.4995080299 0.0717164551 1.9522763229
C -0.4765960629 0.8362027328 1.0385289273
O 0.3561923541 0.0905582136 0.1964851472
C -1.660918452 1.6387221444 0.3952935837
H -3.130275115 0.9362264622 -2.8289403204
H -2.8023830459 2.5742512859 -2.2156882458
H -1.4613156027 1.5291503459 -2.7096190381
H -4.3073800773 -0.0841251039 -0.1343944675
H -3.3639801472 1.4020788459 1.9631084033
H -1.3645893136 0.2650449277 3.0191290362
H -1.523893689 -1.0075857428 1.787393907
H 0.1805927274 1.489886094 1.6188544755
H -0.2281602149 -0.5137657831 -0.2799091136
H -1.6063916586 2.7276172999 0.3779110837

