# b3lyp 6-31G(2df,p) opt Freq 

 titel

0 1
O -0.1336196695 -0.7557898267 -0.8395462687
C 0.2580339426 0.5247317955 -0.3747493277
C -0.3347109962 0.8714909173 1.0041739084
C -1.8862068016 0.9257256475 0.9891343274
C -2.2496182718 2.4311467779 0.8890360314
C -0.9930031 3.1212049423 1.3392228853
C 0.0477792326 2.2793012291 1.4299778798
C 1.4019676787 2.6747824042 1.8551669328
O 1.7319910982 3.7994775202 2.1610683472
H 0.2308885214 -1.414287194 -0.2391240392
H 1.3551076197 0.6232345782 -0.3479365616
H -0.1096631442 1.2372311022 -1.1215732749
H 0.0310160303 0.1204302905 1.7190294956
H -2.2969852157 0.3233404934 0.1762233927
H -2.2788154325 0.5195323349 1.9258998998
H -2.5045973665 2.7371835663 -0.1356786806
H -3.1164718179 2.7005841038 1.5028598351
H -0.9264593987 4.1819184142 1.5545102004
H 2.1402195411 1.8409959631 1.8944183168

