# b3lyp 6-31G(2df,p) opt Freq 

 titel

0 1
O 1.4570996817 0.4549359762 -0.4066315164
C 0.1027582619 0.2525078266 -0.018185103
C -0.7628927663 0.4206142108 -1.2351843079
C -0.9840605783 -0.74213898 -2.1879797412
C -2.1413805376 -0.2011758156 -1.3924616852
C -3.0549251264 0.8402297726 -2.048258172
O -4.1237501777 1.250715962 -1.1987047752
C -2.1046386262 1.9726601385 -2.3828534951
C -0.880103212 1.7574165286 -1.8920793934
H 1.9978752565 0.4674319931 0.3888166998
H -0.0467348856 -0.7544363457 0.4033418174
H -0.1942829673 0.9795062439 0.7549816894
H -0.9344682845 -0.5394285278 -3.252756356
H -0.592022235 -1.7105658607 -1.8915721808
H -2.5789407394 -0.8204994712 -0.6173272599
H -3.552132815 0.4360685232 -2.9376827803
H -3.7292210342 1.7609213715 -0.4822944346
H -2.4238594112 2.8410922941 -2.9474274783
H -0.0300189735 2.4241833898 -1.9791195072

