# b3lyp 6-31G(2df,p) opt Freq 

 titel

0 1
C -0.3988102934 1.3410652244 -0.5374764044
C -1.2245576094 0.147128293 -0.9503783622
C -0.1289906423 -0.0124298442 0.073379242
C -0.4538642467 -0.277636206 1.5020914583
C 0.6011847185 -0.5482670492 2.5659397416
C -0.4385937169 -1.596475786 2.2066543552
O -1.607984854 -1.6699522857 2.9848522442
C -2.1179195423 -0.3521293307 3.0585669237
O -1.631499263 0.3702212307 1.9425012334
H 0.3273764971 1.739278247 -1.2374166837
H -0.8778751599 2.0818654551 0.0917349295
H -2.2454013605 0.1034026464 -0.5905151631
H -1.0680938515 -0.2782200612 -1.9354112947
H 0.7752332012 -0.517542624 -0.2525532859
H 1.6109427164 -0.7293589478 2.2115097682
H 0.5456632271 -0.0422439702 3.5235501405
H -0.1768441496 -2.5468880256 1.7590324683
H -3.211952233 -0.3824987827 3.0244430611
H -1.7889848477 0.1314680866 3.992886558

