# b3lyp 6-31G(2df,p) opt Freq 

 titel

0 1
C -1.1755357363 -3.7679008063 1.86537261
C -1.2617308428 -2.2869904915 2.1149455505
C -0.5440301391 -2.8034067612 0.8885767462
C 0.9379717996 -2.6963634607 0.818305936
O 1.5970539488 -3.3892216701 -0.2567687289
C 1.6372016033 -1.9636120776 -0.2492353404
C 2.9764002733 -1.327640312 -0.0256117226
C 4.2229113279 -2.0615089568 -0.2858997308
O 3.7586161927 -1.8395641718 1.0490996746
H -0.5126293407 -4.3523072207 2.4946988992
H -2.0698457203 -4.2937625458 1.5512467624
H -2.2139843673 -1.7889200653 1.9727117434
H -0.6588078631 -1.8699422732 2.914984909
H -1.0472054828 -2.6777617177 -0.0653685718
H 1.465354495 -2.7825111722 1.7688729371
H 1.0390512984 -1.4861315343 -1.0283040211
H 2.9809852629 -0.2399291856 -0.1145793187
H 4.1546342904 -3.0911098454 -0.6278622086
H 5.1237172404 -1.5168872118 -0.5639755258

