# b3lyp 6-31G(2df,p) opt Freq 

 titel

0 1
C 1.408714591 0.0722800181 -0.1357606564
O 0.002168258 0.1308704638 -0.054104035
C -0.4599927456 0.58340475 1.1964123582
C -1.9963879485 0.545004674 1.164694037
C -2.5495937815 1.1127074387 2.3879862754
C -2.9961771115 1.613675476 3.3855857653
C -2.5814588577 1.2883329394 -0.0700311823
C -2.0735472946 2.689831981 -0.3333331642
O -3.4061670586 0.7475711506 -0.7604719996
H 1.8286083223 -0.6212458585 0.6086865937
H 1.6612760299 -0.2851781365 -1.136323964
H 1.867644453 1.0613736762 0.0176111868
H -0.0957888524 -0.0589798439 2.0131780001
H -0.1063550232 1.6061802024 1.4025047417
H -2.3218746819 -0.4944564398 1.0532720974
H -3.4022514101 2.0383914164 4.2703189398
H -2.0577913414 3.2825253449 0.5860816212
H -1.0469599799 2.6273339151 -0.7104181237
H -2.7018390573 3.1702423721 -1.0838961014

