# b3lyp 6-31G(2df,p) opt Freq 

 titel

0 1
O 2.0785448083 3.2344468825 -1.0302160226
C 2.989940884 2.2437957773 -1.5053065652
C 2.1440152266 1.0680995888 -2.0143451156
C 1.3541279093 0.418354821 -0.8907580471
C 0.6905676808 -0.9477482208 -1.1761091343
C 1.5912543394 -1.4632455796 -0.036134813
O 2.2243244792 -0.1753575199 0.1099911554
C 3.8710844684 2.7788951669 -2.5475575253
C 4.5961391648 3.2393493742 -3.3889149767
H 2.5949132431 3.9854227397 -0.7205999794
H 3.6114966776 1.869419346 -0.6774542824
H 1.4581687827 1.4363526247 -2.7860527789
H 2.8082407016 0.3283258433 -2.4728326342
H 0.688716218 1.1564440637 -0.4288376099
H -0.3846290946 -1.0025483679 -1.0012420468
H 0.9157938893 -1.360326162 -2.1619960216
H 1.061488845 -1.7618551702 0.8773604412
H 2.3108770656 -2.2480761943 -0.297860257
H 5.236980471 3.6428245268 -4.1335693965

