# b3lyp 6-31G(2df,p) opt Freq 

 titel

0 1
O 0.3832312045 -0.9333255312 0.2876089844
C 1.5581639007 -0.1810902068 0.5639380201
C 1.2996627544 0.9324268688 1.5889967836
C 2.2974352174 2.0428155066 1.8310989417
C 2.1702131304 0.926741386 2.8318635182
C 3.2017137324 -0.1887033283 2.8032594372
C 2.5006117222 -1.5373570844 2.5315326024
C 2.6907149622 -1.0936953784 1.0632715295
O 3.8025381708 -0.2483467844 1.4760152696
H 0.0691821541 -1.3067786097 1.1186484914
H 1.8517017512 0.2444867875 -0.4021641103
H 0.2498462775 1.1904457471 1.6841078767
H 3.1912998569 2.0587552462 1.2189674369
H 1.9021400258 3.0152983345 2.1031363856
H 1.7175932538 1.1293746323 3.7979823499
H 3.9573710676 -0.1170452869 3.5899201489
H 3.122636306 -2.399773458 2.774953353
H 1.4897578817 -1.6753425112 2.9254060622
H 2.9765859803 -1.8402076197 0.3186595992

