# b3lyp 6-31G(2df,p) opt Freq 

 titel

0 1
C -0.5316581491 -2.2110808161 -1.1264751026
C -0.8849736803 -1.2222260171 -0.0063728231
C -2.2953987818 -0.6834070642 -0.0085177344
C -2.3452238359 0.6494679467 0.0350036163
C -0.9795768901 1.284158877 0.0753198403
C -0.6746050885 2.3391720422 -1.0111896244
O 0.6062199788 2.8991094333 -0.8461657447
C -0.0555708467 0.0695695557 -0.078678546
O 1.1327421075 0.1258549969 -0.3018864502
H -1.0833640556 -3.1480112464 -1.0079059036
H -0.7771366805 -1.7933991829 -2.1077221277
H 0.5388888853 -2.43018671 -1.1064855032
H -0.6567296801 -1.7029392267 0.9582707742
H -3.1599806668 -1.33763973 -0.032187101
H -3.2562343115 1.2375044123 0.0509949834
H -0.7750361906 1.7651210011 1.0434011018
H -0.8009038069 1.8781557943 -2.0050780313
H -1.3984947304 3.1583891813 -0.9390838286
H 1.2235827831 2.1554882527 -0.7913380253

