# b3lyp 6-31G(2df,p) opt Freq 

 titel

0 1
O -2.9569944948 -1.1513860963 1.5878669629
C -1.7611327296 -1.3297529014 0.8957341169
C -1.5264501454 -2.5925945042 0.0852601098
C -1.7310096245 -1.2507169045 -0.5966109664
O -0.6087161502 -0.5317166566 -1.03312808
C 0.2840825012 -0.4322654257 0.0666706142
C 1.4572536564 0.4672349934 -0.1211594263
C 1.6527882098 -1.0401975867 -0.1038536643
C -0.5262694887 -0.5614739128 1.3532447025
H -2.9533821219 -1.7439780598 2.3475802258
H -0.545996278 -3.0560716561 0.0754508719
H -2.3667494479 -3.2764809567 0.0273684246
H -2.6112098293 -1.0703200896 -1.2007263921
H 1.5369569231 0.9687941367 -1.0790217593
H 1.8028216097 1.0482056141 0.7272684297
H 1.859075885 -1.5223456839 -1.0526979003
H 2.1356706602 -1.489890067 0.7581755841
H 0.043074364 -1.0547455112 2.1473939095
H -0.8590765591 0.4157247885 1.7214622569

