# b3lyp 6-31G(2df,p) opt Freq 

 titel

0 1
O 0.2820902172 0.3759310295 0.2020687498
C -0.5981493411 0.9222769818 1.1515336523
C -1.3912958246 -0.0827967655 2.0572662598
C -2.6959922544 0.6160895572 1.6509138823
C -2.6322008421 2.1205044226 1.785077307
C -1.8271431126 2.9112380419 2.8011613055
O -0.5534884159 2.362050558 3.0942499279
C 0.1794251089 1.9659585685 1.9481887905
C -1.9476794551 1.4654315262 0.6196253848
H -0.2199384862 -0.2150080372 -0.3692400071
H -1.3309248916 -1.0852739757 1.6220836004
H -1.1345838363 -0.1300038697 3.1176606658
H -3.6536056016 0.1204834878 1.5396290276
H -3.5716762197 2.6069252177 1.5299643167
H -1.7154745078 3.9417239858 2.4188313083
H -2.3500162277 2.9700381503 3.7618176607
H 0.4182170654 2.8270239932 1.3029351199
H 1.1162295363 1.536867261 2.3149849416
H -2.1682687812 1.6855150167 -0.4189388638

