# b3lyp 6-31G(2df,p) opt Freq 

 titel

0 1
O 0.7085815249 0.6504071029 0.6686668752
C -0.6784537046 0.4879483948 0.7952573095
C -1.326204005 0.2485738878 2.2027247851
C -0.3767558936 -0.6368031271 3.0027129603
O 0.1064633059 -1.6885135288 2.1489961031
C -0.8851942359 -2.06052786 1.190230594
C -2.2952882542 -2.141599511 1.8318345115
C -2.4237297294 -0.6425383338 1.4988927415
C -1.3669629016 -0.8095867198 0.3529987905
H 1.107598616 -0.1652246835 0.9980399853
H -1.1409979546 1.3477055034 0.3007637605
H -1.6587949179 1.113421446 2.7801091527
H 0.5032743639 -0.077699279 3.3343192954
H -0.8666713743 -1.0596364059 3.8900284706
H -0.4887646923 -2.9240765636 0.6553195673
H -2.9735635801 -2.7329276238 1.2097067638
H -2.3660151102 -2.4909356325 2.8658632683
H -3.3988621399 -0.1760952269 1.3602124794
H -1.615969497 -1.0038785391 -0.691409444

