# b3lyp 6-31G(2df,p) opt Freq 

 titel

0 1
C 0.4279835929 3.4727389692 -2.3097583097
O -0.4209432318 2.3369622948 -2.6313215444
C 0.521603732 1.4159599039 -2.0688698236
C 0.7268591505 0.0688003315 -2.7467998571
C 0.6149210211 -0.9622935175 -1.5927701927
C 1.0407765349 -0.1954635567 -0.3178650558
C 0.4601656535 1.2077988173 -0.5364119365
O 1.3832293011 2.3110686708 -0.3072942556
C 1.5115013028 2.5524113584 -1.7164603155
H 0.7129402191 4.0169185185 -3.2181964925
H -0.0313314396 4.1567477291 -1.588595919
H -0.0265379768 -0.0799119593 -3.5250309713
H 1.7072133531 0.01928309 -3.232290427
H -0.4271837511 -1.2871514951 -1.4946496443
H 1.2143994887 -1.8604017815 -1.7616186149
H 0.6963820928 -0.6735610532 0.6026265305
H 2.1317037489 -0.1137234565 -0.2630381789
H -0.5040374616 1.3749711711 -0.0459956932
H 2.5466528495 2.6672802853 -2.0445055688

