# b3lyp 6-31G(2df,p) opt Freq 

 titel

0 1
C 0.464711928 0.2588285553 -0.5332322192
C 0.9053204385 -0.7027525862 0.5538578899
O 2.3373752548 -0.6584471942 0.8044354344
C 2.5502410943 -1.9995412728 0.2905672872
C 3.3026607241 -2.8740020094 1.2850143493
C 3.1959416392 -1.9798292087 -1.0219142224
C 3.6658737136 -1.9807913051 -2.1303246041
C 0.9964262582 -2.2077276254 0.1790971682
O 0.449268427 -2.6686828288 -1.0158017758
H 0.6501134214 1.2894706981 -0.2167362351
H 1.011298718 0.0875070652 -1.4645908026
H -0.6055316939 0.1424009085 -0.7310712024
H 0.3568163722 -0.5048273618 1.4829405812
H 2.7764203993 -2.8765354976 2.2432784703
H 3.3765388239 -3.9001486502 0.9125837206
H 4.3134276274 -2.4877262053 1.4424267686
H 4.1168759191 -1.9718206934 -3.0925432536
H 0.6244695033 -2.8613539505 0.9718580146
H 1.0060952316 -2.3573571279 -1.7416786493

