# b3lyp 6-31G(2df,p) opt Freq 

 titel

0 1
C 2.7679015691 -1.3109096255 0.8999693211
C 2.0073927704 -0.3401822231 -0.0073448666
C 2.2064760505 -0.6474666787 -1.4799941206
O 1.6507232552 -1.957567822 -1.8338521579
C 0.6794812996 -1.3423666958 -2.6741255092
C 1.3194530032 -0.5766411951 -3.8008331491
C 1.2562179532 0.0614648945 -2.4469406377
C -0.7210254253 -1.7929417695 -2.6400635638
O -1.598560447 -1.3248546838 -3.3272508005
H 2.5833245095 -1.0893395932 1.954800507
H 2.4529346937 -2.3398564886 0.7058814145
H 3.8482088668 -1.2508569878 0.7286518719
H 0.9341692499 -0.373295181 0.2160671603
H 2.3376480385 0.6920552343 0.170618528
H 3.2701491032 -0.6019633778 -1.7494127007
H 2.2614108901 -0.9493321968 -4.1928606063
H 0.6157952928 -0.1867205026 -4.5284307955
H 0.7132085641 0.9748813616 -2.2425858448
H -0.9091290974 -2.6031265291 -1.90220207

