# b3lyp 6-31G(2df,p) opt Freq 

 titel

0 1
C -5.2633515542 -0.266860684 -2.5601662956
O -4.5723472082 -0.1731688094 -1.3266469131
C -3.1691920004 -0.3273707233 -1.4391398347
C -2.5681413975 0.1846291745 -0.119042493
C -1.1145271816 0.0902798203 -0.0858179036
C 0.0853818259 -0.0056582736 -0.0873978872
C 1.5364762064 -0.1203490604 -0.0843578439
C -2.8534247708 -1.8097110193 -1.6433836961
O -2.2648826997 -2.2681762971 -2.5856152822
H -5.1303745001 -1.2460858589 -3.0403706665
H -6.3229795833 -0.1211576908 -2.3398564958
H -4.9313163633 0.5104250634 -3.2635384778
H -2.7661067328 0.2353120749 -2.2925767299
H -2.902636644 1.21978585 0.0150049091
H -3.0140864179 -0.3906064053 0.7030813177
H 1.895828614 -0.60353766 0.8308013497
H 1.8859791789 -0.7170800532 -0.933862212
H 2.0141265395 0.8633371152 -0.1504195443
H -3.269876511 -2.4557638832 -0.8351719508

