# b3lyp 6-31G(2df,p) opt Freq 

 titel

0 1
O 0.8497674816 -0.0370909865 -1.0197644698
C -0.1631097135 -0.0312156882 -0.369511104
C -0.8393660791 -1.2592685527 0.2502401635
C -2.1714137225 -0.7492321805 0.8216973327
C -1.9365163547 0.7438008202 1.0790672152
O -1.1878368897 0.9012392391 2.2816446804
C -0.4768751193 2.1311311551 2.1829945261
C -0.1106442321 2.3154475042 0.6873850949
C -0.9648146068 1.2328328273 -0.0042191012
H -0.9337016858 -2.0602320876 -0.486997711
H -0.1757033023 -1.6282505051 1.0398916598
H -2.9781275172 -0.8623102656 0.0895847896
H -2.4786056566 -1.2608075472 1.7363186367
H -2.8710328391 1.3218535321 1.1275599792
H -1.1075239143 2.9633262527 2.5311983517
H 0.3921628481 2.0631353061 2.8424329303
H -0.3619378385 3.3187692126 0.3365603766
H 0.9509130362 2.1507762982 0.4873299767
H -1.4595072944 1.5966875657 -0.9104319573

