# b3lyp 6-31G(2df,p) opt Freq 

 titel

0 1
C -2.0401597557 -2.6168257468 -1.9474913808
C -1.650720688 -1.2601404598 -1.4024956745
C -2.297349989 -0.7318710189 -0.1645867576
C -0.8544666876 -1.2045061836 -0.096758121
C 0.0002836534 0.0086995917 0.0792124369
O 1.161214097 0.0263719311 0.4026283902
C -0.8758884378 1.2457678504 -0.1871121901
C -2.3234370733 0.7859437726 0.0384991102
O -2.647471702 1.1173593542 1.3838347596
H -2.3058522256 -3.3062472377 -1.1398062223
H -2.9040153112 -2.5356247846 -2.6162266993
H -1.2178974316 -3.0658522276 -2.5138379408
H -1.3764392189 -0.5362832796 -2.1666751341
H -3.0918263087 -1.3148151877 0.2927785968
H -0.5412647793 -2.1347214881 0.3604840545
H -0.6102263943 2.0596082667 0.4888598258
H -0.7086292864 1.5958767212 -1.2113390355
H -3.0263043597 1.2715172346 -0.6547048523
H -3.5232766514 0.7670772018 1.5767351343

