# b3lyp 6-31G(2df,p) opt Freq 

 titel

0 1
C -0.2638939539 -0.3021623227 -0.1679508376
C 1.2237650436 -0.0163234187 0.0130204666
C 1.7291038738 -0.6324303419 1.2977779553
O 2.7363756702 -0.3111468299 1.8886745004
C 2.2032444164 -0.4499477391 -1.1195408126
C 1.9830874588 0.3399043827 -2.3797488345
C 2.745595464 0.9658007474 -1.248058392
C 1.7443219755 1.4803431108 -0.1952633288
O 2.2524252799 2.1541585686 0.9109331054
H -0.8576153337 0.2083744526 0.5987962322
H -0.617569525 0.0401005848 -1.1433736177
H -0.4760363155 -1.3754976372 -0.0972330365
H 1.1119595822 -1.476305823 1.6809091829
H 2.738622884 -1.3923824277 -1.1260228325
H 2.5751033362 0.0110246794 -3.2278626351
H 0.9974756087 0.7120098794 -2.6489440922
H 3.7692338424 1.307698479 -1.3358038728
H 0.9660113539 2.1271900706 -0.6167617093
H 2.8165091385 1.529407315 1.3932760086

