# b3lyp 6-31G(2df,p) opt Freq 

 titel

0 1
O -1.9867708353 0.3091724921 -2.9587645245
C -1.1008082763 -0.4219200295 -2.168657822
C -1.1472682366 -1.9663107581 -2.1920978893
C -0.9320172557 -1.9948964821 -0.6479282339
C -1.0655509237 -0.4462175985 -0.5737705159
C 0.2791850379 0.265268776 -0.6457847012
C 0.8403028843 1.2804729516 0.2450964875
O 1.379997233 -0.0487193782 0.1925686713
C 0.3208333477 0.1989040107 -2.1790871609
H -2.8592936634 -0.0927510359 -2.8898002227
H -2.1431292649 -2.3295386175 -2.4707427314
H -0.4118863638 -2.4737165293 -2.8233385184
H -1.7040745587 -2.537378321 -0.0996060651
H 0.0426888583 -2.3624405917 -0.3203081747
H -1.8426304503 -0.0333991578 0.0710196399
H 1.483113503 2.0618292634 -0.1599315645
H 0.3237387777 1.5375304266 1.1695180644
H 0.339163648 1.1728106981 -2.6734375318
H 1.1103897991 -0.4335902888 -2.5936124668

