# b3lyp 6-31G(2df,p) opt Freq 

 titel

0 1
C -0.7315702093 -0.4164227318 -1.089871673
O -1.4527025339 -0.1519643028 0.1063670889
C -0.7828370572 0.8006421263 0.9412786915
O -0.7614119616 0.3232210618 2.2574732033
C 0.2609276547 -0.6238081878 2.5810356804
C 0.8822314522 -1.3202046967 1.3636192758
C 1.394584732 -0.2637618139 0.3883896741
C 0.6665099003 0.1250792051 -0.878977654
C 0.5918527562 1.0176297659 0.3262813659
H -0.7628028892 -1.4980841611 -1.2756703304
H -1.2051280953 0.0845306516 -1.9472774615
H -1.3803121014 1.7174773731 0.9898004405
H 1.0554774752 -0.1016564012 3.1350243624
H -0.1957930021 -1.3516301162 3.2595227805
H 1.7081747201 -1.9501849973 1.7081234098
H 0.1468443446 -1.9819559486 0.898813686
H 2.472345486 -0.1451573186 0.3452547384
H 1.2511198438 0.4008210705 -1.7487639402
H 1.0526472546 1.9948393519 0.3894883917

