# b3lyp 6-31G(2df,p) opt Freq 

 titel

0 1
O 0.5591612444 0.6425233222 0.5431473295
C -0.6012585203 -0.0312462687 0.9900650067
C -1.7303200593 0.0414580074 -0.0506121783
C -2.8367779158 -0.7529257825 0.6957813251
C -2.8292830332 0.4652050786 1.6471490238
C -2.5086356128 1.3359585407 0.4100260815
O -1.7741527321 2.4729320463 0.7940169751
C -1.1750471801 2.152070765 2.0598599623
C -1.3743126939 0.636976612 2.1851164352
H 1.2669704565 0.4762244092 1.1732221774
H -0.358084869 -1.0785282645 1.2173912845
H -1.4565477716 -0.1589057975 -1.0855689886
H -3.7696173634 -0.8205618194 0.1310925049
H -2.5741928081 -1.7376293212 1.091318989
H -3.6453244503 0.6935667113 2.3329276525
H -3.3356406183 1.622649533 -0.2401161462
H -0.1216811654 2.4413670117 2.0339437546
H -1.6805030754 2.7035398651 2.8659283457
H -1.1575419417 0.2307784114 3.1746840455

