# b3lyp 6-31G(2df,p) opt Freq 

 titel

0 1
C 1.1262188436 -0.3047264393 1.1317590723
C 1.2684606556 0.2751876845 -0.2804460503
C 1.8181599003 -0.7240735027 -1.2797756299
C 1.454649926 -0.5599856492 -2.7198031909
O 2.1866951432 -1.4769929796 -3.5425986959
C 1.5526205015 -2.6060405829 -2.8848168797
C 0.6111522308 -3.3195447279 -3.8371248729
O 0.2256605806 -4.4464635607 -3.6702586716
C 0.8152219938 -1.6735485478 -1.9174838496
H 0.4433267981 -1.1602635964 1.14204163
H 2.093170092 -0.6485014638 1.5141340328
H 0.7390949437 0.4449593613 1.8283288485
H 0.2932666913 0.6394068533 -0.6293432437
H 1.929083871 1.1508079462 -0.2551937751
H 2.8153424901 -1.1053532422 -1.0631063155
H 1.067569467 0.3410506269 -3.1818320803
H 2.2688519884 -3.3163323737 -2.4571305795
H 0.2900962307 -2.6936176923 -4.6992766062
H -0.1940915177 -1.8102971835 -1.5531101824

