# b3lyp 6-31G(2df,p) opt Freq 

 titel

0 1
C 0.0544826202 0.112737131 0.0610719435
C 1.5418549203 -0.069979278 -0.1734631053
O 1.8255268839 -1.1248261369 -1.1273980212
C 2.7023232848 -1.8160610894 -0.2066888907
C 2.3865938283 -0.7973522865 0.8786029066
C 3.2388075559 -0.1531423935 1.940320252
C 4.0502977875 -1.2354289613 2.6457918924
O 2.8589351667 -2.0409566085 2.8729820692
C 2.04188138 -1.0096337676 2.3107958558
H -0.1287080914 0.8986059733 0.8026630552
H -0.434947079 0.4088194737 -0.871936678
H -0.4020897528 -0.817413427 0.4106902378
H 1.9914423922 0.8772294754 -0.5081897664
H 2.3759136282 -2.8438938886 -0.0117722107
H 3.7414252057 -1.8265169294 -0.5622629734
H 3.3973773268 0.9158395299 2.0044204492
H 4.8102327201 -1.7684726531 2.0621634149
H 4.4769211898 -0.9109163392 3.6010451359
H 1.089218473 -0.7973811643 2.7829190132

