# b3lyp 6-31G(2df,p) opt Freq 

 titel

0 1
C 3.1449945145 -3.3138309154 0.2714189907
C 1.6592942269 -3.017178861 0.2881589711
O 0.815886017 -3.8752560725 0.4399823749
C 1.2988479264 -1.6224132286 0.1084614593
C 0.9965392805 -0.4629861138 -0.0477302785
C 0.5670848909 0.9361890765 -0.2059755367
C 0.6431189187 1.6479834672 1.1592561485
C 1.4326975302 1.6521483493 -1.2518900059
O -0.7659654898 0.9865062962 -0.7190031506
H 3.6524804806 -2.7420370503 1.055829442
H 3.3059174363 -4.3821423623 0.4227959448
H 3.5793065204 -3.0004290061 -0.684123159
H 0.0082519581 1.1423846696 1.8929936669
H 1.666510878 1.6587133942 1.5445456065
H 0.2929711571 2.6770703498 1.0416188912
H 1.3635100289 1.1378612678 -2.2126338599
H 1.0674833504 2.6751940968 -1.3761793117
H 2.4782016222 1.6803566453 -0.936538414
H -1.3216744072 0.4337138374 -0.1582225396

