# b3lyp 6-31G(2df,p) opt Freq 

 titel

0 1
C 0.1395258841 -0.1137892953 -0.3403663192
C 1.5579469615 0.217067006 0.0391702086
C 2.7964061452 -0.4341640503 -0.637692631
C 3.3478293091 -0.203634134 0.7878791769
O 1.9942193945 -0.4194615932 1.2922055966
C 3.6560337033 1.3350312362 0.947583224
C 2.4338496977 1.9937232511 1.6342498337
C 1.8796623868 1.7623474722 0.2067308458
O 3.2346775425 1.9802095152 -0.2963047101
H -0.5662712579 0.3216497021 0.3759080299
H -0.0927033371 0.2880225146 -1.3321653371
H -0.0114861724 -1.1963640602 -0.3556553525
H 2.6183432044 -1.4957786367 -0.8159442895
H 3.2677333872 0.0522587051 -1.4874417363
H 4.0804536839 -0.8706150254 1.2454398695
H 4.6842730922 1.5763565855 1.2227943542
H 1.9631166732 1.5084445408 2.4847203476
H 2.6148712253 3.0546791759 1.8092768453
H 1.1450544866 2.4291182603 -0.2499884461

