# b3lyp 6-31G(2df,p) opt Freq 

 titel

0 1
C 1.3474678371 -0.1832142806 0.0798270854
O -0.040311387 0.1027720779 0.0222934791
C -0.5482765756 0.7931849204 1.1102620957
C -1.9168177538 0.4229867302 1.535480836
C -0.7428849176 0.1202256887 2.4778466829
C -0.4475996796 1.1465389295 3.5159513587
O -0.1932981573 0.9409395379 4.6776474057
C -0.4338075941 2.5261547548 2.8328608563
C -0.1263001858 2.2459873073 1.3465799904
H 1.6098626461 -0.7130508034 1.005332283
H 1.568288584 -0.8244083319 -0.7759994825
H 1.9638993591 0.7224354811 0.0060548671
H -2.6364613359 1.1886012906 1.8059150838
H -2.3376677027 -0.4532582295 1.0564147026
H -0.5012908114 -0.9163874422 2.6740716142
H -1.4185544829 2.9907046315 2.9628737644
H 0.2915649318 3.177192043 3.3237083289
H -0.6357501958 2.9289979894 0.6599100536
H 0.9487540712 2.3454920651 1.1671347746

