# b3lyp 6-31G(2df,p) opt Freq 

 titel

0 1
C 0.8486113165 0.9478978846 0.0743744667
C 0.857684361 -0.5680525121 0.2408658577
C 1.424438885 -1.3687583233 -0.9796162517
C 2.6085227168 -1.8941661375 -0.1176252901
C 2.3615178479 -3.2107894219 0.6605288032
O 0.9619915094 -3.283431693 0.9772335502
C 1.8027804813 -2.4902203814 1.8160104681
C 2.027605975 -1.1201419994 1.1239899303
O 2.7633773395 -0.2785315394 1.9550679899
H 0.6252510793 1.4545411471 1.0190095218
H 1.8124466028 1.3260367404 -0.2925857334
H 0.0930817454 1.2511995422 -0.6575994848
H -0.1249397347 -0.9140417918 0.5715082702
H 0.7627053602 -2.1422812507 -1.3707907529
H 1.7464755848 -0.7239013824 -1.8021112773
H 3.6320975717 -1.7365714328 -0.4580770207
H 2.8942597618 -4.1531104162 0.5978314237
H 1.8064732303 -2.697397133 2.8807921792
H 3.032771136 0.4958500605 1.4503527098

