# b3lyp 6-31G(2df,p) opt Freq 

 titel

0 1
O 1.5624374593 0.5235241429 0.3792101419
C 0.2205188472 0.1004760965 0.2089955265
C -0.5728417498 0.2352188271 1.476957035
O -0.6185032595 1.5863818713 1.9210644629
C -1.8717962164 1.7673222666 2.5950280052
C -2.2864238536 0.3525327559 2.9900577871
C -1.1492575991 -0.3148614036 3.8321890637
C -0.5546617968 -0.8546579661 2.5323041887
C -1.836407393 -0.4949545304 1.763422385
H 1.5195385669 1.407222319 0.7620099928
H -0.2781215927 0.6735790639 -0.5886059168
H 0.2550041265 -0.948608925 -0.1018525297
H -1.7078692495 2.4274690325 3.4532944654
H -2.6044243235 2.236058087 1.920234541
H -3.307011073 0.2550303959 3.3574591403
H -0.526283789 0.3517549614 4.43833652
H -1.5364024277 -1.1201902219 4.4609693172
H 0.0773020101 -1.7293991969 2.425867719
H -2.4462834663 -1.0521050961 1.063821825

