# b3lyp 6-31G(2df,p) opt Freq 

 titel

0 1
C -0.0207012429 -0.1988408805 -0.4153682381
C 1.1633666505 -0.2346595 0.5206417773
C 2.3689647 -1.1423875378 0.134837302
C 3.5467909683 -0.4369924033 0.8770701538
C 2.7993196981 0.7416869927 1.5571634904
O 1.7869945069 1.0565405975 0.6041189905
C 1.9912700428 0.1207026684 2.7061703948
O 0.653088469 0.6096924923 2.8082446689
C 0.8933668235 -0.5474506027 2.0064728416
H -0.7735301986 0.5032511858 -0.0469547902
H 0.2903326033 0.1172298109 -1.4153527512
H -0.4786074004 -1.1898286103 -0.4936862873
H 2.2269415852 -2.1802766678 0.4504129017
H 2.5130085541 -1.1369411687 -0.9483267611
H 4.0503586388 -1.0880438588 1.5976617892
H 4.2974648324 -0.0626741715 0.1780303625
H 3.3892989093 1.6295548749 1.7828343067
H 2.4593875417 -0.2437601015 3.6152887144
H 0.4298176979 -1.4772209898 2.322803644

