# b3lyp 6-31G(2df,p) opt Freq 

 titel

0 1
C -0.0158193782 0.0465847019 0.0532029871
C 1.4797639391 -0.0457412257 0.0333258807
C 2.3290826386 -1.1595317307 0.7171415019
C 3.4516933134 -0.5527823441 -0.1880627294
C 3.5139587805 0.8720461096 0.3775422288
O 2.101306446 1.165383293 0.5149825551
C 2.3252466664 -0.349523694 -1.2190517118
C 2.2516508093 0.0410666899 -2.6175778327
O 1.9619547725 -1.3110324123 -2.1830471883
H -0.3875802526 0.1263580669 1.0789276316
H -0.3497369181 0.9305094284 -0.4990849379
H -0.4509587287 -0.8419339658 -0.4122014929
H 2.4499829276 -1.0880364759 1.8007169838
H 2.0410754364 -2.1653994569 0.4085590414
H 4.3825703439 -1.0670586754 -0.4189149231
H 4.0069860338 0.9340649281 1.3548911243
H 3.9819702367 1.5910779855 -0.3050740611
H 1.3927388849 0.6006336993 -2.9843263824
H 3.1620615084 0.1478847481 -3.205542845

