# b3lyp 6-31G(2df,p) opt Freq 

 titel

0 1
C 0.2990975801 0.0098541324 -0.5791971739
C 1.1459241143 0.3892533425 0.6086013811
O 2.4859305766 0.8635486723 0.3465224436
C 2.3126708837 -0.3768704235 1.0553842729
C 2.8440110922 -0.417526276 2.4863987934
C 4.0064207088 -1.3777706853 2.3751136514
C 4.0359518788 -2.0039988395 1.2002719058
C 2.8817541464 -1.6036965305 0.3042736495
O 3.231157313 -1.315098356 -1.0341480671
H -0.5733650115 -0.5649435169 -0.2495087162
H -0.0674238325 0.9080693357 -1.0869632863
H 0.8719242522 -0.5883807118 -1.2901245874
H 0.6362524766 0.9894255484 1.3654626639
H 3.1315986613 0.5850167169 2.82157634
H 2.0827820089 -0.7849950281 3.1882935788
H 4.7075080481 -1.5322880637 3.1877735122
H 4.7606856502 -2.7454239145 0.8855569611
H 2.1366432076 -2.411842472 0.2636204215
H 3.3887964452 -0.3601893402 -1.0590322643

