# b3lyp 6-31G(2df,p) opt Freq 

 titel

0 1
C -0.1222638181 -0.0738546206 0.0292532848
C 1.3939972018 -0.0698113192 -0.0573167168
O 1.8721221086 -0.7985284775 1.067345714
C 2.0664166136 1.344855412 -0.1286375605
C 3.0352162377 1.1529852428 -1.3378843287
O 3.3597723171 -0.2463147105 -1.227736064
C 2.0045055611 -0.7218729796 -1.3505346303
C 1.5174436277 0.0109022391 -2.5904796095
C 2.1675047039 1.1737836615 -2.5939899376
H -0.4466353268 0.392748973 0.9639599483
H -0.5639353506 0.476097648 -0.80548801
H -0.5017988687 -1.1004756365 0.0193424723
H 2.8258978472 -0.8808343639 0.9407709876
H 1.3582521194 2.1610931208 -0.2846536696
H 2.6087404805 1.5268020673 0.8016239041
H 3.941543392 1.7568471756 -1.3357358781
H 1.9707346903 -1.8107830871 -1.3457372791
H 0.7429982352 -0.336562351 -3.259799001
H 2.0494976881 2.018062926 -3.2593548059

