# b3lyp 6-31G(2df,p) opt Freq 

 titel

0 1
C 0.5071965538 0.8748693149 -0.0593832622
C 0.9122211709 -0.5876011409 0.0246464065
C 2.021567904 -1.2216212693 -0.8636365367
O 2.098728469 -2.3348813809 0.1116507066
C 2.0532726363 -1.1054150066 0.9619273431
C 2.1124458129 -1.2635169034 2.4465098836
C 3.0786947997 -0.5015174709 -0.0202969802
C 3.9654273502 0.6507392008 -0.1055479814
O 4.4581110396 -0.7081127863 -0.0212774029
H -0.091237453 1.1572374567 0.8135027691
H 1.3662082193 1.548021401 -0.1088333501
H -0.1094376192 1.0516885563 -0.9470597443
H 0.0520684069 -1.2596885113 0.0796887091
H 2.0131968514 -1.4768859868 -1.9226007717
H 1.3040454217 -1.9120031374 2.7964501242
H 3.0691489316 -1.7042170163 2.7419014828
H 2.012393295 -0.2896883666 2.9366164337
H 4.133767699 1.1440906115 -1.0616922379
H 4.1539666009 1.2657025754 0.7733849588

