# b3lyp 6-31G(2df,p) opt Freq 

 titel

0 1
O -0.6011010515 0.2241963338 0.0580441641
C -1.973891878 0.1723246955 0.3568982523
C -2.8898640171 0.3473605653 -0.8973020779
C -2.683028804 1.8867860531 -0.7275509747
C -2.5105980388 1.5790027056 0.7785445576
O -1.5950428369 2.4140311144 1.4542650263
C -3.8718994027 1.4472014757 1.4700621438
C -4.7619555822 0.5269569285 0.6620602084
C -4.2991878794 0.0035048618 -0.4748832386
H -0.2447766039 0.9678699871 0.5644611516
H -2.2054409773 -0.6824470548 1.0064922939
H -2.5649725197 -0.1232872979 -1.8240810378
H -1.7367125768 2.2131277312 -1.1596840318
H -3.4965841942 2.5503097196 -1.0275053247
H -1.678483345 2.2569912442 2.4022735663
H -3.7341580151 1.0478885681 2.4878038085
H -4.3288927937 2.4398506449 1.5882638813
H -5.7628708088 0.32302432 1.0295391364
H -4.900705845 -0.6631383659 -1.084481035

