# b3lyp 6-31G(2df,p) opt Freq 

 titel

0 1
C -4.0109835077 -1.0592105921 -1.8752218133
C -2.5070750884 -0.7926651258 -1.7892101606
O -2.0868667557 -1.2444379257 -0.5083831534
C -0.693235217 -1.2967006706 -0.3231999649
C -0.060865294 0.0428869677 0.0761036614
O 1.1179491545 0.1215340323 0.3159346075
C -1.0197443523 1.2280141022 0.1370906495
C -1.581502545 1.5208266642 -1.240510623
C -2.1828850263 0.6555883555 -2.0568438661
H -4.5394436325 -0.4848044493 -1.1093658187
H -4.3975224501 -0.7684551646 -2.8559835435
H -4.2126055279 -2.1219016792 -1.7188409386
H -2.0028831448 -1.4046034197 -2.5613400073
H -0.4993123768 -2.0022362933 0.4924945616
H -0.1702862834 -1.678759587 -1.2136298873
H -1.8257290589 0.986639574 0.8396584762
H -0.4667093478 2.0861078925 0.5220341614
H -1.426054859 2.5346113616 -1.5989954839
H -2.502798617 1.0056862771 -3.0369057571

