# b3lyp 6-31G(2df,p) opt Freq 

 titel

0 1
C 2.5246062932 -2.1786512791 -0.2506584658
C 2.0281679071 -1.1299174325 0.7323199495
C 2.706245877 -1.0753029998 2.1412023194
C 2.8498655502 0.4379435784 1.9630823883
C 2.4506613846 0.355474207 0.485764358
O 2.2622259733 1.3602852704 2.8539519025
C 3.694378523 1.396890489 2.7101623346
C 4.2306785098 2.6002524132 2.0140522456
O 5.3572754203 3.0067208685 2.1471616618
H 2.2783266584 -3.1900328872 0.0903569032
H 2.0733976149 -2.0409737541 -1.2392533147
H 3.6129082159 -2.1224301572 -0.3698873942
H 0.941698758 -1.2007114619 0.8389138444
H 2.1075766836 -1.3885005209 2.9993987933
H 3.6697971318 -1.5938915317 2.1685276745
H 1.6689357365 1.051417013 0.1733016899
H 3.3020759909 0.4456778476 -0.1962172331
H 4.271419255 1.0434960651 3.5634992393
H 3.4913254067 3.0942881123 1.3452598736

