# b3lyp 6-31G(2df,p) opt Freq 

 titel

0 1
C -0.1617031951 -0.1093777308 0.1390497198
C 1.0390687455 -0.06107953 0.1154018136
C 2.4966256158 -0.0079430617 0.1155616459
C 3.1164372882 -0.2312356687 1.5088834186
C 2.7058909054 0.8554728577 2.5121278132
O 3.3834963198 0.6779793591 3.7477439841
C 4.7728703207 0.6786489317 3.5670343199
O 5.2143177812 -0.3616549175 2.7344346657
C 4.6493378676 -0.2547332769 1.4370131859
H -1.2226241635 -0.1527613826 0.1481443958
H 2.8872941431 -0.764678806 -0.5776143457
H 2.825839674 0.9631270911 -0.2797594494
H 2.7793155373 -1.1968253576 1.9014667765
H 2.9386829525 1.8521271078 2.0950028867
H 1.6359053393 0.818248109 2.7259813788
H 5.0957981068 1.6527075499 3.1483613353
H 5.2261372413 0.5179959254 4.5469190535
H 5.0127556833 0.6639343734 0.9414375459
H 5.0131568667 -1.1132242035 0.8648712759

