# b3lyp 6-31G(2df,p) opt Freq 

 titel

0 1
C 1.6236700815 0.9227333587 -0.0378219931
O 0.2808122925 0.4813974733 0.0301494871
C -0.3455849596 0.7740858313 1.2420180364
C -1.7890666948 0.2566298249 1.3172271342
O -2.2866359829 1.5708714834 1.6528541525
C -0.9964856741 2.1754485827 1.4199568673
C -0.5855117905 3.0531696833 2.6044492235
C 0.6903047017 3.7236370497 2.3930720567
C 1.7454354207 4.2632848524 2.1898338834
H 2.2410403772 0.4453393528 0.7384396358
H 2.0040128514 0.6367821791 -1.0209626542
H 1.7053028469 2.0115577243 0.0809530026
H 0.2861047589 0.4863299077 2.095866294
H -2.1553278009 -0.0915370189 0.3441248958
H -2.0235946118 -0.4830376153 2.0895929689
H -0.9830948543 2.7551709731 0.4873545646
H -1.3784206592 3.7935932167 2.7690461912
H -0.5484146556 2.4345161139 3.5097889817
H 2.6735135031 4.753556897 2.0289672417

