# b3lyp 6-31G(2df,p) opt Freq 

 titel

0 1
O -0.800679224 0.472032362 0.5581167921
C -2.0843284211 -0.0026689257 0.3585552613
C -3.3682352165 0.7618979628 0.6897868764
C -4.0644160077 -0.6046126415 1.0133428312
C -2.7550742849 -1.3392108117 0.7117888207
C -2.325877506 -1.0201725968 -0.7137029017
C -1.1353924358 -1.7550157126 -1.2334077368
C -0.7831490625 -1.7519919614 -2.6575570733
O -1.4047718852 -2.8933268816 -2.0630243618
H -0.7081753355 0.7122368149 1.4868636192
H -3.2591730548 1.3813305428 1.5854359593
H -3.7931826387 1.3769355705 -0.1102263999
H -4.3783156352 -0.6789113354 2.0566431703
H -4.9114659043 -0.8708846594 0.3731980288
H -2.3711199031 -2.2143027957 1.2224321839
H -3.0952089483 -0.8424009407 -1.4660314692
H -0.3310574403 -1.9053889537 -0.5145565544
H -1.4025624233 -1.196118527 -3.3609562938
H 0.2546942569 -1.8845525198 -2.9607800423

