# b3lyp 6-31G(2df,p) opt Freq 

 titel

0 1
C 2.2794568393 -0.6543666701 -1.2126880016
C 1.5899216703 0.200143963 -0.152082665
O 1.801758595 -0.4445914294 1.0979678963
C 1.4613829815 0.3560495678 2.2137496266
C 2.3865706729 1.5797838995 2.3192496492
C 3.7927067207 1.1676774024 2.7408151469
O 4.4620307017 1.7510773866 3.5533272198
C 2.4595379843 2.2519429185 0.9668345373
C 2.0865862093 1.6230629423 -0.1460011744
H 1.9028767134 -1.67943029 -1.1671165511
H 2.0866501879 -0.2547793931 -2.2126264344
H 3.3597797651 -0.670721792 -1.0435782478
H 0.5041873744 0.2142124402 -0.3659173505
H 0.417170685 0.7002609597 2.1483474886
H 1.5490679774 -0.2918370995 3.0913624353
H 2.0141382935 2.2823585441 3.0728065289
H 4.1697176177 0.2683243134 2.2060644267
H 2.8385081854 3.2690837033 0.9367747018
H 2.1108638852 2.1292663732 -1.1076041024

