# b3lyp 6-31G(2df,p) opt Freq 

 titel

0 1
C 0.0845204361 0.1981682108 0.0963613857
C 1.5821612928 -0.1360445484 0.0797258719
C 2.0523161962 -0.8784649013 -1.1611590265
C 2.7628891158 -1.9723551524 -0.8758707948
C 2.8422193807 -2.1901265022 0.5984812995
O 4.0243968439 -2.6511198494 1.1651376738
C 1.5139730441 -2.4678999538 1.2955988227
C 2.0560096757 -1.0558420408 1.2097955804
O 2.5991950777 -0.4714787202 2.3599872949
H -0.1854855666 0.7257407129 1.0174145567
H -0.1832895269 0.8441215059 -0.74599522
H -0.5272702054 -0.7070616641 0.0309200403
H 2.1399939766 0.8075542817 0.1733404928
H 1.8028607065 -0.5354459793 -2.1595585202
H 3.2158356308 -2.6503765219 -1.5894931703
H 4.2720870245 -2.0056503032 1.8406166005
H 0.6475857266 -2.7593888363 0.71144348
H 1.6050941704 -2.9378021676 2.2704831964
H 1.9295857106 -0.4610168903 3.0512968863

