# b3lyp 6-31G(2df,p) opt Freq 

 titel

0 1
C 0.0634503338 0.4072615665 0.2183111433
C 1.5263237413 0.0406812817 0.0764230458
C 2.0636394816 -0.7887349711 1.2391663223
O 3.3118673808 -1.3867161383 1.0078377519
C 4.4422867744 -0.5889173815 1.2659002239
C 4.7082062875 0.5306643058 0.2998763593
C 3.864259068 1.1220805732 -0.5462483062
C 2.4127015696 0.8831750306 -0.7508551425
O 1.9288322027 -0.3995601309 -1.2170247813
H -0.1114851408 0.9861556143 1.1319556348
H -0.2690323442 0.9997629493 -0.6370146604
H -0.5551419772 -0.4956095937 0.2676570912
H 2.0749955104 -0.1701724428 2.152623813
H 1.3636202838 -1.6152690178 1.4137299687
H 4.3982775559 -0.1767587003 2.2923476393
H 5.2957846889 -1.2774641193 1.2489047494
H 5.7375816526 0.8865980451 0.3203257449
H 4.2629811273 1.9225310325 -1.1654387312
H 1.9255044936 1.7121914266 -1.2669748063

