# b3lyp 6-31G(2df,p) opt Freq 

 titel

0 1
C -1.8760221203 0.24277722 0.2059941868
C -0.9142756904 -0.7962210643 -0.3020830754
C -0.2986885663 -2.012310683 0.4539872507
C 0.309115451 -2.0874472971 -0.975973959
C -1.1365466933 -1.7785770948 -1.4817817541
O -1.344073318 -1.1772337565 -2.7343417495
C 0.534122301 -0.5524713498 -0.9238002919
C 1.606492382 0.0525553595 -0.0719881647
O 2.4066470143 -0.5518554088 0.6018762751
H -1.4482788194 0.8136792176 1.0366028314
H -2.1465670317 0.9448249512 -0.589336394
H -2.7968103911 -0.2303864255 0.5649271844
H 0.3986964866 -1.7963458698 1.2601359808
H -1.0004584647 -2.8058244065 0.7290000238
H 1.0063436689 -2.8333744856 -1.3565301206
H -1.8752082665 -2.5686127309 -1.2878774011
H -1.2836106867 -1.8574807649 -3.412025069
H 0.4901583152 -0.0300517722 -1.8836774081
H 1.6297097195 1.1679491814 -0.1066681255

