# b3lyp 6-31G(2df,p) opt Freq 

 titel

0 1
C -0.0696371676 -0.1044763507 0.2093205605
C 1.3982228641 0.171460093 -0.044275234
C 2.0724286938 1.291105971 0.6467957726
O 2.2626700527 -0.0473665092 1.0907752099
C 1.9151380145 -0.2818181395 -1.3151676284
C 2.3029751878 -0.6885355762 -2.3812473031
C 2.8108485055 -1.1250152985 -3.6745430636
C 3.5253972904 0.0054500738 -4.4438414163
O 4.0507289468 -0.4430194739 -5.6779926151
H -0.3570180896 0.266491595 1.1961939744
H -0.6890382778 0.3820059846 -0.5502685493
H -0.2655017979 -1.1799173335 0.1694346005
H 2.9381333466 1.7612067804 0.1837487776
H 1.4877067122 1.930582158 1.3080214306
H 3.5141327315 -1.9569539032 -3.548215089
H 1.9838902013 -1.5092884021 -4.2881852467
H 2.8388189519 0.8548473035 -4.5716065729
H 4.3785118212 0.3596561292 -3.8582540111
H 3.3128100227 -0.6343488015 -6.2655399066

