# b3lyp 6-31G(2df,p) opt Freq 

 titel

0 1
O 1.2672543196 0.6473188092 0.0894452407
C 0.1186199785 -0.1642085391 -0.0382038094
C -1.0883483048 0.6616621916 -0.4963701592
O -0.7372370359 1.3187662686 -1.729558762
C -1.6296546507 0.9178855265 -2.7543766203
C -1.0817627871 0.7569616267 -4.1487209062
C -1.9791866376 1.9319596116 -3.8120502767
C -2.6006632467 -0.0018398326 -2.1253036914
C -2.3136367125 -0.1430087357 -0.8343116451
H 1.3374184043 1.1297011501 -0.7434154959
H 0.2761473339 -0.9875201269 -0.7533217786
H -0.0786033672 -0.6027077055 0.9465800637
H -1.2825618847 1.436954763 0.260763392
H -0.0236364357 0.9585544946 -4.273688632
H -1.4709846667 -0.0405704223 -4.7729037433
H -1.5103374952 2.9045532374 -3.7130943718
H -2.9909150462 1.9494065693 -4.2032126321
H -3.4130319435 -0.4628017132 -2.672073932
H -2.8450955218 -0.7456941531 -0.1096170504

