# b3lyp 6-31G(2df,p) opt Freq 

 titel

0 1
C 1.4431174205 -0.1322703932 0.0001970051
O 0.0448239966 0.0382936393 0.0521272617
C -0.3865978475 0.7060073196 1.2132163573
C -0.1979228515 2.2637326327 1.2080205896
C -1.7423959373 2.4468107499 1.2240886805
C -2.442063632 2.4501381686 2.607287484
O -1.7014296634 1.5933522406 3.484794996
C -2.6248677578 0.9876060573 2.5675669313
C -1.9265148857 0.8942035948 1.190049791
H 1.8117778842 -0.7132155804 0.8603365367
H 1.6711833489 -0.6767082626 -0.9194875675
H 1.9782823439 0.8291788261 -0.0175127282
H 0.0025034284 0.2118938704 2.1135599517
H 0.3447568186 2.6863221268 2.0553308723
H 0.2506760959 2.6062843817 0.2721344683
H -2.2041002758 3.0884674843 0.4742030433
H -3.0285964258 3.2338899677 3.0738054229
H -3.3843025311 0.3442834993 2.9978572278
H -2.4681739391 0.3920527473 0.3903011364

