# b3lyp 6-31G(2df,p) opt Freq 

 titel

0 1
O 2.2485741893 0.6518675395 -1.74773569
C 3.0927573632 -0.2575798689 -1.0794956873
C 2.7511096327 -1.7267285341 -1.2228539767
C 3.8920002468 -1.1201350292 -2.0104588518
C 3.6541123266 0.2544856037 0.199987612
C 5.0528588195 0.0140030477 0.7388265852
C 4.5742287156 1.4152689115 0.5186964466
O 3.7794539574 1.8582917376 1.6191276116
C 2.8051549129 0.8177185508 1.3462096999
H 1.4061727056 0.6754399844 -1.2816758126
H 2.9929404598 -2.3922507383 -0.401506956
H 1.843574642 -1.9700430875 -1.7641366806
H 4.9053963844 -1.3958578675 -1.745480578
H 3.7261814273 -0.9404021277 -3.065961659
H 5.20154026 -0.3475294304 1.7532033432
H 5.7682666418 -0.3502932798 0.0089418188
H 5.0554247264 2.1621506541 -0.1012333266
H 2.6218753091 0.1727665001 2.2140869169
H 1.8607605595 1.2642299242 1.0114006943

