# b3lyp 6-31G(2df,p) opt Freq 

 titel

0 1
O 0.6370869616 0.2384648383 0.6288653459
C -0.6685253447 -0.1897132433 0.9107311387
C -1.8166356687 0.2263789001 -0.0423077609
O -2.5564655835 0.8280458404 1.0439488783
C -1.4849875361 0.5685452425 1.9609132702
C -1.6491948504 0.2521533973 3.3988518211
C -2.7832867552 1.0975021079 3.9946446575
C -2.0602980572 2.399923628 3.5197029517
C -0.9261705281 1.5516299502 2.9305075707
H 0.6188515775 1.196779445 0.5264940402
H -0.5996303731 -1.2659809641 1.084458989
H -1.5119204777 0.9632858244 -0.7977432345
H -2.3795737095 -0.5791826742 -0.525302681
H -1.235508808 -0.6515172251 3.8346083469
H -3.7763971125 0.9083513246 3.5784806852
H -2.8347994692 1.0276607481 5.082846868
H -2.5997041441 3.0224904243 2.8006016608
H -1.7351547215 3.0222253355 4.3554904144
H 0.1311354103 1.7949840702 2.9511491778

