# b3lyp 6-31G(2df,p) opt Freq 

 titel

0 1
C -0.5497173579 2.1380588793 1.25494803
C -0.8780083965 1.2386383308 0.0612367468
C -0.7507120422 1.9957618881 -1.2649798192
O -2.220106566 0.729252306 0.1765386391
C -2.2285741619 -0.6756042897 0.1855876626
C -1.6664337068 -1.3413613039 1.3937421614
C -0.8208417863 -1.2137538224 0.1170607737
C 0.0423375669 -0.0026561764 0.0176622471
O 1.2359193636 0.0419060266 -0.1492388782
H -0.6824221236 1.6080916077 2.2018909604
H 0.4887176063 2.4737033699 1.1886854317
H -1.2062685903 3.0127906148 1.2587477567
H -1.0217437889 1.3509303837 -2.1057953086
H -1.4193844299 2.8611873618 -1.2651003359
H 0.2795556543 2.3339252868 -1.4039361456
H -3.0560996541 -1.1051511328 -0.367826541
H -1.4175167986 -0.7320344333 2.2549240653
H -1.9911026923 -2.3499364276 1.625088695
H -0.517182796 -2.1112154992 -0.4056244513

