# b3lyp 6-31G(2df,p) opt Freq 

 titel

0 1
O 1.2907543735 0.310315559 -0.3944944314
C 0.1145961224 0.1656441033 -0.1819982633
C -0.9029612272 1.2659920129 0.1308954219
O -2.1114731391 0.5968451662 0.4355215007
C -2.0975414201 -0.6519099816 -0.2621921949
C -0.6553568903 -1.1473770711 -0.1769299491
C -0.1856343271 -2.2803025898 -1.1229970039
C -0.2558842682 -3.285380538 0.0574050836
C -0.3272840274 -2.0861604469 1.0390726302
H -0.5969510871 1.8821758919 0.9813011728
H -1.0002747125 1.9209530658 -0.751691606
H -2.8290353903 -1.3048221621 0.2203136753
H -2.3955497301 -0.5111294021 -1.3152475973
H -0.8157934068 -2.4778393156 -1.9944405929
H 0.8386815664 -2.0932749987 -1.4571078085
H -1.1797523817 -3.8698505977 0.0502141925
H 0.5852000253 -3.9711785334 0.1770384481
H -1.0754509751 -2.1156197666 1.8346950365
H 0.6468508252 -1.8478556156 1.4734343259

