# b3lyp 6-31G(2df,p) opt Freq 

 titel

0 1
C -0.4560763162 3.417758147 -1.5249731359
C -0.8918352561 2.0475621287 -2.0583712936
O 0.1517086239 1.4193873812 -2.7907724106
C -1.3696164855 1.1504878277 -0.9404856578
C -2.7390354802 1.2360328431 -0.2864538358
C -2.3520025684 -0.0702304257 -0.8774914449
C -1.432564788 -0.822707732 0.0976231184
C -0.433614153 0.3430118813 -0.1041497757
O 0.7574062635 0.4322308519 0.0582428581
H 0.3435651178 3.2975999375 -0.7866005167
H -0.0816114284 4.0332503787 -2.3471451685
H -1.2887895603 3.9403577639 -1.0435316623
H -1.7080342305 2.1829088638 -2.7795517853
H 0.8694971422 1.2509492742 -2.1660187273
H -2.8344012531 1.347627352 0.7907861034
H -3.446931559 1.8320877558 -0.8557173884
H -2.8553596596 -0.5140858746 -1.7257199889
H -1.8287916904 -0.9936294569 1.1026068367
H -1.0083967787 -1.7530515376 -0.2885460848

