# b3lyp 6-31G(2df,p) opt Freq 

 titel

0 1
C 1.6142190212 0.090116262 -0.0618531561
C 0.780134897 1.3594033704 -0.0371163555
C 0.1262639954 0.0196347003 0.0224489841
C -0.7024904336 -0.536471621 1.1684022352
C -0.7258264574 -2.0234053539 0.7865060447
O -0.8148011249 -1.982968531 -0.6566261565
C -0.8139992574 -0.5890630683 -1.004520519
C -2.1490383896 0.0034499335 -0.5312631074
O -2.0117956641 -0.0052049652 0.9086203509
H 2.0913921379 -0.1926922093 -0.9945006303
H 2.1933465604 -0.1535387472 0.8235849008
H 0.7947079743 1.9660418477 0.8624852001
H 0.7006374766 1.9319944795 -0.9561257281
H -0.4132378895 -0.3018528402 2.1925985623
H 0.1841532504 -2.5579516271 1.0884921452
H -1.602895423 -2.5310862295 1.2012079194
H -0.5819420462 -0.4804208563 -2.0637832483
H -2.311217643 1.0303846091 -0.8835435856
H -2.9954342443 -0.6236894434 -0.8300572458

