# b3lyp 6-31G(2df,p) opt Freq 

 titel

0 1
O 1.3797134998 0.6653282299 0.103376297
C 0.1503144159 -0.0156855639 0.3044924152
C -1.0583086114 0.9049056303 0.1808417353
C -1.3051622089 1.8107237237 1.4117940416
O -2.5338600647 2.5102029935 1.207612232
C -2.5933904099 1.1594937921 1.6967635811
C -2.4284798573 0.2399597622 0.5037845277
C -2.7614602748 -1.2260421563 0.4730239442
C -3.4977965172 -0.2534808193 -0.420205648
H 1.4734198822 1.3267409895 0.7958131002
H 0.1128317664 -0.7860416689 -0.4727494012
H 0.1294800195 -0.5356117515 1.2755912666
H -1.0119796684 1.4571349245 -0.7623533893
H -0.5824275074 2.2629354673 2.0833404347
H -3.1194029108 0.990121261 2.6297676704
H -2.0570570936 -1.9113865999 0.0137273868
H -3.2901575466 -1.6432020715 1.3244717325
H -3.2761968208 -0.2758710674 -1.4822736026
H -4.529442192 -0.0129451253 -0.1858333444

