# b3lyp 6-31G(2df,p) opt Freq 

 titel

0 1
C -0.0451665095 0.1166357096 0.1832960027
C 1.4538707101 0.0421664005 0.1103648263
C 2.3651295477 -1.217466873 0.119065364
C 3.3404172817 -0.0381821904 0.0302800819
O 4.7147300439 -0.1504279223 -0.0309702704
C 2.3781080766 0.6825833696 -0.9876377975
C 2.4590755042 2.170139976 -0.6789316651
O 2.5334666003 2.1458858017 0.7611866341
C 2.4764676357 0.7557065463 1.0463972136
H -0.4202744785 -0.3690658486 1.0905955446
H -0.3828408655 1.158455559 0.2008000102
H -0.5121673695 -0.3755194324 -0.6767004108
H 2.384748664 -1.8062825813 1.0414027428
H 2.3021285838 -1.8631165174 -0.7604069584
H 5.0962281082 0.7052167508 0.1962265902
H 2.3182284148 0.3429711401 -2.0218540184
H 3.3527228428 2.6541760105 -1.0953349332
H 1.5774513619 2.7397294804 -0.9986909382
H 2.5127437272 0.5734360109 2.1203852516

