# b3lyp 6-31G(2df,p) opt Freq 

 titel

0 1
C 3.3325073288 2.4069979194 5.3300745577
C 2.7479751336 2.5610038162 3.9316460525
O 1.6963109282 3.5084950349 4.028871123
C 2.240811492 1.2109016983 3.3723337303
C 1.8096313597 1.2762017913 1.9483067552
C 2.2265476653 0.6666007238 0.8061362222
C 1.4156199359 1.1790052426 -0.261038786
C 0.5634212776 2.0667709582 0.3061911142
O 0.7843543685 2.1402044704 1.6508571067
H 4.2078335409 1.7506491855 5.3202724084
H 3.6336474685 3.3843891916 5.716002749
H 2.5855178182 1.9880616604 6.0120804444
H 3.5350244142 2.9323026242 3.2530331425
H 1.2304704152 3.5214313863 3.1850832488
H 3.036111925 0.4622558801 3.445403332
H 1.4126098946 0.8756633041 4.0106681653
H 3.0174672977 -0.063308199 0.7310084362
H 1.4639884287 0.9145154982 -1.3056171166
H -0.2243264226 2.6965892835 -0.0721893558

