# b3lyp 6-31G(2df,p) opt Freq 

 titel

0 1
C -1.0015700359 1.570027834 3.3200679
C -1.1126876596 1.4824355731 1.8080578739
O -1.6808710269 2.3203989738 1.1498727414
C -0.4718665054 0.2430958349 1.1796386473
O -0.0809708449 0.4516310037 -0.182769482
C -0.8285799855 -0.569376985 -0.8765602571
C -2.2432298642 -0.4500273883 -0.2658844295
C -1.4607347263 -0.9384128701 0.9982628898
C -0.6239797939 -1.8177993982 0.0147620786
H -1.2503387462 0.6132041478 3.7924618548
H 0.0341864064 1.7999919947 3.5977498975
H -1.6567212879 2.3562614221 3.6962994506
H 0.3994588766 -0.0531001474 1.7804812918
H -0.6049352062 -0.5214765698 -1.9402907249
H -2.6929900436 0.5423227661 -0.2506896044
H -2.9388820363 -1.206283641 -0.6325360674
H -1.9465327734 -1.3372010213 1.8879785093
H 0.4009730977 -2.0782835045 0.2903898006
H -1.1745035945 -2.6944849745 -0.3303601201

