# b3lyp 6-31G(2df,p) opt Freq 

 titel

0 1
C -3.8342618201 5.1238859212 2.6751222086
C -5.2367705598 5.5298839972 2.2218274412
O -6.1629504729 5.5586712778 3.3042425804
C -5.74108098 4.6392690334 1.1194914425
O -5.1634500024 4.7857047298 -0.1878529627
C -6.5947249414 4.8578484442 -0.0417288246
C -7.1748212343 3.4128101094 0.0626220381
C -6.086598517 2.3731366432 0.0103193781
C -6.2827143339 3.1708929386 1.2718977018
H -3.4893502425 5.7857115821 3.4740288099
H -3.8305400008 4.0931131739 3.0510534503
H -3.1302772436 5.1766657709 1.8398532682
H -5.211002289 6.5533968516 1.8315117163
H -6.0514382947 4.7450738874 3.8074760081
H -7.0912383701 5.7432611236 -0.4207527885
H -8.2261594062 3.1840668478 -0.0462141176
H -6.4371659253 1.3472270537 0.0628157735
H -5.2113567258 2.5337591997 -0.6060506436
H -6.5638798103 2.7277888947 2.2182012701

