# b3lyp 6-31G(2df,p) opt Freq 

 titel

0 1
O 1.0299114018 -0.652947771 -0.024396219
C 0.0774337995 0.071844393 0.1158447592
C 0.0789013809 1.5352791841 -0.2695641318
O -1.2034065691 2.1526925997 -0.0736805075
C -1.3146897953 2.4792004753 -1.4767194673
C 0.0596136456 1.8473582063 -1.7910950321
C 0.1980573311 0.7927294123 -2.9163488839
C 0.9102839551 1.8648074637 -3.7853977279
C 1.1504956464 2.6910348148 -2.4921756951
H -0.8957394414 -0.2860272533 0.5221545244
H 0.8828761208 2.0477696828 0.2781319207
H -2.1808023685 1.9884307572 -1.9393173662
H -1.3852637626 3.5623185897 -1.6374842513
H 0.8756729954 -0.0127565868 -2.6212738799
H -0.7265852551 0.3505480766 -3.2979533537
H 1.78980117 1.5494933462 -4.3496782614
H 0.2198953001 2.3660168796 -4.4691634832
H 2.137900245 2.4963844056 -2.0628440574
H 0.9928999606 3.7725613843 -2.5312860268

