# b3lyp 6-31G(2df,p) opt Freq 

 titel

0 1
C 1.5056060101 -0.0355492558 -0.1626725493
O 0.1113308886 -0.1727839135 0.0237248788
C -0.3719840661 0.5154785939 1.1382994893
C -0.1717918787 -0.0884747717 2.5431866517
C -0.8134572557 -1.4282120731 2.6068398202
C -0.6410142973 -2.2768470558 3.8481811521
C -1.7133952671 -0.1954813077 2.7339136966
C -1.9117049701 0.4101742817 1.3831865267
O -2.8575738478 0.8233022866 0.7762472034
H 2.0757247909 -0.4528765144 0.6802898871
H 1.7652809083 -0.5838321146 -1.0708907659
H 1.7914379469 1.0200942322 -0.2872954657
H -0.0851391469 1.579832992 1.1088339136
H 0.5334875251 0.2623932143 3.2859251621
H -0.8694752439 -1.9914274274 1.6790211561
H -1.4778061059 -2.9719005977 3.9691212663
H 0.2790813714 -2.8673479852 3.7856704699
H -0.583361857 -1.6598772652 4.7507785024
H -2.3184784747 -0.0389765685 3.6183209445

