# b3lyp 6-31G(2df,p) opt Freq 

 titel

0 1
C 0.1490829604 1.519971604 -0.1068640027
C -0.0139770412 0.0083985879 0.0160924614
O -1.4093121245 -0.3425422714 0.2102327631
C -1.6077353814 -0.9608424824 1.4887552608
C -0.2647393871 -1.6475782179 1.77499426
O 0.1355922568 -1.8076418494 3.1224524034
C 1.4384597653 -1.2273933725 3.2798021406
C 1.6335627211 -0.3539497257 2.0590477945
C 0.6609481943 -0.6136731895 1.1961451253
H 1.1942727825 1.7760487342 -0.3110016824
H -0.4647475991 1.8968157899 -0.92909176
H -0.1578007092 2.0179945684 0.8168268203
H 0.2996728183 -0.4664505942 -0.9248578059
H -1.8153510505 -0.2217126771 2.2766362471
H -2.462185525 -1.6356663505 1.3947318031
H -0.2176405682 -2.6114495008 1.2410674467
H 1.4596295652 -0.6476911437 4.2122941246
H 2.2008179556 -2.0192762185 3.3693972104
H 2.4156953067 0.3906334092 1.9820758397

