# b3lyp 6-31G(2df,p) opt Freq 

 titel

0 1
C -2.142115283 1.6558361159 -0.4980043913
C -1.0160116563 1.85302504 0.5050421426
C -1.3653995851 2.8101140369 1.6849774732
C -0.3057829902 3.7899170423 1.1656071764
C 1.0354076306 3.120961448 1.1745548591
C 0.0855663653 2.8087611005 0.0514859059
O -0.5750209508 0.5588257388 1.0143313848
C 0.153104457 -0.2175983434 0.2065022818
O 0.4748634757 0.0193659988 -0.9271685654
H -2.9610987943 1.0905670851 -0.0423960126
H -2.5286581155 2.6281479943 -0.8166930519
H -1.7836572945 1.1201656812 -1.3792627755
H -2.3925140669 3.1755269439 1.6233813052
H -1.188672339 2.4028535644 2.6845062376
H -0.4212424355 4.8642935782 1.1038683721
H 1.8768980756 3.7437555853 0.8895767997
H 1.2687144428 2.3705048443 1.9255697504
H 0.3386855164 2.9942307291 -0.9838505907
H 0.4250498877 -1.1351424034 0.7540082786

