# b3lyp 6-31G(2df,p) opt Freq 

 titel

0 1
C -0.28751616 -0.0526227253 0.007240321
C 1.2340355577 0.0256960985 0.1286348194
C 2.1255158853 1.1837304373 0.5176911776
C 2.1195150546 -0.1019422536 1.3456511568
C 1.7185955974 0.7339657527 2.5896453335
O 2.3205728298 0.5408179024 3.8294795113
C 0.4661281716 1.5691041693 2.5021170169
O 0.1943380902 2.2825279816 3.672335827
C 1.7313757234 2.0085321517 1.7728833301
H -0.7507775455 -0.5271637233 0.8764022326
H -0.7425349464 0.9324947477 -0.1263365535
H -0.5562977764 -0.6523144294 -0.8676005591
H 1.7205157533 -0.5040031298 -0.6908208226
H 2.9050194529 1.5330673517 -0.1489536305
H 2.9017838742 -0.8483630554 1.4224515404
H 1.9351083802 -0.2517519782 4.2262487239
H -0.4486938099 1.2820269306 2.0021215893
H 0.8822896819 2.0402701995 4.3081859488
H 2.1691581559 2.9692863921 2.0107763472

