# b3lyp 6-31G(2df,p) opt Freq 

 titel

0 1
C -0.6557599796 -1.8768288829 -2.5956508955
C -1.5108227871 -1.6761941168 -1.3536473848
C -2.6186772104 -0.5779325319 -1.3402735933
C -2.1549692702 -0.1027949998 0.0614867547
C -1.2354675091 1.149949065 0.0441536622
O -1.5495793502 2.2407675074 -0.7762336421
C -0.0805480168 0.2301830824 -0.3698276671
O 0.975226927 0.4623832321 -0.8933795941
C -0.8861409515 -1.0388886463 -0.0657861355
H 0.1359579572 -2.612490643 -2.4177617594
H -1.2709022259 -2.2415263611 -3.4257060271
H -0.1760456278 -0.9467164732 -2.9128857127
H -1.952629598 -2.6336494569 -1.0585820304
H -2.4975302927 0.1979804684 -2.1015463518
H -3.6423221208 -0.9524593239 -1.3932915209
H -2.8666100035 -0.1765762297 0.8814686678
H -1.0664452558 1.4688777307 1.0881650725
H -0.75163322 2.4590373409 -1.2729779113
H -0.5004790949 -1.7050640513 0.7069409788

