# b3lyp 6-31G(2df,p) opt Freq 

 titel

0 1
C -0.6386583586 1.2372546428 -2.5255505997
C -1.4932560462 0.7855550359 -1.3478931786
O -2.7091171995 1.5076785048 -1.4640842371
C -1.7059400731 -0.7777462111 -1.2793897884
C -1.0748975541 -1.0946913714 0.0959461207
C -1.6352178378 0.0713737108 0.9742562301
C -0.7931606406 0.9931144584 0.0270167801
C 0.1806050602 -0.2026095313 0.0306379777
O 1.3628268222 -0.3582016152 0.0991570211
H 0.3350512372 0.7402421172 -2.5195953326
H -1.1467512072 1.0055120626 -3.4660297521
H -0.4782426559 2.3184374826 -2.4832621746
H -3.2825941395 1.2736670662 -0.7276844282
H -2.7731791775 -1.017984497 -1.305845604
H -1.2183260531 -1.3045830221 -2.1037500058
H -1.0463608591 -2.1289443464 0.4327506958
H -2.7215915375 0.202231357 0.9711856498
H -1.2678163432 0.0620360275 2.0013904343
H -0.4929378566 2.0060642288 0.2861644316

