# b3lyp 6-31G(2df,p) opt Freq 

 titel

0 1
O 0.4764119891 -0.1613254964 0.5550105822
C -0.7869304038 0.3791726668 0.8591816516
C -1.2415856566 0.3163612744 2.3529875982
C -1.4579252647 1.8437404924 2.3488468018
O -2.777766958 2.2346255848 1.901443367
C -2.2927316504 2.457350061 0.5702341526
C -3.1573829775 2.2660139987 -0.6301268572
C -2.7033985429 3.6608343807 -0.2115303388
C -0.9031068878 1.9391850394 0.8974235176
H 1.1157290428 0.1852305222 1.1868599997
H -1.4799467149 -0.0832351394 0.152154071
H -2.1196695992 -0.2870772131 2.5923593949
H -0.4123820925 0.0131612129 3.0025786448
H -1.1257675687 2.4348639122 3.2054147264
H -2.724493248 1.8225499188 -1.521245561
H -4.1958262018 2.0078596793 -0.452518212
H -1.9589087622 4.1680979016 -0.816829507
H -3.4446865869 4.3102655873 0.2417053398
H -0.0325122458 2.5134840164 0.5800263085

