# b3lyp 6-31G(2df,p) opt Freq 

 titel

0 1
O 0.3629538303 -0.1646040869 0.3224865679
C -0.9463621579 0.212539465 0.7505338222
C -0.9105529171 0.8220963681 2.1339965925
C -1.3155551687 2.0719622279 2.3660036072
C -1.8830053242 2.9142832724 1.2348501412
C -1.1339441042 2.5942297775 -0.0629256046
C -1.6502911977 1.1561661196 -0.2511660972
C -3.1433094431 1.3398122507 0.1108509328
O -3.2292643665 2.5104103462 0.934842434
H 0.9492622541 0.5819739069 0.484835689
H -1.4985400691 -0.7352430401 0.7800349003
H -0.5093803874 0.1969879128 2.9276570016
H -1.2910407419 2.4930259243 3.3669600222
H -1.9186904775 3.9738796771 1.494932696
H -1.467291945 3.2508721738 -0.8713363786
H -0.0476043159 2.669872091 0.0260613747
H -1.5133167588 0.7631340774 -1.2603050311
H -3.7589679706 1.5054685398 -0.7807093735
H -3.5463331288 0.4709054866 0.6475126534

