# b3lyp 6-31G(2df,p) opt Freq 

 titel

0 1
C 1.5020722685 -0.5948740445 0.7573031722
C 0.6760673883 0.2667507722 -0.2142794386
C 1.2481590805 1.6517045424 -0.4651628857
O 1.6532605782 2.0015433584 -1.5545659858
C 1.2865770538 2.62987807 0.6588109027
C 1.4891871529 4.1483761446 0.5532267794
C 2.2210137482 4.1140957365 1.939145577
C 1.9868764931 2.600437669 1.9765266366
O 0.5869759623 2.3648518268 1.8861126411
H 1.4762835338 -0.1867099394 1.7699685062
H 1.0902598703 -1.6072371269 0.7976206734
H 2.5447072091 -0.6718777086 0.43364966
H 0.6076172774 -0.2168195931 -1.1922003564
H -0.3376470231 0.3832177195 0.1866413115
H 2.1503739551 4.4110821232 -0.2726492854
H 0.5668720219 4.7292470175 0.4920716243
H 3.2767137197 4.3829581395 1.8651649977
H 1.7586010652 4.6657975483 2.7605336637
H 2.5947021148 1.8211026948 2.4217477161

