# b3lyp 6-31G(2df,p) opt Freq 

 titel

0 1
C 0.0549779623 -0.172074013 0.346828846
C 1.3923238564 0.0237474616 -0.3901785698
C 1.9551704052 1.3591239695 -0.220134555
C 2.4100341457 2.4669661407 -0.083515429
C 2.9560945083 3.8055783112 0.1353938309
O 4.0796281079 3.7938934076 1.0164682736
C 1.8630910234 4.7755372257 0.6451908184
C 2.3756510487 6.1932305273 0.8016986284
O 1.760656166 7.1728354291 0.4641921021
H 0.17645244 -0.0166947074 1.4222669339
H -0.6953399637 0.5364471653 -0.0140220023
H -0.3225323248 -1.1859497621 0.1857895515
H 2.1196574844 -0.719593696 -0.0395843252
H 1.2557698499 -0.1734744559 -1.461079106
H 3.3517727361 4.1933065004 -0.8120187792
H 3.8671454075 3.1997620542 1.7448745688
H 0.9941422597 4.7793532546 -0.0179707344
H 1.5319107877 4.4218696124 1.6318971242
H 3.3808349191 6.2707502847 1.2670875732

