# b3lyp 6-31G(2df,p) opt Freq 

 titel

0 1
C 1.6522567396 -0.2628470455 0.6255933497
O 0.3314705379 -0.0845355101 1.079665398
C -0.3615700596 0.9228919761 0.362864678
C -1.7632945707 0.9693957169 0.8508080589
C -2.5520315974 1.96439074 1.2631455192
C -3.8627051276 1.2108695303 1.5605837133
C -3.3400239577 -0.0106115578 2.3771449692
C -2.721998111 -0.2377291356 0.9672117238
O -3.9605275028 0.313413755 0.403020319
H 2.2532454895 0.6526007239 0.7450252074
H 2.0990763255 -1.0586992671 1.2261185554
H 1.6841070816 -0.5560171454 -0.4360242622
H 0.1279918891 1.9028798812 0.4872851383
H -0.3421006022 0.6881111618 -0.717712187
H -2.3587688578 3.021866956 1.3702126067
H -4.774062733 1.760581396 1.791264598
H -2.6719134818 0.1646923345 3.2223287263
H -4.1290995749 -0.7292364816 2.6099755661
H -2.4251040666 -1.2078443085 0.572989422

