# b3lyp 6-31G(2df,p) opt Freq 

 titel

0 1
C 0.0835767222 0.0249767328 -0.35017362
C 1.0874691105 0.453075247 0.6891702123
O 2.3365098237 0.9755639751 0.2211279425
C 2.34501168 -0.2516410736 0.9708410736
C 2.8787568454 -1.4686924642 0.3038520935
C 3.9333451353 -1.9473262927 0.9676987187
C 4.265605812 -1.1236986826 2.1900551571
C 2.9965593174 -0.2507651227 2.3651533099
O 3.204225304 1.0701788721 2.8096073691
H -0.6968972013 -0.5970237603 0.1017095051
H -0.4017117992 0.9014266749 -0.7924992296
H 0.5586655902 -0.539415814 -1.1560310148
H 0.6729883218 1.0279846973 1.5211495372
H 2.4795661629 -1.8614352703 -0.6224036326
H 4.5142699435 -2.8136253935 0.6711443004
H 4.4846405457 -1.7339543256 3.073492526
H 5.1392907536 -0.4832268027 2.011327278
H 2.3066741174 -0.7849443018 3.0386057712
H 3.457008105 1.0346051947 3.7370014426

