# b3lyp 6-31G(2df,p) opt Freq 

 titel

0 1
O -0.2950833995 -2.5494381653 0.4884971423
C -1.0611266681 -1.4536936018 0.0674804836
C -1.36220981 -1.5746565912 -1.4309267996
C -2.5083666119 -0.6777916408 -1.9056107432
C -2.1552823586 0.798635249 -2.1130729831
C -1.5390995725 1.5705304976 -0.9807197544
C -0.8167626751 1.1822337381 0.0798808618
C -0.3591952829 -0.1591476789 0.4897669893
O 0.5970277314 -0.2544247543 1.2447860209
H 0.3912754663 -2.1670722056 1.0613490076
H -2.0325830643 -1.4385250276 0.6004415875
H -0.4494423644 -1.3922144408 -2.0116063087
H -1.6294618776 -2.6230328659 -1.5957775162
H -2.8898241153 -1.0598678485 -2.8587875221
H -3.3410549655 -0.7531547144 -1.1943216007
H -1.4658364607 0.8918606246 -2.9678429293
H -3.0580563023 1.3365341934 -2.4286906255
H -1.6556223517 2.6485251274 -1.090820978
H -0.3986369574 1.9535892648 0.7215883777

