# b3lyp 6-31G(2df,p) opt Freq 

 titel

0 1
C 1.4825590686 -0.1757213133 0.0170951548
O 0.0778808354 -0.0581252408 0.0421451779
C -0.4059660931 0.7554370001 1.0884260829
C -1.9236287703 0.7313935036 1.0809201428
C -2.4471284125 1.9555875903 1.0670771916
C -1.3632791805 2.9981156504 1.0113372393
C -1.5635397661 4.3840211127 1.5539576048
O -0.5863766558 2.8840758996 -0.2073220634
C -0.0927829581 2.2571764872 0.9797883366
H 1.8761329488 -0.5539732579 0.9746135517
H 1.7312555334 -0.8887747699 -0.7723486097
H 1.9750464579 0.7815870519 -0.2063879631
H -0.0113077559 0.386569583 2.0543232072
H -2.4665962025 -0.2050995114 1.0385984883
H -3.5028238252 2.2008450613 1.0596117497
H -1.8518754009 4.3503317451 2.6099618604
H -0.647240467 4.9707711961 1.4560281129
H -2.3591799549 4.9008551177 1.0058729735
H 0.8352555786 2.6627336744 1.3749633919

