# b3lyp 6-31G(2df,p) opt Freq 

 titel

0 1
O 0.8152740864 -0.1321907559 0.6019754905
C -0.4508476254 0.3342623103 0.9985125523
C -0.5729946727 1.4533914151 2.0728772604
C -1.9938221122 0.8823250348 2.3661866251
C -2.5614875356 1.1701108453 3.7534024466
C -1.672413973 0.4937261108 4.7989121034
O -0.2970352186 0.6097038772 4.4645591106
C -0.0379302626 0.4074598044 3.1009793388
C -1.0693751205 -0.3793914729 2.2159462999
H 1.1868727107 0.5014603739 -0.0193748346
H -1.1286392635 0.447103195 0.141534835
H -0.2960037184 2.5061780404 1.9864246591
H -2.7271915498 1.0242112715 1.5652754485
H -2.6052261092 2.2542435067 3.9148173578
H -3.5850843794 0.7899476896 3.846130292
H -1.7922496987 0.9295417537 5.7945225277
H -1.9405165902 -0.5724328135 4.8647672301
H 1.0083508596 0.1249075655 3.0056028746
H -1.3529699768 -1.4309690121 2.2768147823

