# b3lyp 6-31G(2df,p) opt Freq 

 titel

0 1
C -3.8914543896 -1.6059179487 -0.0389832451
C -2.5464407307 -0.9375796676 -0.2673020711
C -2.5341297455 0.5591212782 0.025442812
C -1.1221442379 1.067154838 0.0033621272
C -0.0845747307 0.2630776846 0.2622608313
C 1.3525494103 0.69809286 0.2625663991
C -0.3343199935 -1.1449598078 0.689815707
O 0.5198801678 -1.8387249721 1.1817433089
O -1.596640269 -1.6303100676 0.5706289785
H -4.2121816776 -1.4792018352 0.9993337227
H -4.6488693982 -1.1665069726 -0.6951794265
H -3.8255728901 -2.6759531181 -0.2503177488
H -2.2307361697 -1.0868654268 -1.3099578525
H -3.1447014498 1.0775512208 -0.7224297543
H -3.0009204153 0.7618823667 1.0008733803
H -0.9540936223 2.1194822994 -0.2138159862
H 1.8052441579 0.5321265536 1.2445494814
H 1.939753186 0.1083815025 -0.4493777449
H 1.4420805378 1.7550315325 -0.000499839

