# b3lyp 6-31G(2df,p) opt Freq 

 titel

0 1
C 1.0622083474 -0.2875096138 -1.0358393008
C 1.0136807801 0.4222254975 0.2995872872
C 1.7435141166 -0.1362579056 1.4928482538
C 2.3773893381 -1.4930625471 1.5746168418
C 1.4710504604 0.7781555968 2.6891978807
O 1.8631056646 1.9662259827 1.949892432
C 2.2355145891 1.1650020579 0.8272715016
C 3.4823257241 1.4759948849 0.1214849572
O 3.9786974566 0.7965801419 -0.7511098871
H 0.3902637177 -1.1526862524 -1.0378430887
H 0.7385549231 0.3897975125 -1.8318526615
H 2.0715954516 -0.6180900454 -1.2819888411
H 0.0852798868 0.9551095371 0.5035600597
H 3.1855882226 -1.5059664148 2.3130373453
H 1.6396903763 -2.2484376734 1.8715906951
H 2.798373962 -1.7988495358 0.6142822225
H 0.4388937657 0.8386644558 3.0537983825
H 2.1532636862 0.6061427491 3.5302609243
H 3.9612963409 2.4132659721 0.4805335156

