# b3lyp 6-31G(2df,p) opt Freq 

 titel

0 1
C -0.1370937282 0.0342905509 0.1829821857
C 1.3584070841 -0.0595102062 -0.0436456592
C 2.2966949899 -0.2659938374 1.2111960327
O 1.9918522998 1.101780422 1.6361985868
C 2.2595615864 1.1934296384 0.1628806464
C 2.7897926012 2.5382184659 -0.2377058869
C 4.1141347558 2.5048600128 0.6002086932
O 4.4883921221 1.1240828158 0.8291693533
C 3.4751930045 0.2909112883 0.3488383619
H -0.3501327072 0.6320156643 1.0710992371
H -0.6329446903 0.4952042041 -0.6778150238
H -0.5704145587 -0.962515409 0.3167594352
H 1.6134293521 -0.6602796502 -0.9235904306
H 2.2594408208 -1.0545323879 1.9642206083
H 2.989255616 2.5732217572 -1.3130492991
H 2.1566516215 3.3835679894 0.0388578884
H 4.9414079784 3.0032467661 0.0843984419
H 3.9560086769 2.9859211355 1.5696453006
H 3.8192911647 -0.34120437 -0.4775461621

