# b3lyp 6-31G(2df,p) opt Freq 

 titel

0 1
C -1.0261992551 0.0463999913 2.5146662566
C -1.5491958699 0.0021509486 1.0897765193
C -0.9456509276 0.9470974496 -0.0249159275
C -0.9631653928 2.4462750957 -0.0801793739
C -1.5412869055 -0.0710385251 -1.0624058941
C -0.9255207038 -0.9972691504 0.0528068119
O -0.9390628286 -2.3667109443 0.1370106035
C 0.2505182094 -0.0190631729 0.0044828891
O 1.445860764 -0.028331414 -0.0185252867
H -1.3502122944 -0.8412402109 3.0676060403
H 0.0678951611 0.0800521135 2.5494015436
H -1.4065243068 0.9253122901 3.0458644581
H -2.6437501505 -0.009869073 1.0532466806
H -0.4705733842 2.874850942 0.7986823551
H -0.4341191204 2.8100216546 -0.9668135826
H -1.9869254792 2.8325397031 -0.1157425152
H -2.6329056017 -0.0864997298 -1.1028276856
H -1.0904411557 -0.0990482764 -2.0564954002
H -0.0508145482 -2.6882875116 -0.0562674424

