# b3lyp 6-31G(2df,p) opt Freq 

 titel

0 1
O 0.7656664458 -0.1169220488 0.8328108354
C -0.4884500722 0.4966787089 0.9642596795
C -1.4920311217 0.1288644303 2.0881522991
O -2.1104424442 1.4695627855 1.829847442
C -0.6394732945 1.7067663195 1.9294261107
C 0.2785487531 2.8763328225 2.1312913625
C 1.4473855968 2.1471955892 2.9052214349
C 0.9005226966 0.7891255762 3.5257521755
C -0.5907753086 0.8215762422 3.1651948694
H 0.6795350818 -0.8460394048 0.2115098221
H -0.977999575 0.6690976499 -0.0001220524
H -2.1929253889 -0.7033548414 2.1736663769
H 0.6281277575 3.3619945766 1.2170413289
H -0.2034112801 3.6298220106 2.7623872303
H 2.2575597078 1.9242897278 2.2077347656
H 1.8574651752 2.8037919703 3.6764256979
H 1.436631508 -0.0535982318 3.0953444172
H 1.0435510426 0.7646340575 4.6087664838
H -1.21266126 1.2210637298 3.9707995808

