# b3lyp 6-31G(2df,p) opt Freq 

 titel

0 1
C -2.4659660734 0.87066849 -1.2986945223
C -1.1558363856 1.1854627261 -1.984974332
C -0.8940794921 0.7216659003 -3.3972060544
C -0.1392044453 0.1007600149 -2.2449248091
C 1.3494452197 0.3822345359 -2.0712882042
C 1.7205592756 0.3932288294 -0.6052580083
O 1.9368525237 1.3876411125 0.0486336783
C 1.8011284168 -0.9618105998 0.1144673581
O 1.6152433592 -2.0193413671 -0.428578859
H -2.3603752904 0.8857510801 -0.2082470543
H -3.2404080101 1.5969178085 -1.5689620499
H -2.8299224054 -0.1223011266 -1.5837620863
H -0.7354054102 2.1559247527 -1.7311537361
H -1.6523535766 0.1178679903 -3.8854217182
H -0.3517171733 1.3804829245 -4.0673787203
H -0.4312562587 -0.9085389094 -1.9708569205
H 1.9317339036 -0.3888805424 -2.5878971596
H 1.6058401671 1.361266793 -2.4848012586
H 2.0575727654 -0.8610046428 1.1906166966

