# b3lyp 6-31G(2df,p) opt Freq 

 titel

0 1
O -2.9970052257 -0.1200286261 1.075444337
C -2.0968384931 -0.2200028919 -0.0016040664
C -0.8273682202 -1.1135685965 0.18267269
C -0.0037143553 0.0964842542 -0.2880022403
O 1.1159403923 0.2391944271 -0.6929774381
C -1.2007952318 1.0358290291 -0.1529894096
C -1.3863674251 2.2060651816 -1.1478544494
C -0.8327348982 3.173704899 -0.0680492508
C -1.100028488 2.0839423859 1.0023173956
H -3.5006749095 -0.9380716447 1.1300593373
H -2.6174878814 -0.4515841666 -0.9417689296
H -0.6476267042 -1.3283744948 1.2418284925
H -0.7345462544 -2.0347917081 -0.3972863971
H -0.836412845 2.1306603572 -2.0889084623
H -2.4454789755 2.3788794059 -1.3615271897
H 0.2362814073 3.3526906501 -0.2037429163
H -1.3394864558 4.1327378975 0.0579032976
H -0.3369460507 1.9165534375 1.7657720364
H -2.0721543856 2.1929571437 1.4878693434

