# b3lyp 6-31G(2df,p) opt Freq 

 titel

0 1
C 1.4690416691 -0.1768711261 -0.0702464798
O 0.1007109166 0.1498402067 -0.0858634326
C -0.3471903986 0.8009257961 1.0869694108
C 0.0103199476 2.3227744294 1.1598359015
C -1.3184003058 3.0088645342 0.8724972394
O -1.7423847397 2.6049288819 -0.4721793479
C -2.6052972638 1.637460039 0.1184259597
C -2.4215981476 2.1326321967 1.516442504
C -1.8681246517 0.7755139243 1.127593933
H 1.7245706296 -0.8205701262 0.787501616
H 1.6830688885 -0.7197702814 -0.9942482725
H 2.1156009222 0.7133744552 -0.0314887883
H 0.0613374203 0.2733220112 1.9636948165
H 0.376972841 2.5966598699 2.1556711151
H 0.770953504 2.5922689528 0.4224687099
H -1.3562384335 4.0926732184 0.9947953525
H -3.4724945346 1.3141166045 -0.4445745524
H -3.1027132281 2.3661480147 2.322364036
H -2.3801948558 -0.1195006712 1.4623374289

