# b3lyp 6-31G(2df,p) opt Freq 

 titel

0 1
C 1.40872228 0.8269583517 0.933905172
C 1.1542934773 -0.6572313923 0.634428106
C 1.329189193 -0.9865157055 -0.8145576169
C 0.4345857424 -0.597425192 -2.007874412
C 0.9282544347 -1.8748789796 -2.7569244751
C -0.1233431304 -2.9258191005 -3.006240443
O -1.2610139721 -2.8787128963 -2.6104661695
C 1.8093545201 -2.1904752782 -1.5126288419
O 2.6758696195 -1.073749525 -1.331827551
H 1.280315483 1.0356701805 1.9997150762
H 2.4268634735 1.109226271 0.6504598695
H 0.7144555258 1.4686896215 0.3816236351
H 1.842205535 -1.2806306921 1.2162585933
H 0.1361955485 -0.9319893948 0.9360653309
H -0.6325104316 -0.6701762487 -1.7880523376
H 0.6666790359 0.3604823698 -2.4768814811
H 1.5244220409 -1.7304895128 -3.6637232706
H 0.2408732323 -3.8072705789 -3.5818328959
H 2.1451193422 -3.156002748 -1.1492237885

