# b3lyp 6-31G(2df,p) opt Freq 

 titel

0 1
O 0.58162323 -0.1253208118 -0.8983642642
C -0.0319450295 -0.1235440851 0.1389228097
C -0.8159453902 1.0668733808 0.6299025149
C -1.8493929578 1.7366467112 -0.3240686016
C -1.5310898618 3.0477271221 0.447488044
C -0.1110491666 2.459682178 0.6924009893
C -2.3243716229 3.0300748064 1.7666626008
C -1.870000417 1.8296275247 2.6274820363
O -1.4393431013 0.7086022642 1.8521986202
H -0.0640837693 -1.0058854386 0.8143689249
H -1.4818841508 1.749481028 -1.3522451961
H -2.8668394399 1.3403136821 -0.2794496065
H -1.6226969393 3.9994226544 -0.0796143458
H 0.5389696221 2.5738458057 -0.1766322756
H 0.4348570743 2.7207438776 1.6017364289
H -2.1612131867 3.9503636309 2.338676863
H -3.3959843012 2.9740600123 1.5438955352
H -1.0476055927 2.1443829301 3.2844830936
H -2.6753319194 1.4650111769 3.2706413291

