# b3lyp 6-31G(2df,p) opt Freq 

 titel

0 1
C 0.0636983273 -0.3034861279 -0.5135483655
C 1.5090642013 -0.0892151689 -0.1324544738
C 2.3021380738 -1.3354873083 0.3501724636
C 3.5441475212 -0.6559063088 0.9483203584
O 4.425582131 -0.2068448368 -0.1078641743
C 3.6205719062 0.9854453918 -0.2644266135
C 2.3963357245 0.6875666024 -1.1446041913
C 3.003403367 0.7949976285 1.1584242219
O 1.6048199629 0.7670673965 1.0324869872
H -0.4852131582 -0.7763046389 0.3062944946
H -0.4188394418 0.6501755164 -0.7474079252
H -0.0064887203 -0.9500547744 -1.3932790425
H 1.7238875354 -1.8618531645 1.1163830204
H 2.570779057 -2.0326752852 -0.4464909439
H 4.0718849866 -1.2060861374 1.728746056
H 4.2146127951 1.8592595775 -0.5361489658
H 1.8854247769 1.6073888376 -1.4469460399
H 2.6707541376 0.1144588548 -2.0329474737
H 3.3310730065 1.4007901456 1.9989628172

