# b3lyp 6-31G(2df,p) opt Freq 

 titel

0 1
O 0.217701614 -0.8046819859 1.182908247
C 0.2972194659 -0.3597193527 0.0675273993
C -0.7305065991 0.5237979276 -0.5961069834
C -0.1115349599 1.8235050496 -1.1202224004
C -0.9950173253 2.5426077301 -2.1358428963
O -1.9957599628 2.0275975847 -2.5900139091
C -0.5480580397 3.9022248126 -2.5484522249
C -1.6322096307 4.9291200569 -2.8549062767
C -0.853397889 4.3366067163 -3.9757417626
H 1.1815886873 -0.5876531848 -0.5764837745
H -1.1535717987 -0.0194338748 -1.4515954155
H -1.5446669611 0.7187464089 0.1057464605
H 0.1238446537 2.5138675436 -0.3008677757
H 0.8509733413 1.6266599451 -1.6176525938
H 0.3692925908 4.266039566 -2.0994307792
H -2.6511723191 4.5862669552 -2.7177323534
H -1.4362298361 5.9531545658 -2.5592095556
H -1.3495435322 3.5954304852 -4.5914952439
H -0.1057794793 4.9413005608 -4.4756704617

