# b3lyp 6-31G(2df,p) opt Freq 

 titel

0 1
C -2.1591505367 2.7594580324 -0.9875929937
C -0.7376049825 2.2077009956 -1.0393484318
O 0.1979339403 3.2159758313 -1.3975411078
C -0.593063956 0.9847041375 -1.994432031
C 0.8625527767 0.4736838385 -2.0382312151
C -1.502443012 -0.0947319484 -1.6306806008
C -2.2427627087 -0.9898868985 -1.2945356034
C -3.1222580138 -2.0714206419 -0.936873621
O -3.7622156172 -2.1267330806 0.0888864567
H -2.1987130886 3.6226976678 -0.3182553068
H -2.486080593 3.0826499639 -1.9850044991
H -2.8664478361 2.0064243461 -0.6321485445
H -0.4335007787 1.8827125859 -0.0374012217
H -0.1530847483 3.6876928748 -2.1612812336
H -0.8681074688 1.3294399885 -3.0035213363
H 1.1573164012 0.0733552624 -1.0636592925
H 0.9754208855 -0.3190156128 -2.7815492099
H 1.52642711 1.303066235 -2.2868194908
H -3.1762379733 -2.8807738575 -1.693669367

