# b3lyp 6-31G(2df,p) opt Freq 

 titel

0 1
C 0.2699414151 -0.4187022178 -0.6801750557
C 0.7084372505 0.3255135866 0.5575493413
O 1.3834035594 1.5454337549 0.1851726436
C 2.2880482401 1.7405566814 1.2609159825
C 3.8552917262 1.782194271 1.2385875931
C 3.7501443244 0.8732825616 2.5417249211
C 2.7308300599 0.3246134637 1.5023481164
C 3.8386733436 0.4821355139 0.4080622567
O 1.6158279631 -0.4941442332 1.3677414968
H -0.2474232541 -1.3382783884 -0.3953253065
H -0.4132341947 0.2038209008 -1.2644255572
H 1.1367592468 -0.6729514518 -1.2945835787
H -0.1443150881 0.5722477417 1.2076825849
H 1.8130497036 2.2856010483 2.0852344
H 4.5088555073 2.6436070986 1.1201015325
H 4.6309877449 0.2659770225 2.7568800208
H 3.3433486432 1.3426129076 3.4405779501
H 4.7131882629 -0.1652706007 0.4998911404
H 3.4903983957 0.5665194093 -0.6201959019

