# b3lyp 6-31G(2df,p) opt Freq 

 titel

0 1
C 0.3753679865 0.4733360527 -0.396090604
C 1.2602486897 -0.5002853638 0.3849745357
O 1.8708504526 -1.4683335463 -0.4751443683
C 3.0920004629 -0.9200942522 -0.954661217
C 3.6775540402 -0.0932655324 0.1920885569
C 4.2612077045 -0.9199015857 1.3471483272
O 4.3645957728 -0.0586993491 2.4849510449
C 3.0942253203 -0.6525090538 2.2000485127
C 2.420470986 0.1955098964 1.1123051603
H -0.1637205477 1.1368650304 0.2879473133
H 0.9670828434 1.0989067502 -1.0726315978
H -0.35585213 -0.0800641309 -0.9914434127
H 0.635953984 -1.0748124674 1.0797443907
H 3.7283171381 -1.7566022996 -1.2613172278
H 2.9262670621 -0.2822389831 -1.836405489
H 4.2910531557 0.7464245712 -0.1391584562
H 4.927850834 -1.773937449 1.3035344125
H 2.6336238177 -1.2486000657 2.9799111925
H 2.2040971772 1.2278633582 1.3930979362

