# b3lyp 6-31G(2df,p) opt Freq 

 titel

0 1
C -0.0586709266 0.1378556228 -0.0965093075
C 1.4490188121 0.1215030832 0.0232927339
C 2.231272198 -0.9874806726 -0.631914257
O 3.5629090425 -0.7596257919 -1.0117290378
C 4.2623444612 -0.2246763358 0.1060557471
C 3.5144109423 -0.688689751 1.39151268
C 4.1233335976 -1.9633919249 1.9379119682
O 4.5219227486 -2.1065235232 3.0647810166
C 2.1066285051 -0.9639779751 0.8667427019
H -0.5223183875 0.6275812791 0.7666235014
H -0.3759333587 0.6713858936 -0.9986971265
H -0.4612478768 -0.8792205055 -0.1536404923
H 1.9164135803 1.1027746617 0.0398000488
H 1.7418039117 -1.7104552306 -1.2744932969
H 5.2977533663 -0.5770993131 0.0537714636
H 4.2797460912 0.8721721757 0.0677599074
H 3.5543768935 0.0715381989 2.1763486795
H 4.1843571777 -2.7915046017 1.1935482132
H 1.4750277914 -1.6614910695 1.4064016764

