# b3lyp 6-31G(2df,p) opt Freq 

 titel

0 1
C 0.8404397441 1.714551897 1.4374686734
C -0.2856289207 0.8374158381 0.9718798826
C -1.4094439215 1.3076536901 0.4242908381
C -2.4788616776 0.3458396429 -0.0373778111
C -3.2865862776 -0.2159550342 1.1488694918
O -2.4080057448 -1.2180070706 1.6650604809
C -1.3741799821 -1.4068167652 0.6954781065
C -0.1059757158 -0.6591771741 1.1295923644
O -1.8666255799 -0.8651356494 -0.5069816182
H 1.0375017167 1.5708621967 2.507530367
H 1.7735767195 1.4684134384 0.9142399073
H 0.6242119355 2.7729421546 1.268678072
H -1.585081927 2.3738826565 0.3134202023
H -3.0964356212 0.7481354096 -0.8418903272
H -3.4914689736 0.5251366284 1.9267338531
H -4.2288157994 -0.6692708054 0.8137089793
H -1.2047137668 -2.4784344724 0.5535875051
H 0.1094121744 -0.9119201061 2.1752498467
H 0.7557103276 -1.003703375 0.5402503061

