# b3lyp 6-31G(2df,p) opt Freq 

 titel

0 1
C 1.5000891205 -0.1209266272 -0.0840068989
O 0.1028404078 -0.1740626537 0.1305357496
C -0.3057363893 0.5638936571 1.2345892707
C -1.7153252614 1.0633475413 1.1920174283
C -2.4119875175 1.3019051466 2.5144196561
C -1.5236843161 2.3012151808 3.2781901614
O -1.6162565225 2.5637014906 4.4477206341
C -0.495848587 2.9102804907 2.3058844988
C -0.5465691781 2.0471342477 1.0633077474
H 2.056349451 -0.5290253384 0.7732305264
H 1.7127122114 -0.7297506066 -0.965565077
H 1.8455512627 0.9072621841 -0.2630307641
H 0.1025316996 0.2145841751 2.1886706558
H -2.2938316344 0.7988419299 0.3153571546
H -3.3948162269 1.7678645047 2.3682964387
H -2.5706412622 0.4068665702 3.1238978777
H -0.8049666315 3.9414488538 2.0916604203
H 0.4825236437 2.9669877725 2.793919722
H -0.3130153499 2.4757304209 0.095966358

