# b3lyp 6-31G(2df,p) opt Freq 

 titel

0 1
C 1.0150294171 1.0174974397 0.0685602384
C 1.0186011943 -0.4928500636 0.1010486722
C 2.001763202 -1.3094474804 -0.7116037699
C 1.5587955307 -2.5649293846 -1.4166021528
O 2.9957425881 -0.6367879852 -1.4231456348
C 2.1470490527 -1.2619507074 0.8114876568
O 3.2881820673 -0.5292046384 1.1985992698
C 1.8340627419 -2.3867501012 1.6467181115
C 1.5592612683 -3.3170488662 2.3592775183
H 0.6911985584 1.4411542508 1.0259865497
H 2.0020085878 1.4161627637 -0.172015685
H 0.3223990071 1.3743803576 -0.7002903084
H 0.0424268274 -0.9520596009 0.2324624808
H 0.8002109652 -3.0963043989 -0.8381060531
H 1.1391668941 -2.3111342331 -2.3954194364
H 2.4108370188 -3.2331387307 -1.5731477574
H 3.6197163226 -0.2901170725 -0.7702345377
H 3.0590679829 0.0258236976 1.9521141147
H 1.3271263234 -4.1440080664 2.9836341532

