# b3lyp 6-31G(2df,p) opt Freq 

 titel

0 1
O 0.2336861497 -1.0935580098 0.2946555519
C 0.36813291 0.0746088208 0.0311471582
C -0.2127792354 0.7475960133 -1.1951258753
C -1.0391173257 1.9822869287 -0.8316268786
O -0.2261108131 2.9865476745 -0.167727126
C -0.4152129674 3.9262443133 -1.2478964696
C -1.5856179767 4.9040993209 -0.999477898
C -2.5575904496 3.9059763653 -1.7070570354
C -1.3704317003 2.9446263176 -1.9879925202
H 0.9433799403 0.7552114767 0.6944242061
H 0.6221558378 1.065993037 -1.8349085363
H -0.8207622289 0.0220274298 -1.7448473023
H -1.8963816435 1.6922945774 -0.2084623299
H 0.5330694679 4.3174143792 -1.6251436066
H -1.7714224907 5.1058130177 0.0574030241
H -1.4791893212 5.8543019561 -1.5296234728
H -3.3540250207 3.4858058768 -1.0866521397
H -3.0107354199 4.3111901905 -2.6141392793
H -1.2272260225 2.5740097644 -3.0026967304

