# b3lyp 6-31G(2df,p) opt Freq 

 titel

0 1
C 0.1393991529 2.8420374366 -1.1291049875
C -1.101371476 2.3342379585 -0.4327222178
O -2.3040782739 2.5624048949 -1.1168537941
C -1.1691831501 2.2681440454 1.0624689228
C -1.0864225648 0.9818518129 0.2562519747
C -2.1061628731 -0.1565080127 0.098429954
C -0.9229796164 -1.1786178932 0.0252411298
C 0.0484890716 -0.0015384415 0.2430162825
O 1.2390919158 0.0960768691 0.3704089813
H 1.0414530771 2.504829457 -0.6135327134
H 0.1712930623 2.4767391581 -2.1601128318
H 0.1427843429 3.9387555405 -1.1559840662
H -2.4705987082 3.5118075122 -1.1152244119
H -0.2903099511 2.535784273 1.6410950012
H -2.1265173191 2.4776175622 1.5282477009
H -2.7617582373 -0.2984297464 0.9603217127
H -2.7155167071 -0.0880834201 -0.8036452451
H -0.8883092252 -1.936295305 0.8127921573
H -0.7921039902 -1.6766410216 -0.9397858992

