# b3lyp 6-31G(2df,p) opt Freq 

 titel

0 1
C 1.2569511844 0.6802778999 0.3554378485
C -0.0846842534 0.0288490579 0.2331638776
C -0.3497674956 -1.2829369651 0.1393834144
C -1.8311982369 -1.5821753529 0.0801193431
O -2.294472192 -2.3244783647 1.2071211861
C -2.4610258512 -0.1897375952 -0.0181479219
C -2.0754167424 0.6909354879 -1.1763790992
O -2.9197778185 1.7505519 -1.5146157306
C -1.3412152381 0.8314293799 0.1378849968
H 1.306371303 1.3093817221 1.2529861476
H 2.0617317627 -0.0571882447 0.4108879463
H 1.4521198699 1.3415929662 -0.4976427963
H 0.3931881585 -2.0728753743 0.1265568925
H -2.0979029787 -2.2067509285 -0.7810966162
H -1.9382723366 -1.8893329945 1.9901635771
H -3.4348789921 -0.030697002 0.4303889109
H -1.523228504 0.2490988238 -2.0077811101
H -3.7183873595 1.3823486414 -1.907707602
H -1.4620629692 1.7633409829 0.6791009655

