# b3lyp 6-31G(2df,p) opt Freq 

 titel

0 1
O 2.8922793313 1.9310771512 2.0147857763
C 1.7260149065 1.2045107022 2.2783583454
C 0.4710210779 1.9260206226 2.7752527405
C -0.6809852994 1.1430717495 2.0791905926
C -0.0299826811 -0.1898669657 1.6593252529
C 0.5739398039 -0.9349459926 2.8994486577
C 1.9247485268 -0.2893525828 2.6004103956
C 1.4107245115 0.1846222354 1.2382836227
O 1.9290708767 0.1585050502 -0.0338991995
H 3.4197954311 1.9833286864 2.8183893035
H 0.3812531707 1.9087995384 3.8672385548
H 0.5025118219 2.9748812359 2.4673604076
H -1.5481079382 0.9954342035 2.7302267359
H -1.0222712301 1.6841493136 1.1899792521
H -0.6211745472 -0.7986911893 0.9762949279
H 0.1030132296 -0.7245799305 3.8668816419
H 0.6073336391 -2.017018806 2.7490731371
H 2.9050694198 -0.6500992003 2.8948102196
H 2.6291047893 0.8249277482 -0.0587243448

