# b3lyp 6-31G(2df,p) opt Freq 

 titel

0 1
O 0.6935485194 -1.201172696 0.1044427682
C 0.5742284804 0.2052292046 0.1412985761
C -0.5079416736 0.6327925852 1.1362438014
C -0.6088897369 2.1328277136 1.5789082844
C -0.3316750123 1.7019390779 3.0331744897
C -1.0243060024 2.122072312 4.3148891559
C 0.4341701407 2.393076243 4.1392170783
C -0.1363820305 0.2874634345 2.5864882258
O 0.266592183 -0.7217554644 3.1095664151
H 0.8034739948 -1.4994297481 1.0174096253
H 1.5285028739 0.6903112558 0.4096777396
H 0.3193539536 0.5318216108 -0.8727230433
H -1.4663525799 0.1941490609 0.8410049864
H 0.1728234821 2.7656230708 1.1489672072
H -1.5799994085 2.5987975872 1.4010406117
H -1.7180909138 2.9529241354 4.2416965342
H -1.3262023191 1.3284345829 4.9899322961
H 0.7512159264 3.4129965732 3.9494092708
H 1.1432050827 1.7835650807 4.6894753971

