# b3lyp 6-31G(2df,p) opt Freq 

 titel

0 1
C -0.043623931 0.1159174885 0.0604708269
C 1.4277774822 0.3580643613 -0.0450243022
O 2.2623110773 0.1850183669 1.1720264887
C 3.2120277956 0.5869268502 0.1181566946
C 2.515984957 -0.3131459069 -0.9292115498
C 2.5506766196 0.3794790545 -2.293949352
C 2.3252347455 1.8648836062 -1.8721108871
C 2.2125711103 1.6852049071 -0.3700418598
O 1.9890078171 2.8156103263 0.3876332521
H -0.505308019 0.8484168677 0.730579335
H -0.5148404399 0.2100534049 -0.9233553702
H -0.2475851617 -0.8873114902 0.4468445856
H 4.2658401893 0.662203408 0.3889536018
H 2.6500638456 -1.3910034045 -0.8516314175
H 3.5069067051 0.2310884984 -2.8039117996
H 1.7656228366 0.0101286603 -2.9605822908
H 3.1595738379 2.5188663017 -2.1411845999
H 1.415442667 2.2992588975 -2.2966628572
H 1.9608599556 2.5061293921 1.3052765716

