# b3lyp 6-31G(2df,p) opt Freq 

 titel

0 1
O 0.9738936827 -0.0968331798 0.7161586817
C -0.1220597674 -0.0173552718 0.2247463916
C -0.8600014674 1.2595672868 -0.183598223
C -2.2377956047 0.7827520193 -0.6832041573
C -1.994576306 -0.6740308458 -1.1450563207
C -1.0339514197 -1.2214188171 -0.1044414897
C -0.3530848133 -2.5944412891 -0.1885441677
C -1.0039645276 -2.8517372212 1.1837694866
O -1.7188759624 -1.5926118436 1.1334589745
H -0.8935752158 1.9737418127 0.6429687899
H -0.2762498523 1.7308328253 -0.9845368325
H -2.9559045125 0.7814172497 0.1422525078
H -2.6460103032 1.413417465 -1.4758728185
H -2.9089493889 -1.2684366915 -1.2101333148
H -1.5050771372 -0.6876959004 -2.1281912342
H -0.7157797367 -3.229406216 -0.9985267037
H 0.736748554 -2.5552536673 -0.1962126793
H -1.6949558106 -3.6990286123 1.2515232737
H -0.3039628711 -2.8852401431 2.0256710458

