# b3lyp 6-31G(2df,p) opt Freq 

 titel

0 1
O 0.6624682478 0.5349706688 0.9806977052
C -0.7535480776 0.5543484712 0.8493120078
C -1.3597152654 0.5433201643 2.2867174533
O -1.6189243845 1.9011136931 2.6811666437
C -1.7321970712 2.6469999449 1.5120434293
C -2.7179410754 2.2476871552 0.4565419848
C -1.252858478 1.8818461595 0.30127299
C -0.417628072 3.1072786172 -0.1357066892
C -0.88099214 3.8691006013 1.1577247018
H 1.0398638122 0.5047495553 0.0957827198
H -1.0956105825 -0.3301878326 0.2928816235
H -2.292628618 -0.0353371283 2.2989590534
H -0.661002648 0.0992385544 3.0000480423
H -3.3951318122 1.4430729725 0.7205978751
H -3.1471498697 2.988107127 -0.2132128212
H 0.655078769 2.9100138054 -0.1334712316
H -0.6981064246 3.5504164645 -1.0962399533
H -0.0621860486 4.00214434 1.8664139826
H -1.4087246212 4.8190849064 1.0325765026

