# b3lyp 6-31G(2df,p) opt Freq 

 titel

0 1
C -3.4329345627 -1.3808277365 0.760769046
C -2.334463394 -0.4809606873 0.2230324938
C -2.6558058778 0.214359399 -1.112800647
O -1.6882432844 1.2760831426 -1.210197321
C -0.9482660519 1.2805013854 0.0291016495
C -1.9605007088 0.7770389162 1.0574144906
C -0.0046771726 0.0707643237 -0.0965323572
O 1.1817037391 0.0636162868 -0.2801233436
C -0.9452226301 -1.1435780952 0.0419957111
H -3.1476727714 -1.8191427172 1.7227481465
H -4.3637775634 -0.8225035623 0.9088110766
H -3.6441221815 -2.2062950291 0.0719600586
H -2.5512809023 -0.4543113785 -1.9754931929
H -3.6686273109 0.6392197589 -1.1223515442
H -0.4674947967 2.2479091567 0.1588343932
H -1.5137297827 0.5345774037 2.0265957935
H -2.7981440164 1.4648222288 1.2010696524
H -0.8727499763 -1.8070945474 -0.8249570213
H -0.6553441152 -1.7224194181 0.9268359053

