# b3lyp 6-31G(2df,p) opt Freq 

 titel

0 1
C 0.6507914148 -0.4031134792 -0.6357592071
C 0.9278134841 0.1997826393 0.7376138973
C 1.5174569361 1.63420163 0.7319973192
C 1.8275771629 1.8876801058 2.2267426444
C 2.6962991523 0.6485623595 2.4016776441
C 3.2990818547 0.4305548957 1.0215463373
O 2.8273309226 1.4486725141 0.1603947166
C 2.1354340044 -0.4179134636 1.4509321244
O 2.2872351169 -1.782079219 1.6402575372
H 0.4860053731 -1.4817733634 -0.5547809905
H -0.2369465454 0.0437267194 -1.0950715906
H 1.5025783593 -0.2399290635 -1.3014105309
H 0.0287843785 0.1651992909 1.3656285371
H 0.9811574276 2.4028871746 0.1786146945
H 2.3754658166 2.821677137 2.3799893617
H 0.92638269 1.8896441644 2.8465773765
H 3.2319694892 0.3923930075 3.3058046761
H 4.2963383101 0.0671394913 0.8205082787
H 1.7133275421 -2.0516073907 2.3660780038

