# b3lyp 6-31G(2df,p) opt Freq 

 titel

0 1
C 1.4999337734 -0.0224906581 0.00268106
O 0.0865824045 0.0343385048 0.0423920846
C -0.4807898442 0.6402693899 1.1884569873
C -0.1571848469 2.1136814556 1.358623195
C -0.8137168171 2.8104490935 2.5247199024
C 0.6075624128 2.3350892471 2.6579385402
C 0.8087753462 0.9981623267 3.3425275033
C 0.0053401116 -0.0204914069 2.5200999241
O -0.1951284817 -1.1658749671 2.822210087
H 1.9100394237 -0.6623672287 0.7970624968
H 1.764324965 -0.4598417201 -0.9625858371
H 1.9609397659 0.9723241945 0.0756740429
H -1.5557703889 0.4580559506 1.0867256476
H 0.059040171 2.6863199466 0.464448554
H -0.9865499357 3.8766537992 2.431755623
H -1.5908469499 2.2852898193 3.0756342786
H 1.3984079742 3.0738145223 2.7133384555
H 1.8607813157 0.6858617047 3.3158347011
H 0.4961722103 0.9674063461 4.3913046136

