# b3lyp 6-31G(2df,p) opt Freq 

 titel

0 1
C -0.144709885 -0.3614100871 0.2060611228
C 1.3131252884 -0.1033472338 0.0230006174
C 2.5070287469 -0.1228219222 0.9642811916
C 3.3114475706 -1.0560142076 0.0601701218
C 2.3991289442 -0.5382060341 -1.0828436718
O 2.1800733413 -1.2503908248 -2.2490975795
C 2.7792168505 0.9517171409 -1.2485034731
C 2.1549694066 1.1320823705 0.1337663759
O 1.7516995442 2.3109681848 0.7280348777
H -0.5309423443 0.2174851281 1.0516339818
H -0.7149166848 -0.0682683733 -0.6827810014
H -0.3545594878 -1.4195316057 0.4022134067
H 2.477484698 -0.0891387298 2.0462849104
H 4.3924486561 -0.9090028524 -0.0498072834
H 3.105623684 -2.1074199434 0.2955354181
H 2.0136813307 -2.170449065 -2.0173180869
H 3.8386955289 1.1872296979 -1.4056327476
H 2.1656294111 1.4241569964 -2.020176077
H 2.5165145706 2.7166812507 1.1514421864

