# b3lyp 6-31G(2df,p) opt Freq 

 titel

0 1
C -2.349534952 1.8591345817 -0.2216747958
C -1.1392931054 2.0340193966 0.6914128033
C -0.5543595196 0.6680737355 1.1209785472
C 0.4240954705 0.1291604162 0.0995431362
O 1.5757882205 -0.134795353 0.3338281912
C -0.166682028 3.2146736886 0.3246713711
C 0.3099619682 3.3143588421 1.7903400766
C -1.2325844409 3.1786117813 1.7602528103
O -1.2501196422 4.168462693 0.6598529369
H -3.1506050372 1.3263092255 0.3034656328
H -2.7286170205 2.8263653341 -0.5501822776
H -2.0932686211 1.2651263613 -1.106174989
H -0.0451363742 0.6994070997 2.0849322934
H -1.3836303412 -0.0467164532 1.2052938826
H 0.0098618683 0.001236631 -0.9269125788
H 0.3860991397 3.3918424949 -0.5992040778
H 0.9243721369 2.518352652 2.2098226267
H 0.6578524704 4.3071176622 2.0744676729
H -1.9605572321 3.3092136307 2.5628977279

