# b3lyp 6-31G(2df,p) opt Freq 

 titel

0 1
O 0.8150501344 0.726340047 0.1889116227
C -0.2183697895 0.9738808058 1.0847949657
C -1.6654430348 1.1492288549 0.4508027518
C -1.8868377475 1.7643107302 1.845720525
C -0.4606305016 2.3586749785 1.756754529
O -2.8955583849 2.3608482483 2.6675414002
C -2.3826619959 1.5542500595 3.7886778059
C -1.7605147355 0.5646453526 2.7663544103
C -0.3690840111 0.0393317901 2.3417874282
H 1.6487951324 0.7601163406 0.6706597702
H -1.610073693 1.8447467883 -0.3887661933
H -2.2399808384 0.257415927 0.1906776053
H -0.3968988652 3.1852978143 1.046959462
H 0.0785248111 2.5894967705 2.6795435976
H -1.6722274827 2.1323329407 4.3909688218
H -3.1952859342 1.1837431734 4.4181283756
H -2.5332306425 -0.1699197024 2.525125822
H 0.447020696 0.2179115633 3.0502569042
H -0.3787471871 -1.0244885527 2.0916514459

