# b3lyp 6-31G(2df,p) opt Freq 

 titel

0 1
O 0.322332049 0.2204113406 -0.2685379332
C -0.9147990816 0.5125008791 0.3317052264
C -1.3490641521 -0.4001974836 1.5059252305
C -2.8920790921 -0.1799747789 1.5699300943
C -3.1520501156 0.8315820308 0.4227135843
C -2.1169811354 0.3661584457 -0.632717104
C -2.5461863772 2.2020168707 0.8062357226
O -1.7568820652 2.2204665927 2.0074433069
C -1.0954440007 1.9977125223 0.7535164711
H 0.9957856419 0.2120875208 0.4198577221
H -1.0887470603 -1.4331109344 1.2572894268
H -0.8549767099 -0.1299970129 2.4418639289
H -3.434692361 -1.1086573328 1.3731276424
H -3.2149140038 0.2056653722 2.5376439295
H -4.1902444624 0.8875940159 0.0944082361
H -2.2630968496 -0.6596970848 -0.9859719093
H -2.04092332 1.0379458901 -1.4927928289
H -3.0503531084 3.1336224734 0.5664322551
H -0.3579912957 2.7376919231 0.4537345185

