# b3lyp 6-31G(2df,p) opt Freq 

 titel

0 1
O -2.1118183903 -0.7742140485 0.0954598669
C -0.9082448655 -0.0623542118 -0.1433017232
C -0.589282456 0.74497475 1.1291060408
C -0.4063230993 -0.1315362232 2.3407092572
C 0.5998386727 -0.0074639134 3.2042580117
C 1.7067105247 0.9992609277 3.0344300327
C 1.8978727976 1.3718279379 1.5542193091
C 0.5902525532 1.6833236733 0.8483341522
O 0.4774112621 2.5993353077 0.0660766911
H -2.2960548366 -1.3213056065 -0.6735060858
H -0.0761163367 -0.7495288804 -0.3655070929
H -1.0095051272 0.6391706832 -0.9822411536
H -1.4628828093 1.3947883813 1.2825214184
H -1.1823454114 -0.8744387812 2.496658428
H 0.6396214819 -0.6495768033 4.0803580156
H 1.4898604807 1.9021187582 3.6233568953
H 2.6464455234 0.6046088988 3.4363295133
H 2.5782152431 2.2147358935 1.4132216999
H 2.3295258629 0.5039070868 1.0343054033

