# b3lyp 6-31G(2df,p) opt Freq 

 titel

0 1
C -0.3274016622 -0.146844811 -0.1251232598
C 1.1728421439 -0.0014193873 -0.1822896684
O 1.6964395948 1.3235860195 -0.4120504137
C 1.9080654584 0.7527177191 0.8724014715
C 3.306305998 0.5056599219 1.3268372583
C 3.9186498211 1.4498734021 2.3367186473
C 3.5364711576 0.0563901519 2.7521304726
C 1.9083241005 -1.0610631692 -0.9462217599
O 1.4290593528 -2.1267221573 -1.2417840108
H -0.5936311502 -1.1194874288 0.2964272263
H -0.7681526812 0.6453238364 0.483983928
H -0.7550775896 -0.0938159438 -1.130736793
H 1.2639988228 1.1723647272 1.6510958985
H 3.977941863 0.1067603774 0.5758000812
H 4.9697616247 1.6908435583 2.2285232603
H 3.3072625044 2.2727644713 2.6922041106
H 4.3206831161 -0.6695334125 2.9323222746
H 2.667206854 -0.0631112098 3.3905484771
H 2.9383931811 -0.7739402354 -1.2457662607

