# b3lyp 6-31G(2df,p) opt Freq 

 titel

0 1
C 1.2885795154 0.7034182268 0.2333473619
C -0.0660444519 0.0790558886 0.3329870168
C -0.3731802485 -1.2106278915 0.5213625274
C -1.8672216683 -1.4690303969 0.54422226
C -2.3377570951 -2.3666590812 -0.6112039026
O -3.7456414224 -2.5427162817 -0.6305374248
C -2.4514878876 -0.0618174909 0.4383710929
O -2.0958148082 0.8158493482 1.5066777349
C -1.332370646 0.8810383995 0.2788571679
H 1.4539105747 1.4207896915 1.0467221261
H 2.081948077 -0.0476383613 0.2735458287
H 1.3988244461 1.2628492145 -0.704214788
H 0.3531301427 -2.0036617233 0.6695806486
H -2.1706530479 -1.939086667 1.491915409
H -2.0833154262 -1.8986381089 -1.5680681661
H -1.809001227 -3.3314208149 -0.5700658618
H -3.9992040726 -2.9924276535 0.1821523416
H -3.4377771686 0.0830706078 0.0082270251
H -1.3972053656 1.8271233141 -0.2516992577

