# b3lyp 6-31G(2df,p) opt Freq 

 titel

0 1
C 0.5963616115 0.8695290919 -0.8101055292
O 0.0401555347 -0.1106078161 0.071616011
C 1.442543685 0.1801846502 0.1641795994
C 1.9260691292 0.8037133654 1.4698892147
C 2.5293968595 -0.3741562706 2.2482118916
C 1.5287948512 -1.4031097018 2.8184568543
O 1.8445742418 -2.3620159178 1.7863970488
C 2.8324525785 -1.4887259029 1.1996686086
C 2.4072914051 -0.9511810507 -0.1695329249
H 0.6361864263 0.5835326525 -1.8609226396
H 0.2844088505 1.8976160288 -0.6260752396
H 2.7010728799 1.550877845 1.2589456084
H 1.1101443283 1.305842019 1.9969112225
H 3.3346047447 -0.0852712556 2.9237197966
H 1.7723617483 -1.7875242212 3.8167182091
H 0.4735335861 -1.1064203561 2.7923395511
H 3.8253318718 -1.9512334962 1.2003024616
H 3.2822598636 -0.556301264 -0.7016245868
H 1.940016564 -1.7213129998 -0.7873687074

