# b3lyp 6-31G(2df,p) opt Freq 

 titel

0 1
C 1.506565582 0.0085719497 -0.0750588414
O 0.1054233613 0.1764669859 0.007070368
C -0.3367394646 0.7801842774 1.2104423854
C 0.1138408793 2.1694732265 1.3492393369
C 0.478356187 3.3109035202 1.4431136179
C -1.8670508855 0.6865725472 1.181784914
C -2.4651002805 -0.7281925856 1.306691896
C -3.1038823181 -0.1831808137 2.6004367514
O -2.4542786929 1.0980303152 2.4307149715
H 1.8843201543 -0.625576469 0.7418636513
H 1.7108891939 -0.4819019208 -1.0292929149
H 2.0330866686 0.9712541566 -0.0425169939
H 0.0244597232 0.2035233136 2.0796090437
H 0.7952530376 4.3203764043 1.5367683945
H -2.2401692422 1.2800091773 0.3385454246
H -3.1572659198 -1.0181551377 0.5161559466
H -1.726456794 -1.5196819102 1.4433102229
H -4.1962456666 -0.0880375952 2.5832960147
H -2.8058391031 -0.6707601818 3.5359895609

