# b3lyp 6-31G(2df,p) opt Freq 

 titel

0 1
C 1.1541461877 0.6445346645 -0.4042789236
C -0.1717543791 0.0549540891 -0.0401598751
C -1.34711833 0.7003628696 0.0390690766
C -2.4845762686 -0.2197904092 0.3966747867
O -3.4250026996 -0.395019555 -0.6786388858
C -1.7914879476 -1.5585191673 0.7014623753
O -2.5269864442 -2.7007909139 0.4297757828
C -0.7825994026 -1.6076111393 1.7927591491
C -0.3196150081 -1.3798214772 0.3467986892
H 1.86965166 0.5366290775 0.4201075036
H 1.5910176625 0.1206156846 -1.2635504054
H 1.0727299778 1.705390748 -0.6551260319
H -1.4953327884 1.760230734 -0.1356062919
H -3.0857919128 0.1294798377 1.2429510849
H -2.9226835625 -0.3105901718 -1.4977437376
H -3.1633528444 -2.4259560105 -0.2469278722
H -0.693349333 -0.7855071419 2.4969542531
H -0.5998373509 -2.5943722277 2.2065752269
H 0.270793204 -2.1531155313 -0.1320149448

