# b3lyp 6-31G(2df,p) opt Freq 

 titel

0 1
C 1.5809521141 0.1655460663 0.0869259812
C 0.1272147116 0.0930150861 0.0532952127
C -1.0743449179 0.0310572979 0.0143910305
C -2.5305568454 -0.0434495321 -0.0109291774
C -3.0816969314 -1.3520180148 0.5677609751
O -2.6812582837 -2.3884370394 -0.2863262268
C -2.8554306974 -1.507794427 2.0928940983
O -4.2210605607 -1.1257259329 2.3594219599
C -4.5775717119 -1.2632824328 0.9704654961
H 1.9293965863 0.9107608321 0.8106868787
H 2.0198367774 -0.7985575964 0.3669685075
H 1.9876401071 0.4401825629 -0.8927134831
H -2.9583902543 0.7886774123 0.5613532444
H -2.901030109 0.0520074378 -1.0394345419
H -2.9681759595 -3.2260518088 0.0927706586
H -2.6496528361 -2.5459822285 2.3957182228
H -2.1288745765 -0.8421181634 2.5693689136
H -5.1283599632 -2.1952302982 0.7719481566
H -5.1632614793 -0.413660441 0.6010497634

