# b3lyp 6-31G(2df,p) opt Freq 

 titel

0 1
O 0.5238918382 0.5145785485 0.5876086005
C -0.6977636018 -0.1094987262 0.9666899419
C -1.7995918501 0.1992243347 -0.058855887
C -3.1839232642 -0.3790015926 0.0814509323
C -2.8924670103 0.9943069982 0.6302914517
C -2.501466687 1.1578369134 2.0973151812
O -2.7090553749 2.4182475615 2.6606915331
C -2.4510846891 -0.0598650807 2.9818403091
C -1.1880260301 0.4493997147 2.3071130361
H 0.3611933469 1.4646506709 0.5573357776
H -0.4590205987 -1.1772617579 1.0154329312
H -1.4439964594 0.4383632054 -1.0552437777
H -3.7754058131 -0.4308374199 -0.8271300112
H -3.3639066936 -1.2083418792 0.7554706542
H -3.3553867605 1.8613480796 0.1734558872
H -3.6318497296 2.4746254382 2.9319072091
H -2.499925914 0.1329676304 4.0488038645
H -2.9087513211 -0.9949706211 2.6810582552
H -0.4220450276 0.862637552 2.954130611

