# b3lyp 6-31G(2df,p) opt Freq 

 titel

0 1
C 0.8557850595 -0.778255887 0.8824025509
C 0.7678363093 -0.3771813821 -0.5916507654
C 2.0563447293 -0.6517880965 -1.3450947358
O 1.9252175441 -0.2609509169 -2.6916903236
C 2.7919359083 -1.1022739997 -3.4243282835
C 2.6435086834 -2.4541695802 -2.6909098583
O 2.3714842285 -2.0487305682 -1.3484313496
C 1.56967538 -3.290081993 -3.2297412241
C 0.7017505465 -3.9830808457 -3.6882877392
H 1.0723926263 -1.8453698847 0.9797253752
H 1.6473863774 -0.2250610097 1.400146268
H -0.0859281664 -0.5711102799 1.3981583489
H -0.0333935111 -0.9247079104 -1.0986484689
H 0.548206789 0.6922046268 -0.6896245968
H 2.9088206239 -0.1233490743 -0.8790967003
H 2.4674881101 -1.1268741227 -4.4648387914
H 3.8348663166 -0.7550830196 -3.3662785307
H 3.583742801 -3.0177277429 -2.6970809315
H -0.0689861058 -4.5954861832 -4.0870435841

