# b3lyp 6-31G(2df,p) opt Freq 

 titel

0 1
C 0.0944248521 1.5614181972 0.1610055475
C -0.0056680404 0.0558511196 -0.0060731475
C -1.4382654111 -0.6398453864 0.0917613038
O -2.3422364591 0.0521170755 0.9061318654
C -0.7464796568 -1.8235717725 0.8709202551
O -1.2738036019 -2.216443462 2.1272294084
C -0.2743750792 -1.8768920432 3.121755193
C 0.5801750449 -0.8004583317 2.4674703882
C 0.349910859 -0.8479436091 1.1597304252
H 1.1338610406 1.8719954969 0.3085687055
H -0.2875619384 2.0779586595 -0.725462565
H -0.4948378501 1.8834865482 1.0226592021
H 0.468801274 -0.2743634956 -0.9376926705
H -1.9006898831 -0.8855944909 -0.8712232339
H -2.4425294396 -0.4827742791 1.707429688
H -0.5254128899 -2.6900387249 0.236380466
H -0.7900845228 -1.5086033581 4.0160944822
H 0.2823109265 -2.7834770956 3.405009921
H 1.1247180554 -0.0561615679 3.0338434856

