# b3lyp 6-31G(2df,p) opt Freq 

 titel

0 1
O 0.3569424908 -1.1833603674 -0.1656417763
C 0.4607504474 -0.0136358769 0.0991437044
C -0.3288971157 0.696145508 1.183736096
C -0.9983438171 1.9482775703 0.6554611915
O -0.1303473736 3.0503632805 0.3599851732
C -1.0757004404 3.1944452842 1.4309488893
C -2.162015676 4.1949089652 1.2468692191
C -3.0522701677 4.5444450043 2.417343353
C -2.0528741439 5.5480467276 1.9095320946
H 1.1668513894 0.6452923453 -0.4525407232
H -1.0612025258 -0.0016836105 1.600887964
H 0.3767653532 0.9828229523 1.9746843649
H -1.7671463684 1.7783446345 -0.1006727229
H -0.6183511323 3.1908257187 2.4237150735
H -2.6255499921 4.1689340497 0.2654659063
H -4.1049737591 4.7116282776 2.2208176487
H -2.8509839269 4.0628353038 3.3688331782
H -2.4155512775 6.4103711713 1.3621489791
H -1.1744390044 5.7428846716 2.5158331767

