# b3lyp 6-31G(2df,p) opt Freq 

 titel

0 1
C -4.1566641628 -2.084323252 3.3760417826
C -3.8837368707 -1.1895436868 2.1492223339
C -2.638519301 -0.4334755646 2.308582366
C -1.6562422678 0.240230161 2.4792395305
C -5.0302702603 -0.2132855576 1.8946167549
O -5.1804906772 0.7766836442 2.8854213103
C -6.3297011069 -0.6849454291 1.2979672607
C -5.4140999398 0.2364468689 0.5071934772
O -5.7585476265 1.5699924149 0.3177213445
H -3.3173771951 -2.759306716 3.5597088901
H -4.310659232 -1.4680933802 4.2647787217
H -5.0582932894 -2.6803118918 3.2096399716
H -3.7913945366 -1.8276932852 1.2608688136
H -0.7671499449 0.8073819414 2.606974109
H -4.3057817599 1.1726120598 3.0118084685
H -6.4177847602 -1.7257183746 1.0029264305
H -7.2342091761 -0.2422909138 1.7012542216
H -4.8854541648 -0.1704854323 -0.3497811292
H -5.7928766177 1.9600075739 1.203021962

