# b3lyp 6-31G(2df,p) opt Freq 

 titel

0 1
C -0.5011113834 1.1688633296 -0.0447900647
O -0.1133377966 -0.2257661194 -0.075546062
C 1.2836356297 0.1111564389 0.0719311634
C 0.9654445773 1.6344443273 0.0116555394
C 1.6542880832 2.0703244519 -1.2980021454
C 3.1644791782 1.9616722225 -1.016589818
O 3.3963071163 0.542220727 -0.8877218358
C 2.1439017686 -0.1021821018 -1.1841431093
C 1.490367667 0.8302081305 -2.208653071
H -1.0798598096 1.4588019924 -0.9309941104
H -1.0882200379 1.400499318 0.8526106218
H 1.7300519238 -0.3164670185 0.9739052808
H 1.2353252036 2.2586780978 0.8644440491
H 1.3387468015 3.0326366721 -1.7037668891
H 3.7712592365 2.3583027595 -1.8413525667
H 3.46642099 2.4644869121 -0.0902300021
H 2.3357277105 -1.1351966086 -1.474040514
H 2.0632965691 0.8992822477 -3.1362069661
H 0.4576522522 0.5627680012 -2.4339651596

