# b3lyp 6-31G(2df,p) opt Freq 

 titel

0 1
C 1.5273260423 -0.1149536839 -0.2172572689
O 0.1238701868 -0.1050011089 -0.0479052028
C -0.3005330526 0.6786020767 1.0202350744
C -0.2216908024 0.1049654308 2.4862818482
C -1.3817154883 1.1194483338 2.7955845468
C -2.2711779197 0.9184672967 4.0103908462
C -1.7962916536 0.5219927031 1.4000400121
C -1.353881713 -0.826256727 2.0110380519
O -1.7177668286 -1.9542201951 2.1098537871
H 2.039656515 -0.5531872257 0.6509267137
H 1.7400643225 -0.7225910485 -1.0989760208
H 1.9210097119 0.9000584724 -0.3791129338
H 0.0481813098 1.7173736592 0.9353447847
H 0.6569170697 -0.1063290261 3.0923474214
H -1.0483702787 2.1586556191 2.7097193793
H -2.6100477927 -0.117537692 4.1040989757
H -1.7349545059 1.1818215335 4.928136421
H -3.1571748387 1.5591779687 3.9499575706
H -2.6640916737 0.7685786431 0.7924370233

