# b3lyp 6-31G(2df,p) opt Freq 

 titel

0 1
C -1.1353010243 -0.3285739472 2.5625907447
C -1.8011282093 -0.7750585562 1.2800742225
C -2.1384638199 0.1114399813 0.1303853277
C -3.4553191108 0.3977737612 -0.5074163921
O -1.119631263 1.1604390286 0.0357754672
C -0.1565001812 0.203708288 -0.260122724
O 0.9688443067 0.3948977398 -0.5928779732
C -1.0858993707 -0.9674897602 -0.0796748507
C -1.0403387929 -2.2543550063 -0.8498859812
H -0.5462808854 -1.1410143455 2.9993737886
H -0.4749206935 0.5243902963 2.3934482108
H -1.889021329 -0.0281324528 3.2981826721
H -2.5382899179 -1.5677107857 1.4131072324
H -3.9805899186 1.1956784024 0.0283132986
H -3.3249595827 0.7129505775 -1.5469076641
H -4.0868219066 -0.4950930095 -0.4870621413
H -1.9731517935 -2.8144619476 -0.7313372188
H -0.8842303826 -2.0752135581 -1.9182264481
H -0.223202095 -2.8920855659 -0.4967555613

