# b3lyp 6-31G(2df,p) opt Freq 

 titel

0 1
C 1.4779775473 0.3133772993 -0.1349162421
O 0.0706353036 0.3097620138 -0.0664133725
C -0.4116598191 0.3141830864 1.2600879613
C -1.90621008 0.3840938433 1.2380691305
C -2.7485955241 -0.2747853237 2.0464770062
C -4.151833557 0.0950036135 1.7611667985
O -5.1445607201 -0.3180569721 2.314848554
C -4.1170531013 1.1150081416 0.6092775666
C -2.6268936866 1.2965562136 0.2688827626
H 1.9120016431 -0.5777822162 0.3444793824
H 1.7517697381 0.3149460678 -1.1922455266
H 1.9065482419 1.2061154051 0.3473842826
H -0.0701172941 -0.5769557141 1.8106875777
H -0.0183993805 1.195774381 1.8021269515
H -2.4818680622 -0.9909814249 2.8139810889
H -4.7073123435 0.7336028265 -0.2288047579
H -4.5970905499 2.0419906999 0.9362324895
H -2.3800701859 1.0179729412 -0.7602613163
H -2.2846616999 2.331993638 0.3888675528

