# b3lyp 6-31G(2df,p) opt Freq 

 titel

0 1
C -0.8730271057 -2.0448222974 1.2738510245
C -0.8697325797 -1.0642171845 0.1079647335
C -2.0204326116 -0.0383190268 -0.0298119885
O -1.04059477 1.0633519004 0.0994493232
C -0.0009698328 0.1867427184 0.2643856652
O 1.1418539119 0.4427603717 0.4741586089
C -2.786596443 0.0274953501 -1.3097506117
C -4.1435875814 -0.6344902511 -1.3936925409
C -4.0369615816 0.8664034383 -1.3989952735
H -1.613773288 -2.835038677 1.1189637187
H 0.1095990375 -2.5138962196 1.3759397241
H -1.1029841257 -1.5396965556 2.2172386392
H -0.6576632359 -1.578227883 -0.8348629445
H -2.6913667976 -0.0139505013 0.8356848208
H -2.1664006211 -0.0167710979 -2.2008773922
H -4.4021557565 -1.1420576079 -2.3157130595
H -4.5329031427 -1.1136872385 -0.5012428047
H -4.2246538965 1.395973537 -2.3256876725
H -4.3493900596 1.4025329648 -0.5092002504

