# b3lyp 6-31G(2df,p) opt Freq 

 titel

0 1
O 1.0797578412 0.4149952529 1.0746661098
C 0.0547276639 -0.1969921203 0.93811811
O -1.1122743798 0.2873464699 0.5001397998
C -1.1372501457 1.698381683 0.1307385051
C -1.417034241 2.5762119737 1.3660178136
C -2.9580341157 2.6116749398 1.5002773287
C -3.4740938802 2.4348341401 0.0785516057
C -2.8348586582 3.2750747428 -0.9971284623
C -2.3475460195 1.8657092349 -0.7600251787
H -0.0701910686 -1.2697260911 1.1572952969
H -0.1807447121 1.9310569765 -0.3410223369
H -0.9105073449 2.1901768922 2.2518962936
H -1.0146341842 3.577714881 1.187205776
H -3.305079198 1.7747294501 2.1162063091
H -3.3074237879 3.5337910859 1.9761344912
H -4.4961000609 2.10416358 -0.0668658749
H -3.4065656264 3.4380483513 -1.9039467469
H -2.2062147367 4.115658444 -0.7214614796
H -2.5140912953 1.1145996933 -1.5227993602

