# b3lyp 6-31G(2df,p) opt Freq 

 titel

0 1
O 1.411173233 0.5707612164 -0.4217181314
C 0.4408688943 0.0617562505 0.4714132791
C -0.3295165338 1.1863212498 1.1926064743
C -1.2743553568 1.9647799351 0.2159992901
C -2.4505760706 1.0541427404 0.6602392096
C -1.6365968285 0.6525315204 1.9032398391
O -1.7157667754 -0.7094488851 2.2372796994
C 0.5868370145 1.9712986753 1.9991235902
C 1.3660976735 2.6050739501 2.6642284694
H 2.0003956856 1.1362489671 0.0918900932
H -0.2505496134 -0.5340993745 -0.1294466956
H 0.887061903 -0.60771793 1.2206125891
H -1.4082141372 3.0038428079 0.5218743854
H -0.9728379094 1.9366758018 -0.8319331484
H -3.4218770089 1.5203679119 0.8328978852
H -2.5857747503 0.1950442995 -0.0012698213
H -1.8736690823 1.2934844846 2.7618946563
H -1.2739727639 -0.8468085318 3.0815466157
H 2.0366110168 3.1770153807 3.2569475005

