# b3lyp 6-31G(2df,p) opt Freq 

 titel

0 1
C -0.1129310436 -0.0300096291 0.2799098188
C 1.3780258178 -0.018190751 -0.0161177682
O 2.0642567046 -0.9695764135 0.7935145196
C 2.1189250234 1.3707551429 -0.0296419447
C 2.7066998618 1.0454540641 -1.4337846528
C 1.8964281803 1.5382662121 -2.660109234
O 0.5135230644 1.5644232211 -2.2938624981
C 1.0882854675 0.303364777 -2.6705190697
C 1.87650746 -0.2762631102 -1.4712841035
H -0.2931622688 0.2536001937 1.325235924
H -0.6477389307 0.6747104021 -0.3584471819
H -0.5205824285 -1.0349022092 0.1297941684
H 1.8950317573 -0.7420567946 1.714753623
H 1.464913916 2.2438961889 -0.0029100279
H 2.87075201 1.44241736 0.759472967
H 3.7883577008 1.0332417938 -1.5579274757
H 2.2005343335 2.2026603052 -3.4615690888
H 0.5964585808 -0.2263457798 -3.478796437
H 2.3468083934 -1.2430942438 -1.6459457584

