# b3lyp 6-31G(2df,p) opt Freq 

 titel

0 1
O 1.9323761284 -1.5236575876 -0.4704343451
C 1.2315044791 -0.9065175203 0.2834526769
C 1.7552919495 0.2371482276 1.151236832
C 1.4765046407 1.5405846455 0.4394947117
C 0.3555834092 2.2485628735 0.5682198006
C -0.7994092575 1.905651081 1.4781810217
C -1.6297026681 0.671376245 1.0588417776
C -1.003126544 -0.7031990361 1.3134515414
O -0.0986638273 -1.1711574275 0.3034730305
H 1.3026451517 0.2300491396 2.1464246482
H 2.8280717942 0.0730960494 1.2594221801
H 2.2357368346 1.8608238478 -0.2681450204
H 0.2449487642 3.1465981294 -0.0347128453
H -0.4393340103 1.7487974823 2.5048769662
H -1.474763677 2.7652464081 1.5291451102
H -2.5667509246 0.6868219847 1.6298450345
H -1.9064853241 0.7380636793 0.0009121368
H -0.5315459079 -0.7461520711 2.3022623149
H -1.7972993709 -1.4547714207 1.3048864474

