# b3lyp 6-31G(2df,p) opt Freq 

 titel

0 1
C 0.0810698678 2.1193122937 0.7600121879
C 1.3109127433 1.6118750526 -0.0821695515
C 0.322594684 1.0258711101 -1.1241672426
C -0.125170582 1.8832230472 -2.3429947625
C -1.3551722919 2.3907464721 -1.5006977257
C -0.867004333 1.5167085127 -0.3095469668
O -1.5963950533 0.366115696 0.0544052984
C -1.1426312013 -0.6577730409 -0.825628919
O 0.2080028554 -0.3783919207 -1.1812085883
H -0.0271629347 1.6365448185 1.7322502661
H 0.0130227258 3.2018011765 0.8893090434
H 1.9788760235 2.3906828482 -0.4568877089
H 1.9040316186 0.8397302707 0.4097940587
H 0.5827549506 2.6519862267 -2.6618105309
H -0.3963502008 1.2779039351 -3.2109438166
H -1.3903308339 3.4661250676 -1.3106336778
H -2.3254200568 2.0738918424 -1.8899366476
H -1.1834162345 -1.619055745 -0.3059776972
H -1.7743108967 -0.6889084437 -1.7293255292

