# b3lyp 6-31G(2df,p) opt Freq 

 titel

0 1
C 1.4649810539 0.0918343118 0.0655673344
C 1.3363862566 1.6388827849 0.0729759549
C 1.3629758282 2.2656582449 1.4773542092
C -0.0702270161 2.0113117285 1.9965283261
C -0.3077239929 0.5719233522 2.4996364862
O -0.6120234377 -0.3386796154 1.4481573675
C -0.0824334723 -0.0303712738 0.1784505315
C -0.207493039 1.4960258724 -0.1624733228
O -0.8879095927 2.2188211255 0.8421658895
H 1.8289079858 -0.2972504145 -0.8892550492
H 2.0486402694 -0.3646244787 0.8698934373
H 1.9319976303 2.1907926974 -0.6545662716
H 2.1319157925 1.8403987648 2.1289461074
H 1.5309603966 3.3439902129 1.4084262294
H -0.3735173106 2.7279776492 2.7635991347
H 0.5642602143 0.2254120972 3.0772891417
H -1.1770873575 0.5486239687 3.1641573433
H -0.5580564667 -0.7315855003 -0.5103805646
H -0.6283562222 1.7479249323 -1.136047175

