# b3lyp 6-31G(2df,p) opt Freq 

 titel

0 1
C 0.7430072458 0.757858343 -0.1876644166
C 0.9091589396 -0.7232556014 0.1665375738
C 1.3436398292 -1.6300299821 -1.0255025011
C 2.788856442 -1.9950338446 -0.6931132379
O 3.5589530242 -0.7420917335 -0.6217114937
C 3.4404486762 -0.7794186054 0.7978664591
C 2.8668430596 -2.1667221362 0.8392536331
C 2.0001624444 -0.970596442 1.2168618518
O 1.7544409394 -0.6727511656 2.5527958913
H 0.5536447058 1.348862044 0.7141770211
H 1.650675248 1.1365825129 -0.6651916485
H -0.0965613278 0.9105659847 -0.8739613868
H -0.0368175695 -1.091656066 0.5859829086
H 0.7329763167 -2.5383332658 -1.0839585872
H 1.2764947939 -1.115947144 -1.9886799457
H 3.2751024629 -2.7227709988 -1.3450884066
H 4.1831944839 -0.2739294089 1.4038473933
H 3.0952845853 -3.0386013979 1.4364027748
H 1.0880424704 -1.2873677522 2.8816855773

