# b3lyp 6-31G(2df,p) opt Freq 

 titel

0 1
C -0.1142308721 -0.0862242539 0.0744032634
C 1.3819245522 -0.0055111507 -0.0337633589
C 2.2472685527 -1.2637239467 0.3231164417
C 2.9240132535 -0.473096877 1.5004943353
C 2.3489525137 0.789502136 0.8878295831
O 2.0282812422 2.0274915963 1.4991554362
C 2.2978568612 2.7353901162 0.2501361764
C 2.8010296623 1.4381208915 -0.4274473244
O 1.8407502838 0.7136313378 -1.2176928682
H -0.4105749022 -0.5937419077 0.9977900099
H -0.556452188 0.9139974733 0.0703017711
H -0.5272939288 -0.6484403938 -0.7707712091
H 1.6823427577 -2.1484543238 0.6220674002
H 2.9319874851 -1.5294260787 -0.4836855926
H 2.4539838157 -0.7054965046 2.4609867606
H 4.0088923568 -0.539069406 1.6135625973
H 1.3924219881 3.1586308953 -0.1960851615
H 3.049671745 3.5178029121 0.4005502607
H 3.8064830812 1.4359086044 -0.8533336211

