# b3lyp 6-31G(2df,p) opt Freq 

 titel

0 1
C 1.5618771939 -0.0281661684 -0.0211656965
O 0.1496094704 0.1285604193 -0.0596807056
C -0.371906367 0.710473923 1.0705372146
C -0.5528143603 -0.0537204829 2.3345697835
C -1.8006212988 0.4794065847 1.6337589424
C -1.9442352462 1.9796222435 1.8914113365
C -0.5257011196 2.2230584548 1.2756324068
C -2.8413522875 -0.4077996844 1.1073157365
O -3.9906139065 -0.0753451963 0.9274384276
H 1.871969974 -0.6542459095 0.8263737963
H 1.8499102274 -0.5149662292 -0.954844664
H 2.074342425 0.9407247382 0.0499271859
H -0.4081620918 -1.1255234908 2.2327523357
H -0.2877184856 0.3562299582 3.3065361049
H -2.7507771476 2.4223651456 1.3062602146
H -2.0671374109 2.2627924033 2.9406017766
H -0.5788448541 2.7504208881 0.3211827534
H 0.2220861125 2.7052085655 1.9127863352
H -2.4905470073 -1.4350320027 0.8591250054

