# b3lyp 6-31G(2df,p) opt Freq 

 titel

0 1
C 1.3873233191 -0.0344631931 0.0350514539
O -0.0242336014 0.0303849163 0.1499831588
C -0.4641331489 0.6850309708 1.2673040652
C -0.2436140606 0.3181147798 2.8064814655
C -1.7855287686 0.1786936406 2.9357685437
C -1.9659132174 0.9028854826 1.5804119842
O -1.7726949049 2.3304892877 1.701582004
C -0.3335706961 2.2010451792 1.6664646193
C 0.2321175789 1.7766934283 3.0413527402
H 1.8369685914 -0.5586944088 0.8894247052
H 1.6075053346 -0.5877013923 -0.8798288088
H 1.8310771824 0.9683581271 -0.037458364
H 0.3779805055 -0.4948054544 3.1801409785
H -2.0913406476 -0.8692307054 2.8504075677
H -2.2730205534 0.6322618756 3.8024508452
H -2.8020319154 0.6505018337 0.9266582658
H 0.1375689199 3.0098986512 1.1047215012
H 1.3261419799 1.8365079792 3.0381365775
H -0.1584822275 2.3093652221 3.9121775468

