# b3lyp 6-31G(2df,p) opt Freq 

 titel

0 1
C -0.0595655139 0.1783900846 0.3376636221
C 1.3934720041 0.0284855501 0.0011282385
C 2.036985525 0.7536592362 -1.1978722367
C 3.3384210212 -0.069259111 -1.129838752
C 2.8290628164 -1.502026229 -1.4593183041
C 2.1402192945 -1.3899998767 -0.102719286
O 1.6061189255 -2.4992256717 0.5256234574
C 3.2504191102 -0.451768517 0.4261736105
O 2.3184227914 0.4178522688 1.0763247808
H -0.3438859242 -0.4739887404 1.1691955253
H -0.2828817364 1.2117110871 0.6224248323
H -0.6787870988 -0.08331416 -0.5257314843
H 1.5066893363 0.6232667912 -2.1454791908
H 2.1562199854 1.8182916449 -0.9832432428
H 4.2445567601 0.3286425219 -1.5795109874
H 2.2267408802 -1.6346011604 -2.3623700399
H 3.6213352512 -2.2550608407 -1.423631096
H 1.4034388735 -2.2567591767 1.437176609
H 4.1415685584 -0.7144469111 0.9941401742

