# b3lyp 6-31G(2df,p) opt Freq 

 titel

0 1
C -1.6732419263 -2.0539536035 0.9534445506
C -0.6824800194 -2.1467459701 -0.2078366801
O -1.1580515167 -2.9871945569 -1.2576986701
C -0.2983756176 -0.7831952605 -0.7268489516
C 0.7717705096 -0.4266013491 -1.8193392297
C 0.2034743204 0.9760143767 -1.4152266947
C -1.2067303672 0.2927963364 -1.4389780105
C 0.27812536 0.4367811355 0.0187725597
O 0.59406847 0.7659909121 1.1210551679
H -1.916301598 -3.0539314135 1.3214470043
H -1.2521414 -1.463458119 1.7729159021
H -2.6043892002 -1.5698174991 0.6335780137
H 0.2315271564 -2.6411096519 0.1437877943
H -2.0161420537 -2.64709989 -1.5346988241
H 1.817710705 -0.6368097838 -1.5875211206
H 0.5032810006 -0.7515760325 -2.8266150382
H 0.475615338 1.9497764459 -1.8147119894
H -2.0047253152 0.7583870113 -0.857257076
H -1.5420668454 0.003566162 -2.4382688475

