# b3lyp 6-31G(2df,p) opt Freq 

 titel

0 1
C -3.1552567107 1.0592440193 1.1044842278
C -2.5657896082 2.1453816054 0.192942057
C -3.6668410523 2.9905728477 -0.4703527252
C -1.6651862133 1.5559826167 -0.8519877206
C -0.5029026649 2.1486171631 -1.556329517
C -0.3468692402 0.812819385 -0.8023555228
C -1.0720530231 -0.2355803132 -1.5965935777
O -0.8873390293 -1.3397863878 -1.9918300462
O -2.2326918407 0.5213725976 -1.7268347637
H -3.7873465527 1.5089185703 1.8757132255
H -3.7667560043 0.3610033126 0.5260033019
H -2.3670729969 0.4861153456 1.6023556322
H -1.9353040885 2.8106285226 0.7982690927
H -4.3102291823 3.4458352258 0.2882841713
H -3.2404224917 3.7913450846 -1.0820734497
H -4.2920811656 2.3672616527 -1.1171244354
H -0.471449966 2.1659212402 -2.6409217544
H -0.0134054347 2.9838123044 -1.0632618065
H 0.3746324552 0.6572307474 -0.0137648092

