# b3lyp 6-31G(2df,p) opt Freq 

 titel

0 1
C 0.6749202623 -2.0424867886 3.853389382
C 1.3312637069 -0.7000544465 3.4792804067
C 1.2325397514 -1.2233294829 2.0252653089
O 0.4783142641 -2.3819945375 2.4649150888
C 0.4936871309 -0.4009636529 1.0133295354
C 1.3458556907 0.4726468683 0.1039642252
C 0.4338223948 1.2220141846 -0.8606997537
O -0.2273758581 -0.0113014597 -1.2570407288
C 0.6648139506 -0.76289843 -0.432869452
H 1.3397157129 -2.7557093119 4.358275076
H -0.2726831459 -1.994719607 4.4017701145
H 0.7074603692 0.1754001907 3.6705125087
H 2.335791416 -0.5188379916 3.8639619873
H 2.205954372 -1.5338634421 1.6144467428
H -0.4839725806 -0.0416837752 1.3310457292
H 2.389601601 0.6848256827 0.2935362668
H -0.2650716693 1.9554148501 -0.4411210239
H 0.9652583995 1.6601593175 -1.7129993392
H 1.0277784717 -1.7153315381 -0.8017032146

