# b3lyp 6-31G(2df,p) opt Freq 

 titel

0 1
O -1.9182629986 -2.3275153968 -0.2392405757
C -0.7514901789 -1.5249125885 -0.1531500247
C -0.6686697006 -0.6738803954 -1.4198082924
C 0.3629354212 0.43848354 -1.2497866473
C 0.1234347672 1.5330593085 -0.1760933664
O 1.5759924163 1.8028198503 -0.149279842
C 1.4460992108 0.3339232538 -0.1298419486
C 0.3172668037 0.4744181082 0.9409513659
C -0.7281353368 -0.6288441071 1.0934506597
H -1.9537575462 -2.8889154357 0.5419262441
H 0.1466734539 -2.1654854099 -0.1217690963
H -0.4204213026 -1.3099052727 -2.2753435504
H -1.6576116029 -0.2445454412 -1.6245617296
H 0.7521010706 0.8414824925 -2.1866636739
H -0.5513700643 2.3906966152 -0.2031172075
H 2.3691812818 -0.2472337265 -0.1008086197
H 0.6670307794 0.9048817443 1.8812836128
H -0.5216407967 -1.2324418206 1.98606533
H -1.7232816273 -0.1872221385 1.233244932

