# b3lyp 6-31G(2df,p) opt Freq 

 titel

0 1
C 1.5236493081 -0.1170934219 -0.1860162166
O 0.1162016296 -0.1262981777 -0.0566745116
C -0.3422803235 0.5961894335 1.0450298065
C -0.2504019584 -0.0513429811 2.4831621871
C -0.9110534366 -1.4275894362 2.2337229165
C -2.1285072328 -0.9911355506 1.3393505531
C -1.8815102311 0.5358040482 1.2738250583
C -1.4992815624 0.8084185486 2.7408821055
O -1.921523493 1.4768770644 3.6368841473
H 2.0168469105 -0.5906944031 0.6749392909
H 1.7678050984 -0.6798835568 -1.0896068514
H 1.9117480983 0.9075197249 -0.2878223622
H 0.0433681124 1.6250331706 1.0362533692
H 0.6355040026 0.0032228028 3.1119771803
H -0.2397920096 -2.1042264218 1.7017687014
H -1.218941147 -1.9073231729 3.1656326977
H -2.0885970354 -1.4420903771 0.3472463624
H -3.0937539335 -1.225939486 1.793917029
H -2.5805815268 1.1571328521 0.7190337666

