# b3lyp 6-31G(2df,p) opt Freq 

 titel

0 1
C -0.0796689058 -0.1137132198 0.024090962
C 1.4255651197 -0.0655134613 -0.1137384588
C 2.1651312263 1.2156803957 0.246012761
C 3.5455156398 1.427739959 -0.3501746294
C 4.2985297878 0.1228807955 0.0159608297
O 3.5867894978 -0.5161198376 1.0781997492
C 2.2811616889 0.0022869414 1.1252902684
C 5.7301848312 0.3217407341 0.4831759911
O 6.4634361594 1.1784913996 0.0638182734
H -0.4135338676 0.4467469215 0.9042802111
H -0.5745579058 0.3239041929 -0.8498877631
H -0.4357336921 -1.1437171037 0.1330171889
H 1.8278750929 -0.6411163265 -0.9445344319
H 1.5888993644 2.0832127105 0.5474985276
H 3.5416014914 1.5896691243 -1.4310292785
H 4.0383049432 2.2895464039 0.1091603607
H 4.3382836463 -0.551087589 -0.8558976487
H 1.8434689059 -0.0840343666 2.1135278652
H 6.0483492061 -0.4072624036 1.2599663424

