# b3lyp 6-31G(2df,p) opt Freq 

 titel

0 1
C 2.641352689 -3.0769479782 0.3798254856
C 2.5936933517 -1.5595933112 0.4941364423
C 1.1591211913 -1.0202833608 0.5127546125
O 0.4857584359 -1.2482892526 -0.7171141505
C 3.4930406352 -0.7445007627 -0.4627198983
O 4.0892033929 -0.0218909671 0.6388133596
C 3.4994679709 -0.9248058853 1.6032669793
C 2.8926113377 -0.2616169047 2.7445639844
C 2.3952837282 0.2693691461 3.7018460375
H 2.1302422078 -3.5534380643 1.2246626672
H 2.1588757289 -3.4159031718 -0.5437339522
H 3.6721257798 -3.4438261965 0.3598380073
H 0.6064570132 -1.4467086476 1.3626245625
H 1.1785618092 0.0645224359 0.6498119971
H 0.23687838 -2.1761269671 -0.7578439773
H 4.2383078646 -1.3407831398 -1.0061291639
H 2.9774596202 -0.0815227176 -1.1639614141
H 4.2505077412 -1.6437783671 1.9643910536
H 1.9578328823 0.7462689423 4.5442045174

