# b3lyp 6-31G(2df,p) opt Freq 

 titel

0 1
C 0.6912416505 0.9721109315 -0.2268227727
C 1.0497745725 -0.5049380838 -0.0577715411
C 1.8153573119 -1.1105918171 -1.2220406617
O 3.194373178 -0.7154157365 -1.2644106466
C 2.8629684467 -2.0029005376 -0.7224923624
C 2.8197865481 -2.0275226806 0.7917187933
C 1.9886155914 -0.772985068 1.1672431467
C 1.1743898129 -0.9592779262 2.4240814633
O 1.1195726629 -0.1826908976 3.3418155596
H 0.2349176049 1.3724525995 0.6836268063
H 1.5905590564 1.5568916463 -0.4425820536
H -0.0154181533 1.1159395287 -1.0504363721
H 0.1261740283 -1.0923356881 0.0606244719
H 1.3344009707 -1.2366955976 -2.18958098
H 3.2364357812 -2.8558911923 -1.2834138624
H 2.3170932857 -2.9484415002 1.1180955147
H 3.8122791617 -2.0154976764 1.2511258124
H 2.6415892031 0.0894803068 1.3105274783
H 0.5742966965 -1.902716711 2.4355282659

