# b3lyp 6-31G(2df,p) opt Freq 

 titel

0 1
O 0.0841487282 1.2771487729 0.2747934025
C -0.0077197566 -0.0823777702 -0.123152931
C -1.4611226366 -0.4940712737 -0.0122315769
C -2.1136126396 -0.6634665086 1.4165712668
C -2.8665440338 -1.9293749028 0.8644023064
O -2.8411766052 -3.1980895487 1.488340952
C -2.0710905531 -4.077677537 0.6460077354
C -1.2834690315 -3.166053144 -0.2866051894
C -1.8183897531 -1.9540050208 -0.1990356699
H 1.0081460449 1.540714544 0.2385145125
H 0.3359644551 -0.2215815669 -1.1613700377
H 0.6050187679 -0.7350303988 0.5185217703
H -2.0742710798 0.1766301354 -0.6239464776
H -1.3632927783 -0.9490980531 2.1570957825
H -2.7202279395 0.1650281494 1.7865964179
H -3.8879022263 -1.6739515428 0.5482909298
H -1.4045163503 -4.678550951 1.2787627208
H -2.742475231 -4.775953155 0.1201601158
H -0.3747529713 -3.4782361381 -0.7853700504

