# b3lyp 6-31G(2df,p) opt Freq 

 titel

0 1
O -4.0026211213 -0.4603849468 -2.450052399
C -2.8706878746 -0.241011674 -1.6231129785
C -3.1140705348 -0.6368691974 -0.1634076669
C -1.8753041714 -0.3263112282 0.6818762908
O -1.5015508977 1.0391627455 0.584925544
C -1.1683611376 1.4095477275 -0.7492257666
C -2.3719442545 1.207407544 -1.6944322305
C -0.7054377368 2.7936382098 -0.7439097315
C -0.3357343177 3.935642089 -0.7801857221
H -4.7180090304 0.0964310977 -2.1228674501
H -2.0967522732 -0.899076249 -2.0406368205
H -3.9653272829 -0.0648080024 0.2298525893
H -3.3678822118 -1.7000004199 -0.096749468
H -2.0602313001 -0.5124687193 1.7429660499
H -1.0356206602 -0.9708331907 0.3684763688
H -0.3411744842 0.7656637407 -1.1010403991
H -3.1708364315 1.8913542814 -1.3812862582
H -2.0926519543 1.46556948 -2.7200455633
H -0.0021555449 4.943615752 -0.8003526387

