# b3lyp 6-31G(2df,p) opt Freq 

 titel

0 1
C -2.1985911246 3.6962379804 1.8384256826
C -2.4784680369 2.2076125273 1.7461764442
O -3.6004284828 1.7575307105 1.7969486489
C -1.2724315201 1.2933187382 1.5544699794
C -1.0242842071 1.0415497029 0.0614708282
C -2.0477633679 0.1925531807 -0.7589818779
C -0.891299377 -0.6961433843 -1.3100734059
C 0.0398860747 -0.0203658771 -0.2913755062
O 1.1221745421 -0.2697311035 0.1523711566
H -1.6761586088 3.9100075711 2.7787628905
H -1.5349224495 4.0235626179 1.0303591297
H -3.1326400493 4.258212181 1.8077199791
H -0.3689167824 1.7252558185 1.9971311203
H -1.4850832986 0.3430155714 2.0532526984
H -0.7831575991 1.9813321817 -0.4523091564
H -2.736003299 -0.3517884282 -0.1102182267
H -2.6285861191 0.7377919154 -1.5030583951
H -0.9845587051 -1.7811754408 -1.2192474485
H -0.6037032496 -0.460470253 -2.3400305011

