# b3lyp 6-31G(2df,p) opt Freq 

 titel

0 1
O -0.6791547306 1.391705912 -4.4584730758
C -0.7428871731 1.327022962 -3.049701947
C 0.0960641807 2.4739819602 -2.4289551325
C 0.9935736528 1.4413193967 -1.7059146676
C 0.4643962072 0.9592098469 -0.308520321
C -0.2884189295 -0.2149659675 -0.9861171777
C 0.1869197449 0.2707275404 -2.3761630616
C 1.5834211836 0.5709306068 0.6211057082
O 1.8881228327 -0.5572100539 0.9162417144
H -1.1139417172 0.6092369782 -4.8138267898
H -1.7862982512 1.2725680123 -2.7039622661
H 0.623789665 3.0121064776 -3.2196338136
H -0.4332958369 3.1945680328 -1.7998273594
H 2.0739345664 1.5652101104 -1.7971588681
H -0.1480516643 1.7151135278 0.1978565872
H 0.1353008299 -1.1745164077 -0.6828018859
H -1.3717808283 -0.2427308656 -0.8372211865
H 0.6362254459 -0.4561438281 -3.0542014365
H 2.1640470318 1.4383221188 1.0136022293

