# b3lyp 6-31G(2df,p) opt Freq 

 titel

0 1
C -4.312849425 -0.4667114611 2.5078729263
C -2.9139314888 0.1162529215 2.4956375374
O -1.8502419839 -0.8497593132 2.6245272697
C -1.9931357874 -0.1755284784 1.3699067875
C -0.86282017 0.7247929919 0.9425149399
C 0.3774856038 -0.0745580057 0.5236922509
O 1.4294140964 0.757975968 0.0649893888
C -2.7499854476 1.3298811968 3.2638293725
C -2.6705501634 2.3394818421 3.9118532355
H -4.6100633229 -0.7154415254 3.5307384797
H -5.0333883543 0.2537893892 2.1095941143
H -4.3450859905 -1.3766119364 1.9038305804
H -2.4034497621 -0.8115149068 0.5811719292
H -1.1896745387 1.3439630407 0.0983668963
H -0.6074007405 1.4001600045 1.7662429509
H 0.6991351189 -0.7149885049 1.3580499236
H 0.1343695442 -0.734038349 -0.3170048924
H 1.7298820709 1.2878108712 0.8103054216
H -2.587838259 3.2297845751 4.4852608577

