# b3lyp 6-31G(2df,p) opt Freq 

 titel

0 1
C -1.0321574761 -2.0541153946 -1.2201383675
C -1.025554273 -1.0969404674 -0.028395023
C -0.9819074264 -1.8420937086 1.3111149239
C 0.0498593907 0.0146308047 -0.122135547
O 1.2374225951 -0.0107891409 -0.2672460403
C -0.9900344351 1.1476035156 -0.0152498338
C -2.0679141979 0.0536711462 -0.0479665145
C -3.4063852329 0.0862741561 -0.6340997532
O -3.2093172136 0.0716243672 0.7890696347
H -1.8751620463 -2.7506111797 -1.1551964202
H -1.1073044934 -1.5166656591 -2.1706540667
H -0.1074654785 -2.6391803209 -1.2375015378
H -0.0991953741 -2.4865261779 1.3560773767
H -0.9469788809 -1.1523057531 2.1594495189
H -1.8769789144 -2.4609593808 1.4260080247
H -0.9445909572 1.6891029617 0.935554321
H -0.9782561171 1.8733616282 -0.8330037509
H -3.79692631 1.0185442292 -1.0404181016
H -3.841772389 -0.8203604658 -1.0519180835

