# b3lyp 6-31G(2df,p) opt Freq 

 titel

0 1
C 1.4860875105 -0.1566194071 0.1153991345
O 0.0759363347 -0.0247356392 0.0026745639
C -0.4892794881 0.6909220331 1.0246761636
C -1.8916382955 0.641005896 1.5743802527
C -2.0201211818 2.1644212259 1.4991852106
C -0.4697622301 2.2283268677 1.2820628036
O 0.2360560059 2.4390294117 2.4953598863
C -0.103439812 1.346247538 3.3648806551
C -0.6800382634 0.2716657999 2.4524643222
H 1.7644350638 -0.6828880267 1.0386140885
H 1.8195987641 -0.7377546862 -0.74683998
H 1.9861280408 0.8209767481 0.1052170669
H -2.6679702354 -0.0897851639 1.3821134175
H -2.5694454023 2.4783249833 0.6073760141
H -2.4003714353 2.7055856081 2.3710961435
H -0.0836029622 2.9073406887 0.5232266787
H 0.8077463869 1.0102908903 3.8732874924
H -0.8149372781 1.6830733607 4.1318097266
H -0.5829186926 -0.7766493786 2.7078961994

