# b3lyp 6-31G(2df,p) opt Freq 

 titel

0 1
O 1.3690419726 -0.2075464211 0.1890343745
C 0.2143501448 0.090621303 0.0273482218
C -0.3321532482 0.8409759889 -1.1656012842
C -1.0604689015 2.1303829248 -0.7407158037
C -1.7309002855 2.849779157 -1.9078352862
C -2.3587227004 4.2446002386 -1.5364450869
C -1.3692581696 4.9007199176 -2.50782514
O -1.5885616194 4.3147613307 -3.7962825574
C -0.776395176 3.6009093869 -2.8611675884
H -0.5568843425 -0.174153058 0.789907116
H 0.4919416868 1.0443334926 -1.8550885772
H -1.0478559742 0.1790000153 -1.6747904425
H -1.8210119583 1.8877131627 0.0131209791
H -0.346487765 2.8062186339 -0.2518252136
H -2.408738074 2.1717894484 -2.4367222772
H -3.4142537159 4.3948660246 -1.7744996411
H -2.1771781906 4.5097426835 -0.491129946
H -0.9403408451 5.895733469 -2.4849594394
H 0.2275042521 3.3364961016 -3.1750202674

