# b3lyp 6-31G(2df,p) opt Freq 

 titel

0 1
C 0.2819094788 0.038580233 -0.3735268263
C 0.9947031447 -0.2177938448 0.9375484186
O 2.442323936 -0.1879072454 0.7891696918
C 2.5802946848 0.8469274782 1.7842203365
C 3.0888878729 0.3335043713 3.1154433259
C 2.8865322435 1.24828497 4.3100169894
C 1.8805627459 0.175461823 3.9884735196
O 0.7140041799 0.5981584508 3.3119625397
C 1.0489094994 0.9335093917 1.9761703884
H 0.53813604 -0.7345752738 -1.1042981328
H -0.8035727769 0.0263886791 -0.2258982819
H 0.5674192921 1.009268367 -0.7916386478
H 0.6656142497 -1.1618185419 1.3902259507
H 3.1286918079 1.7111608106 1.3938375122
H 3.9047517654 -0.3793321496 3.1067549338
H 3.5429562111 1.1058227655 5.1618475277
H 2.5867426541 2.2768771764 4.1338238924
H 1.7109767904 -0.6663428145 4.6494277456
H 0.5258951402 1.8492651634 1.6928524266

