# b3lyp 6-31G(2df,p) opt Freq 

 titel

0 1
O 0.390564352 -0.1244723522 0.3907183956
C -0.43873071 0.7321052219 1.1201930638
C -1.5102442992 0.1010412191 2.1066288589
C -2.5942305525 0.7800304178 1.2594632639
C -3.7634989993 1.7106989739 1.4516940046
C -3.6016930444 2.7070507903 0.258002747
C -2.0783208888 2.7488556564 -0.095564997
C -1.6115168769 1.391423245 0.3576490685
O -2.4357166738 0.2972363835 -0.0881469887
H -0.1987195927 -0.6627733887 -0.1531202824
H 0.2058292354 1.4554715657 1.625444985
H -1.5443756973 -0.9904046317 2.1465756864
H -1.4281857 0.502609151 3.1197854981
H -4.74279917 1.2227718001 1.4506522669
H -3.6526926191 2.223223699 2.4148689737
H -4.1587520282 2.3303904845 -0.6020539982
H -3.9952245057 3.6986643349 0.4952620562
H -1.9076132157 2.9639309983 -1.1545006685
H -1.555941204 3.5184955714 0.4853168961

