# b3lyp 6-31G(2df,p) opt Freq 

 titel

0 1
C -2.0249136858 0.2151643382 -2.7646525754
C -1.2680388999 0.8978798835 -1.6387837754
O 0.0647817579 0.4231728733 -1.6403330256
C 0.8629945469 1.0027887066 -0.6369866505
C 2.2491840291 0.4274692225 -0.7445633116
O 2.5161531506 -0.78226338 -0.0419558393
C 3.158837279 0.4179422958 0.4188424442
C 4.585376088 0.5173754229 0.2653932459
C 5.7786691192 0.6144769072 0.1608161599
H -2.020380939 -0.8694858316 -2.6259793735
H -3.0631799308 0.5591793371 -2.7885405239
H -1.5618338945 0.4392876713 -3.7297092776
H -1.2793922076 1.9935580896 -1.7703315118
H -1.743841866 0.6859704277 -0.66645309
H 0.9105352402 2.0996901292 -0.7605049914
H 0.4575485219 0.7960140698 0.3671544199
H 2.6943395142 0.4771265935 -1.7377488946
H 2.7700056273 0.786486832 1.3683479923
H 6.8329500692 0.6963518912 0.0625606783

