# b3lyp 6-31G(2df,p) opt Freq 

 titel

0 1
C -1.824302718 -0.040547867 -0.3847716576
C -1.6505500126 0.1916469492 -1.8708816022
O -2.3416512003 1.0157678961 -2.4651662066
C -0.6510332083 -0.6088430037 -2.5775000295
C 0.4706297816 -1.4934214196 -2.0260585855
C 1.4139822382 -0.9942741793 -3.1719749751
C 0.2810910113 -0.1416403263 -3.7509353593
C -0.9088022436 -0.9636958982 -4.0682814286
O -1.9947641817 -0.4064529578 -4.700363583
H -2.669574172 0.5440334953 -0.0204399433
H -1.9845248998 -1.1035585597 -0.1744220397
H -0.9175631013 0.2573873937 0.1541450869
H 0.8202485419 -1.1921392912 -1.0359441724
H 0.2613097308 -2.568203097 -2.0054668629
H 2.2442255843 -0.3967670088 -2.791842247
H 1.8128696322 -1.7609807832 -3.843550155
H 0.3593823865 0.8732496418 -4.123739447
H -0.7773970793 -2.0111433208 -4.3401054306
H -2.2954983699 0.3428953266 -4.1476123416

