# b3lyp 6-31G(2df,p) opt Freq 

 titel

0 1
C -0.1655409142 0.121265397 -0.0995137431
C 1.3506796208 0.1851850347 0.0188816556
C 1.9538163441 0.66958281 -1.3526091166
O 2.1466986716 -0.7500669441 -1.7113316653
C 2.1770231452 -1.0375827588 -0.3047575105
C 1.7377876822 -2.0171466503 0.8099706974
C 2.4446215895 -0.8431370186 1.6333770955
C 3.4860428859 -0.7992146248 0.5107278351
O 1.7210806593 0.4043717778 1.3911462548
H -0.609833939 -0.4545110057 0.7143228974
H -0.574900182 1.1362248948 -0.0468415996
H -0.4612055663 -0.3185526767 -1.0564624177
H 1.2657710871 1.1600395424 -2.0447029105
H 2.9071714518 1.2028396842 -1.3087340824
H 0.6738907397 -2.2069204999 0.9481469025
H 2.3163022941 -2.9373089517 0.9058835634
H 2.6734670061 -0.9438788752 2.6912336614
H 4.0311438223 0.1379013355 0.3963935965
H 4.1545295119 -1.6608463607 0.4706944259

