# b3lyp 6-31G(2df,p) opt Freq 

 titel

0 1
O 3.3990538642 2.0931220033 -2.2264534882
C 2.5055829296 1.1837076308 -1.601394904
C 1.9103490858 1.7786947659 -0.2996360231
C 2.8047206706 1.2037625609 0.7744248032
C 3.5466993754 0.1943224235 0.3158924459
C 3.2487125514 -0.1069153374 -1.1397872496
C 2.4042030039 -1.3584245042 -1.281053386
C 2.9825068833 -2.6630787902 -1.6254838711
O 2.2693452304 -1.8969872691 -2.5979456882
H 4.0878737062 2.3064356615 -1.5861469669
H 1.7477290434 0.9655393444 -2.3569584276
H 1.9158312669 2.8729500863 -0.3465909268
H 0.8655149507 1.4758739098 -0.1471900745
H 2.8135009141 1.5722784113 1.7944944079
H 4.2443162167 -0.3912425926 0.9045033338
H 4.1462183223 -0.2351670578 -1.7555697096
H 1.4752692659 -1.3550493024 -0.706871059
H 4.0561985341 -2.7447574333 -1.7927720784
H 2.493331825 -3.5800789407 -1.2997111978

