# b3lyp 6-31G(2df,p) opt Freq 

 titel

0 1
O -0.6913400985 -1.3902013705 -1.871547994
C -0.2350906086 -0.2460129843 -1.1692534654
C -0.4687625397 0.9803920148 -2.050324383
C 0.0178097528 2.270153748 -1.3272054051
C -1.2545622012 2.9128697206 -0.8476945647
C -2.3434000287 2.3373816452 -1.3781921947
C -1.9847933348 1.2064469674 -2.3135061708
C -3.7147087869 2.7717580892 -1.1042260329
O -4.7025496417 2.2683947591 -1.5930817176
H -0.6555516579 -2.1461113599 -1.2787064495
H -0.774136444 -0.1189448113 -0.2154836563
H 0.8384595391 -0.3266129702 -0.9332225018
H 0.0731017816 0.8187145294 -2.9858867191
H 0.7152065062 2.0573310393 -0.5064642649
H 0.554826646 2.9464790213 -2.0063971844
H -1.2729967044 3.7603968615 -0.1692598701
H -2.5709881389 0.3017332883 -2.1332061737
H -2.1837104084 1.4947879272 -3.3525168509
H -3.7961542318 3.6237711347 -0.3913875512

