# b3lyp 6-31G(2df,p) opt Freq 

 titel

0 1
O -0.6914516064 -0.8465239076 -0.5899848028
C -0.150592188 0.419504684 -0.2434753846
C -0.5647755531 0.8618667722 1.1644791109
C -0.0313236991 2.2507293638 1.5231815471
C -0.3010056438 2.7495902823 2.9575667289
C 0.3716688866 4.0544850245 3.1645806937
C 1.2209965996 2.792640406 3.2786483633
C 1.4754870153 2.2227051086 1.9212852748
O 2.4293521232 1.6979190124 1.4134758049
H -0.2300632622 -1.5128997877 -0.0714259058
H 0.9436616519 0.4353588788 -0.3306606453
H -0.548916158 1.1246229373 -0.982264423
H -1.6595243746 0.8575314694 1.22840501
H -0.2017428781 0.1269995966 1.8965466349
H -0.3033276113 2.9747121018 0.7453826024
H -1.077777196 2.3664049499 3.6062811806
H 0.5161353597 4.7352628733 2.3298776155
H 0.2040153893 4.5480645559 4.1163909281
H 1.761279685 2.5602333785 4.1878939566

