# b3lyp 6-31G(2df,p) opt Freq 

 titel

0 1
O -1.8462327918 3.8905937029 2.1626503499
C -1.129467962 3.5833907777 1.0014634216
C 0.102767196 2.7091776456 1.0787327401
O 1.139790612 2.87684136 0.1569433703
C -1.183143969 2.1445195273 0.5404307871
C -1.9680313209 1.1103946457 1.3178592765
C -3.4766141777 1.1651595512 0.9889544598
C -4.2444064409 0.1381621638 1.6818194235
C -4.8523643159 -0.7191796025 2.2655878605
H -1.3497722025 4.5454188242 2.6644092948
H -1.1333440171 4.3500314908 0.2260116055
H 0.3975057187 2.3792883587 2.0765784182
H 1.6575580286 3.6447259591 0.421995396
H -1.1913327623 2.0238999873 -0.5399973358
H -1.5831352487 0.1090778934 1.095146113
H -1.8406836971 1.2724942588 2.3911831772
H -3.8580744254 2.157783492 1.2557878139
H -3.619999927 1.058751746 -0.0945487422
H -5.4011065771 -1.4712852821 2.7754339403

