# b3lyp 6-31G(2df,p) opt Freq 

 titel

0 1
C 2.2874994618 -2.4041207473 -0.2014373486
C 1.2258080959 -2.2232841541 0.8941354187
O 1.7249143268 -2.6165804924 2.1660134695
C 0.6754487774 -0.8320482047 0.9261844778
C 0.5792415234 0.0552308279 1.9213962309
C -0.0663855822 1.2547827588 1.2063394947
C -1.2209662062 0.5650160886 0.4186278556
C 0.0610058381 -0.0217012361 -0.2434172991
O 0.6857200771 1.2901206881 -0.0566615863
H 3.1219453183 -1.7115450983 -0.0441860732
H 2.6698160902 -3.4277846449 -0.1761039726
H 1.8756878991 -2.2095228115 -1.1964310016
H 0.4052502996 -2.9272535427 0.6937113856
H 2.4507664299 -2.019622152 2.3820744093
H 0.8473146714 -0.0280855692 2.9635777758
H -0.1559008878 2.2160849477 1.7099482663
H -1.8950258179 -0.1067313766 0.954050532
H -1.7555715415 1.2527747572 -0.2408500496
H 0.1012898468 -0.4048957085 -1.262531285

