# b3lyp 6-31G(2df,p) opt Freq 

 titel

0 1
C -1.3375435099 2.5194874649 1.9164733053
C -0.9328242283 3.0084804327 0.546363366
C -1.7079938047 4.0516533127 -0.1431482484
O -0.4706118607 4.3664414228 0.4936816625
C -0.1294022967 2.0408291675 -0.317363455
O 0.9622612841 1.4910671516 0.4258211629
C 0.9445461664 0.0668868252 0.365842436
C -0.3004899549 -0.2769804697 -0.4014459958
C -0.9058828995 0.8377165044 -0.7922373901
H -1.9451970826 1.6119041695 1.8419218626
H -0.4462756222 2.2836170618 2.50342113
H -1.9113927544 3.2865460228 2.4412388203
H -1.7014762871 4.1113155423 -1.2319194608
H -2.6014028564 4.4540308529 0.3330511263
H 0.2665607078 2.6284603201 -1.1617759219
H 1.8548560605 -0.3006668941 -0.1345673278
H 0.9453432229 -0.3478554587 1.3851428062
H -0.6140806542 -1.2940930861 -0.5994581488
H -1.8156322502 0.9194057572 -1.3730026695

