# b3lyp 6-31G(2df,p) opt Freq 

 titel

0 1
C 0.2673134494 0.381403951 0.379443427
C 1.2140119317 -0.1666120818 -0.6367633879
O 2.2094068725 -1.1100639423 -0.2066215641
C 2.6434253943 0.0643736339 -0.9086620014
C 2.464125041 -0.2153223406 -2.4168653232
C 2.9690621602 -1.5447271822 -2.9977359831
O 1.8050601747 -2.2302618572 -3.4580034277
C 0.7231743292 -1.9276645922 -2.5776696769
C 0.9444492538 -0.4740426507 -2.1352564684
H 0.7982252234 0.6341796284 1.3010388778
H -0.2292827107 1.2805442821 0.0004428743
H -0.5092219366 -0.3527618109 0.6234538389
H 3.3713029509 0.6952541865 -0.4100803378
H 2.6624416918 0.6515341996 -3.0487961125
H 3.632257308 -1.4236029591 -3.8583901357
H 3.4874213822 -2.131440573 -2.2269509927
H -0.2013519308 -2.0800029575 -3.1410281622
H 0.7276526788 -2.6018775107 -1.7100039953
H 0.273018646 0.2423922266 -2.6114823192

