# b3lyp 6-31G(2df,p) opt Freq 

 titel

0 1
O -2.3859086658 1.5213952714 1.2001377694
C -1.4185843488 2.1669314805 0.4508669374
C -1.1620640479 3.6781650286 0.4741190133
C -0.9418597901 3.6321071644 -1.0758556121
C -1.2393922029 2.1261285083 -1.068772174
C -0.2691916188 1.4272171048 -0.1616365127
C 1.2449145858 1.5298078316 0.0198372404
O 1.3351614641 0.0957102615 0.1802952877
C -0.0807449626 -0.0814189521 -0.0456778989
H -1.9962489034 1.2532556263 2.0406163215
H -2.0636706404 4.2336332922 0.7408043413
H -0.3310104496 4.0310395084 1.0941270189
H -1.6873292241 4.2152219843 -1.6194103214
H 0.0524917835 3.9167416717 -1.4333974154
H -1.7994697438 1.5810704031 -1.820241476
H 1.8081748839 1.8793452143 -0.8559190671
H 1.5997437306 2.0660136021 0.9101379432
H -0.2831383695 -0.6642583854 -0.9540186075
H -0.5807932903 -0.566076516 0.8035108022

