# b3lyp 6-31G(2df,p) opt Freq 

 titel

0 1
C 1.3579993622 0.7359692277 0.4466099405
C -0.0541289157 0.2643019204 0.3223968258
C -1.1773201919 0.9680791447 0.1017770649
C -2.4373048914 0.1391242697 0.098382591
C -1.930528521 -1.3147172098 0.175283031
C -2.0812350918 -2.0686178676 -1.1531247182
O -2.5700842189 -2.0190738676 1.2273374509
C -0.4323003453 -1.1517942535 0.5092039219
O 0.2628288665 -2.0652870538 0.9026992908
H 1.7818448605 0.4181167483 1.4051466202
H 1.9880028807 0.2911762422 -0.3318378171
H 1.4308665822 1.8237752084 0.37226411
H -1.2045079496 2.044259402 -0.0424266395
H -3.0561111434 0.3582143713 0.9760731964
H -3.0554446973 0.3347231159 -0.785094443
H -1.5770525924 -3.0377836647 -1.0883580744
H -3.1420197642 -2.2362077607 -1.3598463012
H -1.6425725421 -1.5087691044 -1.9861474303
H -1.9434331571 -2.7022598487 1.5043499404

