# b3lyp 6-31G(2df,p) opt Freq 

 titel

0 1
C 1.3523375968 -0.0528229898 -0.0658608092
O -0.0378447775 0.1806537724 0.0302885087
C -0.4343808287 0.8291731926 1.2309793359
C 0.1184135192 2.1889344458 1.3355948931
C 0.5626383679 3.3034945898 1.4106651546
C -1.9462575374 0.8391874351 1.2578924362
C -2.6954729196 0.8404244906 2.5737672616
C -2.6928923402 -0.3864344102 1.7161269463
O -3.9008355023 -0.7224357975 1.103629205
H 1.713272838 -0.6844095539 0.7612947847
H 1.5210062002 -0.5759284684 -1.0098382934
H 1.9260236897 0.8833810654 -0.0647566415
H -0.0684661711 0.2462918673 2.0958348777
H 0.9531369771 4.2886125757 1.4830373407
H -2.4024315753 1.397105775 0.4466665853
H -2.1286335099 0.8269832234 3.4985447396
H -3.6181901961 1.4071504954 2.6118594844
H -2.0930055983 -1.2321573804 2.0547829248
H -3.6966552125 -1.0922803381 0.2378896857

