# b3lyp 6-31G(2df,p) opt Freq 

 titel

0 1
O 0.3798299979 0.2013519351 0.9004375743
C -0.9099078303 0.7236193844 1.1243594145
C -1.1266335435 2.1520811184 0.5761082605
C -2.3650350687 2.6996352703 1.3203918217
C -2.4106034812 1.9167416225 2.6363609919
C -2.8058198221 0.4567850622 2.5478383632
O -3.1487719798 -0.0468290275 1.2765428047
C -1.9368305643 -0.2768501672 0.5592235488
C -1.3602840535 0.8205525897 2.6089459949
H 1.0222079865 0.8805689624 1.1300766005
H -0.2462314868 2.7526382575 0.8431105251
H -1.220351546 2.1724165768 -0.5136534567
H -2.2803585667 3.7731974179 1.5053467617
H -3.2790154956 2.5358694369 0.7412309112
H -2.642050333 2.4390808635 3.5586244676
H -3.3415335457 -0.0141649458 3.3652732546
H -1.5658397486 -1.2982536224 0.7265385585
H -2.1399075793 -0.1398033731 -0.5064054508
H -0.6824312594 0.5603869284 3.4123301137

