# b3lyp 6-31G(2df,p) opt Freq 

 titel

0 1
O -3.9916796895 2.0295608261 -1.7976936793
C -2.7768338523 1.3042696991 -1.710575911
C -2.805625626 0.2572628822 -0.6211679819
C -2.4623370945 0.6156867012 0.7991476826
C -3.1966739537 -0.0198443731 1.961009614
O -2.3597352852 -0.2176329045 3.0860762745
C -1.494933437 -0.2335531805 -0.0233077594
C -1.2967799343 -1.6165141066 0.3008121865
C -1.1200764041 -2.7680790952 0.6058052831
H -4.147606744 2.4396656005 -0.940286011
H -2.6456870916 0.8308920861 -2.689303167
H -1.9152629818 1.9746997829 -1.5543950923
H -3.575108578 -0.4995932228 -0.7456388785
H -2.114087058 1.629658556 0.9836584797
H -4.0053738977 0.6391780063 2.2953498586
H -3.6572426069 -0.9629321583 1.6327174108
H -1.7063846605 -0.8796073498 2.8307154794
H -0.6015522987 0.2804079094 -0.368429968
H -0.9665454162 -3.791414589 0.8445786792

