# b3lyp 6-31G(2df,p) opt Freq 

 titel

0 1
C 2.877748606 3.250302901 0.6321452151
C 1.8894430664 2.5173314882 -0.2878776149
C 0.9154717902 1.5899545092 0.3905167051
C 0.9328879694 0.3445461016 -0.0971049494
C 0.0934962552 -0.8060970966 0.3679067184
O 0.8824032017 -1.9237744026 0.7690540666
C 1.9452244193 0.1917939247 -1.2062665433
C 2.6094187537 1.5730424011 -1.2754997442
O 3.5482580587 1.8765848324 -1.9637504873
H 2.3595644994 3.9738946006 1.2683095075
H 3.4064742792 2.5448160757 1.2809968468
H 3.618796773 3.7813004949 0.0290509799
H 1.3597306094 3.274030404 -0.8872499843
H 0.2637824957 1.9202378798 1.1939530528
H -0.5835317927 -0.4777792796 1.1708919188
H -0.5301008365 -1.1815839165 -0.452759848
H 1.4327236938 -1.6357967118 1.5051939655
H 2.6856437289 -0.593664022 -1.0181336062
H 1.4878147393 -0.0521986941 -2.1752688087

