# b3lyp 6-31G(2df,p) opt Freq 

 titel

0 1
C 0.9457200221 1.169137692 -0.0981016354
C 0.974189985 -0.355169629 -0.0658774441
C 1.7487222484 -0.9810097204 1.0901316863
C 3.1754848557 -1.1078737331 0.5550290204
O 3.1911188656 -0.6159701728 -0.7730673686
C 1.8747943304 -1.0186245476 -1.1401656459
O 1.8162433932 -2.3992398848 -0.8101320793
C 2.2612111623 -2.3094852496 0.5399351358
C 2.4190154608 -3.6070047909 1.2610132018
H 0.3989263377 1.5688417731 0.7616805335
H 1.9600000499 1.5757873189 -0.0784196797
H 0.44874249 1.5339044398 -1.003839905
H -0.0344845797 -0.7734254455 -0.1402164626
H 1.5164627105 -0.8192156467 2.1338415258
H 4.0976970663 -0.9906964358 1.1050636659
H 1.6900470759 -0.8505258963 -2.1980576327
H 2.8244090565 -3.4372684964 2.2625450518
H 1.457115422 -4.1193814738 1.3656829947
H 3.1034721372 -4.267973941 0.7200631072

