# b3lyp 6-31G(2df,p) opt Freq 

 titel

0 1
O -2.2895741389 -2.067816016 2.5999960516
C -2.1466613448 -0.9633513821 1.7389834017
C -3.2018625706 0.1859345678 1.9031587987
C -2.2403868989 0.7938452863 2.9754218204
C -1.0929976918 0.0974253898 2.1824109127
C -0.6768311972 0.9720072609 0.9836649569
O 0.2432708387 0.3008745622 0.1254780322
C -1.9134001637 1.4311599819 0.238385914
C -3.1194695561 1.0492112909 0.6662582579
H -2.199137761 -1.7713038661 3.5113763119
H -2.0607829162 -1.3853926323 0.7334146078
H -4.2183512995 -0.0901167916 2.1863902716
H -2.217148356 1.8827224634 3.0601221483
H -2.3838843581 0.3660638755 3.9727414489
H -0.212282108 -0.2677956332 2.7170378773
H -0.1102104859 1.838321353 1.3501228672
H -0.2403272973 -0.3989626107 -0.3272368367
H -1.7696621116 2.0512706199 -0.6411701027
H -4.030276753 1.3398424806 0.1515700403

