# b3lyp 6-31G(2df,p) opt Freq 

 titel

0 1
C 1.4902533551 -0.0194186232 -0.0924532135
C 0.035196733 -0.0210722869 -0.0616226885
C -1.1700673235 -0.0252828151 -0.0435020818
C -2.6373428436 -0.0241380936 -0.0039164144
C -3.2279194841 0.8456760281 -1.1199180669
O -3.1099657648 0.3920431732 1.2817346503
C -3.0962246792 -1.5077450748 -0.16713852
C -3.0803940591 -2.3531669303 1.086105228
O -3.4236091845 -1.9305544429 -1.2475563838
H 1.9085052275 -0.067615919 0.9187509475
H 1.8708378281 -0.881633282 -0.6507272246
H 1.8780523581 0.8854419476 -0.5726468483
H -2.9615863917 0.4419787938 -2.0975903927
H -4.3168936919 0.8594044918 -1.028928981
H -2.8488047431 1.8681131664 -1.0375571177
H -2.6150700427 1.1799942658 1.529781654
H -3.2434732342 -3.3978932232 0.8193352087
H -2.1333530064 -2.2321096672 1.6193462088
H -3.867483183 -2.0119926485 1.7649534859

