# b3lyp 6-31G(2df,p) opt Freq 

 titel

0 1
C 0.0388394398 2.5440774089 -0.1157467399
C -0.8273550149 1.2985195656 -0.0313296843
O -1.4722280654 1.3164894072 1.2504653192
C -1.8850208971 1.2311300127 -1.1518095333
C -2.6370941309 -0.0772069698 -1.1338109908
C -2.157041958 -1.1898153043 -0.5748596785
C -0.7965776909 -1.276526483 0.0714224969
C 0.0138259273 0.0071231512 -0.0914729208
O 1.2100647861 -0.0004912873 -0.2495466684
H 0.7253017511 2.5812025062 0.7325840494
H 0.6334974923 2.5391707529 -1.0316587005
H -0.5916947421 3.4371724287 -0.0968565043
H -2.2423947801 0.7379510878 1.1993535399
H -2.5751359151 2.0737423849 -1.0186913128
H -1.4042607882 1.3804449913 -2.1286177787
H -3.6169535629 -0.0925771743 -1.6038393774
H -2.7478708175 -2.1023283313 -0.5876999647
H -0.8963009401 -1.4844318626 1.1468242921
H -0.2082458234 -2.103392975 -0.340388923

