# b3lyp 6-31G(2df,p) opt Freq 

 titel

0 1
O 1.1788375305 -0.5511135214 0.0895803262
C 0.0691187837 -0.0987545172 -0.0250501267
C -0.3867475297 0.816310162 -1.1359072296
C -0.979649268 2.1321432574 -0.588123698
C -1.5947834015 2.9480305675 -1.6804563496
C -0.9126843136 3.9334361942 -2.5802002106
C -2.1424212758 4.3546786138 -1.7934845581
C -3.365659653 3.6894687239 -2.4089184089
O -2.7316514028 2.3809486154 -2.353759128
H -0.7249931676 -0.3371798395 0.7227272094
H 0.4523032129 1.0045174823 -1.8107241514
H -1.1744947169 0.2965120137 -1.6986738192
H -1.7431477479 1.9038441936 0.1662666361
H -0.1984642132 2.7207072568 -0.0944621004
H 0.0207230053 4.3440760189 -2.2073433194
H -0.9645072454 3.8069249934 -3.6584504649
H -2.1441425265 5.1738211371 -1.0871877839
H -4.253275941 3.712179905 -1.7668333346
H -3.6408626093 3.973595883 -3.4315574685

