# b3lyp 6-31G(2df,p) opt Freq 

 titel

0 1
C -0.7782874334 0.0332527114 2.4435644316
C -1.3974145395 0.071549521 1.0560228277
C -0.8119953124 1.0159363536 -0.0552382171
C -1.5373588854 0.085152594 -1.0851012168
C -0.9177374538 -0.9353440246 -0.0666856786
C -1.018017311 -2.4353423449 -0.0771956062
O -2.3610888452 -2.9024166906 -0.0852786591
C 0.3196439844 -0.0161132275 -0.1463007852
O 1.5066329659 -0.0855872566 -0.2364013078
H -1.1382817031 -0.8321971227 3.0111274834
H 0.3141638391 -0.0252376641 2.4033490331
H -1.0451944092 0.9303092078 3.0120736754
H -2.4902462628 0.1371442089 1.0982225398
H -0.7700247092 2.1029086558 -0.0498990461
H -2.6276327611 0.1381132448 -1.0575844124
H -1.1558360081 0.0694332032 -2.1074905239
H -0.55985739 -2.8281734303 -0.9910017557
H -0.4503945172 -2.850614655 0.7703085725
H -2.767684948 -2.6426925742 0.7474551154

