# b3lyp 6-31G(2df,p) opt Freq 

 titel

0 1
C -0.2020215105 1.423642635 -0.4065031844
C -0.1092218662 -0.1011108071 -0.078127907
C 1.433987339 0.0898503712 -0.2133287571
C 1.1592742484 1.5078542438 0.3519639711
C 0.8420535921 1.3569753589 1.8851228056
O 1.5153885682 0.2322037794 2.4628267593
C 0.615169816 -0.8784792364 2.2920123734
C -0.5020981631 -0.2619929589 1.431486991
O -0.5270504368 1.0473525472 2.0285105427
H -0.064741656 1.5992812471 -1.4755580943
H -1.0513897383 1.9924987102 -0.0323126871
H -0.6153573226 -0.831784874 -0.7124735506
H 2.1193738404 -0.5563687727 0.3317275157
H 1.730021243 0.1279914694 -1.2649086846
H 1.8576716851 2.321906191 0.1494887069
H 1.0780933822 2.2478333117 2.4696692183
H 1.1365423294 -1.7157464586 1.8186923423
H 0.2321270464 -1.1940502446 3.2690499019
H -1.4826080269 -0.7198398025 1.5651821871

