# b3lyp 6-31G(2df,p) opt Freq 

 titel

0 1
C -0.5186231475 -0.3814176871 -0.479018199
C -0.6601058361 -0.128536602 1.0470428116
C -0.2073807265 1.3341747943 0.7371401291
O -0.4957340641 2.3943775234 1.6124089896
C -0.9267867725 2.0393475447 2.9070604094
C -2.3102101853 1.3125547157 2.8992275993
O -2.8356670815 1.1652190136 1.5991658693
C -2.1185965184 0.3302250259 0.7263103873
C -1.2390161352 0.9889146799 -0.3792936408
H 0.4983374368 -0.3714747972 -0.8759907957
H -1.1003487866 -1.2112553154 -0.8850472684
H -0.32107221 -0.7826230221 1.851043501
H 0.8292600415 1.4400963106 0.3958294064
H -0.1749913445 1.4150013772 3.412421139
H -0.9950242084 2.981237736 3.4586905927
H -2.2271104388 0.3368442774 3.4006997401
H -3.0519365609 1.9005545725 3.447139941
H -2.7910148697 -0.4616063064 0.37532195
H -1.5720469522 1.6316848993 -1.193269652

