# b3lyp 6-31G(2df,p) opt Freq 

 titel

0 1
C -2.985443203 2.5388298682 -2.1569687285
C -2.6546668835 2.0359716393 -0.770839941
C -2.939912254 2.9064934547 0.4438922684
C -3.7018506878 1.6215405319 0.2355765189
O -3.2820326112 0.468020615 0.9284198141
C -2.078973599 -0.0119892721 0.3773722387
C -0.8019589021 0.7603898692 0.6135264978
O 0.4052805187 0.0778890565 0.4320403136
C -1.5807885294 0.9681739684 -0.6617783987
H -3.1555018863 1.70726091 -2.8502939705
H -3.8892157571 3.1556768407 -2.1472892214
H -2.1719172762 3.1516672857 -2.561461886
H -2.2298865485 2.9707637754 1.2591455412
H -3.4803419112 3.8296153447 0.2564464715
H -4.7702393872 1.6333181111 0.0448103791
H -2.0388302559 -1.0913538608 0.2668088257
H -0.7909325212 1.5405756439 1.3725408557
H 0.5545385121 -0.4704725095 1.210233358
H -1.1141620572 0.6243506778 -1.5772296766

