# b3lyp 6-31G(2df,p) opt Freq 

 titel

0 1
O 0.4077516031 0.2177569015 1.2419729001
C 0.3585699589 -0.4429744333 -0.0132211695
C -0.5230675566 0.2463026624 -1.0338662254
C -0.0472731424 0.3186938237 -2.4456656142
C -1.1220303678 0.8928021471 -3.3740295172
C -1.2132366427 2.1696747844 -2.476363782
C -0.1125454687 1.6091604682 -1.5701597859
C 0.9938007961 2.4106994616 -1.0297448061
O 1.0650116217 3.612428923 -1.1611573971
H -0.49037078 0.2855540395 1.5817269656
H 1.394695408 -0.4771814487 -0.3644808568
H 0.0246103449 -1.4860766716 0.0975309376
H -1.5934078068 0.1143278801 -0.8630124714
H 0.8465126689 -0.2085982887 -2.7601384293
H -0.74289949 1.1146592137 -4.3732510034
H -2.0289008531 0.2875358011 -3.4703736394
H -0.8923348173 3.0780771055 -2.9869623586
H -2.1742589104 2.3597441043 -1.9891014277
H 1.7842745445 1.8468468464 -0.4932365294

