# b3lyp 6-31G(2df,p) opt Freq 

 titel

0 1
C 3.9204223259 -0.1913283463 -1.6310974927
C 3.374605042 -1.1644292011 -0.5688007977
C 2.8962646624 -0.3516118085 0.672765222
O 2.4504141907 -1.1710789401 1.7304586314
C 4.4162546366 -2.0953243025 -0.124585747
C 5.2518239554 -2.8560270468 0.2895905481
C 2.1789286776 -1.9825179015 -1.0744442473
C 1.9800317901 -2.3809761077 -2.4694252408
O 1.2343826863 -1.2987501485 -1.8967875259
H 4.6696118151 0.4695663507 -1.1874593409
H 4.3988575166 -0.7279497491 -2.4535176914
H 3.1030650701 0.411709 -2.0332552515
H 3.7103228209 0.3162044663 0.9912558985
H 2.0427573479 0.2645986384 0.3739081502
H 3.1930595521 -1.7320891293 1.9862606941
H 6.0009919594 -3.5306487832 0.624626135
H 1.7287779906 -2.5931936274 -0.293778908
H 2.7006547671 -2.0950266083 -3.2321556985
H 1.4027058933 -3.2769581451 -2.6916719875

