# b3lyp 6-31G(2df,p) opt Freq 

 titel

0 1
C -1.2188857155 3.8669089875 0.2351522216
C -0.2721626111 2.8774989459 -0.3793146743
C 1.2663111802 3.0538605766 -0.4811329456
C 1.104442009 1.8238494624 -1.4290747452
C -0.2413218721 2.4694448995 -1.8785010839
C 0.5531669511 0.7835730474 -0.4182788126
O -0.3918297291 1.5891835632 0.2827956954
C 1.6306179601 0.1997174367 0.4733859041
O 1.8974707112 0.5731267356 1.5847113282
H -0.9961760681 3.9964334574 1.2984711468
H -1.1336280223 4.8379449244 -0.2603594688
H -2.2520828088 3.5180801457 0.1436870799
H 1.5616642914 3.954195891 -1.0222972084
H 1.8391300835 2.9353763279 0.4397970428
H 1.8733264751 1.4976719538 -2.1277631106
H -0.0926760564 3.3148229845 -2.5528511025
H -1.0398575019 1.8149767732 -2.2375148298
H 0.0509192851 -0.0509166322 -0.931624386
H 2.1994065787 -0.6275226506 -0.015501781

