# b3lyp 6-31G(2df,p) opt Freq 

 titel

0 1
C -1.7710836144 -1.3227935164 3.0429781594
C -2.1013061768 -1.0901613053 1.5634119221
C -2.1005267999 -2.4058136559 0.7734035668
C -1.1517525858 -0.0701360368 0.9012805603
O 0.207536418 -0.5228234403 0.9601781917
C 1.0082192243 0.4358507454 1.5374824618
O 2.1870072824 0.2861367645 1.6886263757
C 0.136225914 1.5837531171 1.8894784626
C -1.1120861271 1.2958662181 1.527904551
H -2.4814056694 -2.0289773112 3.4828312649
H -0.7673560226 -1.7433538639 3.1543414747
H -1.8154915766 -0.3964388034 3.6230470012
H -3.1040750955 -0.6448191848 1.4924859973
H -2.8050493098 -3.1192121421 1.2112580533
H -2.388653205 -2.24610323 -0.2710405819
H -1.1052025017 -2.8595480627 0.782752311
H -1.4235684882 0.0128040552 -0.1617797836
H 0.5238772518 2.4750703436 2.3600821775
H -1.9952154975 1.912536169 1.6384232641

