# b3lyp 6-31G(2df,p) opt Freq 

 titel

0 1
C -2.4996022492 -1.4816822453 -2.0649631388
C -2.0340004161 -0.7699592063 -0.7979578271
C -0.6347805398 -1.1885552008 -0.3015465529
C -0.1221994841 -0.0076024009 0.5273813749
O 0.8003700536 -0.028476864 1.2985440177
C -0.9986354185 1.213642307 0.2135176855
C -1.8993778435 0.7548821594 -0.9183307685
C -2.8458261526 1.6271985211 -1.6131554303
O -1.5948598425 1.2782891677 -2.2198747728
H -2.492084474 -2.5661517995 -1.9204687961
H -3.5197149088 -1.1938767433 -2.3379123452
H -1.8450228933 -1.2372789063 -2.9054654032
H -2.7530106388 -0.9635129226 0.0109872503
H -0.6058255391 -2.117846424 0.2716377063
H 0.0491635372 -1.3094688039 -1.1534943691
H -1.574016522 1.4604313939 1.1147854458
H -0.3968785346 2.0873494657 -0.0468539328
H -3.7288090769 1.2074124741 -2.0928115708
H -2.940841967 2.6688572179 -1.3079692827

