# b3lyp 6-31G(2df,p) opt Freq 

 titel

0 1
O -2.7503184159 -1.6698770627 -3.207291628
C -2.0410049156 -0.9997042219 -2.1865858066
C -2.9180317075 -0.1789852558 -1.2151087632
C -2.0326765307 0.0801347643 0.0108570328
C -0.9368044816 1.181370831 -0.1476371747
C 0.1200150469 0.0682784314 -0.240082481
O 1.3022761009 0.0581343074 -0.4263091376
C -0.9245897448 -1.0445436623 -0.0264941859
C -1.2127038766 -1.914602159 -1.2590982147
H -3.3728411197 -2.2738408381 -2.7870539667
H -1.3623264625 -0.3267360908 -2.7248882231
H -3.3099726974 0.7334120997 -1.6735646857
H -3.781437927 -0.7943325876 -0.9262989079
H -2.6027298951 0.1632223126 0.9362404589
H -1.0058853384 1.8250738877 -1.0308132161
H -0.8001283185 1.8228119288 0.7287842219
H -0.752913464 -1.6237767349 0.8841675845
H -0.3056885133 -2.2933645212 -1.7366665781
H -1.8239943593 -2.7800566487 -0.9700900087

