# b3lyp 6-31G(2df,p) opt Freq 

 titel

0 1
C 4.6174284731 0.0043279285 -1.4973537584
C 3.0800230286 -0.1006517171 -1.3967249293
C 2.5943893629 -1.4744578555 -1.8677063463
O 3.2047697432 -2.4573811739 -1.039898226
C 2.655675044 0.1681193013 0.076925543
C 1.2118700629 0.2350323785 0.2689165204
C 0.0183388594 0.2959630763 0.3996780546
C 2.4941515375 0.9892562498 -2.2824594004
O 1.9027745864 0.8033868537 -3.3140098449
H 5.081201017 -0.7424117834 -0.8491750942
H 4.9514592251 -0.1795971901 -2.5228928665
H 4.9691040623 0.9966092406 -1.1960999573
H 1.4994881298 -1.5142397505 -1.7987838093
H 2.866743422 -1.6094003456 -2.9229246023
H 2.8379927243 -3.314410446 -1.2731843983
H 3.0780022121 -0.6324953581 0.6927171735
H 3.1123741673 1.1064979218 0.416302597
H -1.0347646249 0.3518236956 0.5239605762
H 2.6847596669 2.0226288043 -1.9075691815

