# b3lyp 6-31G(2df,p) opt Freq 

 titel

0 1
O -3.0756108993 0.5805639653 2.6578328236
C -2.1501145183 1.337995181 1.9590055817
C -1.4863671037 2.5408378646 2.5572521863
C -0.6360511215 1.3526751031 2.1503568443
C -0.4330318757 1.2661514401 0.6172447544
O 0.4108246354 0.2435384146 0.1757959304
C -0.3191239653 2.5610872599 -0.2294365813
C -1.8735373973 2.5745659954 -0.4141332713
C -1.9841705283 1.26218797 0.4172742685
H -3.8670820363 1.1142310521 2.7908281586
H -1.4192090972 3.4972990059 2.0474328851
H -1.6231947224 2.6206175243 3.6319982518
H -0.0065894892 0.8470482531 2.8755807408
H 0.226589362 -0.5454920568 0.6979861991
H 0.1306484171 3.4278629117 0.2607047244
H 0.2203077957 2.3657892919 -1.1583673683
H -2.3957732154 3.4419419818 -0.0022723763
H -2.1853589432 2.4541504026 -1.4536364737
H -2.4806329571 0.4006934794 -0.0299737982

