# b3lyp 6-31G(2df,p) opt Freq 

 titel

0 1
O 0.4113466964 -0.0770106489 0.2502637267
C -0.8142894945 0.433000328 0.7100975656
C -2.1598504606 0.0400028093 -0.016038784
C -2.4529604382 1.5365415622 -0.1345128201
C -1.4248172151 2.2682695828 -0.9348326525
C -1.1425520187 1.9269586477 0.5236369813
C -1.5188342901 2.9407251121 1.58140172
C -2.9996442664 3.2920307928 1.206166013
O -3.5324639408 2.1974106042 0.4376297849
H 0.5778839269 0.2863451177 -0.6258221898
H -0.8647316322 0.1625633539 1.7680984743
H -2.0688446661 -0.5088058555 -0.9583310207
H -2.853045468 -0.4868576144 0.6414847083
H -0.8896392672 1.7624768785 -1.7355090822
H -1.6174956218 3.3150462893 -1.140141079
H -1.4723881229 2.4717509084 2.5697663866
H -0.9030385379 3.844686506 1.6145711102
H -3.6471148265 3.4343894423 2.0759036024
H -3.0329859365 4.2124150938 0.6080437851

