# b3lyp 6-31G(2df,p) opt Freq 

 titel

0 1
O 1.5342001587 0.9938302051 0.2940764791
C 0.710032958 0.010638536 0.918302653
C -0.7432076175 0.375753133 0.9213344726
C -1.7385529221 -0.2903416234 0.3341950665
C -3.0455844234 0.4025867809 0.5920035628
O -2.704945568 1.5632045928 1.3467050046
C -1.312236944 1.5677154486 1.6056417154
C -0.8616486227 2.0679401931 2.9561415649
C -0.6394794372 2.909502735 1.7136548007
H 1.1810363931 1.1425835879 -0.5898007147
H 0.8372333913 -0.9739964233 0.4453190997
H 1.0906870576 -0.0698324394 1.9429723656
H -1.6503076842 -1.2086236841 -0.2333949173
H -3.559727103 0.7024200546 -0.3346197384
H -3.74858468 -0.2272726996 1.1615599436
H -1.6527215296 2.3723703421 3.6320874972
H -0.0039873309 1.606335549 3.4340536861
H -1.2806657561 3.7735733427 1.5788156397
H 0.36850908 3.0004277491 1.327605019

