# b3lyp 6-31G(2df,p) opt Freq 

 titel

0 1
C -0.0179137892 -0.1535307428 -0.0077993277
C 1.4875828757 -0.0102794968 -0.2947938316
C 1.9798037259 1.3516670767 -0.1516987945
C 2.3773285945 2.4855698607 -0.0299919911
C 2.7958410293 3.8561125858 0.1298668858
O 2.0318161687 4.7431071994 0.4494886304
C 4.2682158713 4.1790181756 -0.1203469145
O 4.9942131819 3.0340481801 -0.4706707226
C 6.3569269714 3.3004563787 -0.7091819031
H -0.2498185301 0.1586532821 1.0136196775
H -0.6040852134 0.4658095696 -0.6914337684
H -0.3284408128 -1.1949768893 -0.1308925619
H 2.0619098766 -0.6630511909 0.375486756
H 1.7114564946 -0.3592429298 -1.3113281204
H 4.304585731 4.9474934311 -0.9112934519
H 4.6601419338 4.6507553589 0.7967773477
H 6.8538407451 3.7133144446 0.1827872071
H 6.8317967104 2.3527695529 -0.9728086165
H 6.4941412152 4.0119619133 -1.5386003103

