# b3lyp 6-31G(2df,p) opt Freq 

 titel

0 1
C -4.0531627481 -1.0508033352 -1.2561315673
C -2.677623699 -0.4158348645 -1.2243965627
O -1.6249770325 -1.4271186025 -1.2473096075
C -1.1897282639 -1.0833936809 0.0855540164
C -2.1832202114 0.1229220672 0.1315514967
C -1.0028721994 1.136342286 0.0279324329
C -0.799244087 2.0804742418 1.2139400557
C -0.0253653095 -0.066662525 0.0346004585
O 1.1658656372 -0.1567448352 0.0750941203
H -4.1953724879 -1.7224558996 -0.4037898408
H -4.8301100775 -0.2787411629 -1.225686689
H -4.1801058135 -1.6308211369 -2.1751937702
H -2.5574920702 0.283852868 -2.0622882066
H -1.1375709812 -1.9420775813 0.7603855404
H -2.9120861207 0.2832575565 0.9245508905
H -0.989392917 1.7027695613 -0.9102796299
H -0.8268946562 1.5383424539 2.1653013519
H 0.173027691 2.5756941976 1.1411047439
H -1.5786495833 2.8482170916 1.2400450271

