# b3lyp 6-31G(2df,p) opt Freq 

 titel

0 1
C -1.2269575216 2.4462060623 0.201250109
C -1.4045756251 2.2125070207 -1.3375288032
C -1.2752691034 0.7066846157 -1.0396476645
C -0.2392390214 1.2633026773 -0.0047146959
C 0.6506619665 0.3842130335 0.8320251282
O 1.7109752236 -0.0046914988 -0.0699629903
C 1.6950642441 0.7793156135 -1.2777918467
C 0.7609175911 1.9435333037 -0.9496153191
O -0.1169394113 2.526133274 -1.9203448395
H -0.8173812982 3.4053222634 0.5273980487
H -2.1270034479 2.1918285841 0.7635298938
H -2.1995419249 2.6607680789 -1.930498397
H -2.1487603017 0.277325902 -0.5448827851
H -0.932197624 0.065704386 -1.8530598863
H 1.0753013643 0.9224360396 1.6919718396
H 0.1629344264 -0.5241907169 1.2003712969
H 2.7225174168 1.0858810094 -1.4961774361
H 1.3215607219 0.1859266881 -2.1224710796
H 1.3239195347 2.7412723435 -0.4478566028

