# b3lyp 6-31G(2df,p) opt Freq 

 titel

0 1
O 0.1535025954 -1.002957412 0.2558549755
C 0.4542193777 0.1159625956 -0.0738911699
C -0.232661955 0.9078521681 -1.1625158889
C -1.0704011594 2.0432405572 -0.5576752519
C -1.9213259353 2.8569483973 -1.5885911282
C -3.2019151671 2.4710107753 -0.819507505
O -3.5242607744 3.3997660368 0.2368839929
C -2.8873512536 2.5633120548 1.2323064755
C -2.3785914439 1.5880452165 0.1616757056
H 1.2688981346 0.6669541607 0.452984738
H 0.531159971 1.3392698741 -1.8236414311
H -0.8617122487 0.2294628344 -1.7476695053
H -0.4327909342 2.6693593119 0.0769228442
H -1.7333479951 3.9312728417 -1.6425944491
H -1.8790193733 2.4331050734 -2.5968429258
H -4.0859755483 2.1585719745 -1.3815507816
H -2.128357596 3.1048856418 1.8117752098
H -3.6261911558 2.1364407685 1.922557698
H -2.5180599188 0.5192751093 0.3184008673

