# b3lyp 6-31G(2df,p) opt Freq 

 titel

0 1
C 0.0778356925 -1.8497330047 4.2041423157
C -0.456846258 -1.2623315344 2.9409073922
O -0.3261868478 -2.04333234 1.7243843363
C -1.6286906264 -1.538985644 2.1162377305
C -1.7667778214 -0.0578093507 1.6938983098
C -0.5046013868 0.5138946591 1.089272034
O 0.3092894038 -0.0484231131 0.1193352798
C -0.5201826374 0.2647861802 2.5775814663
C -0.34311424 1.3318652939 3.6208457801
H -0.1750543622 -2.9115823494 4.2613259338
H 1.1685962328 -1.7530110514 4.2483424247
H -0.3402531401 -1.3412053676 5.0782542038
H -2.4229342734 -2.269913283 2.2132080739
H -2.7227034939 0.4524077471 1.6694025061
H -0.6221680512 1.5763132102 0.8785845471
H 0.3676860942 -0.987054248 0.3460037705
H -0.9555017538 1.1437572673 4.5111886677
H 0.7019722722 1.4044492954 3.9457718366
H -0.6328975231 2.3102961131 3.224781471

