# b3lyp 6-31G(2df,p) opt Freq 

 titel

0 1
C 1.2375348504 0.4697607694 -0.6037007554
C -0.1495383521 0.0562370954 -0.2106642208
C -1.1977678806 0.8976789261 -0.2292900919
C -2.5818232129 0.5033846947 0.1072329743
O -3.4845065835 1.3169002213 0.1337075328
C -2.8184784647 -0.9785782697 0.3715037855
C -1.5888886703 -1.6597149556 0.9815907537
C -0.3246213393 -1.408572083 0.1536849705
O -0.2683871084 -2.205921996 -1.035314839
H 1.9223990599 0.3823057891 0.2495307982
H 1.619686215 -0.2024599666 -1.3802559614
H 1.2727070168 1.4974562563 -0.9717829439
H -1.0742574419 1.9413305439 -0.5074061444
H -3.7063752623 -1.0808185353 0.9997149784
H -3.0694102122 -1.4440498959 -0.592881855
H -1.4219564879 -1.2687003813 1.9926389321
H -1.7415937431 -2.739340599 1.071126851
H 0.5474701782 -1.7379386414 0.7299556245
H -0.9282048311 -1.8657822425 -1.649733349

