# b3lyp 6-31G(2df,p) opt Freq 

 titel

0 1
O 0.9755994184 0.3577422997 -0.5270573482
C 0.2421852058 -0.1301884526 0.2868477761
O -0.8547919745 0.4339137975 0.8171224392
C -1.1920473187 1.7389958245 0.365242116
C -2.521665628 1.9051297603 -0.3170053897
C -2.314249936 2.40266624 1.0904802138
C -2.2925804796 3.8391507516 1.6307446926
C -2.5998866268 3.2597555211 3.0440419532
C -2.9410638459 1.8856813715 2.3928514995
H 0.3670552987 -1.1274633825 0.7361897819
H -0.3331733871 2.3055276685 0.0265467252
H -2.5897047014 2.620579413 -1.1307870269
H -3.122764868 1.0099232958 -0.442459175
H -1.361118834 4.3996191966 1.5126056124
H -3.1147415565 4.4439982911 1.2354588514
H -1.7093019276 3.2092882195 3.6748503599
H -3.3977158853 3.7461906613 3.608492001
H -2.4788479873 0.9988316218 2.8311389436
H -4.0177948963 1.7135593912 2.3027203642

