# b3lyp 6-31G(2df,p) opt Freq 

 titel

0 1
C 1.6557072009 1.0290232709 -2.2426863167
C 1.1240694915 0.2389135448 -1.0669888757
C 2.0681735524 -0.6992430883 -0.3389594372
O 3.2428820906 0.0631887108 -0.0410827011
C 2.9222712171 1.444512416 -0.0294744517
C 2.4308075087 2.0384078133 1.3038732742
O 1.5764740458 3.1178344954 0.9394085944
C 0.9438817253 2.835924521 -0.3169428626
C 1.6714706683 1.6332788414 -0.8742918071
H 2.6066934884 0.7383908532 -2.6813210634
H 0.9247716011 1.396731874 -2.9558432846
H 0.0582793984 0.0472814666 -1.0093982421
H 1.5911807451 -1.0677251763 0.5819274639
H 2.389062145 -1.5686027657 -0.9238872935
H 3.8047525506 1.9795140345 -0.3972454365
H 1.892024136 1.2665568227 1.877132845
H 3.2284430519 2.4431229946 1.9319168623
H -0.1290013997 2.6452609118 -0.1713063464
H 1.0466401226 3.7254301292 -0.9507961611

