# b3lyp 6-31G(2df,p) opt Freq 

 titel

0 1
C 3.1327201713 0.3136846085 -1.9524440517
C 2.4806633327 -0.1134489253 -0.6648641871
O 1.4280272993 -1.0246253989 -0.7936504752
C 0.1664541452 -0.6696939892 -0.2683128931
C -0.4433605097 0.5910890895 -0.932980794
C 0.0351790681 1.9485947411 -0.3797936111
C 1.0232807785 1.8740507101 -1.5625722161
O 0.1978281558 0.8672450049 -2.2026499578
C 2.3631423108 1.3216555217 -1.1349338077
H 4.2124616223 0.3932054069 -2.0084125511
H 2.6395727405 -0.0566763282 -2.8441180853
H 3.1134712504 -0.3026963246 0.202391636
H -0.4657660889 -1.5397979917 -0.4695441597
H 0.1979147752 -0.5249583985 0.824564128
H -1.5258162058 0.467774032 -1.0438998179
H -0.7141463848 2.7344477024 -0.4925356261
H 0.456316782 1.9724558502 0.6277717968
H 1.130813848 2.7617356892 -2.1950946242
H 2.952570279 2.0413135299 -0.5695909124

