# b3lyp 6-31G(2df,p) opt Freq 

 titel

0 1
O 0.2782224179 -0.0914869281 0.3129446739
C -0.9078968402 0.322271062 0.8897153211
C -1.0102597222 1.2778927173 2.0774975659
C -2.3720984117 0.5975085165 2.4606395639
C -3.5878400666 1.4679424652 2.1486269288
O -3.408043099 2.1728417465 0.9300963273
C -3.1699084686 1.3358436135 -0.1905457371
C -2.1561199164 0.2355363068 0.0619352088
C -2.1199590736 -0.4852192009 1.390202744
H 0.8672725617 -0.3854661621 1.0172931059
H -0.2410385813 1.0471292919 2.8226788799
H -1.0125849604 2.3519643349 1.878651018
H -2.4105418441 0.2226744005 3.4853723314
H -4.5002397148 0.8479203839 2.1134213326
H -3.7317616957 2.2401395483 2.911258712
H -4.1150307877 0.8643224969 -0.514797511
H -2.8402382694 2.0036643135 -0.9936560383
H -2.0116088503 -0.4244555045 -0.7902976899
H -2.2762090977 -1.5516284518 1.4970516428

