# b3lyp 6-31G(2df,p) opt Freq 

 titel

0 1
C -2.9169268342 2.0570995782 1.5284164186
C -1.8910164229 0.9965628808 1.188840438
C -2.168353195 0.0375858406 0.0907128135
C -1.1343794571 1.18233545 -0.1304590336
C -0.0684617918 0.1451063835 -0.2592587763
O 1.0672148786 0.1569905521 -0.6470119411
C -1.0594643832 -1.0254612173 0.0195268952
C -1.1399278239 -1.9827448548 -1.1694272821
O -2.2626561532 -2.8482043461 -1.099105816
H -3.6489367614 1.6702201994 2.2449945585
H -2.442833367 2.9375187279 1.9736656167
H -3.4613471709 2.3830429868 0.6364306252
H -1.3232110994 0.6350944377 2.045109706
H -3.1347415583 -0.0580436122 -0.3867614392
H -1.2096485691 2.1122527089 -0.6813064223
H -0.8948233103 -1.5875012403 0.9481075548
H -1.2643021707 -1.4148338985 -2.0976840704
H -0.1954581198 -2.5384954463 -1.2519079434
H -2.1417300104 -3.4291920406 -0.3410517223

