# b3lyp 6-31G(2df,p) opt Freq 

 titel

0 1
C 0.3430402676 6.6209415545 -1.279216464
C 1.121425759 5.5876295489 -0.4613668353
C 0.5498664892 4.1858358422 -0.6114787951
O 1.3348539508 3.3032283883 0.1804531008
C 0.9760949211 1.997742882 0.1747203805
C 1.6220085861 1.0229844966 0.8775999868
O 1.0154057353 -0.1809494285 0.6591731262
C -0.0166124572 0.0368159105 -0.1849168559
C -0.1010207474 1.3514804689 -0.5242980521
H 0.3611202714 6.3814286477 -2.3481508754
H -0.7062858571 6.669712223 -0.968033517
H 0.7715309095 7.619435776 -1.1564066557
H 2.172734982 5.5698955639 -0.7700140605
H 1.1115119641 5.8557017696 0.6011159275
H -0.4988568334 4.1574236039 -0.2791669221
H 0.5740832754 3.8683157288 -1.6648763998
H 2.4729208892 1.0279409148 1.5350717087
H -0.5974595052 -0.8300726031 -0.4536978084
H -0.8289218105 1.7983928322 -1.1808701292

