# b3lyp 6-31G(2df,p) opt Freq 

 titel

0 1
O 4.0379843002 -1.8340501289 -0.9170930163
C 4.1220196564 -0.4698756247 -1.2733385973
C 5.0492989712 -0.2861261361 -2.4921760518
C 4.2451730393 0.6311363793 -3.4426477143
O 3.1491100897 1.1413949447 -2.6832845724
C 2.7849920842 0.1263930478 -1.7692902016
C 1.9080823186 0.7527908217 -0.6795155721
C 1.5620106351 -0.2082111101 0.3621166857
C 1.3036281637 -1.0215489779 1.2106401189
H 3.4129042805 -1.8976452706 -0.1840751123
H 4.4853993218 0.131450764 -0.4257813491
H 6.0053035836 0.1571657324 -2.2072951466
H 5.2486568024 -1.2634205595 -2.9373710548
H 4.8129647765 1.4871632666 -3.8151948778
H 3.8700532009 0.0657062736 -4.3084090409
H 2.2287025711 -0.6826683452 -2.2732115967
H 2.4517323822 1.6006846668 -0.24462282
H 0.9985200851 1.1611324642 -1.1343400195
H 1.0467383676 -1.7181317782 1.9703553588

