# b3lyp 6-31G(2df,p) opt Freq 

 titel

0 1
C -0.9406519542 -2.0567791567 1.2640223291
C -0.9586153938 -1.1093612958 0.0713962831
C 0.0486426581 0.041787398 0.1049963032
O 1.2267458391 0.1793595016 0.1946452784
O -0.9073933313 1.0198033711 0.0107920215
C -1.9967474197 0.0391985298 -0.0099994844
C -3.0177611334 0.1227427862 -1.1582359783
C -4.134550611 -0.1851018363 -0.1203863478
C -3.1391247342 0.2040819303 1.0095984319
H -1.7798213832 -2.7581653492 1.2242307587
H -0.0134561272 -2.6367182566 1.2633029613
H -0.9923322303 -1.5126882731 2.2113350034
H -0.8876870267 -1.6680680141 -0.8673103387
H -3.0824142994 1.1469811204 -1.5349408215
H -2.8858804659 -0.5589018037 -2.0021629463
H -5.0542795993 0.3967366572 -0.1935936982
H -4.3932932202 -1.2464731519 -0.0942964238
H -3.2360862821 1.2545745519 1.2961278245
H -3.1134821855 -0.4080405091 1.9133831341

