# b3lyp 6-31G(2df,p) opt Freq 

 titel

0 1
C -1.1615928756 -1.8945967155 -1.7208811358
C -0.9483446152 -0.9474840168 -0.5403144469
O -2.235145358 -0.4713656868 -0.1892331396
C -2.2406505691 0.5026913655 0.8333140706
C -1.3826602921 1.7150580312 0.4867985212
O -1.6032725602 2.8112672822 0.9617187849
C -0.235596602 1.4244286266 -0.3832245322
C 0.026083133 0.1831599256 -0.8268488536
C 1.2893066168 -0.1486321924 -1.5678200389
H -1.9196195279 -2.6323957692 -1.4486001636
H -1.5178903301 -1.3417854077 -2.5948382354
H -0.2417637763 -2.4217892316 -1.9832856612
H -0.5285421893 -1.5314554832 0.3042362908
H -3.2757735056 0.8185943877 0.9788931863
H -1.8754321439 0.0841673253 1.7893070841
H 0.437458775 2.2536829422 -0.5829707039
H 1.8189771554 -0.9799098469 -1.0856685784
H 1.0794795712 -0.4667709952 -2.5953460058
H 1.961817124 0.7110573591 -1.6040648027

