# b3lyp 6-31G(2df,p) opt Freq 

 titel

0 1
O 0.216592802 0.3560501093 -0.1100679941
C -0.864320616 0.2771393957 0.7743365535
C -1.4389280807 1.550938752 1.3738775793
C -2.1739070045 0.8166485948 0.2647025016
O -2.2663197917 1.3849564407 -1.00108413
C -3.1003820974 -0.3730471152 0.5686367595
C -2.198685586 -1.5490697682 0.0436544174
C -1.3077041196 -1.1148777356 1.2641660006
C -2.6561308857 -0.8339992282 1.9839712505
H 1.0074572226 0.5958572505 0.3827169548
H -1.7914293508 1.6068427785 2.3969471343
H -0.9516445679 2.4557534828 1.0230320424
H -1.3948459108 1.2927181727 -1.4107640366
H -4.1495911252 -0.2686066707 0.2947703051
H -2.6546349334 -2.5345921254 0.1698506576
H -1.7705559203 -1.4480098127 -0.9558565119
H -0.5455386736 -1.7634735592 1.6980835065
H -3.1506821293 -1.7645836156 2.2700941491
H -2.6924502716 -0.1356467661 2.8206332003

