# b3lyp 6-31G(2df,p) opt Freq 

 titel

0 1
C -1.6024664397 3.9695160849 1.0046538351
C -0.8292486736 3.5265552779 -0.2246316623
C -1.2912923231 3.9983135025 -1.6317658061
C -1.021530166 2.574451523 -2.1825864891
C -1.0115789707 2.0386847417 -0.7319231099
C 0.0750615266 1.0877280926 -0.3353090864
O 1.0612913669 0.8399741667 -0.9947254791
C -0.0393973959 0.4152400052 1.0417965249
O -0.9429882941 0.6126096865 1.8117248843
H -1.2851516218 3.4201041548 1.8961341873
H -1.4554722674 5.0390893881 1.1919524123
H -2.6763915275 3.7965249022 0.8739650827
H 0.2399504121 3.7309448966 -0.0981625664
H -2.3584686768 4.2416778362 -1.6330883169
H -0.7450037137 4.8290051846 -2.0842463356
H -1.7620956279 2.1454997818 -2.8602767179
H -0.0306736254 2.4755949855 -2.6315242187
H -1.9794137449 1.6584351907 -0.3941393641
H 0.8073421328 -0.2715573816 1.2548063658

