# b3lyp 6-31G(2df,p) opt Freq 

 titel

0 1
C 0.5459209247 -0.9868951208 0.1811894398
C 0.9353740064 0.4805953378 0.2051281056
C 0.2303954175 1.3443572136 1.2886795881
C 1.4128873179 1.9513150233 2.1009330638
O 1.74125249 1.1163797024 3.2097099101
C 2.5422305247 1.8662543534 1.0504121964
O 2.3424458912 0.5802127468 0.4903342081
C 1.1676014317 3.2997353036 2.5936925579
C 0.9686699036 4.4280144762 2.954540878
H 0.6839186627 -1.4398749937 1.1683487916
H -0.5049472385 -1.0971863365 -0.1030661984
H 1.1581540612 -1.535044282 -0.5403222814
H 0.7574280088 0.9249023104 -0.7861370437
H -0.3837207165 2.127440538 0.8402103076
H -0.3960356663 0.7547574305 1.9610141531
H 2.1217859267 0.314465693 2.8281307408
H 2.4421727214 2.6617465987 0.2964118666
H 3.5346762883 1.9084932849 1.5028685185
H 0.7935349847 5.4207306804 3.2889053274

