# b3lyp 6-31G(2df,p) opt Freq 

 titel

0 1
C 3.1202568001 -2.9495923988 -0.2877492862
C 3.1258643154 -2.0131059414 -1.5032702484
C 2.3560498244 -0.7398575784 -1.2210486176
C 0.9003045766 -0.6200478881 -1.4247335855
C 1.8176095983 0.1682837664 -2.3715228528
C 1.9149237302 -0.2857567039 -3.7876578847
O 1.6350233821 -1.3990883459 -4.1709569036
C 1.9630421905 1.6253894321 -2.1292414292
O 2.2062996768 2.4490229377 -2.9767546379
H 3.6876715653 -3.8602318221 -0.5003217011
H 3.5710595113 -2.4726151393 0.589518758
H 2.1001820333 -3.2433113769 -0.0200926036
H 4.1595521522 -1.758752979 -1.7670408961
H 2.6923832526 -2.5172521768 -2.3698652666
H 2.7619728715 -0.1484977955 -0.4009220387
H 0.3887740882 -1.4409524839 -1.9167694473
H 0.3021071022 -0.0413216666 -0.7285522232
H 2.2644809044 0.4978102679 -4.4855902198
H 1.8328829346 1.9201345125 -1.0607120458

