# b3lyp 6-31G(2df,p) opt Freq 

 titel

0 1
C -1.9763325436 -1.0126852956 -2.166900973
C -2.0630391889 -0.7433402358 -0.6629385735
C -3.15293967 -1.5841986142 -0.0048161946
O -0.7888457865 -1.1307896592 -0.0725174636
C 0.0172169263 -0.0521316888 0.1701194896
O 1.1821395824 -0.1669735886 0.4210678139
C -0.8024960717 1.1954329407 0.0779662838
C -1.9912224721 1.2142322364 1.0247784672
C -2.1684726114 0.7586763099 -0.3884463894
H -1.7461785393 -2.0654407869 -2.3498855987
H -2.926798637 -0.7744693289 -2.6552366633
H -1.1910692196 -0.4034718769 -2.623908732
H -3.1868470722 -1.4134794968 1.0735291068
H -4.130341195 -1.3287549812 -0.4254568771
H -2.9702665432 -2.6482078279 -0.1785806215
H -0.3078632275 2.1150448141 -0.2017513763
H -2.0171257255 0.491011292 1.8327217596
H -2.3768744641 2.1935636115 1.2838135604
H -2.7518784811 1.3574362761 -1.077507298

