# b3lyp 6-31G(2df,p) opt Freq 

 titel

0 1
O 0.3852120705 -0.0900286867 0.2399909333
C -0.7614680984 0.7180973037 0.1979619056
C -2.1356343554 -0.0234120257 0.276137442
C -2.0393902478 -1.00305981 1.4682078169
C -1.6996233128 -0.239316973 2.7651133348
O -0.694386221 0.7689614991 2.5877372841
C -0.9210916119 1.6194916393 1.4387444461
C -2.3568384626 2.0771711385 1.2883164459
C -3.0400208469 1.1474414243 0.6130286099
H 0.5902964076 -0.2047393439 1.1785484078
H -0.718461719 1.3197039966 -0.7148995637
H -2.4023301885 -0.5506048975 -0.6432634403
H -2.9752025446 -1.5533887157 1.6166341734
H -1.2589109478 -1.7360928324 1.2393497266
H -2.6083276509 0.222421148 3.1700438442
H -1.3016285047 -0.9143164485 3.5278326483
H -0.1771008991 2.4134139501 1.5272768475
H -2.7490482061 2.9956951744 1.7066351879
H -4.0961426906 1.1836291894 0.3696761895

