# b3lyp 6-31G(2df,p) opt Freq 

 titel

0 1
C -4.1411211293 0.6638961433 1.2333250721
C -2.6719137559 0.2614656953 1.2292525254
C -1.6450367948 1.4368236776 1.4007544218
C -0.7351604036 1.454326985 2.6201773155
C -1.027762973 1.0941480288 -0.0006259577
C -2.0628767433 -0.0435684425 -0.1595971028
O -0.9903479585 -1.0376048137 -0.0828635587
C -0.0271130108 -0.0566315355 0.0324233318
O 1.1482372353 -0.2083194226 0.1264244243
H -4.4400696246 1.0400832332 2.2172197677
H -4.3403851847 1.45623489 0.5023659543
H -4.7857827366 -0.1867729348 0.9881506044
H -2.4987639141 -0.5680481926 1.9211989686
H -2.1733272399 2.3922561087 1.3194169572
H -0.1715897573 0.5211804695 2.7163327021
H -0.010993999 2.2735804533 2.56295844
H -1.3223758636 1.5892185572 3.5350180782
H -0.8369129006 1.8995945195 -0.7067896131
H -2.7021372757 -0.2140327795 -1.0251570813

