# b3lyp 6-31G(2df,p) opt Freq 

 titel

0 1
O -3.45860667 2.9562968939 0.5605283182
C -2.6899413266 1.8211415124 0.8918684132
C -2.0288526415 1.8838344158 2.2813600647
C -0.8148566943 2.6672782166 1.664112405
C 0.1458295822 1.8652148829 2.5531366754
C -0.9203466944 0.7506856911 2.39342285
C -0.7853107653 0.4086872852 0.8852852678
O 0.5194108262 0.0800656751 0.4457198532
C -1.2157898747 1.7977713046 0.3890986311
H -2.9782087102 3.7429855813 0.8406949384
H -3.3166092955 0.9624684777 0.6322810601
H -2.5558350185 2.1865253835 3.1866990019
H -0.7649631607 3.7506589883 1.5562574355
H 1.1585666387 1.6561627977 2.2053920625
H 0.1631056591 2.2710423378 3.5687894981
H -1.0068143849 -0.0763737272 3.0996924542
H -1.494780736 -0.3699741623 0.5717001074
H 0.7724524161 -0.7532795579 0.8569269736
H -0.9488326397 2.0746069736 -0.6296391301

