# b3lyp 6-31G(2df,p) opt Freq 

 titel

0 1
C 3.0932600845 -1.2824388765 0.9909957357
C 2.014710275 -0.5640962698 0.1737632402
C 2.1419989831 -0.8017722828 -1.327150399
C 1.8043544623 -2.2273321985 -1.8824026016
C 0.9069680662 -1.5672802287 -2.9516346884
O 0.3589996766 -1.9452086975 -3.9448539223
C 1.0542736992 -0.2213981573 -2.2554319973
C -0.0187702746 0.7506950136 -1.9787166426
O 1.0501135808 1.0473618181 -2.8737631925
H 2.9720850905 -1.0889522982 2.0609922987
H 3.0504042039 -2.3665145569 0.8412353618
H 4.0953471886 -0.9475612661 0.701974156
H 1.0196946038 -0.8889809704 0.5057759904
H 2.0682917276 0.5146668465 0.3692793116
H 3.1287853169 -0.4800400484 -1.6784360358
H 2.630791162 -2.8234198932 -2.2749259222
H 1.2247833395 -2.844781685 -1.187587673
H -0.993745676 0.611870357 -2.4428142034
H -0.00829142 1.2943177942 -1.0355146563

