# b3lyp 6-31G(2df,p) opt Freq 

 titel

0 1
C 0.6138554635 1.6866286705 -0.0523146777
C 0.2641868671 0.2168902495 0.165845059
C 1.1568805612 -0.6511462864 1.0233026832
O 2.4870970831 -0.5403239734 0.494650925
C 2.4742612775 0.0309837694 -0.805683677
C 2.5417581804 -0.9431968158 -2.015572164
C 1.2056901168 -0.7081118304 -2.7614285397
O 0.7356405965 0.5814766966 -2.339837955
C 1.1082085422 0.6674370141 -1.0071559967
H -0.2058094013 2.3181223241 -0.3773517162
H 1.3325458083 2.1712882856 0.6034267382
H -0.7676969788 -0.0765188607 0.015284298
H 1.2061389427 -0.3558941623 2.0785336389
H 0.8104883822 -1.6948556317 0.9818407795
H 3.30436602 0.7443564459 -0.837049828
H 3.394837733 -0.7003205642 -2.6534929295
H 2.657017365 -1.9746536663 -1.675992082
H 1.3010980708 -0.684211748 -3.8488055024
H 0.4656662699 -1.4750150064 -2.4914220936

