# b3lyp 6-31G(2df,p) opt Freq 

 titel

0 1
C -0.0991875911 0.1084225314 0.1666436958
C 1.4109116766 -0.0317820086 0.1502921527
C 2.0108992723 -0.3623449061 1.5011130929
O 2.1223121705 0.9673111136 -0.5929212687
C 2.1569370066 -0.3829306137 -1.0981254144
C 1.4483643597 -0.5902009935 -2.4354742707
O 1.0423497061 -1.9302820564 -2.6309344657
C 3.4278441279 -1.0665448295 -1.0075343482
C 4.480146182 -1.6474879395 -0.987498227
H -0.3813333994 0.9026171294 0.8662165172
H -0.5126389027 0.365977359 -0.8086971552
H -0.5675434314 -0.8174670457 0.5182606704
H 1.6110655373 -1.3086861058 1.8804873551
H 3.096421 -0.4415430477 1.4414486901
H 1.7547053692 0.4228849698 2.2204367547
H 0.6182866909 0.1219224356 -2.5162428456
H 2.1512910722 -0.3667784876 -3.2433025885
H 0.4073482188 -2.1522506737 -1.9422146665
H 5.4104743343 -2.1593379908 -0.9628408583

