# b3lyp 6-31G(2df,p) opt Freq 

 titel

0 1
O 0.18244644 0.2896396073 0.0524265355
C -0.8306570553 -0.1233268391 0.9557430622
C -0.9806091303 0.8454411136 2.167817317
C -2.4637026414 1.2725197637 2.0712929025
O -2.7288071348 1.2128500353 0.662623152
C -2.2375339094 -0.0838677381 0.3017666288
C -3.2157219468 -1.1613035701 0.8032534011
C -3.6934410621 -0.8499983956 2.199506463
C -3.3515968382 0.287349041 2.8008629468
H -0.0620881875 1.1669686428 -0.2647729763
H -0.5456199838 -1.1333487203 1.2597270891
H -0.734694778 0.3743882089 3.1215324959
H -0.3071329459 1.6957501168 2.0243682688
H -2.6458740991 2.2998861122 2.3942839683
H -2.1441842899 -0.1190401363 -0.7862358916
H -4.075105364 -1.2248833426 0.1221840802
H -2.7333660753 -2.1475193387 0.7705343889
H -4.334800646 -1.5773832377 2.6900086017
H -3.6642585225 0.5219561168 3.8139566165

