# b3lyp 6-31G(2df,p) opt Freq 

 titel

0 1
C 0.2633177536 -2.4401731487 0.3646513634
C -0.7525921695 -1.3812318309 -0.0841479563
C -1.9431094452 -1.3054287779 0.8752971356
O -3.0457082038 -0.6239990731 0.301550538
C -3.1233150817 0.7427948418 0.5964671459
C -1.9522565228 1.5978495113 0.2213648031
C -0.7178835691 1.2718274796 -0.1811220716
C -0.0506955735 -0.0435492042 -0.3575595952
O 1.1065727661 -0.0385629867 -0.738225466
H 0.6325826554 -2.2282004622 1.3743757043
H -0.1933810324 -3.4341236466 0.3722879791
H 1.1221439454 -2.445415339 -0.3064682142
H -1.1710952913 -1.6851634788 -1.0551520731
H -2.2891108694 -2.3228870649 1.0867582849
H -1.6541299596 -0.8506741053 1.8352023653
H -4.0102679042 1.1151781054 0.0678140404
H -3.3234188457 0.9053860874 1.6739515902
H -2.1720812533 2.6614392233 0.3187393226
H -0.0258181292 2.0794199296 -0.4055363567

