# b3lyp 6-31G(2df,p) opt Freq 

 titel

0 1
C 2.8702400366 1.3602052901 -0.1222652865
C 2.3067902528 -0.0506969506 0.0719855453
C 2.0680868173 -0.7663648625 -1.2478267876
O 1.0358585456 -0.1419788791 -2.0715523564
C 0.2295371892 -1.3211677658 -2.0743776785
C -1.2712487161 -1.3184136734 -2.0305769576
C -0.5498084667 -1.8073192273 -3.2630711528
C 1.2183027159 -2.0507954451 -1.2190155202
O 1.3022237487 -3.1349392339 -0.7216877595
H 3.0066341694 1.8625614234 0.8397818161
H 3.8413516626 1.3327426764 -0.6284302791
H 2.1907085632 1.9640073278 -0.7301186693
H 2.9955937712 -0.6659483034 0.6638185082
H 1.3622950363 -0.0063909559 0.6267066499
H 3.001136922 -0.8747134251 -1.8177468808
H -1.753480691 -2.0409321023 -1.3806832433
H -1.7446340683 -0.3438461084 -2.0780742997
H -0.5292125899 -2.8710695776 -3.4749418612
H -0.5412970687 -1.1578521073 -4.131540267

