# b3lyp 6-31G(2df,p) opt Freq 

 titel

0 1
C 0.7612813154 -0.7550872347 -0.6582511469
C 0.8441211209 0.3212750613 0.4271276382
C 1.8081413474 1.4383706864 0.0563837462
O 1.8172759083 2.3901963248 1.1137898219
C 2.6574345299 3.5020165388 0.8933772542
C 2.3708089338 4.4673304838 2.0579825202
O 2.3581052754 5.6607120219 1.9520474162
C 4.0853245193 3.1655324376 0.9014396036
C 5.2564367563 2.8983591939 0.9519174507
H 0.0652269392 -1.5476804036 -0.3699958925
H 0.4135915329 -0.3378951072 -1.6096731952
H 1.7375809909 -1.2189055703 -0.8364678889
H -0.1450223247 0.757238642 0.6075433873
H 1.1707289477 -0.1191822988 1.3759254048
H 2.8220269544 1.0421158628 -0.1013777391
H 1.4949192405 1.9268098384 -0.8812943328
H 2.404025294 4.0217213139 -0.0435804115
H 2.1749097692 3.9356284687 3.0124994939
H 6.2924809293 2.6647442903 0.9825365896

