# b3lyp 6-31G(2df,p) opt Freq 

 titel

0 1
O 1.4903609793 0.8342337071 -0.0460357087
C 0.5174854658 -0.0335467405 0.5120034028
C -0.7398762315 0.7012572769 0.9847958437
C -1.8003660596 -0.2381505553 1.5468245031
C -3.2275633072 0.3051445029 1.7922670489
C -3.6412272134 0.125062119 0.2949317929
O -4.8520760477 -0.6303448169 0.5924145753
C -3.8709796097 -1.0972571393 1.5648526293
C -2.6703981508 -1.0698709983 0.5695291104
H 1.7641461938 1.4494473376 0.641777005
H 0.2616853263 -0.7392333371 -0.285927468
H 0.9371433659 -0.6265948468 1.3416009177
H -0.4550850384 1.4287270885 1.7594525135
H -1.1412750676 1.2818220151 0.1453594178
H -1.3977060866 -0.8207283251 2.3852598669
H -3.5751231128 1.0797592551 2.4765000922
H -3.6671202445 0.8425391749 -0.5237723833
H -4.163774483 -1.8586727331 2.2872158966
H -2.3925598882 -1.8565017647 -0.1321798961

