# b3lyp 6-31G(2df,p) opt Freq 

 titel

0 1
O 1.2509618008 -0.760101651 -0.1819597972
C 0.2421801102 -0.0959189269 -0.0908389296
C 0.2136425437 1.3770738264 -0.0295748234
C -0.9826515689 1.9765365404 0.0732344218
C -1.2565880619 3.455525457 0.0914465526
C -0.2518808469 4.2737020646 -0.7374588237
C 1.1130794616 4.4360908533 -0.0525267691
O 1.5355704975 3.3031482131 0.681329446
C 1.5522358204 2.0858881569 -0.0381736252
H -0.7616187611 -0.5767989245 -0.0506979101
H -1.8567516644 1.3279689355 0.1344440508
H -2.2694298127 3.62332148 -0.2914824297
H -1.269819062 3.8111003836 1.1319754941
H -0.1333868046 3.7923868945 -1.7148957981
H -0.6555703363 5.2734043613 -0.935085856
H 1.8709603422 4.7157803069 -0.802768419
H 1.0679212399 5.2425012238 0.6871961196
H 1.9120239755 2.2344423478 -1.0691639156
H 2.2811525369 1.4327473373 0.4500943117

