# b3lyp 6-31G(2df,p) opt Freq 

 titel

0 1
C 0.1042042336 -0.1046317997 -0.0054433518
C 1.5838554712 0.1690174659 0.1663002959
C 2.0152839477 1.6726196593 0.0078950968
C 2.9875851514 1.260699087 -1.0948353102
C 3.880096907 0.1654305927 -0.5882749443
O 4.1912515044 0.0649325015 0.7806404502
C 3.3221584449 -0.8439515516 1.418216083
O 1.9842142594 -0.4112052723 1.4115785765
C 2.4949154333 -0.1969398622 -1.0267147827
H -0.4540666614 0.3086842713 0.8402095914
H -0.27030922 0.348748688 -0.9277718257
H -0.0830210294 -1.1822711848 -0.0445819975
H 1.1921828955 2.289933677 -0.3592418639
H 2.4529972409 2.1292068725 0.8982167064
H 3.2515778787 1.8413675577 -1.9698605941
H 4.7022840885 -0.1278127386 -1.2357153602
H 3.403697773 -1.8287390745 0.9288021039
H 3.6332675219 -0.915833512 2.4627269744
H 2.2725188394 -0.9139408273 -1.807996488

