# b3lyp 6-31G(2df,p) opt Freq 

 titel

0 1
C 1.3551096034 -0.3491949804 1.0157527751
C 0.8721820693 0.1683253034 -0.3474587068
C 1.7155744944 -0.3422165711 -1.4703503574
O 1.5670792046 -1.7272662424 -1.8935238877
C 1.4559405157 -0.7108497557 -2.8872866909
C 2.8916899802 -0.4006999802 -3.3507185686
C 3.711180989 -1.5089893499 -3.9968839818
C 3.1611717605 -0.0178307448 -1.8577648675
O 4.0904024946 0.4692427498 -1.2839058321
H 1.309721302 -1.4414355223 1.0519737323
H 2.3893070834 -0.0450138562 1.2000139704
H 0.7317777252 0.0463414425 1.8224508915
H -0.1669536729 -0.129947678 -0.5257502288
H 0.9011913283 1.2646462101 -0.3628507473
H 0.5245226539 -0.6365329915 -3.4365031959
H 2.9365657243 0.5262887231 -3.9375820103
H 3.5842626083 -2.444225177 -3.4461966078
H 3.4092666304 -1.6723991783 -5.0364092756
H 4.7735699255 -1.2473651512 -3.9910334708

