# b3lyp 6-31G(2df,p) opt Freq 

 titel

0 1
C 0.1576682989 0.6683476839 -0.1038536376
C 1.5961555639 0.1355741984 -0.0608137456
O 1.6560323098 -1.0612250597 0.7364025732
C 2.5369053137 1.1807960499 0.4909993625
C 3.697559245 1.5356589111 -0.0524204231
C 4.2587698025 0.9542187262 -1.319361318
C 3.2883460568 0.0582315826 -2.0505804154
O 2.0521976878 0.6571283377 -2.4653152308
C 2.0129649498 -0.3379788268 -1.4434796155
H -0.1582019873 1.0017742506 0.8915424204
H 0.0841445525 1.5155289735 -0.7910212781
H -0.5253592452 -0.1196006278 -0.4347908051
H 1.4740959937 -0.8140029519 1.649138668
H 2.2086683345 1.658516337 1.4134814041
H 4.3052531377 2.2936750467 0.436330317
H 4.5877581802 1.7594412505 -1.9908425262
H 5.1655198368 0.3762172018 -1.0889279249
H 3.7283056758 -0.5993312184 -2.8006447677
H 1.5528684231 -1.2830746952 -1.7324402973

