# b3lyp 6-31G(2df,p) opt Freq 

 titel

0 1
C 6.5344555281 1.7106285744 -1.6906624529
C 5.3008731142 2.5420274203 -1.4054646786
O 5.2833728446 3.7458655749 -1.5080120431
C 4.0407079187 1.7678185646 -0.9926936213
C 3.4156410874 1.0804371177 -2.1734928693
C 2.5857154206 1.7156853421 -3.2456659476
C 2.0398099307 0.5243804744 -2.4783002342
C 2.7848234761 -0.7262422754 -2.9245195805
O 4.0729443989 -0.089548452 -2.6926632635
H 6.873486134 1.2273578306 -0.7661984101
H 6.2928561968 0.9063765514 -2.3932070183
H 7.3307601384 2.3441666733 -2.0829458564
H 4.2849935646 1.0185433071 -0.2304416777
H 3.332300604 2.4883028343 -0.5767308747
H 2.1352934123 2.6679153103 -2.9845144924
H 2.8801957135 1.6136523935 -4.2868165683
H 1.1226548374 0.5535908006 -1.9059278183
H 2.6570726441 -1.5835411927 -2.2544953265
H 2.6633521055 -1.0471600794 -3.9657633766

