# b3lyp 6-31G(2df,p) opt Freq 

 titel

0 1
O -1.8430395576 1.3019263087 2.4334496088
C -1.1110830581 1.475056303 1.2382850331
C -1.9915203673 1.4183963501 -0.0102552072
C -2.7183628218 0.0687196681 -0.1887262984
C -3.4844399722 0.0000592539 -1.4259912483
C -4.1075806323 -0.030574825 -2.4530058407
C 0.238060461 0.7083408465 1.1310381773
O 0.9622142229 1.943665716 0.9764074644
C -0.2061161766 2.7208399282 1.3116026508
H -2.2454800245 0.4272820282 2.4312316086
H -2.7342917249 2.221721602 0.0432311226
H -1.3690887144 1.609915452 -0.8905463252
H -1.9883086631 -0.7522313193 -0.1693930773
H -3.3983824736 -0.0988037872 0.65731947
H -4.6613621203 -0.069150777 -3.3580723992
H 0.5029839868 0.1842128148 2.0588916567
H 0.380510677 0.0395415405 0.2736250618
H -0.1544414747 3.1398362729 2.323739837
H -0.3946599963 3.5191304934 0.5850947353

