# b3lyp 6-31G(2df,p) opt Freq 

 titel

0 1
O 0.4004557538 0.2988714589 0.6839648115
C -0.8689342482 0.7571293913 0.2783065255
C -2.0247218246 -0.3046276356 0.2586473868
C -2.3018581553 0.1194505588 -1.1717637657
O -2.8486625882 -0.6908838993 -2.1985222725
C -3.4719050204 0.4722359214 -2.8100811728
C -3.0483267924 1.3954576099 -1.641910409
C -1.7008397583 2.1560403808 -1.8037025439
C -0.9506193574 0.9073341932 -1.2702176771
H 0.3542049108 0.077023406 1.6199969218
H -1.1486665169 1.6786033246 0.8093559512
H -1.5846294783 -1.3071549606 0.2846964806
H -2.8304394104 -0.2344533191 0.9953359119
H -3.0291385625 0.7101890237 -3.7855363667
H -4.5501206394 0.3212854299 -2.9293560083
H -3.8584803445 1.864871098 -1.0824187175
H -1.4614017323 2.4266660934 -2.8362745448
H -1.6010012411 3.0528329704 -1.1844076045
H -0.0645434343 0.5326639542 -1.7821322564

