# b3lyp 6-31G(2df,p) opt Freq 

 titel

0 1
C 3.4167031401 3.0199579725 0.0569888537
C 2.3257346809 2.2348022694 0.7762203517
C 1.9305332093 0.892002984 0.063600686
C 2.4653987599 0.1120942362 1.2678987879
C 2.8425197315 1.4133746557 1.9684100886
C 1.7952595842 0.4942019466 2.5815599193
O 2.2688725229 -0.2291341383 3.6714239009
C 0.3636728069 0.836290647 2.7077479974
O -0.2754884682 0.493894343 3.6821557661
H 3.7679530872 3.8589153034 0.6672389538
H 4.2794110395 2.3811306773 -0.1623944385
H 3.0445289882 3.4238757449 -0.8905799021
H 1.488830747 2.9043821476 1.0018671619
H 0.8807979024 0.7446783466 -0.2064738131
H 2.536865041 0.7262871264 -0.830775229
H 2.9909110071 -0.8349077978 1.2554544923
H 3.7097648988 1.6354368579 2.5796934085
H 1.4960115157 -0.3251356046 4.2512321879
H -0.1040180345 1.4096102122 1.8884855466

