# b3lyp 6-31G(2df,p) opt Freq 

 titel

0 1
C 4.7115564085 -1.4597997011 -0.0159693963
C 3.1825484077 -1.4440734105 0.1157203639
C 2.6581408896 0.0168443961 0.0620820142
O 3.1186024558 0.6940746696 -1.1069854423
C 1.2010329707 0.1002653866 0.1724589746
C 0.0021039293 0.1754437448 0.2055682632
C 2.7557182699 -2.1402241587 1.3919208248
C 2.6148024965 -3.5999733834 1.4672147583
O 1.4671336043 -2.7515064578 1.4295106835
H 5.1847446385 -0.992361729 0.8559331111
H 5.0847907645 -2.485226524 -0.0888817093
H 5.022882223 -0.9046381499 -0.902320437
H 2.7315089198 -1.9884700732 -0.7237865876
H 3.1116796878 0.5659153883 0.8986739371
H 2.532881042 0.4457503534 -1.8306906756
H -1.0573129661 0.2322190169 0.2552619993
H 3.0215991195 -1.6150663979 2.3129933133
H 2.7806223589 -4.2012483335 0.5734917539
H 2.7884786497 -4.1162259466 2.4103411409

