# b3lyp 6-31G(2df,p) opt Freq 

 titel

0 1
C -0.0476466139 0.0939869605 -0.0831724153
C 1.3771470261 0.3064047821 0.3421944568
O 2.1579546321 0.96931386 -0.6328824174
C 3.4070862041 1.001830852 0.0796241077
C 3.6396552725 -0.499383813 0.3789826667
C 2.2469020112 -0.8652428467 0.9174653549
O 2.0843931856 -0.3620976429 2.2641176499
C 1.7348265998 0.937385199 1.7329306703
C 3.0067473893 1.7286101257 1.3868632566
H -0.6031064996 -0.4196078141 0.7065370035
H -0.5371233684 1.0513148864 -0.2868456175
H -0.0933179797 -0.5134591233 -0.9922802074
H 4.1635219154 1.4931382553 -0.5314358314
H 3.8626078672 -1.0326085716 -0.5500699709
H 4.4228405832 -0.70038319 1.1130944568
H 1.9449546281 -1.9098781272 0.8199170489
H 0.9895601743 1.4534259923 2.3413952205
H 2.7802454993 2.7775954044 1.1735535976
H 3.7495386334 1.6698057208 2.1853008298

