# b3lyp 6-31G(2df,p) opt Freq 

 titel

0 1
C 0.1329703317 0.8960118706 -0.1596811485
C 1.4896689296 0.263365485 -0.0486510777
C 2.4680132868 -0.015821911 -1.1940539023
C 3.3696274263 -0.3978177633 0.0413899122
C 2.6903289395 -1.6598030414 0.5355386322
O 1.3381370029 -1.1064651081 0.5045313049
O 4.6658546856 0.1754897909 0.1179489755
C 4.0127533327 1.4451088551 0.4829700553
C 2.6770045136 0.7195353242 0.8407984675
H -0.347480327 0.9430599867 0.8223608683
H 0.2196481053 1.912247609 -0.5543971894
H -0.5095493782 0.3145350778 -0.8277094723
H 2.1883311906 -0.8036475436 -1.8953294652
H 2.8268613953 0.8684917169 -1.7191399529
H 2.7505787759 -2.5317350798 -0.1243151167
H 2.9627793865 -1.9425893903 1.5569238048
H 4.5157115658 1.8983211693 1.3401025285
H 4.0047309094 2.1471807938 -0.3558689942
H 2.5297568977 0.592890438 1.9139710397

