# b3lyp 6-31G(2df,p) opt Freq 

 titel

0 1
C -3.7420928594 3.0049752593 -0.7329213291
C -3.0183981229 2.0647317847 -0.5488566254
C -2.1678186826 0.9017409494 -0.3322580743
O -0.8585082167 1.3144764633 0.0051354383
C 0.0098512259 0.2220800102 0.2293474305
C 1.3934238835 0.7742469003 0.5537603464
C 2.3815770033 -0.3256521125 0.8508119822
C 3.7835704186 -0.2592352882 0.4230459388
O 2.8477840857 -1.0859289222 -0.2703274087
H -4.3767566791 3.8407698826 -0.8951406875
H -2.5944902906 0.2754260424 0.4704997772
H -2.1539128943 0.2776491915 -1.2424541028
H -0.3632884186 -0.4002509145 1.0619576413
H 0.0628311955 -0.4241330883 -0.6616265979
H 1.7474119154 1.3710196674 -0.2928566788
H 1.315952828 1.443170321 1.4192775081
H 2.1531119729 -0.9385199056 1.7256044803
H 4.1333500951 0.6136162177 -0.1268837819
H 4.5495637399 -0.7895133484 0.9872093232

