# b3lyp 6-31G(2df,p) opt Freq 

 titel

0 1
O -2.5684607641 1.7766699621 -1.3962593331
C -2.5138548971 1.9255169658 0.0026121027
C -2.8853206857 3.2881076471 0.6853114888
C -1.5540047134 3.2277320206 1.4419188141
C -0.431825609 3.2387488507 0.4463810416
C -1.1533489764 1.9374549314 0.7098009638
C -0.4309662003 0.7016961682 1.1877572705
C 0.2344958294 -0.0296726199 0.0334881743
O 1.3679719615 -0.435213741 0.0447777832
H -1.9701176921 2.4199103143 -1.7913795193
H -3.1421482859 1.1219036994 0.3982401193
H -2.9967987792 4.1402491898 0.0062255315
H -3.7772897987 3.2195239904 1.3109338994
H -1.4047347377 3.4742725859 2.4856295634
H -0.5408709935 3.7823319032 -0.4913518451
H 0.5727176693 3.2824619117 0.8553861586
H 0.3323727691 0.9307772284 1.9377944777
H -1.1519146082 0.0071192984 1.6452201029
H -0.418560288 -0.1627384166 -0.8583929742

