# b3lyp 6-31G(2df,p) opt Freq 

 titel

0 1
C 1.3020442832 1.3939022574 0.0072015395
C 1.9656189375 0.0182080326 -0.0572397443
C 1.5375746987 -0.9274348416 1.1191825232
C 0.8766283069 -2.0994747626 0.3489864834
O 0.2897506102 -1.437305053 -0.7739379113
C 1.4781185228 -0.8207717147 -1.2750945409
C 2.4416616362 -2.0097003327 -1.3979664553
O 1.7959690909 -3.2581184948 -1.6508860529
C 2.0312292053 -2.8822354345 -0.2949496067
H 1.5642849867 1.916090157 0.9331924459
H 1.611154498 2.0260708258 -0.8322186964
H 0.2126573405 1.291469137 -0.0265838467
H 3.054540659 0.1371961576 -0.0833273626
H 2.3825109589 -1.2498669396 1.7346217633
H 0.8110799953 -0.4370774688 1.7721721338
H 0.1170061526 -2.6718568642 0.8802590939
H 1.2500312658 -0.2631000271 -2.1836220121
H 3.4623152975 -1.8945166834 -1.749039133
H 2.7054780742 -3.5020701106 0.287763399

