# b3lyp 6-31G(2df,p) opt Freq 

 titel

0 1
C -0.1130206986 0.5450288802 0.4639839028
C 1.2144622477 -0.0736189157 0.0339541304
C 1.6342126212 -1.3401857201 0.8107051943
C 2.2250220164 -2.245853222 -0.2655861614
C 1.2553246476 -2.91583554 -1.2219126712
C 1.8904586606 -1.6016572725 -1.5794436545
O 1.1052927847 -0.4536109981 -1.3536099914
C 2.2994561248 1.0114801121 0.087352249
O 3.1572182449 1.1051344797 0.9254102268
H -0.0782942121 0.8321966682 1.51907839
H -0.3419701494 1.4340333142 -0.1319107522
H -0.9183309819 -0.1801975096 0.3175472366
H 2.3741086938 -1.0751039601 1.5691598134
H 0.7739983947 -1.7945265918 1.3122810146
H 3.1899594449 -2.7059674329 -0.0919470445
H 1.5971795151 -3.8044404665 -1.7423186846
H 0.1981054109 -2.9053177708 -0.9766816017
H 2.5861712062 -1.5098198214 -2.4067795542
H 2.2225449986 1.7274177671 -0.7616095118

