# b3lyp 6-31G(2df,p) opt Freq 

 titel

0 1
C 1.7962542346 2.5941230944 0.8417821628
C 2.5071205296 1.9850732332 2.0798674073
C 1.2033015262 1.13271537 2.336034552
C 1.0892776071 1.2515813714 0.8084519471
O 0.3315159646 0.7459793746 -0.2736787638
C 1.600230292 0.1255106677 0.0463140445
C 2.9924442128 0.3140107408 -0.5088126938
O 3.7964670165 0.2070334267 0.6754474888
C 3.8091249365 1.259866105 1.6477649955
H 1.1054001342 3.3959979297 1.119468681
H 2.4025960147 2.9175204862 -0.0062421527
H 2.77882836 2.676110641 2.8830338006
H 1.3003746921 0.1308765816 2.7578251405
H 0.4788279185 1.7193910637 2.9091470752
H 1.4718546235 -0.8626106334 0.4874239536
H 3.329188468 -0.5008991966 -1.1548799248
H 3.1311996281 1.2614835818 -1.0421651191
H 4.2719897398 0.7916258359 2.522840337
H 4.4906181112 2.0543720465 1.3020398284

