# b3lyp 6-31G(2df,p) opt Freq 

 titel

0 1
C 1.6526881403 -0.3544580159 0.0830114557
O 0.2485397163 -0.2132752678 0.0757293792
C -0.2382321697 0.5441547256 1.1536206606
C -0.2435842857 2.0859728106 1.0261355538
C -1.5524999656 2.1861103174 1.8625666327
O -2.2614598872 3.0076601204 0.8933913806
C -1.5005152182 2.0523471864 0.0808244702
C -1.6041487434 2.1147631586 -1.4071224672
C -1.7348643226 0.8559286442 1.0744602846
H 2.0053132053 -0.8349680894 1.0088151299
H 1.9208300219 -0.9872059291 -0.7662553427
H 2.1655230593 0.6135036581 -0.0190877237
H 0.1316510447 0.1431921693 2.1092530922
H 0.5727333804 2.8077394734 1.0042516172
H -1.6871226843 2.3898655891 2.9234119785
H -0.9874148934 1.3268652354 -1.8460095358
H -2.6420187318 1.9727207678 -1.7240660874
H -1.2610590376 3.0866617962 -1.7755463166
H -2.5904670289 0.1821429797 1.1025645281

