# b3lyp 6-31G(2df,p) opt Freq 

 titel

0 1
C 0.9474133102 -0.4724695215 -1.0452468645
C 0.9830939409 0.2576285268 0.279656659
O 1.798162273 1.4576600895 0.2529194583
C 2.4731308497 1.0885074214 1.4632537976
C 3.8316015616 0.3972123461 1.2258799134
C 3.124799135 -0.9930741074 1.2159003495
C 1.7588407212 -0.3196185227 1.4934642392
C 0.9667941018 -0.7783336075 2.6705067785
O 1.3152076393 -1.6337933631 3.4473597985
H 0.3420351697 -1.3816776389 -0.9649869533
H 0.4964118536 0.1715727546 -1.8065732198
H 1.9497914659 -0.7447350387 -1.3848395387
H -0.0426841936 0.5220937637 0.5822991756
H 2.3833102888 1.8461388934 2.2468012825
H 4.3084072367 0.7094486872 0.2946755133
H 4.5373631552 0.5238202966 2.0506855215
H 3.1916341642 -1.5661184126 0.2895452286
H 3.41144815 -1.6399925994 2.0463036556
H 0.0010015867 -0.2385884074 2.8122490253

