# b3lyp 6-31G(2df,p) opt Freq 

 titel

0 1
O 0.4070960802 0.4035151031 0.8874515455
C -0.6327076856 1.3071085344 0.7057868644
C -1.9369216849 1.044779993 -0.0888133142
C -2.3152013484 2.3806548796 0.5896543717
O -1.4354351434 3.320186706 -0.0530601971
C -0.1536764528 2.7003937464 0.2210666313
C 0.4093786305 3.3778587469 1.4701794498
C -0.6803082482 3.0441086074 2.5345633159
C -1.4993202557 1.9420777961 1.8512236867
H 0.0552424374 -0.3891109092 1.3045997707
H -1.9051263397 1.0316862279 -1.18027416
H -2.4941912932 0.1888584925 0.302405084
H -3.3292089825 2.7732682518 0.6322644089
H 0.4777659465 2.7137185065 -0.6692397604
H 1.3780009473 2.9411865119 1.734534935
H 0.5441530021 4.450581401 1.3144404243
H -0.24169171 2.6923336235 3.4723333995
H -1.2974136802 3.9156049302 2.7711105756
H -2.0306120295 1.2383043407 2.4940933284

