# b3lyp 6-31G(2df,p) opt Freq 

 titel

0 1
C -0.1067199327 -0.0671916641 -0.0374612592
C 1.4156310531 0.0535774297 0.0416868759
C 2.2107258718 -0.6858085323 -1.077374729
C 2.7502471826 0.6672597823 -1.6055641772
C 3.9905124734 1.2063340397 -0.8627664779
O 3.1679703846 1.8671642676 0.1356344003
C 1.9619545394 1.4248230314 -0.5049654249
C 1.8928359066 -0.2081401654 1.4527235028
O 2.7154402959 -1.0305657855 1.7638549281
H -0.5942090277 0.5487495123 0.7271938202
H -0.4698177905 0.2670631025 -1.0150338085
H -0.4283342488 -1.1045350725 0.1021672653
H 2.9622226919 -1.3860870994 -0.7066551745
H 1.5609911764 -1.203025922 -1.7872233622
H 2.6709942744 0.8782039252 -2.6706521857
H 4.6530631187 0.4542526917 -0.4191982043
H 4.5876133565 1.9371243465 -1.420526392
H 1.2377409603 2.2314344395 -0.6526532256
H 1.409721184 0.4391655429 2.2204395284

