# b3lyp 6-31G(2df,p) opt Freq 

 titel

0 1
C -0.0207909839 0.512511181 -0.0123988791
C 1.2064689186 0.0305760148 -0.776485261
O 2.5203169303 0.4926078235 -0.5418404824
C 2.9045833492 -0.2484671434 0.6243192007
C 3.273230253 -1.727561586 0.3823808647
C 2.0810654165 -2.6296336927 -0.0599840815
C 0.6909799216 -2.1750828552 0.4830346102
C 0.7709250541 -0.6729976856 0.4717924956
O 1.7431125158 -0.2447965936 1.4304003403
H 0.0420245397 1.3956768511 0.6125231979
H -0.9695251966 0.3597072471 -0.518711433
H 1.0525635875 -0.4056563841 -1.7578319279
H 3.7070658502 0.3042791306 1.1194165093
H 4.0894660894 -1.8034537018 -0.3435610199
H 3.666225973 -2.0829379743 1.3422014513
H 2.0255723383 -2.6186909119 -1.1534866359
H 2.288988875 -3.6662652354 0.2243138154
H -0.108210766 -2.5612525057 -0.1576566631
H 0.5075570742 -2.5362552284 1.5002451882

