# b3lyp 6-31G(2df,p) opt Freq 

 titel

0 1
O -0.5076464473 0.3194260986 0.2737139065
C -1.8772209172 0.194534982 0.5094414932
C -2.782739498 0.7358460768 -0.5477281637
C -2.7039860419 -0.7680823146 -0.3313536962
C -3.8926052024 -1.4685795565 0.2971039251
O -3.5678039727 -2.7998680049 0.6620881366
C -3.2356420346 -3.6015766394 -0.4566589821
C -2.2866992236 -2.9256501639 -1.4096064134
C -2.0196579021 -1.6215761815 -1.3306738962
H -0.0796809746 -0.4813086699 0.5966251281
H -2.181792063 0.3156084765 1.550406175
H -3.6881795106 1.2526276707 -0.2457115761
H -2.3059737516 1.1323725018 -1.4377365006
H -4.214119167 -0.9665933032 1.2153096713
H -4.7420054452 -1.4609823258 -0.4074034255
H -2.7831081597 -4.513383168 -0.0488981564
H -4.1504579146 -3.91619615 -0.9937846601
H -1.8244634991 -3.5509014089 -2.1684371611
H -1.3049811648 -1.1532079498 -2.0000990944

