# b3lyp 6-31G(2df,p) opt Freq 

 titel

0 1
C -0.9305867343 3.7660368618 -0.6747423692
C -2.3277038563 3.1383213373 -0.7153450399
O -3.2542357594 3.8790770644 0.0626707096
C -2.3076113524 1.6936869758 -0.2463168523
O -1.9741313164 1.6313208963 1.1126362726
C -1.8838592916 0.586835035 -1.1603660265
C -3.3611837417 0.723183665 -0.7692362266
C -3.9298151303 -0.1952226562 0.1686018309
C -4.3663059102 -0.9171508488 1.0292309672
H -0.5164897158 3.707179728 0.3363189896
H -0.2444206126 3.2510415387 -1.3550257724
H -0.99205774 4.8175094511 -0.9662083565
H -2.7090873713 3.1652831128 -1.7430639787
H -3.0485427354 3.66312163 0.9813114917
H -2.5591448451 0.9885069964 1.538080867
H -1.6246701568 0.8192303949 -2.1879735783
H -1.3365391679 -0.2379479496 -0.7194118483
H -4.0383254097 1.1072900064 -1.5257585346
H -4.7720888626 -1.5840808392 1.7494123745

