# b3lyp 6-31G(2df,p) opt Freq 

 titel

0 1
C -0.9540019953 1.9418901234 1.3086618031
C -1.0324077195 1.0254910846 0.0888934176
C -2.1963686559 -0.0180788776 0.0217932128
C -2.9259446198 -0.1526198759 -1.32181929
C -1.9392956176 -0.9801990884 -2.1642160351
O -1.3165635085 -1.8795980527 -1.2476465456
C -1.1744009676 -1.2082815519 -0.0136363978
C -0.0313305145 -0.1486231841 0.0747247335
O 1.1602172717 -0.2146943883 0.1530436988
H -1.053975057 1.3728070901 2.2391020345
H 0.0089287166 2.460051464 1.3359392546
H -1.7491496083 2.6937066177 1.2873093733
H -0.9481101151 1.6206692663 -0.8301557401
H -2.8673090182 0.0140758726 0.8808079041
H -3.8597080113 -0.7072807411 -1.1891484465
H -3.1633749126 0.8108112798 -1.7816355349
H -2.4147048644 -1.5803813868 -2.9434757281
H -1.1880441211 -0.3319331947 -2.6418249054
H -1.1729389516 -1.950492357 0.7895061612

