# b3lyp 6-31G(2df,p) opt Freq 

 titel

0 1
C -2.7429063685 2.6273606188 -0.9691047747
C -1.9600498983 1.3120691781 -0.9952134797
C -2.9026992385 0.0945810108 -0.8964715944
C -2.2157499872 -1.2095957014 -0.5301057677
O -1.8584356214 -1.3583454719 0.8392617996
C -0.7905621148 -1.2548884275 -0.114506481
C -0.0189277981 0.0335316861 -0.0730768051
O 1.1801219468 0.0502234794 -0.2335634974
C -0.8742842318 1.273060798 0.1064398304
H -3.2564571033 2.7569350105 -0.009450588
H -2.0790319629 3.4854184761 -1.1134285212
H -3.500499621 2.6517613917 -1.7597058316
H -1.437843729 1.2475283021 -1.9601030284
H -3.6706736313 0.280630451 -0.1341286195
H -3.4332150186 -0.033594643 -1.8465503643
H -2.6250533018 -2.1171660736 -0.9745286433
H -0.195573271 -2.1537961419 -0.2621625647
H -1.3520034472 1.2452973264 1.0931350037
H -0.2244211922 2.1498489603 0.0539447572

