# b3lyp 6-31G(2df,p) opt Freq 

 titel

0 1
O 1.3738650174 -0.4201712358 -0.255116028
C 0.2208194873 -0.1315294034 -0.0648372438
C -0.2878709633 0.6520002595 1.1258154986
C -0.9441788489 1.9586182762 0.6778209382
C -1.419884867 3.0499905166 1.6723695728
C -0.17647589 3.3824398217 2.5237355869
C 0.8444065867 3.5021134069 1.3468297137
C -0.1423671876 3.2006097855 0.2003837925
O -1.2987911752 4.0119991171 0.5793191422
H -0.570327979 -0.4217088717 -0.7957797811
H -1.0457352431 0.0385673179 1.634033125
H 0.5443443073 0.8096204896 1.8149039954
H -1.7486216931 1.7683903327 -0.0378040756
H -2.4008615109 3.0328050458 2.1477933506
H -0.3143456985 4.3236253508 3.0589201815
H 0.0740123883 2.6050731138 3.2505795629
H 1.2570172911 4.5076647386 1.2487482282
H 1.6727439271 2.7912015149 1.4016893821
H 0.1833025812 3.3411068334 -0.8300848123

