# b3lyp 6-31G(2df,p) opt Freq 

 titel

0 1
C 1.4409260967 1.4029532474 0.4016942547
C 1.0063987454 -0.0498132668 0.179029085
C 1.6030053742 -0.6667056915 -1.0790545783
C 1.0275205094 -0.2758521098 -2.4765133257
O -0.4035763087 -0.5488154261 -2.3686903669
C -0.0432680529 -1.9297210601 -2.3676677551
C 1.3043476159 -1.7364397124 -2.9869216199
C 1.2350590839 -2.0922112448 -1.5127748774
O 1.6290934237 -3.2887453149 -0.9547712023
H 1.000633562 1.814291739 1.3150941352
H 2.5301568322 1.4838998697 0.4909997344
H 1.1282575862 2.0416354338 -0.4314911026
H 1.3029640529 -0.6571529229 1.0446685959
H -0.0850990463 -0.1062442968 0.1092193147
H 2.6942179613 -0.5609723937 -1.1051491655
H 1.2564896535 0.6637753348 -2.9735823114
H -0.8048034285 -2.6884171628 -2.4945974385
H 1.8177189451 -2.1654322844 -3.8352752842
H 1.0187714541 -3.5103471678 -0.2427348419

