# b3lyp 6-31G(2df,p) opt Freq 

 titel

0 1
C -0.0507232973 0.1853683326 -0.2363912375
C 1.4314397313 -0.1117507456 -0.0180880377
C 1.8071696469 -0.9519340723 1.1952788563
C 1.5252927245 -2.445987911 1.1388128271
C 2.8664895117 -1.9017263408 0.7248910571
O 3.1137270556 -1.711302545 -0.6486394591
C 2.0548247185 -0.9364107214 -1.1908982266
C 2.6051182549 -0.0306603356 -2.2731905528
O 1.9173023204 0.5318406999 -3.0855058358
H -0.4458788937 0.8189791695 0.563270319
H -0.2001456783 0.7023255178 -1.1892277793
H -0.6373315503 -0.7391853762 -0.2557248949
H 1.9737164225 0.8399569987 0.0671777658
H 1.8657652413 -0.4607750868 2.1596281827
H 1.4743471842 -2.9715054015 2.0861579021
H 0.8593417439 -2.8374075199 0.3772197665
H 3.7710961023 -2.1411844497 1.2701294522
H 1.2820215927 -1.5782512058 -1.6372342311
H 3.7090494687 0.1009372232 -2.226535374

