# b3lyp 6-31G(2df,p) opt Freq 

 titel

0 1
C 2.2438461424 0.2336841291 0.7748449824
C 1.4289947965 1.2781667165 -0.008940592
O 0.1810637817 0.683156134 0.5760266478
C 1.0130876558 -0.4542770273 0.1231448538
C 0.6785474466 -1.9136968263 0.0359355236
O 1.6925142 -2.4827489121 -0.7971071683
C 1.8081108747 -1.9022696065 -2.0953651147
C 2.2821799782 -0.4288181475 -2.072113649
C 1.2600597306 0.2887546784 -1.200986521
H 3.243424162 -0.0288011936 0.4272916922
H 2.1861057454 0.3312495133 1.8594174934
H 1.4950158597 2.3665244891 0.0010711599
H 0.7304074053 -2.4465769802 0.9890511685
H -0.3236309852 -2.0536689833 -0.3998283184
H 2.5218964491 -2.5355545538 -2.629167209
H 0.8401007585 -1.9643338493 -2.6204504723
H 3.2971096817 -0.379735291 -1.6679368904
H 2.3156258117 -0.036765744 -3.0944885231
H 0.3235664954 0.4724390546 -1.7362381633

