# b3lyp 6-31G(2df,p) opt Freq 

 titel

0 1
C -0.2688141194 2.0870126249 -1.4226707544
C -0.0324214403 0.6495383021 -1.7731401292
O 0.1394460573 0.4266004311 -3.1856410635
C -0.1238880464 -0.9892338379 -3.189299951
C -1.6062408206 -1.0440291927 -2.7573651693
C -1.0184971608 -0.561369743 -1.4234797272
C 0.3069067388 -1.3696645579 -1.7186863631
C 1.1520278932 -0.1923738244 -1.2078900397
O 1.3344151286 -0.1488997589 0.1912953399
H -0.2266491296 2.2156256574 -0.337258891
H 0.5059074144 2.7167651485 -1.8719689738
H -1.2428398611 2.4307820744 -1.7839718192
H 0.2739112 -1.4596874625 -4.0869429667
H -2.3049846189 -0.4107546021 -3.3097863824
H -1.9861056944 -2.0660774149 -2.6734308802
H -1.5619533004 -0.5538512531 -0.4794685687
H 0.4716530503 -2.413736919 -1.4568740536
H 2.1255234557 0.0059216992 -1.6633342415
H 0.5665361637 -0.5468354614 0.6151939545

