# b3lyp 6-31G(2df,p) opt Freq 

 titel

0 1
C -1.3378138256 -0.536510926 2.5064919475
C -1.981262578 -0.7573452478 1.1506020117
C -3.2407810609 -1.6067895794 1.1982199089
C -1.9780176105 0.2911046543 0.0865397528
O -0.7980617318 1.1312258074 0.1962911554
C 0.0085105901 0.0330592311 -0.0849232522
O 1.1846416062 0.0276648109 -0.2548567171
C -1.137020662 -0.9488347966 -0.1465444596
C -1.175928847 -2.1205646785 -1.0853626198
H -0.9972571405 -1.4880178896 2.9283081844
H -0.4842617353 0.1408772751 2.453904119
H -2.0651953142 -0.1049169233 3.2031305141
H -3.9387026469 -1.1900651137 1.9318139497
H -3.7564456806 -1.6456151554 0.2344903182
H -3.0138168659 -2.6344905271 1.5013228119
H -2.8227589863 0.7031889548 -0.449758657
H -0.3898126684 -2.836472854 -0.8232700163
H -2.131955645 -2.6466972094 -1.0469172631
H -1.0023074374 -1.8052541928 -2.1191720185

