# b3lyp 6-31G(2df,p) opt Freq 

 titel

0 1
C -4.2524832118 -1.7109437671 -1.9095395863
C -3.297340253 -1.0794147991 -0.9226004903
C -1.7985213377 -1.2534839692 -1.0832065258
C -0.8722752936 -1.2844449756 0.1291756169
C -0.0330086799 -0.0130673628 0.1734424997
O 1.1402084016 0.0171159394 0.4545046128
C -0.7980687595 1.2665758535 -0.1823497328
O -2.1906768948 1.0502391463 -0.3418005405
C -2.4511575452 0.0888646572 -1.3268508888
H -4.4390598875 -2.7615364788 -1.6629511781
H -5.2154234292 -1.1891272736 -1.9158485516
H -3.8507642761 -1.67762049 -2.9277339749
H -3.6460754596 -1.0385643941 0.1064189716
H -1.4565805406 -1.8083797931 -1.9513955199
H -1.4541867431 -1.3258500787 1.0588555105
H -0.2017653587 -2.1459126644 0.1257229712
H -0.6737151839 1.9878725055 0.630717068
H -0.3443351474 1.7048276129 -1.0853716464
H -2.5307904601 0.4845936517 -2.340035675

