# b3lyp 6-31G(2df,p) opt Freq 

 titel

0 1
C 1.5049431792 0.1311987633 -0.1304611369
O 0.1281382435 -0.0861443981 0.1260518067
C -0.3680867478 0.6564605184 1.2069311009
C -1.8857948601 0.545469256 1.3161390164
C -2.3483495372 1.2832184505 2.5403398041
C -1.7688361675 -0.0921887135 2.7003971992
C -0.2321959029 -0.0423961785 2.6341546704
C 0.391500439 -1.4107562376 2.5193667486
O 1.44695384 -1.7184797351 3.0150898632
H 2.1377135181 -0.200389294 0.703327588
H 1.7582493283 -0.4498346735 -1.0197493245
H 1.7074199174 1.1946537301 -0.3262837842
H 0.0284505604 1.6836907447 1.1763668086
H -2.5362833023 0.303917457 0.4854575158
H -1.807145512 2.156760189 2.8976837441
H -3.4246170706 1.3484333548 2.6616258633
H -2.3395579679 -0.9074192381 3.1294529776
H 0.2863906875 0.5237142668 3.4130737764
H -0.2024113751 -2.143778352 1.9319952224

