# b3lyp 6-31G(2df,p) opt Freq 

 titel

0 1
C -0.105735454 0.1513424756 0.0081433737
C 1.3998789116 0.0342234758 0.0871800446
O 1.8105062146 -0.9801665593 1.068409744
C 2.6286703247 -1.5934695907 0.1037355354
C 3.07257469 -3.0355403746 -0.0250319548
O 4.2946773603 -2.5798525269 -0.6701316178
C 4.0890246315 -1.1997568656 -0.2649055458
C 3.5818068224 -0.2913838193 -1.4115631129
C 2.1264478415 -0.718804442 -1.0656378893
H -0.5163760599 0.4618578469 0.973815699
H -0.3888763153 0.8963474412 -0.7434920711
H -0.5554078616 -0.8082871033 -0.2640595417
H 1.8564362518 1.000756432 0.3381521749
H 3.2822819953 -3.5296232868 0.9340014912
H 2.4850211797 -3.7045160952 -0.6637855215
H 4.8595374002 -0.8470777585 0.4261651664
H 3.7931356689 0.7748523993 -1.28238636
H 3.9306342654 -0.6084227807 -2.396805819
H 1.475442273 -1.0912315781 -1.8577104153

