# b3lyp 6-31G(2df,p) opt Freq 

 titel

0 1
O 0.4520450459 -1.0943667961 0.0452409392
C 0.514507346 0.0979794566 -0.1040801402
C -0.2820668204 0.8962901123 -1.108065906
C -1.0491010894 2.0493723907 -0.4536912164
C -2.3249211653 1.7048426887 0.3328229412
C -3.117848736 3.0304330228 0.35629779
C -2.8803310492 3.6352520854 -1.0374358299
C -1.5138409007 3.1032239111 -1.4754856493
O -0.8989862594 3.4301491454 -2.4573397747
H 1.1991171967 0.7189760144 0.5236884547
H 0.4193884827 1.3366818358 -1.8314586149
H -0.9525301709 0.2223632493 -1.6494547249
H -0.3620709468 2.5952550634 0.215226965
H -2.8918869089 0.9365319394 -0.2078481402
H -2.1229117277 1.3133931297 1.3328653096
H -4.1757056855 2.8830795564 0.5845038957
H -2.7086739165 3.6928023994 1.1278040683
H -3.6160012394 3.2653480383 -1.763727722
H -2.9105590853 4.7263540673 -1.0864541853

