# b3lyp 6-31G(2df,p) opt Freq 

 titel

0 1
C 1.2077604671 3.0353260738 0.2030844053
C 1.9942724959 1.7635971474 0.0240147817
C 3.061435212 1.357589087 1.0309825785
O 3.5334879059 0.1065359289 0.4851823109
C 2.7523615596 -0.0338612027 -0.6735405791
C 2.5276227975 1.3278959054 -1.3812869259
O 1.1906947857 0.9126869352 -1.8111068166
C 1.283266016 0.4256416838 -0.4240169998
C 0.1179079234 -0.2914718081 0.1772851918
H 0.646126986 3.0278885022 1.1440494483
H 1.8636565281 3.9127757358 0.2164573523
H 0.4985142501 3.1477547158 -0.6217682924
H 3.8916327346 2.0724763796 1.0942109775
H 2.6632865728 1.1971510229 2.0410375595
H 2.9844436069 -0.9403370802 -1.2285307155
H 3.1477980973 1.8763075422 -2.0903343093
H 0.3761716345 -0.6522175615 1.1781077894
H -0.7519288983 0.3680903978 0.2592808888
H -0.1591930651 -1.1535106152 -0.437268475

