# b3lyp 6-31G(2df,p) opt Freq 

 titel

0 1
C -1.2218100503 -1.1138915985 2.5157910612
C -1.9218998796 -0.8931223282 1.1634637626
C -2.2432913694 0.6000550596 0.8968415889
C -0.9553833146 1.2024265952 0.3182068486
C -0.2197845277 0.0318726603 -0.3402169846
O 0.7782811265 0.1021461072 -1.0062764802
C -0.9714822245 -1.2663826496 -0.0073838333
C -3.1589163476 -1.7732378849 1.1001315548
O -4.2414526842 -1.4259357656 0.7032974312
H -1.0030629181 -2.1750465691 2.6778250747
H -0.2708897909 -0.5736633024 2.5606030286
H -1.8450303692 -0.7648889859 3.345412753
H -3.0620808055 0.6540404688 0.1740732613
H -2.5841796263 1.1060587352 1.8035232222
H -1.114344959 2.0081323966 -0.4030668991
H -0.2987055786 1.6079375479 1.0977220476
H -1.5401910594 -1.5432802824 -0.9053984209
H -0.2773966707 -2.0827975565 0.2045075526
H -2.9876165909 -2.8211745277 1.4416720309

