# b3lyp 6-31G(2df,p) opt Freq 

 titel

0 1
O 1.4838902064 -0.1269803189 -0.1197825535
C 0.3060739459 0.1056028799 -0.196297968
C -0.362395278 0.8852786062 -1.3031723283
C -1.1568756111 2.1086054519 -0.7415520651
O -2.5335842656 1.8651907382 -0.9918627253
C -2.601163324 1.0541307959 -2.1376720282
C -3.9512943594 0.7761700827 -2.6948580768
C -2.9914741482 1.6861195336 -3.450614234
C -1.4690918071 0.0523562978 -2.0060267956
H -0.4060961095 -0.2523947432 0.5865752897
H 0.4086799357 1.2080999575 -2.004741716
H -1.0368258222 2.2451434463 0.338334607
H -0.8201237036 3.0255739134 -1.2433604855
H -4.1513002475 -0.2129780726 -3.0928013474
H -4.7930226837 1.2442633599 -2.197278355
H -2.5429864863 1.3168051259 -4.3671105597
H -3.2104439399 2.7479103211 -3.4409982726
H -1.7846957624 -0.7812732496 -1.3664079509
H -1.1346788195 -0.3603893561 -2.9592563648

