# b3lyp 6-31G(2df,p) opt Freq 

 titel

0 1
C -2.3795690622 1.6035626774 -2.7564175004
C -0.9811027787 1.1371437729 -3.2066654206
C -0.5176338093 1.8907246294 -4.3684484885
C -0.1621490735 2.5388122661 -5.3159399787
C 0.033884348 1.2522673255 -2.0554594807
O -0.4279093805 0.4965773084 -0.9576655704
C 0.7298892965 -0.0103855214 -0.3097559366
C 1.6671707951 -0.2767177382 -1.4874745211
O 1.3025967965 0.7316193035 -2.4235165954
H -2.7187300318 1.0060783653 -1.9079310514
H -2.3575040479 2.6562384097 -2.4579642645
H -3.0947621957 1.5014169513 -3.5758282838
H -1.0235930063 0.0711837099 -3.4645386752
H 0.1653791138 3.0969171893 -6.1576376873
H 0.1638860933 2.3108158383 -1.7713128247
H 1.1534870328 0.7353086212 0.3794815844
H 0.4494260442 -0.9030942898 0.2530612718
H 2.7265025876 -0.1681019517 -1.236572681
H 1.5021341081 -1.2758306572 -1.9135492462

