# b3lyp 6-31G(2df,p) opt Freq 

 titel

0 1
C 0.8332253346 0.9636192399 0.2075795616
C 0.9742887657 -0.5464519126 -0.0385789409
C 1.4949924755 -1.2542568057 1.1897351586
C 2.4499151848 -2.1783760785 1.1456402605
C 3.0353723535 -2.6472367094 -0.1547461956
O 2.2900235522 -2.2133137943 -1.2766678994
C 1.9236674944 -0.8470778942 -1.2232686011
C 1.2828646264 -0.5515245953 -2.5719442452
O 0.900583382 0.5330652744 -2.927287353
H 0.1243638966 1.1515693181 1.0202987506
H 1.7961423109 1.3999221178 0.4959243006
H 0.48180776 1.4754642872 -0.6901758141
H -0.0198842787 -0.9481745746 -0.2856341023
H 1.0672018231 -0.9481093752 2.1418466582
H 2.8393281535 -2.6343524473 2.0517128845
H 4.087815546 -2.3197459413 -0.2415553913
H 3.0412048621 -3.7424393804 -0.2034146164
H 2.8183306801 -0.2072614214 -1.1219029926
H 1.1892266772 -1.454540137 -3.2144225327

