# b3lyp 6-31G(2df,p) opt Freq 

 titel

0 1
O 0.8957259245 -2.7091532476 -2.3123810711
C 0.3944912647 -1.9010244922 -3.3477053652
C 0.5589323499 -2.4247475674 -4.7963926111
C 0.2688325709 -0.9570283652 -5.232897343
C 1.2913806456 -0.8392046182 -4.0646565656
C 2.070722534 -2.0066214212 -4.7640131422
C 3.1396114003 -2.8205662796 -4.085933586
C 4.555472883 -2.4877195102 -4.3063514407
O 3.9595181753 -3.5871316523 -4.9873855198
H 0.8313448491 -2.2156347375 -1.4889506338
H -0.6160391573 -1.5470322542 -3.1018644203
H 0.1334449539 -3.3358081425 -5.2179242036
H 0.632186752 -0.6698321871 -6.2205301108
H -0.7393923012 -0.5779274535 -5.0475138218
H 1.708270301 0.0780445273 -3.6441534731
H 2.4551646897 -1.7305948039 -5.7527328065
H 2.8736042925 -3.3448834071 -3.1761415497
H 4.8149359921 -1.6340905294 -4.9330781186
H 5.2960378602 -2.7450247182 -3.549624257

