# b3lyp 6-31G(2df,p) opt Freq 

 titel

0 1
C 0.4958721403 0.5385015486 -2.1030303718
C 1.755152926 0.4156009738 -1.2811511272
C 2.3171271558 1.6436550832 -0.5529545044
C 3.5786762197 1.047653802 0.1370200515
C 3.471103191 -0.3867179643 -0.340249497
O 4.4500245601 -1.2614593509 0.0790081847
C 2.9533311925 -0.423992215 -1.8181161202
O 2.2495894221 -1.6925156521 -1.5388157036
C 1.9695501892 -0.831589813 -0.3714718761
H -0.3464566621 0.870778998 -1.4859777571
H 0.6214863537 1.2698291414 -2.909301326
H 0.2408709943 -0.4272942877 -2.5473021643
H 2.5619709939 2.4482405255 -1.2537022341
H 1.5969509879 2.0483582039 0.1653169077
H 4.5113936328 1.5131485867 -0.1936413847
H 3.5445276242 1.1125803328 1.2281671027
H 4.2220086918 -2.1154294821 -0.3166324637
H 3.4992464153 -0.3442909002 -2.7602763502
H 1.3370865419 -1.2400809107 0.4192019839

