# b3lyp 6-31G(2df,p) opt Freq 

 titel

0 1
C 1.4886037937 -0.0773225669 -0.0859858414
O 0.0920018754 -0.1579635535 0.1208500279
C -0.3359882488 0.5678094514 1.2254077184
C -1.7555892529 1.0427381493 1.1870003222
C -2.4643122218 1.2501416608 2.5265269858
C -1.6973587557 2.3942976098 3.1836503734
O -1.8147948253 3.6367669057 2.4840037859
C -0.6152692354 2.8661703682 2.3038074553
C -0.6158025983 2.0470299774 1.0506208826
H 2.048338715 -0.4792845154 0.7720890044
H 1.717983376 -0.6767231793 -0.9698722601
H 1.8146636772 0.9586410308 -0.2571347295
H 0.0806372774 0.2312563406 2.1788426122
H -2.329564957 0.767393412 0.3108382958
H -3.5143815742 1.5273771352 2.3873572632
H -2.4401650881 0.3519556181 3.1552128844
H -1.648421677 2.4752057589 4.2669135699
H 0.2933551101 3.3290038255 2.6827147878
H -0.3884859901 2.5042974313 0.0940261319

