# b3lyp 6-31G(2df,p) opt Freq 

 titel

0 1
C 1.4773949493 0.1414277288 0.1947905643
C 0.0258566222 0.0694913759 0.1080624067
C -1.1757639305 0.0159139934 0.0486747607
C -2.6476882495 -0.0479103144 -0.0190394409
C -3.1677672665 0.9187634382 -1.0915069469
O -3.2424033368 0.3693032068 1.2043475828
C -3.0870828919 -1.4962690655 -0.3501289023
C -2.8018898118 -2.5089049549 0.7332468696
O -2.4890885906 -2.2454659365 1.8704857968
H 1.8097367358 0.1381072766 1.2386519895
H 1.9494150977 -0.711508527 -0.3052350304
H 1.8604703383 1.054915887 -0.2730889348
H -2.8542858731 1.9355153589 -0.8462658749
H -2.7767875818 0.6571405698 -2.0780460062
H -4.2608941421 0.8859752144 -1.1144544147
H -2.9211548073 -0.2470514421 1.8782879156
H -4.1747687632 -1.5170116183 -0.5169119675
H -2.6277190851 -1.8482223637 -1.2819697951
H -2.9226254031 -3.5696064874 0.4202888576

