# b3lyp 6-31G(2df,p) opt Freq 

 titel

0 1
O 1.502561202 0.0777503572 -0.368516995
C 0.132960404 0.2752121224 -0.0365304262
C -0.7748825068 0.3635220152 -1.2428360195
C -2.1378651922 -0.301609201 -1.2035782289
C -1.0464114013 -0.8646175376 -2.0614527267
C -0.9793204902 -0.974922281 -3.6076413673
C -0.2620884215 -2.3230396254 -3.4059496857
O -1.1298235597 -3.1679436613 -2.6438836047
C -0.3314721718 -2.2005675385 -1.9413640576
H 1.785888984 0.8220575992 -0.9089552903
H -0.1430871234 -0.5909726377 0.5737952765
H 0.0029862896 1.1675042672 0.5956371067
H -0.7119068204 1.3012828296 -1.7936402569
H -2.4155685191 -0.837719192 -0.3010514706
H -2.9658313418 0.1964522102 -1.6971896483
H -1.9297456825 -1.0323146638 -4.1447441314
H -0.3413147143 -0.2101502149 -4.0600202432
H 0.4734491632 -2.8031963216 -4.040283619
H 0.3336739023 -2.559886586 -1.166414192

