# b3lyp 6-31G(2df,p) opt Freq 

 titel

0 1
O 0.4383840718 0.0237987775 0.8842301317
C -0.9066693523 0.4828577629 0.9491962176
C -1.4809698837 0.2932909406 2.360047277
O -1.0525415259 -0.7313733671 3.1679138667
C -2.7973318352 0.9536267402 2.5385531655
C -1.5504780217 1.8268252651 2.55756013
C -1.058964331 2.0074502594 1.1332850597
C -1.4794009609 3.0260476648 0.1156762013
C -0.05953221 3.0174695276 0.6425867092
H 0.9938801065 0.7162778552 1.2611887193
H -1.4393133725 0.0031869896 0.120827786
H -0.1638629996 -0.9486932286 2.8511303511
H -3.5194723044 1.0304205242 1.727074706
H -3.2373990114 0.7833186896 3.5169244124
H -1.3000229547 2.4542013151 3.4047664342
H -1.6379010507 2.6990857303 -0.9067816005
H -2.1377389416 3.8260766312 0.4384246538
H 0.7256870467 2.6809939093 -0.0283341408
H 0.2403247705 3.8100620632 1.3206087896

