# b3lyp 6-31G(2df,p) opt Freq 

 titel

0 1
C 1.531640076 -0.0256006933 0.0913573246
C 0.0766746042 0.0012580461 0.092653713
C -1.1270881241 0.0459795594 0.0996623106
C -2.587938716 0.0286678188 0.0826200519
O -3.130810646 -1.0200318926 0.8861559917
C -3.1359819813 -0.0902383628 -1.3477236531
C -4.653912826 0.1222393111 -1.5120105229
C -4.2415746201 1.3089140229 -2.4064856144
O -2.83862036 1.0695239567 -2.1519507644
H 1.9212957516 -0.4645025973 1.0164052079
H 1.9205051147 -0.6131742228 -0.7473496672
H 1.9417691897 0.986580351 0.0062897548
H -2.9758981736 0.9606548993 0.5123977985
H -2.5866639086 -1.8014285943 0.7400989794
H -2.7419676154 -1.0087827997 -1.8052132462
H -5.1952639923 -0.6837707957 -2.0078544811
H -5.1717395428 0.3849569997 -0.5880858656
H -4.4836572044 1.2020646228 -3.4709741051
H -4.5529060856 2.3053145605 -2.0715216226

