# b3lyp 6-31G(2df,p) opt Freq 

 titel

0 1
C 1.8418191832 -0.5501185928 -1.2001641525
C 1.4139874372 0.0806147555 0.1154764752
C 1.9828462884 1.4882352605 0.5017364798
C 2.4695089491 0.9241750158 1.864775685
C 3.8771424465 0.3151169265 1.8201481065
O 3.3827076631 -0.9414133719 1.3011012279
C 2.0072867283 -0.4960652318 1.4264069795
C 4.5594611075 0.0971736485 3.1580123428
O 4.5641996034 0.9020901384 4.0527094345
H 1.4181444197 -1.5535931363 -1.3161094263
H 1.5072827062 0.055291302 -2.049145079
H 2.9304879252 -0.6415226998 -1.2487089136
H 0.3209617374 0.0864620205 0.1946318454
H 2.7852027589 1.8582936325 -0.1439959
H 1.2245607742 2.2694645512 0.5844129723
H 2.1810755244 1.4294224438 2.784012132
H 4.5954844171 0.7966112315 1.1378130739
H 1.4114620142 -1.1966010233 2.0174123691
H 5.0570154759 -0.8953140808 3.2432029675

