# b3lyp 6-31G(2df,p) opt Freq 

 titel

0 1
C -0.7582133037 -0.384339317 -1.0631672208
O -0.8322292718 -1.2713132453 0.0472627192
C 0.2751718128 -1.1208558194 0.9420951354
C -0.2714677226 -0.7495257552 2.3361345557
C -0.5221404388 0.7700983995 2.4578898727
O -0.6803555927 1.3949533671 1.1821799151
C 0.4843824606 1.3097688989 0.4193607924
C 0.4506311151 0.5057194895 -0.8520131165
C 1.168482766 -0.0308763595 0.3632995544
H -0.6505153366 -0.9563151652 -1.995684664
H -1.6942293817 0.1856269046 -1.1131591117
H 0.8127048722 -2.0758705775 0.9973462248
H -1.1957504524 -1.3141031587 2.484316732
H 0.4356091975 -1.0696562808 3.1097304883
H -1.4425969381 0.9819030345 3.0067398264
H 0.3067610159 1.2526907373 2.9960293356
H 1.0989514685 2.2093724264 0.4373963089
H 0.9917015157 0.8714563067 -1.7168366538
H 2.2451915143 -0.124720816 0.429723786

