# b3lyp 6-31G(2df,p) opt Freq 

 titel

0 1
C 1.486504071 -0.1642624625 0.1627774896
O 0.0806227963 -0.021093767 0.0348310834
C -0.4884555252 0.703043636 1.0554627362
C -0.8012683021 0.1122563488 2.3989789001
C -1.9382406277 0.6138262809 1.5211495104
C -1.9817344711 2.1202607694 1.5824894836
C -3.0986613954 3.0258086545 1.3282686968
O -2.5522135035 2.8653920846 2.6471960222
C -0.5154447858 2.2438348168 1.1147622424
H 1.7539012228 -0.6691672369 1.101191288
H 1.8223042805 -0.7698656675 -0.6815852888
H 1.9979144699 0.8080325703 0.1298328903
H -0.7277934359 -0.9699557931 2.4370322767
H -0.5532413262 0.6227443337 3.3259170946
H -2.7331488124 -0.0417919513 1.1884170659
H -2.916560912 3.9926589147 0.8596205772
H -4.1025495766 2.6254207307 1.1887157506
H -0.4306348724 2.6999424082 0.1249585508
H 0.1762721957 2.7301802499 1.80881719

