# b3lyp 6-31G(2df,p) opt Freq 

 titel

0 1
O -2.5890254697 1.4000431798 1.119803898
C -1.8043026419 0.8450722324 0.0689774059
C -2.340882924 -0.5153768416 -0.3411383938
C -1.7721315834 -1.459049592 -1.0949692213
C -0.4414725692 -1.4623040704 -1.8081928952
C 0.2920576398 -0.1136014639 -1.8725946876
C 0.6939671382 0.3544926377 -0.4920636012
O 0.5530505977 1.7443215361 -0.1735413984
C -0.3284331633 0.8078862374 0.4525252291
H -2.5772839479 0.7772749788 1.8553054082
H -1.9141851006 1.5600882246 -0.7538698928
H -3.3459662309 -0.6981120317 0.0350576284
H -2.3517633859 -2.3677128709 -1.2531492187
H 0.2097601772 -2.2178896666 -1.3419675866
H -0.6070436926 -1.8302198479 -2.8294240424
H 1.1768264664 -0.2042403264 -2.5122939464
H -0.3536181074 0.6414384811 -2.3310637405
H 1.5964974766 -0.1044831476 -0.0843572011
H -0.155436239 0.6734892211 1.5223406263

