# b3lyp 6-31G(2df,p) opt Freq 

 titel

0 1
O 1.7043163798 0.4387280547 -0.1426501958
C 0.460941454 0.0952114932 0.4579889508
C -0.4644182827 1.2731133579 0.5855407118
C -0.4798140017 2.149762775 1.8184924658
C -1.6865796986 1.3051817844 1.4871651856
C -2.7116351042 1.8048779421 0.447502976
C -2.0351530369 2.9829765422 -0.2865629688
C -1.1426989818 1.7954616333 -0.7041760387
O -2.3684411208 0.9749238479 -0.7225826796
H 2.0994633892 1.1334643374 0.3947128644
H 0.0123009496 -0.6550461575 -0.2016051099
H 0.6072155164 -0.3759876974 1.4434285072
H 0.1179753965 1.7905070651 2.6531546187
H -0.5104130494 3.2304134761 1.7528209222
H -1.9535568356 0.4689080786 2.1226885438
H -3.7692483482 1.7834960442 0.7077644629
H -2.6482060188 3.3118935386 -1.1246484459
H -1.632048637 3.8380403719 0.2566284616
H -0.5673515298 1.7574360922 -1.6279961522

