# b3lyp 6-31G(2df,p) opt Freq 

 titel

0 1
C 1.4807820498 0.7056226029 -1.0118320205
C 0.169401398 0.2537474568 -0.4356607909
C -0.8586167658 1.070364464 -0.2065080626
C -2.1696756617 0.5554095221 0.3303111568
C -2.8694532992 -0.3926923094 -0.6423938179
O -2.2742555026 -1.677640222 -0.8948812949
C -0.9643900799 -2.0235163114 -0.9060418474
O -0.6489144676 -3.0262703279 -1.4885113821
C 0.0457538839 -1.2198775419 -0.0902029582
H 2.3090460614 0.4893392866 -0.3249053583
H 1.7047397629 0.172948966 -1.9445926542
H 1.4804278587 1.7785021012 -1.2207177982
H -0.7769765484 2.1289680425 -0.4372907731
H -2.0362462808 0.0548003503 1.2997228321
H -2.863416132 1.3840376272 0.507395558
H -3.8691259331 -0.6382828997 -0.2709044608
H -2.9833179491 0.1054491975 -1.6131527723
H -0.2364987847 -1.3285961607 0.9664062308
H 0.9964106603 -1.736487194 -0.2248525064

