# b3lyp 6-31G(2df,p) opt Freq 

 titel

0 1
C -0.1633664107 0.0158932093 0.0569337778
C 1.1588784515 0.4106787339 0.6276717094
O 1.1592361217 0.716781977 2.0176541481
C 2.5481068048 0.9741140884 2.172350212
C 2.8233743148 2.0812966228 1.1317479438
C 2.2452253254 1.2755667094 -0.0201714777
C 2.5257403353 -0.1827741925 0.3572534991
C 2.8944945993 -1.3116246999 -0.5480919912
O 3.1896058612 -0.1652705836 1.6161112654
H -0.5756839765 -0.8442134612 0.5939508603
H -0.8818637308 0.8391585475 0.1260732273
H -0.060582367 -0.2548197868 -0.9975895913
H 2.8142519039 1.1112137135 3.2169450547
H 2.2708901184 2.9976212643 1.351097803
H 3.8899296099 2.2940757912 1.0307188302
H 2.1926684666 1.6210364316 -1.0436043797
H 2.7186143612 -2.274409746 -0.0579024553
H 2.2984769324 -1.2789049386 -1.4643681988
H 3.9511332885 -1.2590370004 -0.8301099872

