# b3lyp 6-31G(2df,p) opt Freq 

 titel

0 1
C 0.1087737251 -0.1387690188 -0.1152085275
C 1.630099821 -0.1970171153 0.0162128808
C 2.0765009631 -1.1275817748 1.1395282382
C 2.322950918 -0.3752610181 -1.3774308548
O 3.7528258935 -0.3754239172 -1.0876516483
C 3.5979638571 1.0152122155 -0.8033627913
C 2.3259601632 1.1869747598 -1.5695981842
C 2.2593374739 1.2076317072 -0.0546119444
O 1.9693829702 2.3081964508 0.7227612237
H -0.3409264757 0.281602652 0.7903087497
H -0.2013073489 0.48684885 -0.9581697126
H -0.3077128696 -1.1416748304 -0.2613328907
H 1.7434563604 -0.7454470663 2.1118613059
H 1.6438712492 -2.1274804147 1.0198569539
H 3.1639318295 -1.2244613967 1.1544383125
H 2.0157798871 -1.1419256029 -2.0867195611
H 4.4710554877 1.6445593835 -0.6869013094
H 1.9991606256 1.8640339155 -2.3454875305
H 2.5012078096 2.265158401 1.52530455

