# b3lyp 6-31G(2df,p) opt Freq 

 titel

0 1
O 2.7004214914 1.4134569517 -2.0386024222
C 3.1000826914 0.1938198003 -1.4653708038
C 2.6553850607 0.0749812379 0.0102556441
O 3.2378951278 1.2283352135 0.6476872403
C 1.1939630345 0.1290091097 0.1285927563
C 0.0008382415 0.165138529 0.2706435851
C 3.1844956184 -1.2227922978 0.6208783712
C 3.4654797818 -1.3328468049 2.0944023049
C 4.6066732712 -1.312165401 1.1075422915
H 2.9648768443 2.093262287 -1.4062270427
H 2.6491528824 -0.6116285411 -2.0516961952
H 4.1933777893 0.0668117925 -1.4846607913
H 2.6501212837 1.5005838803 1.3593516676
H -1.0556104747 0.2024216606 0.3753708794
H 2.7712588669 -2.1063293189 0.1433255865
H 3.3288056885 -0.4467114371 2.7040735423
H 3.2161606108 -2.2623906313 2.5930093009
H 5.1998051929 -0.406215777 1.0682516453
H 5.155644867 -2.2281578031 0.9209841198

