# b3lyp 6-31G(2df,p) opt Freq 

 titel

0 1
C 0.3732668252 0.4334680515 0.17636303
C 1.0877951973 -0.8095186736 -0.3167629097
O 2.4570109562 -0.5225171475 -0.7071092597
C 3.0099094753 -1.4054270859 0.2796472416
C 3.2062376446 -2.82076652 -0.2394202486
C 3.0359773641 -3.7971760818 0.8865237704
C 1.8004941619 -3.221790769 0.2360209586
C 1.5547237881 -1.8182282853 0.7595991499
O 0.9644801587 -1.6316059091 2.0066363707
H 0.8905677602 0.8694103851 1.0341102317
H 0.3373412526 1.1750057089 -0.6275280711
H -0.6512746789 0.1935735506 0.4764387007
H 0.5334356621 -1.2672886637 -1.1471857058
H 3.7943556464 -0.9333363465 0.8775008145
H 3.6851342195 -3.0786554196 -1.175284405
H 3.2438046751 -4.834250798 0.6455756409
H 3.3170885168 -3.5211058263 1.901551722
H 1.0681802095 -3.849576725 -0.2598430996
H 1.2084893452 -2.3745288647 2.5684344185

