# b3lyp 6-31G(2df,p) opt Freq 

 titel

0 1
C 0.0191099353 1.5433313316 -0.0831323982
C -0.0140502339 0.0115264435 0.009009417
O -1.3675417259 -0.4622432687 -0.0712433387
C -2.0694676009 -0.6420597252 1.1568516352
C -1.3336183528 -1.7588230813 1.888922834
O -1.4268735552 -1.8683047088 3.3372641541
C 0.0232735133 -1.7745294482 3.4715624492
C 0.1001113381 -1.3463170314 2.0284867448
C 0.7133685382 -0.4761707585 1.2441409602
H 1.0513409139 1.9048457709 -0.1376611258
H -0.5125214193 1.871223766 -0.9797788905
H -0.4539917216 2.0009699415 0.7912077041
H 0.4588418165 -0.3970872036 -0.894072278
H -2.0784984837 0.2627421083 1.7805783063
H -3.0959857264 -0.8904674462 0.8754443876
H -1.5246266065 -2.7288886048 1.4116795085
H 0.3303088438 -1.0454325466 4.2299089035
H 0.4639771166 -2.7525991883 3.7098228052
H 1.6629810503 -0.0102063603 1.4913519315

