# b3lyp 6-31G(2df,p) opt Freq 

 titel

0 1
O 0.6328320535 0.781727566 -0.9502124185
C -0.0647290737 0.1472982677 -0.2025352493
C -0.4648313873 0.6017054023 1.1989461656
C -0.6912646044 2.1193999048 1.3109757142
C -2.2172909223 2.2274088068 1.1443944084
C -2.6819457899 0.9418172029 1.7961862125
C -3.3572035386 0.8963460996 3.1412069974
C -4.091845221 0.4677611913 1.877460967
O -1.69733338 -0.0431959505 1.5284074735
H -0.4830417461 -0.8459514302 -0.4776569652
H 0.3217525173 0.2535043643 1.8855986961
H -0.3844314062 2.4769553267 2.2971906382
H -0.1186940688 2.6536419447 0.5509720078
H -2.641272233 3.118379662 1.6115514576
H -2.4874920513 2.2365873368 0.0817418039
H -3.0478036289 0.1098574897 3.8202002614
H -3.6434528852 1.8289143352 3.6167005114
H -4.2614015156 -0.5941023963 1.739014671
H -4.8764800586 1.1075303862 1.4871953372

