# b3lyp 6-31G(2df,p) opt Freq 

 titel

0 1
C -2.8278029394 0.1803925186 -1.2733209288
C -2.0370363378 -0.0389451466 -0.0044364737
C -2.8322234334 -0.1722658387 1.2952890432
C -1.8838683877 -0.897449491 2.2708800882
C -1.1069040909 -1.8846547015 1.3740648993
C -0.9235103677 -1.1244970734 0.0500426077
C 0.0148636959 0.0782686381 0.1456930439
O 1.1860422211 0.2757749654 0.2253897262
O -0.9898203304 1.0085410257 0.1393432054
H -3.5167091256 -0.653294364 -1.441798762
H -3.4167312858 1.1006937715 -1.2074445169
H -2.1635832832 0.263399304 -2.1380997476
H -3.1773833813 0.79974 1.6579389416
H -3.7187880909 -0.7875556983 1.098888838
H -1.193850879 -0.1781681206 2.7239422221
H -2.4146000897 -1.3949329925 3.0858905176
H -0.1542352686 -2.2028910085 1.8052780795
H -1.7037357162 -2.7852939626 1.1903789706
H -0.7672182396 -1.7550523657 -0.8258851943

