# b3lyp 6-31G(2df,p) opt Freq 

 titel

0 1
C -3.5870400637 1.4248152076 -2.3260214254
C -2.7372364068 0.6548412011 -1.3154059413
O -1.9695112327 -0.2852486869 -2.0560639814
C -1.5983719237 -1.4703704306 -1.3831978988
C -1.0115061218 -1.2529247686 0.023224934
C -0.0646487598 -0.0625770364 0.1250625324
O 1.1209948261 -0.2016726249 0.3468631432
C -0.6725658878 1.2913079991 0.0421949014
C -1.8452706755 1.5941364285 -0.5247773038
H -4.2139990073 2.1658539498 -1.8213865616
H -2.9422654291 1.9417474219 -3.0427983206
H -4.2300886694 0.7341638854 -2.87581547
H -3.4155389869 0.1236111504 -0.6250308259
H -2.4560718966 -2.1581295749 -1.3058893453
H -0.8498382798 -1.9397370216 -2.0282885975
H -1.8277946714 -1.0927812275 0.7380810307
H -0.4670705312 -2.14971473 0.3296023792
H -0.0636946339 2.0740737549 0.486213649
H -2.1827205587 2.6282374728 -0.4882336182

