# b3lyp 6-31G(2df,p) opt Freq 

 titel

0 1
C -3.4751677171 -1.2448206773 0.6119702883
C -2.326698133 -0.4662763463 0.0133098864
C -2.582788302 0.1779242289 -1.3772259695
C -1.6154290913 1.3966018908 -1.3567392472
C -0.9671564044 1.232680928 0.0426319235
O -2.0284204759 0.6927980376 0.8313006034
C -0.0081651548 0.037512589 -0.0564795054
O 1.187204482 0.0481275186 -0.1709886324
C -0.9525461317 -1.1755672688 -0.0059430315
H -3.2216440756 -1.6003413603 1.6147850845
H -4.3661134333 -0.6141657115 0.6841453428
H -3.7152804442 -2.112246588 -0.010476375
H -2.3816545051 -0.5159736991 -2.1973255753
H -3.6242556636 0.4979770184 -1.4563396095
H -0.8796646678 1.3892636944 -2.1648683246
H -2.1601816569 2.3419413868 -1.4018867155
H -0.5470488136 2.1281059844 0.496463086
H -0.7770108203 -1.8529865149 -0.8452324847
H -0.7906631614 -1.7295098306 0.9247855357

