# b3lyp 6-31G(2df,p) opt Freq 

 titel

0 1
C 6.9334551863 1.058293097 0.8086583675
C 5.4280841971 0.9979756184 0.5596007292
C 4.6906630468 0.0951962384 1.5372485035
O 5.2742231216 -0.6322689483 2.3068134815
C 3.1615658412 0.1503059497 1.5371103974
C 2.5364501275 0.0345014316 0.1309859473
O 3.090740253 -1.0583665594 -0.5964726461
C 1.0760417804 -0.0439655412 0.2137297916
C -0.1179312738 -0.1446106642 0.3091431782
H 7.1522452108 1.4718780167 1.7969934827
H 7.370169703 0.0578497947 0.7714540394
H 7.4246654414 1.682502786 0.0571751902
H 4.9742812793 1.9980893698 0.5911217779
H 5.2157553427 0.6101971984 -0.4459302547
H 2.8007879998 -0.6573554136 2.1801576984
H 2.842045631 1.0986037548 1.9887159696
H 2.8085373855 0.9177758086 -0.4578320407
H 2.7942624815 -1.8736294663 -0.1753525049
H -1.1752569952 -0.2223077412 0.3765509619

