# b3lyp 6-31G(2df,p) opt Freq 

 titel

0 1
C 0.5288340919 0.8475571752 -0.7463116092
O 0.1042167026 -0.201766412 0.1325713142
C 1.4728664632 0.1601035393 0.1355662566
C 2.6035826226 -0.824905385 -0.1789349202
C 3.3357754053 -0.3612612691 1.1195213155
C 3.2442250769 -1.3073298911 2.3263930239
C 1.8282636139 -1.0413124955 2.8694064969
O 1.5927979075 0.3463052377 2.6361736559
C 2.1917316333 0.6747486189 1.4056370975
H 0.5059731982 0.6048504611 -1.808450429
H 0.1738903103 1.8447535739 -0.4871886973
H 2.2878698056 -1.8724422518 -0.1843861044
H 3.1456059126 -0.6185407927 -1.1054860584
H 4.3373897655 0.0399275317 0.9653587639
H 3.4033378216 -2.356689719 2.0625165622
H 3.9895030979 -1.0278962335 3.0773233774
H 1.0790026732 -1.6510795803 2.3440586512
H 1.7265906504 -1.2191719483 3.942699885
H 2.4285149375 1.7414731904 1.4147159883

