# b3lyp 6-31G(2df,p) opt Freq 

 titel

0 1
C 0.7988842732 -0.6019426033 -0.725564337
C 0.9407823951 0.0928880584 0.6251248655
C 1.5648879055 1.4958771803 0.5853547601
C 1.6655463597 2.047256874 1.9907938313
C 2.6792054303 1.0489600356 1.5144137043
O 4.0293355164 1.3378061305 1.4155638371
C 2.121365295 -0.3882856869 1.5776296122
C 3.0463589454 -1.4074449155 0.9650303002
O 3.2587804526 -2.495275985 1.4403009097
H 0.5592122454 -1.663478855 -0.6056490881
H -0.0111920733 -0.1382359171 -1.298336417
H 1.7091444221 -0.5259884571 -1.3277170405
H -0.0220660671 0.0634404319 1.1480926232
H 1.6045226415 2.1396642674 -0.2850909612
H 2.0479812617 3.0616791089 2.0484157632
H 0.9214525582 1.7932348101 2.7433063776
H 4.3812041193 1.4673681897 2.303696147
H 1.8165417634 -0.753023572 2.5632028199
H 3.5479471054 -1.0887139647 0.0267133324

