# b3lyp 6-31G(2df,p) opt Freq 

 titel

0 1
C 1.9771722648 -0.4736940804 1.7526925213
C 1.8521502558 -0.1284377656 0.2585513989
C 2.1117929922 1.3267291354 -0.0398079379
C 3.2416879038 1.7938538006 -0.5931856931
C 3.46243591 3.2428047418 -0.9154373331
O 2.2634072522 3.9808599225 -0.9958437493
C 1.4223817133 3.78204488 0.121173698
C 1.0755715909 2.3129664517 0.3583350932
O 0.0347987012 1.9966172204 0.9000087031
H 1.7796824321 -1.5372704353 1.917565828
H 2.9838742308 -0.2551896613 2.1238711679
H 1.2591824144 0.1011348317 2.3418458064
H 2.5471092759 -0.7422073286 -0.3246929022
H 0.8388957329 -0.3757400974 -0.0761798018
H 4.0596599009 1.1154254532 -0.8309782345
H 4.1504007878 3.6866507577 -0.1686964924
H 3.9517314911 3.343689685 -1.8905041626
H 1.8834968592 4.175288087 1.0465995105
H 0.5010882506 4.3402904416 -0.0570277402

