# b3lyp 6-31G(2df,p) opt Freq 

 titel

0 1
O 0.3587465532 0.410220353 0.6284169068
C -0.9211190755 0.8294648067 0.2191165986
C -2.1016815751 -0.1855235688 0.2856113734
C -2.5089520581 0.2554844405 -1.1350295024
O -3.4984404491 1.2656441792 -1.0391439629
C -3.5364571056 2.1290143551 -2.1624266635
C -2.1897556294 2.7114400261 -2.5078366635
C -1.058077948 2.1472143651 -2.0900255508
C -1.0946565848 0.8647540486 -1.327243197
H 0.4032923615 0.4608960545 1.5884446723
H -1.1948422182 1.7926526009 0.6670084135
H -1.7188354639 -1.2094477537 0.2953279333
H -2.8587189637 -0.0574074686 1.0617727577
H -2.8188739905 -0.5206199553 -1.8481191364
H -3.9648418892 1.6092310277 -3.0393452301
H -4.2387211343 2.9277422395 -1.8980665993
H -2.1866819061 3.6181416346 -3.1065965946
H -0.0923627108 2.5941339934 -2.3114963809
H -0.4092250224 0.1228277717 -1.7522478243

