# b3lyp 6-31G(2df,p) opt Freq 

 titel

0 1
C -1.692527855 0.8046679663 4.4064507114
C -0.5320158917 1.5488727735 3.7694174976
C 0.5639708987 0.8731848413 2.8964089673
O 0.9218111766 2.2179545257 2.3869895779
C -0.5610206434 2.1450386194 2.3299101127
C -0.4466689041 0.722881622 1.7185372738
C 0.1231551112 0.4645010712 0.3286261359
C 0.5176509528 1.6364235544 -0.5414935105
O 0.2295040395 -0.6834517022 -0.0429576083
H -1.3503958397 0.2587226903 5.2918645307
H -2.459553689 1.5130994905 4.7368800099
H -2.1706561586 0.0852663321 3.7373977378
H -0.0761022271 2.2597343839 4.46374587
H 1.3787402772 0.2060275596 3.178809241
H -1.0892014338 3.0219519194 1.9527122912
H -1.2706960352 0.0281708537 1.889124522
H 0.8939679651 1.2734459336 -1.4986805347
H -0.3492232885 2.2872917087 -0.7091225207
H 1.2691250351 2.2381521066 -0.024026995

