# b3lyp 6-31G(2df,p) opt Freq 

 titel

0 1
C 5.9871639109 -2.61985756 -1.9896919613
C 4.4980502055 -2.8941289479 -2.2687739899
C 3.6286947811 -2.5485342648 -1.1501021361
C 2.9259365964 -2.2682362391 -0.2124712808
C 2.0654611203 -1.8934089968 0.8812163836
C 0.854563407 -1.0399757795 0.5400049053
O -0.0592999599 -1.73528489 -0.2804069962
C 2.5816121519 -1.8944958936 2.2651304294
O 1.7389189574 -2.9515735665 1.8214801993
H 6.3338327546 -3.1972391678 -1.1284287803
H 6.5936326419 -2.8963263964 -2.857123774
H 6.1542605783 -1.5607378535 -1.7757861991
H 4.1794343172 -2.3344300148 -3.1573338546
H 4.3586782156 -3.9543677267 -2.5159740281
H 0.3883454118 -0.7095411028 1.4807767521
H 1.165650897 -0.1529007113 -0.0202090958
H -0.2840469018 -2.5508704765 0.1822224295
H 3.6220075759 -2.1641681757 2.4354742775
H 2.1449367589 -1.2168271763 2.9984643995

