# b3lyp 6-31G(2df,p) opt Freq 

 titel

0 1
C -0.1564527868 -0.0995358255 -0.0339363321
C 1.3578611391 -0.0066903111 0.0724418458
C 2.2057756984 0.070459317 -1.265188812
C 2.8175264795 1.3889977572 -0.7848379552
O 4.157294342 1.7061580697 -0.9058011539
C 1.7513847543 2.4135934755 -0.5440756207
C 1.9980038574 1.3387125947 0.4955982822
C 1.9283343454 -1.1122892858 0.9349360654
O 1.2826770746 -1.9689810209 1.4821580423
H -0.6173803372 -0.0363414611 0.9558779446
H -0.5628805368 0.7028459487 -0.6554214132
H -0.4548849121 -1.0572067219 -0.4700223065
H 2.9486383799 -0.7282526977 -1.3384604084
H 1.6209453279 0.1004020516 -2.1898063547
H 4.2783913977 2.2213318801 -1.7110639392
H 2.1323747353 3.3870778386 -0.2513376309
H 0.8367195757 2.4424961958 -1.1308311
H 2.280331465 1.5995902908 1.5086449293
H 3.0384781705 -1.0775431358 1.0342563273

