# b3lyp 6-31G(2df,p) opt Freq 

 titel

0 1
O 0.0176887569 -0.9814920049 0.3472814991
C 0.3221268147 0.1358253363 0.0180638266
C -0.2420786986 0.8658223752 -1.1827609581
C -1.0666123525 2.0705585245 -0.7491296825
C -2.4334511849 1.8123955159 -0.0411475037
C -3.1475026236 2.7473366922 -1.0671361194
C -1.7847299327 3.0607126433 -1.7193456584
O -1.1201075873 4.189699712 -1.1165276889
C -0.3477602588 3.3389411475 -0.2421323609
H 1.0510105778 0.7284405097 0.6195106705
H 0.5949952354 1.2022706359 -1.8102240007
H -0.8501686218 0.1609026743 -1.7580423634
H -2.7551451367 0.7699127756 -0.0956988095
H -2.4762368028 2.1267733783 1.0049299367
H -3.8343317226 2.2149271147 -1.7305028696
H -3.6528877344 3.6263075257 -0.6624745673
H -1.6963505302 3.0593725317 -2.8097980467
H 0.722848667 3.3862228345 -0.4866824552
H -0.481381335 3.5932390477 0.8169170114

