# b3lyp 6-31G(2df,p) opt Freq 

 titel

0 1
C -0.6024432011 1.0226843315 -1.6853389766
C -0.2161163098 1.3860194926 -0.2298873545
C 0.9405715067 0.4422869241 0.1110385746
O 0.3982105691 -0.8571120673 0.3866004423
C 1.1813557866 -1.848674655 -0.2596201612
C 1.6959112868 -1.1971553576 -1.5334438645
O 0.6601260617 -0.985042989 -2.5178721495
C 0.6848121649 0.4559503932 -2.3171438199
C 1.7415037308 0.3057300557 -1.1990694349
H -1.3634658113 0.2390870407 -1.7060606391
H -0.9912022939 1.8842920483 -2.2345507564
H 0.1411633816 2.4213138387 -0.1753265167
H -1.0413175383 1.2821990595 0.4789547739
H 1.5458691649 0.7821240271 0.9617487212
H 2.0339988637 -2.1637119717 0.3663136348
H 0.5434640131 -2.7161947452 -0.4520649293
H 2.5781155687 -1.6831331147 -1.9618342404
H 0.9885596946 0.9639019464 -3.2379353571
H 2.6771786912 0.8585926826 -1.2494362967

