# b3lyp 6-31G(2df,p) opt Freq 

 titel

0 1
C 1.221150098 -0.6095637381 -1.1136884541
C 0.969460048 0.2165955483 0.1248052341
C 1.9591417629 1.2210627832 0.6164218503
O 1.4816313545 2.4233746118 1.1299124651
C 1.7325288882 -0.0532208205 1.437702062
C 1.0002349846 0.1590664395 2.7496651856
O 1.8334488651 0.9874765175 3.5695356697
C 2.7722303822 -1.04259497 1.4561896598
C 3.6360576223 -1.8806056033 1.4763534792
H 0.651025137 -1.5440266165 -1.0883502069
H 0.9232441057 -0.0544040272 -2.0093772353
H 2.2778982683 -0.8711471549 -1.2083083078
H -0.0650265574 0.5067153931 0.2886802189
H 2.9134467901 1.2801566413 0.0932055339
H 1.8141784076 2.485667636 2.0365949403
H 0.0384643111 0.6516622315 2.5625129215
H 0.8100830529 -0.8057222687 3.2373028813
H 1.4040567286 1.0964398225 4.4240418088
H 4.4051291103 -2.6120460657 1.4983111034

