# b3lyp 6-31G(2df,p) opt Freq 

 titel

0 1
C 5.2719380472 0.4036092582 -2.5275579348
C 4.6214683074 0.9357717194 -1.2611745388
C 4.2477094943 2.434690376 -1.1975421902
O 2.8664063515 2.124140251 -0.9040475415
C 3.1038301199 0.7147290892 -1.0748692445
C 2.6794366918 -0.1128747533 0.1466335792
O 3.1785301187 -1.4433655459 0.0153710634
C 1.2315180643 -0.0818601573 0.3457273668
C 0.0344207686 -0.0928532316 0.4548776742
H 5.2970861959 -0.6907991136 -2.5170101097
H 4.7215717998 0.722010372 -3.4199040706
H 6.302484577 0.7616818786 -2.6243088529
H 5.1825701097 0.6076051937 -0.381615154
H 4.7098276342 3.032221756 -0.4035777893
H 4.3482360004 2.9696697142 -2.1515908717
H 2.5936616162 0.3232594965 -1.9684155914
H 3.1791210079 0.3076302809 1.0275185864
H 2.5652722726 -1.9274728441 -0.548504435
H -1.0212346274 -0.0877079899 0.5722240644

