# b3lyp 6-31G(2df,p) opt Freq 

 titel

0 1
C 1.4409972091 -0.2474031204 -0.2031607504
C 0.0520139255 0.2980341995 -0.1466097818
C -1.1062310353 -0.3474672454 -0.0292112265
C -2.2500625349 0.6155988996 -0.0155475177
C -3.319470992 0.4756263013 1.1033078854
O -4.304789702 0.0170690402 0.1576461965
C -3.454933982 0.3439689592 -0.9587229268
O -1.653004588 1.8957443321 -0.1364862785
C -0.2366974955 1.7759301192 -0.2220517484
H 2.0561130803 0.1505265189 0.6136134648
H 1.4470942122 -1.3378109984 -0.1333417148
H 1.9405131771 0.0377332367 -1.1375192841
H -1.2467293138 -1.4185757664 0.0484633904
H -3.1288558791 -0.2584810653 1.8946943668
H -3.5810967352 1.4444337987 1.5481378564
H -3.3629698855 -0.485998235 -1.6688190962
H -3.7803303105 1.2508002919 -1.4847339717
H 0.1212885607 2.2223080796 -1.1633593432
H 0.2373496587 2.3350255041 0.6002312898

