# b3lyp 6-31G(2df,p) opt Freq 

 titel

0 1
C -1.8515826749 0.055097098 2.4627395822
C -2.5591095933 0.0630063943 1.1174572866
C -2.2951547542 -1.0226113798 0.0207129383
C -2.6964245547 0.058165552 -1.024620549
C -2.1669140218 1.0754084722 0.0085022019
O -0.7332396028 1.1970474804 -0.0983923144
C -0.0028836898 0.0519875969 -0.1821429105
O 1.1897578134 0.1108329822 -0.2941436611
C -0.7898780812 -1.2591752529 -0.1133230651
H -2.1371049216 -0.8278327973 3.0447324371
H -0.7626174821 0.0561914591 2.3678544972
H -2.1263190871 0.939716125 3.046824661
H -3.6412274118 0.1427355795 1.267479365
H -2.8586437271 -1.9572050558 0.0634033636
H -2.2087329724 0.0431973374 -2.0026807965
H -3.7782371273 0.1392950693 -1.1496391273
H -2.5409237226 2.0989935333 0.0320106934
H -0.5536922523 -1.8254615569 -1.020787358
H -0.3806083263 -1.8353767873 0.7232267158

