# b3lyp 6-31G(2df,p) opt Freq 

 titel

0 1
O 1.6521567808 -0.2710878055 0.7809747232
C 0.6658518605 0.5178637107 0.1331965332
C -0.2289372967 1.2168247079 1.1330579252
O -1.4697951447 1.7609350275 0.6003848893
C -1.5335405393 0.6904452467 1.5080317256
C -2.3690443186 0.6040446861 2.7939390004
C -1.930843655 -0.8924141276 2.842100761
C -2.2940288513 -0.6375408397 1.3453771077
C -3.5433644944 0.1432866128 1.8694095655
H 1.1983814492 -0.9764219319 1.253850915
H 1.2142466876 1.2582335047 -0.4582973392
H 0.0461446472 -0.0684198139 -0.560434282
H 0.287916182 1.8828228527 1.8253356464
H -2.4070784452 1.3138647712 3.6194058213
H -0.8822574426 -1.095721575 3.0784329228
H -2.6024900075 -1.5639468184 3.3811435023
H -2.2530091134 -1.3463964026 0.5186274416
H -3.9668293054 0.8956560751 1.2020951971
H -4.3170898733 -0.4628724806 2.3474197638

