# b3lyp 6-31G(2df,p) opt Freq 

 titel

0 1
O -0.559187244 2.4616051368 0.1292713948
C -1.0813137175 1.1699224583 0.0752166313
C -1.8078705488 0.785352605 -1.2356352977
C -1.7318238349 -0.7851187747 -1.2568059688
C -0.9634463274 -1.1464276346 0.0428325727
C -1.8818586176 -0.8280440846 1.2532492905
C -1.9592391782 0.7421595285 1.2757304066
C -0.0307999514 0.0548136516 0.1191896609
O 1.1610685735 0.193628561 0.1928409606
H 0.4031473563 2.3595968567 0.1840217395
H -2.8346123764 1.1597504433 -1.2532134908
H -1.2776929083 1.2240632735 -2.0848270822
H -2.720580799 -1.2512792614 -1.269371652
H -1.1913437384 -1.1384462925 -2.1389564479
H -0.4982845567 -2.1303270435 0.053605563
H -2.8637099309 -1.2933875179 1.1328611819
H -1.4487538147 -1.2114256714 2.1809709548
H -2.9816497265 1.1170415134 1.1816832071
H -1.5363953889 1.1519190525 2.1965292557

