# b3lyp 6-31G(2df,p) opt Freq 

 titel

0 1
C 1.9773399776 -0.4837229045 1.6727212789
C 2.7592300084 -0.3264922856 0.3677261967
O 1.9888538393 -0.6853482237 -0.7723003407
C 1.1219905895 0.2698471079 -1.2869415088
C -0.3510824049 0.2515715901 -1.0401356328
O -0.6653159612 -0.1930812014 0.275900162
C 0.0078140712 0.9663641678 0.8497142539
C 0.9848136007 0.6472919401 1.9702421503
C 0.5031913381 1.4175155445 -0.5279378438
H 1.4425697111 -1.4374032372 1.6198057985
H 2.6883082412 -0.5560993797 2.5051083527
H 3.1538614949 0.6951747002 0.2623559544
H 3.6112198609 -1.0139356986 0.3623283262
H 1.3694707369 0.5529156782 -2.3113808108
H -1.123970909 0.1763500322 -1.797108082
H -0.7574218504 1.6651071934 1.2122829193
H 1.5259429017 1.5768100411 2.1967700644
H 0.4146737846 0.3971005545 2.8735292935
H 0.5794165094 2.4491229707 -0.8468056019

