# b3lyp 6-31G(2df,p) opt Freq 

 titel

0 1
C -2.970223855 1.9770565308 1.4888034843
C -2.0139850571 0.8212948727 1.2676338458
C -0.848917761 1.1006435645 0.2946685467
C 0.0615303561 -0.075416368 0.2451512923
O 1.2558861975 -0.2019079492 0.2204978171
C -1.0878023266 -1.0893289331 -0.0286234898
C -0.9147155008 -1.7956143685 -1.3713645742
C -2.0411771982 0.1166109088 -0.0321916856
O -3.034339489 0.2122974401 -0.9778366373
H -2.586263261 2.6582384023 2.2536864245
H -3.1196667097 2.5640199512 0.5760943468
H -3.9483429992 1.617734043 1.8297472161
H -1.8041364705 0.2478461135 2.1705868241
H -0.6282544358 2.1187782892 -0.0048632387
H -1.2785813022 -1.8188889079 0.768345938
H -0.0646342049 -2.4809944141 -1.3222346629
H -1.8123247886 -2.3641733976 -1.6295115719
H -0.7270834833 -1.078740084 -2.1765356988
H -3.7773109007 0.7030660463 -0.6122658964

