# b3lyp 6-31G(2df,p) opt Freq 

 titel

0 1
C -0.1577271362 -0.5456409462 -0.2105822205
C 1.2287653256 0.0173174711 -0.3088643888
C 2.5013263507 -0.7570411783 0.0005187845
C 2.3211171869 -0.1253410468 -1.3428061571
O 2.6628246425 1.2682300715 -1.2970075554
C 1.5695864259 1.5165361445 -0.3777142294
C 1.9536165908 2.2964563166 0.8523835954
C 3.1840690123 3.0968842577 0.9015747625
O 3.0787216065 1.8595978883 1.6124287548
H -0.5473704741 -0.4758885339 0.81224977
H -0.8541603177 -0.0162033512 -0.8712276788
H -0.1718355745 -1.6036281398 -0.4911177177
H 3.2447574936 -0.3626593566 0.682845016
H 2.3580260989 -1.8338539446 0.0252639142
H 2.3665638707 -0.6216906561 -2.3051454608
H 0.7712777611 2.0705625809 -0.8956528404
H 1.1021514042 2.6155621561 1.4572764275
H 3.8512510296 3.075994736 0.0436957337
H 3.2226821633 3.9898841308 1.5230784503

