# b3lyp 6-31G(2df,p) opt Freq 

 titel

0 1
O -0.7505688719 2.2680649706 -0.7067383496
C -0.9309139955 1.0886806332 0.0165797217
C -2.1765878525 0.1587242488 -0.2181960093
C -1.2576931227 -1.0914680644 -0.1163833786
C -1.1625158078 -1.948909203 1.1843282158
C -0.8030691328 -3.1720307217 0.2998063817
C -1.3473758816 -2.4005532518 -0.9334949295
C -0.0997430627 -0.1306560578 -0.3902079937
O 0.9229812376 -0.2121514837 -1.0168158054
H -0.1197499313 2.0751917262 -1.4116850011
H -0.8337038544 1.2980709262 1.0900782061
H -2.9834592781 0.2376722964 0.512440613
H -2.5738082092 0.2915345548 -1.2282368082
H -0.4453200682 -1.6374619305 1.9481664837
H -2.1483277248 -2.0495188658 1.6486353097
H 0.2771959776 -3.321795099 0.2351538803
H -1.2762467063 -4.1237548025 0.5490294408
H -0.7559796454 -2.4320781988 -1.8515689354
H -2.3850772901 -2.6590510673 -1.1633975821

