# b3lyp 6-31G(2df,p) opt Freq 

 titel

0 1
C 1.2044390312 1.0546753922 -3.0463707288
C 0.1947883001 0.292094052 -2.2244730605
C -0.6379917039 -0.7181803959 -3.038986592
C -1.7194681489 -1.3179959271 -2.1685293766
C -1.8233629727 -0.9098637189 -0.904484583
C -0.8306557499 0.1388243024 -0.4677312357
O -0.7367080886 1.17435221 -1.5024489463
C 0.6078883972 -0.3019436098 -0.8388197511
O 1.6251947091 0.4094237641 -0.1838153759
H 1.8518800417 1.6664492547 -2.4145334238
H 1.8365188128 0.3635235268 -3.6135025579
H 0.688722094 1.708827015 -3.7570805157
H -1.0785579627 -0.2162226471 -3.9118015357
H 0.0193225451 -1.503286787 -3.4375389859
H -2.3908296523 -2.0537230689 -2.6013444173
H -2.5599156124 -1.2980598357 -0.2097400107
H -1.0029715332 0.5603011554 0.5251357288
H 0.8578345029 -1.3623982058 -0.7735450829
H 1.3666851806 1.3396277735 -0.1908601989

