# b3lyp 6-31G(2df,p) opt Freq 

 titel

0 1
C 0.0553209509 -0.4787527698 0.2341737495
C 1.4798626391 -0.0985181789 -0.0631153447
O 1.7147466913 0.6385039549 -1.2321605059
C 1.1224918835 1.9348361842 -1.1496191243
O 2.081472821 2.9431612398 -1.2928153849
C 2.5844530688 3.2535643153 0.0055165407
C 1.3454653693 3.2092266241 0.909887742
C 0.4962399045 2.080715722 0.2793216826
C 0.69397032 0.7182887997 0.919471558
H -0.6867848521 -0.3032842953 -0.5385318322
H -0.1212155363 -1.3592585426 0.8429042533
H 2.3078538699 -0.7456295395 0.2033133176
H 0.4275057665 2.0431653509 -1.9863796879
H 3.3364482335 2.5141691917 0.315909479
H 3.0632716603 4.2338451361 -0.0488711084
H 1.5903679951 3.019156179 1.958033688
H 0.8108411669 4.1615579279 0.8544274787
H -0.5583664372 2.3605289734 0.2210999091
H 0.883155215 0.668959797 1.9854894798

