# b3lyp 6-31G(2df,p) opt Freq 

 titel

0 1
C 1.4069890625 -0.1231225533 0.0966886679
O 0.0141467252 0.1371173686 -0.023524893
C -0.5425518348 0.8059864742 1.0549901922
C -1.8880233022 0.2982299911 1.5013380125
C -0.6966681574 0.1616297942 2.4353377853
O -0.1663999247 -1.0965891218 2.7186297289
C -0.5030595084 1.280281716 3.4066073744
C -0.2709870692 2.439221666 2.7853306122
C -0.2361525407 2.2894660174 1.2791273695
H 1.619128548 -0.7377766385 0.9777034069
H 1.6988775602 -0.6643535575 -0.8064017469
H 1.9967201102 0.8025187946 0.1519368734
H -2.6859992916 0.9910272672 1.7499182113
H -2.1904121615 -0.6137189216 0.9952080841
H -0.8773517093 -1.6639565497 3.0327427118
H -0.5634909159 1.1305202231 4.4787823639
H -0.1414885931 3.3977762316 3.2740483558
H -0.9764730132 2.9281570549 0.7818933833
H 0.7410549459 2.5704538634 0.8656293463

