# b3lyp 6-31G(2df,p) opt Freq 

 titel

0 1
C 5.2897822829 -3.0353930031 -0.7714124656
C 4.406888038 -2.0476066137 -0.0495046335
O 3.033718936 -2.4009574412 0.1555703111
C 3.3237973654 -1.2713288865 -0.6808416059
C 3.0184593702 -1.4379633294 -2.1722279973
O 1.9777209092 -0.6098273509 -2.6480530094
C 2.9182292135 0.0711282506 -0.0681726233
C 1.4733324043 0.1880973885 0.1180454308
C 0.2838358165 0.2603903781 0.2799801111
H 5.5526629127 -3.8612410568 -0.1023205905
H 4.8019279926 -3.4557796904 -1.6525403935
H 6.2212830415 -2.551701845 -1.0851190813
H 4.8726790262 -1.6017316382 0.833193674
H 3.9014353274 -1.1574943612 -2.7588500281
H 2.8157602162 -2.5016486534 -2.3582646417
H 1.2006388621 -0.742157971 -2.0922654053
H 3.4120529772 0.181137624 0.9033212452
H 3.273213755 0.8849361582 -0.7110514326
H -0.763663477 0.3379539815 0.4366240658

