# b3lyp 6-31G(2df,p) opt Freq 

 titel

0 1
C -1.4108715621 3.9587371151 1.8908443665
C -1.8604065207 2.5148691703 1.7104489795
C -3.1918550747 2.312812758 0.9624670297
C -3.4593419168 0.8500258689 0.7882613725
C -2.4815240559 1.5161610155 -0.1430408114
C -1.1516744156 1.7579019787 0.5510709703
O -0.4057966172 0.6023694601 0.9938550604
C 0.2501204925 -0.0659482881 0.0379851699
O 0.2704334204 0.2086629475 -1.1312837245
H -2.046741604 4.4794988883 2.6143591488
H -0.3788630025 4.0064578516 2.2540737348
H -1.4623567729 4.5101205339 0.9453446677
H -1.8089940615 1.9780017542 2.6641726585
H -3.9602641028 3.0683405427 0.8539420698
H -3.1131441917 0.1365458653 1.5317321958
H -4.4096590149 0.5931320513 0.3320314047
H -2.6269465946 1.53297644 -1.2148405236
H -0.4842513248 2.3977144315 -0.0297307837
H 0.7783870098 -0.917336495 0.4960563542

