# b3lyp 6-31G(2df,p) opt Freq 

 titel

0 1
O 1.5488516271 -0.0610757755 -0.1646081519
C 0.3581936366 0.1172878219 -0.1167323368
C -0.3802293945 0.7210500652 1.0550451367
C -1.1392821083 1.992583765 0.6644489443
C -2.028059321 2.6750104654 1.7573396863
C -3.2539428245 2.6284117528 0.802175102
C -4.0738750477 1.3339697626 0.8969792389
O -3.1420038783 0.6277967995 0.0383784702
C -2.4003858309 1.8374865688 -0.2284434785
H -0.2954041066 -0.1613186191 -0.9756281983
H -1.1136683161 -0.0176057285 1.4037784448
H 0.3359568913 0.9222527471 1.8571599123
H -0.4524830169 2.7202712586 0.2182422191
H -2.1533644203 2.0957067331 2.677186373
H -1.7010279534 3.6807323133 2.0281560361
H -3.7770918533 3.5594330068 0.5917281436
H -4.1609660923 0.8725015447 1.8885359616
H -5.0683377235 1.3857871607 0.4356822678
H -2.3235023472 2.0463586175 -1.2990699913

