# b3lyp 6-31G(2df,p) opt Freq 

 titel

0 1
C 0.1026476341 5.7236222542 -0.1715716802
C -0.5640241434 4.4019179477 -0.4779907807
O -1.432877501 4.279481421 -1.3107263248
C -0.073186135 3.1717544733 0.2935848551
C -1.1934026013 2.1673587265 0.5828290447
C -0.6956505777 1.1150537888 1.5368184616
C 0.4227327797 1.2789488671 2.2389997347
C 1.2323515309 2.5434210934 2.162850561
O 0.559704983 3.5947257741 1.4897759035
H 1.1892800866 5.637187008 -0.2751439534
H -0.2854846496 6.4910797179 -0.8419036614
H -0.0816999927 5.9964552725 0.8719648713
H 0.6731285513 2.6840812519 -0.362715687
H -2.065329279 2.6899419075 0.9981828944
H -1.5309025702 1.7227489878 -0.3583067201
H -1.2785374271 0.2030328175 1.6324087116
H 0.7967844826 0.5028801597 2.9011932907
H 1.4501521751 2.9225427939 3.1683673
H 2.2074595737 2.3426956171 1.6813175087

