# b3lyp 6-31G(2df,p) opt Freq 

 titel

0 1
C -2.5075948843 -2.3801036298 1.4699151271
C -1.0732042805 -2.0945564018 1.0231138384
C -0.2341026393 -1.4913530278 2.1441996303
O -0.6535086876 -1.2644974914 3.2513140622
C -1.0063721117 -1.1836814103 -0.2144604019
C -1.6144449763 -1.6622345233 -1.5750410033
C -0.3455243177 -1.1641546366 -2.3298495787
C 0.3355326124 -1.0343402885 -0.9605206571
O 1.4762976576 -0.9844945962 -0.5979271345
H -2.5163008145 -3.0327212733 2.3460015683
H -3.0178374109 -1.4536787328 1.7496879455
H -3.0780232278 -2.8617305823 0.6707485928
H -0.5699034854 -3.0379774939 0.7555898982
H 0.8146934408 -1.265201297 1.8620495153
H -1.3889520482 -0.1850813597 0.037021343
H -1.7145506508 -2.7497407991 -1.6140562408
H -2.5621626365 -1.2082055849 -1.8642487949
H 0.1345455029 -1.8347930276 -3.0460197178
H -0.4805497921 -0.1864978736 -2.8038397321

