# b3lyp 6-31G(2df,p) opt Freq 

 titel

0 1
C -1.4535094221 -3.3034286493 -1.3495914361
C -1.4516873958 -1.7796446622 -1.3340769468
C -2.8145599578 -1.1264958254 -0.9428770035
C -2.2364772658 -0.7486422348 0.4534852773
C -2.1081969008 0.739973481 0.7816941149
O -0.9284045297 1.2045291806 0.1034162014
C -0.135701759 0.1728810406 -0.308234878
O 0.9282559157 0.3576271768 -0.824989819
C -0.8293841864 -1.1551339497 -0.0442675587
H -1.8801475253 -3.7117957047 -0.4259716957
H -2.0490669526 -3.6820955489 -2.187228667
H -0.4371738636 -3.6976979375 -1.4524112133
H -1.0089346282 -1.4017904892 -2.2597573409
H -3.074185957 -0.2538468018 -1.5490509986
H -3.6712575583 -1.8045947205 -0.931499073
H -2.6535120368 -1.3196481588 1.2831010005
H -2.9537184031 1.3375157929 0.4282745229
H -1.9785646021 0.9176980679 1.8556856574
H -0.1890576212 -1.8036441973 0.5569005763

