# b3lyp 6-31G(2df,p) opt Freq 

 titel

0 1
C -0.2515395525 -0.2108069344 -0.2105211956
C 1.2677636551 -0.1050752174 -0.1360852249
C 1.8650460325 1.3190817627 0.0026988252
C 3.3902330059 1.0352525643 -0.0996357873
C 3.1885312721 0.3582096262 1.253235293
O 4.268146749 0.0208709 2.0448998914
C 2.0287517269 1.3308597725 1.5987214692
O 1.2290188508 0.2883836747 2.1717172257
C 1.8911296657 -0.5739334869 1.1957698473
H -0.7168831668 0.2642426378 0.6554468696
H -0.6272301914 0.2738871756 -1.1178980734
H -0.5715658256 -1.2585087987 -0.236535976
H 1.7234329297 -0.6231825452 -0.9871202526
H 1.3974174243 2.1385183439 -0.5384849186
H 3.7458725652 0.4513827565 -0.9526823295
H 4.0016680109 1.9341820296 0.0197751823
H 3.9325539092 -0.2622277377 2.9040115921
H 2.0731487182 2.2648577463 2.156576079
H 1.8918319908 -1.6293659299 1.4706443932

