# b3lyp 6-31G(2df,p) opt Freq 

 titel

0 1
C -0.321063188 -2.5051340677 -0.3411682526
C -0.6833481768 -1.1730653377 -0.984907458
O 0.309640349 -0.9106743486 -1.971228046
C -0.0395985274 0.121468047 -2.8757200607
C -1.4863620589 0.0026397115 -3.3340256453
C -2.6074165087 0.1189584338 -2.270175461
O -3.4927427681 -0.690655429 -3.1307062823
C -2.1837914734 -1.3767434073 -3.1570862041
C -2.0756290557 -1.1812933562 -1.6159317989
H -0.9912426312 -2.7223343902 0.4958490746
H -0.3978490296 -3.3171349196 -1.0708489412
H 0.705745887 -2.4750503204 0.0324283116
H -0.6519482332 -0.381614924 -0.2132922406
H 0.1329337814 1.1160575825 -2.427918107
H 0.6450391263 0.0215240844 -3.7240840609
H -1.705473588 0.5144389903 -4.2730852173
H -3.0303057696 1.008545726 -1.8007339157
H -2.1011961819 -2.2835123994 -3.7560904826
H -2.8249878834 -1.7226782752 -1.0347081821

