# b3lyp 6-31G(2df,p) opt Freq 

 titel

0 1
C 1.4285902995 0.7972102466 0.0122999825
C 0.1173757976 0.1305533948 0.268262805
C -0.1359822413 -1.1661999647 0.4611355467
C -1.6018598151 -1.4571643886 0.6991499861
C -2.2472174689 -0.1300150335 0.3238936661
C -3.6739358318 0.1820951775 0.3345689097
O -2.999912902 -0.1076626061 -0.9028593431
C -1.1578198241 0.9554034255 0.3862681644
O -1.333296852 1.9563944178 -0.5921886537
H 1.6954531958 1.4722442849 0.8361201416
H 2.2372482398 0.07208834 -0.1112587479
H 1.3675055112 1.4188057202 -0.8874940722
H 0.6163034059 -1.948050844 0.4737786036
H -1.9978231654 -2.2697971674 0.0803574978
H -1.8023145653 -1.7217261302 1.7468032801
H -4.396334415 -0.5696553771 0.6486947756
H -3.9925549406 1.2168377006 0.4513587221
H -1.1773826565 1.4676605271 1.3604573052
H -1.8262418618 1.5315544468 -1.3096503697

