# b3lyp 6-31G(2df,p) opt Freq 

 titel

0 1
O 1.8299706867 0.5687824921 0.0105940499
C 0.4338948916 0.8539175859 0.094560651
C -0.3129718302 0.4481364482 -1.149602924
C -1.31703264 -0.4292333877 -1.0996158361
C -2.1147711722 -0.9053380778 -2.281693826
C -1.8378443472 -0.1359488013 -3.5522867402
O -2.0811597104 1.2729127139 -3.503232805
C -0.7267895357 0.8234011199 -3.6244277104
C 0.1706069572 1.0730251412 -2.436303335
H 1.9165942295 -0.3840565945 -0.1008812362
H -0.0197568408 0.3819643116 0.9785138288
H 0.3786928894 1.9405750599 0.2353280996
H -1.6014503661 -0.8471855898 -0.1355470415
H -1.9078944764 -1.9704456604 -2.4653527664
H -3.1891170273 -0.8536918957 -2.0554980034
H -2.1769338663 -0.612261507 -4.4730574892
H -0.2806171305 1.0290233599 -4.5982704626
H 1.1793959538 0.704972926 -2.6651892414
H 0.2886226447 2.1574366356 -2.296635522

