# b3lyp 6-31G(2df,p) opt Freq 

 titel

0 1
C 2.3817077205 -1.794803795 -1.9705292608
O 3.3013732313 -0.9032881159 -1.3452395896
C 2.0128999804 -1.0802712627 -0.7391795283
C 1.1058282254 0.1138983345 -0.7735082108
C -0.3864335195 0.0572510032 -0.3489788026
C -0.371764072 -0.5308903158 1.078853124
C 0.7783197743 0.3615353642 1.6477193946
C 1.0508188067 1.1717538735 0.3629230188
O -0.3062421725 1.490820859 -0.0799918004
H 1.9787825039 -1.4579652074 -2.9251239033
H 2.6443441474 -2.8508749749 -1.9245877544
H 2.0489117465 -1.6465574299 0.1911424547
H 1.1936530107 0.6255479762 -1.7340844669
H -1.1877651391 -0.2268813758 -1.0312230619
H -1.3259130294 -0.3580347969 1.5799009642
H -0.1560388046 -1.6026049572 1.1053492501
H 0.4439905409 1.013966858 2.4562294291
H 1.6467225968 -0.2038984253 1.9964385697
H 1.7216800122 2.0290140182 0.4059277838

