# b3lyp 6-31G(2df,p) opt Freq 

 titel

0 1
C -0.7345350667 1.2142104874 1.0023249734
C 0.4474458657 2.1167164053 1.3827499387
O 0.8740626678 2.9390065717 0.2700649604
C 1.8840967713 1.9731548927 -0.0917427635
C 1.4675249624 1.1403862884 -1.2981120963
O 0.2407415415 0.4457433239 -1.1148620769
C -0.0750186744 0.0516605709 0.2241568451
C 1.1997877305 -0.2207717829 1.0424518434
C 1.7033954836 1.2075440143 1.2479048278
H -1.2230986651 0.8254857668 1.9043952908
H -1.4771753562 1.7447946948 0.4022650244
H 0.2943419484 2.7146104917 2.2847731966
H 2.8542487963 2.4494614976 -0.2768835532
H 1.3283425804 1.7888382149 -2.1698341943
H 2.2837897626 0.436795158 -1.5337159241
H -0.7329513142 -0.8154167605 0.1262963491
H 0.9505194075 -0.6964305237 1.9970190464
H 1.9072151633 -0.8701621076 0.5185144101
H 2.5036228253 1.3423187763 1.974388632

