# b3lyp 6-31G(2df,p) opt Freq 

 titel

0 1
C 1.8702378329 -0.2980737523 1.5608782172
C 1.5794049777 0.4205059838 0.2349241601
C 1.7546363001 -0.4707739733 -0.9616094307
C 0.7120672412 -1.4327142014 -1.4523979245
C 1.1720837035 -0.3412305434 -2.3851665929
O 2.4092273852 -0.6852892859 -3.0044393987
C 3.0636393244 -0.7467071536 -1.7077092657
C 0.3259376541 0.7232020508 -2.9352217522
O -0.7160744517 1.0793767001 -2.4307887457
H 1.2025146493 -1.1544719382 1.6973242776
H 2.9000993731 -0.6692046489 1.5971360043
H 1.7303683882 0.3793425038 2.4083071421
H 0.552786897 0.8042866141 0.2348970404
H 2.2354938771 1.2944676955 0.1363462962
H 0.9676953732 -2.4540477448 -1.7210055606
H -0.2812779157 -1.2791988291 -1.0433938787
H 3.5519944881 -1.7128852451 -1.5370855914
H 3.7949577848 0.0637473624 -1.6089772193
H 0.7393055777 1.2030199156 -3.8486009774

