# b3lyp 6-31G(2df,p) opt Freq 

 titel

0 1
C 0.2514406472 0.1374310133 -0.3719737557
C 1.0467412628 -0.5603937744 0.7120144272
O 2.4749038725 -0.4646703881 0.5072312031
C 2.6073695495 -1.8839970893 0.3113322107
C 1.1236733904 -2.1250921466 0.7019324562
C 0.9637809891 -2.7336910529 2.1075554827
O 1.3592291916 -4.0866018266 2.1575273241
C 0.3042096754 -2.8506428871 -0.2502041628
C -0.376128284 -3.4986386839 -1.0028790494
H -0.822859871 0.019372883 -0.196289897
H 0.4874731151 1.2058806608 -0.367632725
H 0.4861667218 -0.2673239212 -1.3599277837
H 0.7712595759 -0.1627712588 1.6989922188
H 2.8562352885 -2.1369021411 -0.7253798604
H 3.3389424979 -2.3405730338 0.9863907818
H 1.6162419649 -2.1943861976 2.8016205699
H -0.0765828609 -2.595088191 2.4417082138
H 0.8161806795 -4.5659519866 1.5200669237
H -0.9736911962 -4.048665368 -1.687674608

