# b3lyp 6-31G(2df,p) opt Freq 

 titel

0 1
C -4.0155387354 0.1517147508 1.3231613545
C -2.8678469282 0.0210731126 0.323758393
O -2.0496260076 -1.044726675 0.7678571858
C -0.8484397621 -1.2235831863 0.0269493237
C -0.1217931486 -2.4348802067 0.5858977058
C 0.010437482 0.049115744 0.0662112365
O 1.2211776993 0.0157683482 -0.0206160259
C -0.7506664517 1.3119022931 0.1272927292
C -2.0866016949 1.2999911527 0.1824212608
H -3.6291261538 0.4220000556 2.3097177448
H -4.7250662975 0.9184061594 0.9989246555
H -4.5423081082 -0.8018651879 1.4057673186
H -3.2926721698 -0.2284019475 -0.6698150715
H -1.0950232629 -1.397712022 -1.0386708886
H 0.0681106286 -2.2979246836 1.6540745167
H -0.7256880176 -3.3350861586 0.4505907847
H 0.8362777259 -2.5558498587 0.0779477243
H -0.1736076407 2.2287679652 0.0597750061
H -2.6598215367 2.2230142248 0.1276964258

