# b3lyp 6-31G(2df,p) opt Freq 

 titel

0 1
C 1.3321320838 -0.6982564911 0.6786195326
C 0.9266696461 0.3208349064 -0.3995655034
C 1.6110472621 1.6530796787 -0.237622155
C 0.9798753749 2.7919237041 0.0745299989
C 1.7253045444 4.085030075 0.2339155197
C 3.1650864513 3.7782573369 0.6172079878
O 3.7616551664 2.8188870563 -0.2660661512
C 3.0703415236 1.6871682655 -0.5600556522
O 3.6394733707 0.7831268777 -1.1189041339
H 0.8128643024 -1.6485519115 0.5225699206
H 2.407298033 -0.8891355571 0.640265728
H 1.0799341215 -0.3344110903 1.6801036069
H 1.1827494825 -0.0870327254 -1.3829918531
H -0.1576009126 0.4755610489 -0.3776968475
H -0.1003656313 2.7968125145 0.2017018113
H 1.6852185395 4.6681889732 -0.6971139869
H 1.2675913486 4.70862366 1.0101559601
H 3.8065868611 4.660212573 0.5620607555
H 3.202709152 3.3856481851 1.641963612

