# b3lyp 6-31G(2df,p) opt Freq 

 titel

0 1
C 0.4428761841 -0.5613269409 -0.3051662604
C 0.9034903361 0.7164215301 0.3744284035
O 2.2987112612 0.9587645555 0.1276483559
C 2.8389030038 1.2316129125 1.4434335098
O 1.7830030548 1.8741439269 2.1134208797
C 0.8397821256 0.7845849071 1.9490934647
C -0.4971133583 1.089198669 2.5731707657
C 1.6556558529 -0.3983386239 2.4625405949
C 2.9228228867 -0.1141821727 2.1598861795
H 1.0053467743 -1.4252948052 0.0566587703
H -0.6252435193 -0.7306066088 -0.1291261555
H 0.5962994775 -0.4846026674 -1.3853531319
H 0.332865358 1.5754477914 -0.0036003511
H 3.7228108913 1.8597143092 1.3535142746
H -0.3924879228 1.2346514383 3.651700082
H -0.9254001342 1.9978608032 2.1403372783
H -1.195389162 0.2637023447 2.4040273768
H 1.2397008422 -1.3104571276 2.8681889755
H 3.8071175282 -0.7291643013 2.2515484778

