# b3lyp 6-31G(2df,p) opt Freq 

 titel

0 1
O 1.4581939761 0.6511286474 -0.5458577719
C 0.1496684158 0.3831720981 -0.0525220524
C -0.8456112074 0.3399670279 -1.1709669923
C -1.559986563 1.5807642063 -1.7316272441
C -1.978829658 1.2855499691 -3.1709822703
C -2.2529849586 -0.1613301058 -2.6824256138
C -2.3583638113 0.4092147992 -1.206871268
C -0.8557243876 -0.708715132 -2.2730272559
O 0.2197329857 -0.7769425031 -3.1884278165
H 1.6183486207 0.0233181373 -1.2606771753
H 0.1276027532 -0.5682071112 0.5044696825
H -0.0836194032 1.1813855441 0.6607756318
H -1.4136489609 2.5440916894 -1.2597029512
H -2.9085100529 1.8003502335 -3.4270630519
H -1.260523139 1.430065039 -3.9898710516
H -2.9755423498 -0.7985215015 -3.1872840939
H -3.0986245134 0.3157803605 -0.4266041701
H -0.9468145516 -1.7136442321 -1.8494583717
H 0.3382238151 0.098391754 -3.5732632235

