# b3lyp 6-31G(2df,p) opt Freq 

 titel

0 1
C 0.0947954088 0.1859234041 -0.0501058398
C 1.6090545951 0.0262388076 -0.0420851319
C 2.1568538628 -1.0136638598 0.972965962
O 1.7177858663 -2.0636244328 0.0387827015
C 2.1592534372 -1.0888331295 -0.972522118
C 3.6866200558 -1.1007185094 -0.7646190323
C 4.3778505236 0.0276690551 -0.0387215891
O 5.7735147309 0.0757871641 -0.0388442022
C 3.6847215275 -1.0414133511 0.7703789896
H -0.2355764325 0.7777373013 0.8104995926
H -0.2333907188 0.7098960525 -0.9544130226
H -0.4000010553 -0.7863651863 -0.0133278539
H 2.0876344107 1.0066125721 -0.0793752471
H 1.7632995169 -1.1305380639 1.9828715399
H 1.7682014315 -1.2833137865 -1.9713763286
H 4.2864595513 -1.8155892617 -1.3180693802
H 4.0039840887 1.0432303791 -0.0784194481
H 6.1156646122 -0.8238398966 -0.0039364101
H 4.2831347873 -1.7113816681 1.3788149484

