# b3lyp 6-31G(2df,p) opt Freq 

 titel

0 1
C 1.8668764065 0.903832167 0.0130363471
C 0.4872523777 0.4414580386 -0.0155296814
C -0.651972495 0.0539447144 -0.0302926417
C -2.0327788875 -0.4060942597 -0.0976840557
C -2.9358106735 0.5303051648 -0.9044821192
O -2.5309610369 -0.4991004522 1.2682277803
C -3.4508650811 -1.4588671141 1.5059342767
C -3.858107013 -1.4475210315 2.9599967664
O -3.876905933 -2.2129732241 0.6667266117
H 2.1829430138 1.1289188755 1.0374981981
H 2.5501688213 0.1465228874 -0.3863727975
H 1.994048172 1.8155717843 -0.580685913
H -2.0813241039 -1.4113480035 -0.5271147045
H -2.9618103575 1.521459452 -0.4449475298
H -2.5522848226 0.6279414137 -1.9235523789
H -3.9472925363 0.1197489241 -0.9472761853
H -4.6059788765 -2.220257299 3.1333216783
H -2.9840092878 -1.6224325742 3.5934740826
H -4.2621656466 -0.4673993433 3.2282203258

