# b3lyp 6-31G(2df,p) opt Freq 

 titel

0 1
O 1.1331028871 0.0558404867 0.050376862
C -0.0697431587 -0.0281162785 -0.0156560601
C -0.9526409029 1.2268355849 -0.0212434607
O -2.2054226228 1.0929336692 -0.6755700833
C -2.8222260309 -0.1909770188 -0.5770146641
C -3.0182858905 -0.6513928659 0.8854466679
C -1.7230431954 -1.4388493209 1.2378051258
C -0.8331879696 -1.3407280555 -0.036519402
C -1.8841433232 -1.2539218652 -1.1641822065
H -1.089934859 1.5194070672 1.0353320498
H -0.4076838957 2.0372905742 -0.5108422341
H -3.7636582592 -0.084018292 -1.1195129723
H -3.1925934476 0.2069784168 1.5389440897
H -3.9006108527 -1.2932073108 0.9584550648
H -1.2170447963 -1.052116232 2.1267803473
H -1.9447751143 -2.4919996887 1.4326179423
H -0.1198729449 -2.1614372082 -0.1268321111
H -1.4765535962 -0.9516705522 -2.1324438847
H -2.3974986072 -2.2143767701 -1.2865854306

