# b3lyp 6-31G(2df,p) opt Freq 

 titel

0 1
C 3.9748408129 -1.6600919698 0.5306145386
C 3.1595690973 -2.4381143762 -0.4619586106
C 1.6606764485 -2.4193088537 -0.6409307386
C 0.8573203122 -1.3174666288 0.0022536538
O -0.3431301041 -1.1676391146 -0.7449286959
C 2.5509883754 -2.0367453554 -1.80297573
C 3.2049145278 -3.2916267365 -2.4546870982
O 2.7343827125 -4.4792447286 -1.7967935909
C 3.7663553276 -3.7043903678 -1.1747786557
H 4.0653345735 -2.2023951413 1.4802881621
H 4.9901191336 -1.4860711588 0.1543425164
H 3.5359345429 -0.6824819386 0.7475204821
H 1.1351825282 -3.3660160789 -0.6940469922
H 0.6411386229 -1.5848818329 1.0491789449
H 1.4280594765 -0.3755806382 0.0180321214
H -0.9007975955 -0.5322398808 -0.2861677714
H 2.5106983076 -1.0596724787 -2.2667388764
H 3.567393677 -3.3941276777 -3.4702020465
H 4.6884239132 -4.2102473925 -0.911030583

