# b3lyp 6-31G(2df,p) opt Freq 

 titel

0 1
C 1.4044652677 -0.0772342958 -0.1581967891
O 0.0036064503 0.0617370241 -0.0070619034
C -0.4373157017 0.7438352269 1.1564601007
C -1.9636274086 0.6182097572 1.1372387354
C 0.044871763 2.1731172409 1.2672115777
C 0.6355075589 2.43960969 2.4333228729
C 0.6952795434 1.2438952139 3.3473411179
C 0.1210370707 0.1194735149 2.4750571538
O 0.114619421 -1.0535712847 2.73498668
H 1.8374851945 -0.7270078632 0.6139590812
H 1.564571586 -0.5409040668 -1.1341043281
H 1.9217890226 0.8917439619 -0.1367871748
H -2.4140755997 1.1277336592 1.9934718008
H -2.3563390785 1.0612230188 0.21768038
H -2.2351311857 -0.440223648 1.1649589677
H -0.1106801334 2.8839518797 0.4631009244
H 1.0287479559 3.4081015845 2.7222289021
H 1.7042461737 0.9910854348 3.6953194488
H 0.0812253298 1.3585339817 4.2508266419

