# b3lyp 6-31G(2df,p) opt Freq 

 titel

0 1
C 0.4231382078 0.7557230206 -1.8396057997
C 1.6994409524 0.4715527092 -1.08292776
C 3.1224724129 0.5249752625 -1.7575382473
C 3.5095289363 -0.3126844461 -0.5006400902
O 4.7024787535 -1.0295070463 -0.5170979474
C 2.1005713736 -0.9613215495 -0.6165764877
C 3.2931742185 0.7614588579 0.5997809036
O 2.1237533143 0.5859664203 1.4186431749
C 2.0095370505 1.3144998404 0.184249995
H -0.456001639 0.5478203116 -1.2197800602
H 0.370822477 1.8064526649 -2.1483868477
H 0.3503041031 0.140346724 -2.7419048018
H 3.1824045453 -0.0512465309 -2.6844905066
H 3.5949029044 1.5043658159 -1.8816820505
H 4.7637082611 -1.5360167823 0.3001339955
H 2.0665626783 -1.6718169487 -1.4447055104
H 1.6310092427 -1.3625140869 0.2801877153
H 4.1231016276 1.3116426754 1.031730878
H 1.7137032997 2.3559588779 0.2665071573

