# b3lyp 6-31G(2df,p) opt Freq 

 titel

0 1
C -3.1191938359 -1.6103843553 -0.0742390314
C -2.0372463431 -0.7034743704 -0.6381154165
O -0.7573682081 -1.0862707787 -0.0903133524
C 0.0240454544 0.005828566 0.1825763883
O 1.1939028096 -0.0897635292 0.4156569165
C -0.8296090205 1.2307267209 0.1398635404
C -2.0216594588 1.1785590651 1.0846972709
C -2.1900311588 0.7931360291 -0.3535752574
C -3.0428199494 1.6106999783 -1.291711561
H -3.2106766517 -1.489782024 1.0083902812
H -4.0841409852 -1.3731077623 -0.5331699075
H -2.8869687105 -2.6569580809 -0.287186086
H -1.9746351709 -0.8461533723 -1.726159388
H -0.3603678287 2.1759258606 -0.0975544983
H -2.0303242985 0.4198407731 1.8603398551
H -2.4242881247 2.1381613083 1.3900406255
H -2.9989730241 2.673576424 -1.0371380175
H -2.7104153906 1.4991557335 -2.329696501
H -4.0937014245 1.3037778642 -1.241289221

