# b3lyp 6-31G(2df,p) opt Freq 

 titel

0 1
C 0.0394815755 0.0512287587 0.0854865161
C 1.5646266458 0.0711415108 0.0197164207
C 2.2561056098 -0.9562782052 0.9681673967
O 3.583965217 -0.5743490342 1.2712698591
C 4.3015227001 -0.2003525251 0.0929175761
C 3.6973253397 -0.9433006631 -1.0905485325
O 3.5711183867 -2.3322242236 -0.664495823
C 2.2484589771 -2.0103175907 -0.229767774
C 2.133772697 -0.7717142474 -1.141974646
H -0.3145082494 0.4676889487 1.0344325482
H -0.3983440742 0.6425290704 -0.7257254469
H -0.3575052181 -0.9665781222 0.0010325167
H 1.9318005376 1.0972765534 0.1234463781
H 1.7698291842 -1.2139819682 1.9106777565
H 4.2727467582 0.8890706755 -0.062473438
H 5.3430983122 -0.5007577879 0.2432546774
H 4.2658320748 -0.8356017694 -2.0174924315
H 1.5720225674 -2.8643866238 -0.180021068
H 1.6795567786 -0.7704910466 -2.1337217355

