# b3lyp 6-31G(2df,p) opt Freq 

 titel

0 1
C 1.4003524701 -0.1817644405 -0.1237577227
O 0.0128567802 0.033512475 0.0157096739
C -0.3288470468 0.7327027992 1.184792664
C -1.8625816066 0.9155222145 1.2776749647
C -1.6950390374 2.4656736189 1.2708663722
C -0.1338783411 2.2816615253 1.1342126444
C 0.0845408088 2.9396382079 2.5228943424
C -1.4488313718 3.0561545705 2.6653506335
O -2.1693400568 3.4773404855 3.5227470936
H 1.8045996817 -0.7663810743 0.7172342966
H 1.5492867102 -0.7422426798 -1.0494886604
H 1.9629002606 0.7615448646 -0.1881638575
H 0.1458091057 0.2613753905 2.0603386348
H -2.3342567807 0.5520419811 0.3628948398
H -2.3707324415 0.4796033557 2.1404012468
H -2.331602528 3.0390481842 0.5963631949
H 0.4361826158 2.6716600062 0.292576486
H 0.6075014953 2.3587459466 3.2894256703
H 0.5447386422 3.9324935189 2.4721503527

