# b3lyp 6-31G(2df,p) opt Freq 

 titel

0 1
C -1.6901478065 -2.8827361539 -1.5904742206
C -1.5460290482 -1.3996748266 -1.2675825839
O -0.7309691309 -1.3516935066 -0.0738834295
C -0.2466522321 -0.1877841306 0.4215952131
O 0.4640243966 -0.219418051 1.3901493199
C -0.6658464789 1.1019923307 -0.2640118489
C -2.1449388341 1.443256428 -0.0092274422
C -3.1418541647 0.4580863358 -0.5518107933
C -2.8952136437 -0.7329801838 -1.094239936
H -2.2343663756 -3.394056631 -0.7912084645
H -2.2402699469 -3.0122280532 -2.5271176343
H -0.7066986355 -3.3464792951 -1.6925951031
H -0.986429828 -0.9213470473 -2.0826234289
H -0.0287986408 1.8867493532 0.1461387609
H -0.479347975 1.0482025747 -1.3416711337
H -2.3092064457 1.566560786 1.0705108863
H -2.3548804194 2.4285110811 -0.4458257568
H -4.1803645685 0.7753804984 -0.476810887
H -3.7380468521 -1.3202558688 -1.4505982373

