# b3lyp 6-31G(2df,p) opt Freq 

 titel

0 1
C 1.3347995765 0.0567126173 0.9504100873
C 0.7590080178 -0.0189737886 -0.4681804808
C 1.6329731133 -0.7759664453 -1.4199816879
C 2.1965976572 -2.2274632027 -1.3770732932
C 2.9135351328 -1.4729795624 -2.5221392682
O 3.0410853645 -0.3015631077 -1.6238531081
C 1.5485188913 -0.926046931 -2.9526507327
C 0.5290092931 -1.1982371593 -3.9543502151
O 1.2577944517 0.0569981521 -3.893250455
H 1.4287373897 -0.9393300316 1.3947000618
H 2.3279127609 0.5132770164 0.9373048288
H 0.6889662982 0.6548113782 1.5993214616
H -0.2285168941 -0.4976144974 -0.4575907865
H 0.6157281579 0.9888755258 -0.8755339631
H 2.8374865264 -2.4321559481 -0.51976198
H 1.5277713285 -3.055346638 -1.6282898819
H 3.7845675361 -1.7571999061 -3.1102049563
H 0.7589354928 -1.8203830843 -4.8176533897
H -0.5267806246 -1.1288124073 -3.6976521108

