# b3lyp 6-31G(2df,p) opt Freq 

 titel

0 1
C 1.4387039346 0.0197868693 -0.1555153124
O 0.052865763 -0.1455595444 0.0864765428
C -0.4456665164 0.5963987052 1.1941895722
C -1.9667942234 0.6055146835 1.0922218426
C -2.5471802921 -0.8073109966 1.2434237721
C -1.9588010348 -1.5375217183 2.4152789403
C -0.7948209987 -1.1998358417 2.9877706297
C 0.0299097225 -0.0826932569 2.4923112778
O 1.0713723219 0.2479456429 3.0282543235
H 2.0538019566 -0.3213642176 0.6859175301
H 1.6744939296 -0.5752777061 -1.0410180549
H 1.6829192444 1.0740117799 -0.354339378
H -0.0370339837 1.6172082704 1.1819436244
H -2.3598436468 1.2483569564 1.8889813175
H -2.2633745154 1.0460231818 0.1355264002
H -3.6380697337 -0.766906914 1.339767701
H -2.345955566 -1.3900364966 0.3341005184
H -2.5153233119 -2.3908744551 2.7976271411
H -0.3947505597 -1.7401795221 3.8402571315

