# b3lyp 6-31G(2df,p) opt Freq 

 titel

0 1
C -1.4778229081 1.7642622704 0.5219962518
C -1.1589924112 2.1010472976 -0.9159290635
C -1.9339653699 1.8547301139 -2.2046808323
O -1.4351212736 3.0893837188 -2.7621609693
C -0.754462189 3.434418532 -1.5317009137
C -0.2734691545 1.1821524897 -0.1520932081
C 0.1267554843 -0.2644122361 -0.4213142508
C 1.5395038954 0.229789103 -0.0402567888
O 1.0534325165 1.5721489419 0.2058893111
H -1.3064656613 2.5376611189 1.2655863579
H -2.3219707652 1.1112471992 0.728371822
H -1.6340637038 0.9806654162 -2.799240394
H -3.0284340718 1.8608651002 -2.1056241389
H 0.3224885472 3.5814975713 -1.6755537149
H -1.1868539267 4.3279752728 -1.0623712998
H -0.3079823292 -1.0038187843 0.2537965766
H 0.0083081883 -0.6009142596 -1.4535624763
H 1.9713519771 -0.2131788519 0.8635313
H 2.2829384856 0.2104355159 -0.8445376794

