# b3lyp 6-31G(2df,p) opt Freq 

 titel

0 1
C 1.5508739808 0.0488111843 -0.0347957808
C 0.0959528661 0.00628167 -0.0035374029
C -1.106847995 -0.0344806991 0.0258095902
C -2.5652172844 -0.075534249 0.0561628393
C -3.1289991465 -1.3547010153 -0.606025616
O -2.8758842522 -2.4944810162 0.1960308846
C -3.4148018134 -2.3406097919 1.4818370944
O -2.8696627486 -1.250534029 2.1760777215
C -3.1223971532 -0.032551281 1.4984926101
H 1.969295867 0.0622553786 0.977681515
H 1.962522026 -0.8258426856 -0.5504725588
H 1.9142590893 0.9418517983 -0.5554668971
H -2.9662153833 0.7914319137 -0.4872672784
H -4.2154221226 -1.2290526234 -0.7547068128
H -2.6615546344 -1.5383241499 -1.575167937
H -4.5150893653 -2.2250313767 1.412682682
H -3.1615668824 -3.2398686973 2.0459885417
H -4.2084921724 0.1589942285 1.4547252387
H -2.6500635953 0.7595234312 2.0824235561

