# b3lyp 6-31G(2df,p) opt Freq 

 titel

0 1
C 0.6934918242 0.8254789668 0.1344874829
C 0.9705967805 -0.6650715284 0.2805579817
C 2.2350908564 -1.0420366758 1.151710679
O 3.0288464568 0.0378147145 1.603193678
C 2.8957869684 -1.6918127984 -0.0900245322
C 2.5953104799 -3.1883623688 -0.3421950685
O 1.2691079667 -3.4591303366 0.1356602147
C 1.4123649339 -2.8561312895 -1.1572920824
C 1.6451045743 -1.3363382329 -0.9557643359
H 0.3412586678 1.2612702013 1.0768070381
H 1.5920060646 1.3717433381 -0.1659360658
H -0.0834063395 1.0003812922 -0.6175037257
H 0.0730220403 -1.193862245 0.6112363129
H 2.0128420326 -1.7429382771 1.965087554
H 2.5649730439 0.4688009985 2.3282387986
H 3.8938322382 -1.3412146139 -0.3484899501
H 3.2795343321 -4.0289047966 -0.3749584708
H 0.9453107791 -3.3733003092 -1.9882120195
H 1.7396621895 -0.7531029291 -1.872381439

