# b3lyp 6-31G(2df,p) opt Freq 

 titel

0 1
C 0.7146703128 1.3675850637 -0.0611605261
C 1.6252805957 0.1484120493 0.0513983665
C 0.140429777 -0.0017456935 0.0952925898
O -0.5357218854 -0.5865153463 -1.0149213973
C -1.6396956193 -1.2722272262 -0.416449909
C -1.1244323929 -2.5783912813 0.2173918034
C -0.4156173409 -2.0029902027 1.4823453413
C -0.675614622 -0.4920165459 1.2859270901
O -1.9934619712 -0.4801361989 0.7010286202
H 0.663747101 2.0570076625 0.7753202876
H 0.6201371008 1.8267632322 -1.0388504644
H 2.1294816077 -0.182134841 -0.84973781
H 2.1939279599 0.0090949147 0.9658703554
H -2.4593832873 -1.3374285801 -1.1307784435
H -1.9543336703 -3.2402091466 0.4771622668
H -0.4503383155 -3.1076282551 -0.4580988325
H -0.8843702274 -2.3551414133 2.4035630188
H 0.6497642459 -2.238066065 1.5229418322
H -0.6458303985 0.1355577535 2.1749817307

