# b3lyp 6-31G(2df,p) opt Freq 

 titel

0 1
C 1.2484914806 1.1837807476 0.3217717335
C 1.122462813 -0.3230311392 0.076656624
C 1.855434056 -0.8029931092 -1.1809335976
O 3.2204711494 -0.4436924831 -1.1793557559
C 1.5234255991 -2.2620117206 -1.5774649861
C 2.1481638311 -2.5740698576 -2.8855989078
C 0.8416001623 -1.7864442825 -2.8916335874
C 1.1114721192 -0.3731913858 -2.4948925496
O 0.7279941897 0.6917880368 -2.8917132829
H 0.7258246044 1.4696620939 1.2392802338
H 2.2972169141 1.4765757576 0.4190050487
H 0.8238048124 1.7457142738 -0.5131201872
H 1.5252570331 -0.8844082862 0.9338936306
H 0.0666769755 -0.6098206146 0.0005239631
H 3.6033189168 -0.7096318151 -0.3349362712
H 1.1403485939 -3.0152696188 -0.900279317
H 3.0764308075 -2.0862608905 -3.1622829781
H 2.0434399949 -3.5922527656 -3.2451892825
H -0.0414648229 -2.1594615209 -3.3946738504

