# b3lyp 6-31G(2df,p) opt Freq 

 titel

0 1
O 0.6471644911 0.1224545899 0.4752512896
C -0.578951231 0.6930752146 0.7887649233
C -1.8976903704 -0.0565256974 0.6076196421
C -1.8048299988 -0.880883317 -0.6775341821
O -1.3181980295 0.268453684 -1.4486117694
C -1.5187941953 1.1097063953 -0.2928678632
C -2.545258678 2.2062574935 -0.1809629306
C -3.2200482387 1.8963328445 1.1925222396
C -3.1343213949 0.3455030896 1.3882436397
H 0.6638827005 0.0415623104 -0.4886964068
H -0.5206806193 1.3241063491 1.6704631661
H -1.0927149711 -1.7128088728 -0.7022002842
H -2.7781165691 -1.2106266425 -1.0569468695
H -2.151480601 3.2262996031 -0.2268406962
H -3.2614514372 2.0871374502 -1.0016292794
H -2.6693159816 2.4011548097 1.9934040498
H -4.2471171796 2.2685119424 1.2407289663
H -3.1185113091 0.0745224449 2.4487847361
H -4.0119884372 -0.1400968016 0.9455641189

