# b3lyp 6-31G(2df,p) opt Freq 

 titel

0 1
C 1.209825337 1.2075329457 0.3752594529
C 0.9906849083 -0.2800637184 0.0856450732
C 1.6845343921 -0.7528580486 -1.1980710837
C 0.9876572196 -0.4051876532 -2.5443780815
O 1.9114801983 -0.3133048074 -3.6453395309
C 1.6770350209 -1.6867279464 -4.0243801071
C 0.7059426755 -1.9138269205 -2.8394672278
C 1.4170917293 -2.2429791069 -1.5196057967
O 1.6024916474 -3.258367768 -0.9133219134
H 0.6894680233 1.5084049065 1.2897056613
H 2.2741510075 1.4298662108 0.5051817141
H 0.8384151791 1.8361818911 -0.4408202977
H 1.3654026458 -0.8877689663 0.916862629
H -0.0848864086 -0.4919719224 0.0182945533
H 2.7450622875 -0.479159916 -1.1897111527
H 0.2341327041 0.3852158634 -2.5477284605
H 1.1878437045 -1.7513186056 -5.0031146927
H 2.5934565887 -2.2874739013 -4.0386971242
H -0.2588927502 -2.3759708865 -3.0431506348

