# b3lyp 6-31G(2df,p) opt Freq 

 titel

0 1
O -0.7378361347 0.9333045699 -0.2345368992
C -1.9255125992 0.3803751646 0.3210418619
C -2.895931135 0.1387408826 -0.8132948957
C -3.7611577312 1.4013113151 -0.938127459
C -3.3054727373 2.3602380317 0.1533349541
C -2.7117864334 1.3858487696 1.1943175886
C -3.850186043 0.6334857666 1.8896250041
O -4.7313238606 0.0183476763 0.9502348457
C -4.3437677362 0.1288102696 -0.3943122925
H -0.1108146311 1.0669746273 0.4837911242
H -1.6939956182 -0.538480479 0.8816453144
H -2.5645387312 -0.4310220509 -1.6734707128
H -4.0794961654 1.7820398125 -1.9018527965
H -2.5365430997 3.0381897476 -0.2272778984
H -4.1228218061 2.9591375173 0.5694530667
H -2.0799944765 1.8716670721 1.9441969525
H -3.4474941031 -0.1473204005 2.5524602613
H -4.4409424529 1.3225328218 2.5074503467
H -5.040085655 -0.4278158442 -1.0110988461

