# b3lyp 6-31G(2df,p) opt Freq 

 titel

0 1
C 0.2545866548 -0.3708563949 -0.3151287224
C 0.7998933798 0.7711437931 0.5158736207
O 2.1080735723 1.2068030729 0.0194467004
C 2.7271582666 0.7755994299 1.2312750251
C 1.4059261453 0.3872912552 1.8680026417
C 2.2088641197 1.546846918 2.3931152386
C 2.8568680887 1.6550930858 3.7705365056
O 2.5992610044 3.0745898685 3.7946679749
C 1.9095711416 3.0352412471 2.5214294572
H -0.7056228206 -0.7108738286 0.0886395469
H 0.0975018609 -0.0439193911 -1.3472407376
H 0.951392727 -1.2141523082 -0.319650708
H 0.0948227483 1.6125591171 0.5331082697
H 3.6985814343 0.2957324232 1.1715753597
H 1.124011335 -0.4661947544 2.4724881686
H 2.3365086913 1.1298880706 4.5832816172
H 3.9294390527 1.4265188367 3.8261658203
H 0.8501786923 3.3058703437 2.6243286546
H 2.3792429357 3.6830810055 1.7724750669

