# b3lyp 6-31G(2df,p) opt Freq 

 titel

0 1
C -3.3577504045 -1.5729443123 0.6322052942
C -2.1996322188 -0.7607016494 0.1222622063
C -2.2892274626 0.7641434321 0.1187498308
C -0.8601362443 1.2484989965 -0.203698158
C 0.0534607118 0.0829208084 0.1863471766
O 1.2160318033 0.1481744366 0.4968050749
C -0.7780522193 -1.1824945566 0.1803360684
C -0.2052263314 -2.4550725429 0.7258577685
O -1.5391852451 -1.2405611082 -1.0555707466
H -3.5810945399 -1.3173045424 1.6731146918
H -4.2537762142 -1.3655142672 0.0367149025
H -3.1514825049 -2.6431669615 0.5690841892
H -3.0332496318 1.1105364943 -0.6053847265
H -2.607292301 1.1124713521 1.1077823331
H -0.7337005014 1.4395801546 -1.27398715
H -0.5639638966 2.1533210743 0.3298881686
H 0.0551856649 -2.3346347376 1.7817611415
H -0.9098675124 -3.2825410371 0.6242009092
H 0.7134895783 -2.7099899338 0.1893620256

