# b3lyp 6-31G(2df,p) opt Freq 

 titel

0 1
C 1.4475617397 0.0240835299 -0.1063725285
O 0.042752125 0.0296797235 -0.0087619749
C -0.4211079891 0.6487438889 1.1719489441
C -1.9428307483 0.5918620207 1.1798088378
C -2.5438084089 -0.8253095744 1.2733515995
C -3.4712236824 -0.7584434455 2.4600561023
C -3.4606349045 0.4308431026 3.074246508
C -2.5181210223 1.3474786571 2.396173194
O -2.2248922441 2.4760408035 2.7207529566
H 1.9130476691 -0.5275450472 0.7259968072
H 1.7085591576 -0.468725061 -1.0460733693
H 1.8606423668 1.0448353022 -0.1126702514
H -0.0151185876 0.1330999276 2.0607465578
H -0.0963230508 1.6988993442 1.2263111283
H -2.2959709676 1.1019545029 0.2762837232
H -3.080473328 -1.1195237641 0.3643701568
H -1.7699685451 -1.5890198682 1.4205002815
H -4.070016519 -1.6107110019 2.7651018482
H -4.0268509307 0.7228405793 3.9492016088

