# b3lyp 6-31G(2df,p) opt Freq 

 titel

0 1
C -0.1303598103 0.1759951487 -0.1279801578
C 1.3569459512 -0.0495559349 0.029572745
C 2.2643969668 1.2067920417 0.1151653318
O 2.7068439278 0.8516408651 1.4442811927
C 1.9623349245 -0.3847362174 1.4215293599
C 2.8404142115 -1.5914673875 1.1791197856
C 2.1395739582 -2.8611644065 0.7318868533
C 2.7119160765 -1.9059967447 -0.2820491202
O 1.7950986203 -1.0343849541 -0.9050504774
H -0.4863848928 0.9286757707 0.5815107802
H -0.3554309084 0.5238849134 -1.1413212344
H -0.6815316818 -0.7540950484 0.0397005679
H 3.0816658479 1.2133411988 -0.6147950642
H 1.750343943 2.17511595 0.1045891365
H 1.2939462136 -0.469344513 2.2861019583
H 3.782409564 -1.6489535319 1.7114801333
H 2.6544669194 -3.7995295406 0.9086055578
H 1.0578960576 -2.9157211521 0.808005232
H 3.543291621 -2.1839208471 -0.9193769804

