# b3lyp 6-31G(2df,p) opt Freq 

 titel

0 1
O 0.2022082578 0.1601630511 -0.1549325199
C -0.8458585909 0.478991253 0.75314252
C -2.1677292309 0.1956734738 0.0137377502
C -2.5322802394 1.5164982221 -0.6608483892
C -3.0265392227 2.6300890215 0.240366368
O -3.1640668236 2.3409437141 1.6118421281
C -1.8554760706 2.345844028 2.1919987686
C -0.882328677 1.9967809631 1.0511828332
C -1.5895264389 2.6066743306 -0.1752704812
H 1.0365714371 0.4201163519 0.2486934981
H -0.7479794835 -0.1148656737 1.674801644
H -2.0114595029 -0.603482713 -0.713616713
H -2.9447658195 -0.121667313 0.7154858695
H -2.8787011068 1.5132275653 -1.688439637
H -3.7426649497 3.3579071573 -0.1261372956
H -1.6287003248 3.341447917 2.6018282847
H -1.8499804396 1.6230842709 3.0145109864
H 0.1181344926 2.3982114178 1.2361372149
H -1.1209052369 3.3429106023 -0.8145489497

