# b3lyp 6-31G(2df,p) opt Freq 

 titel

0 1
C 0.084076892 -2.4907694013 0.4640237389
C -0.7774099919 -1.3203054928 -0.0062219002
C -2.0874186802 -1.1753912732 0.7932559711
O -2.931603515 -0.1878567827 0.2242172605
C -2.3820380297 1.0948603887 0.1609072368
C -1.817555821 1.5203252985 -1.1513735371
C -0.8755502978 1.2383161746 0.0241499768
C -0.0289355443 0.0110313461 0.079024182
O 1.166915026 0.0763759585 0.267084725
H 0.3360594823 -2.3912475884 1.5246309094
H -0.4404321447 -3.4403802772 0.3216428709
H 1.0244703644 -2.5206932993 -0.0889741103
H -1.072697641 -1.4748738334 -1.0538431619
H -2.6584121012 -2.1077559757 0.7680671474
H -1.8625592136 -0.9435238035 1.8464006097
H -2.9035000944 1.8215736419 0.7795657771
H -1.8596387401 0.7938033987 -1.9545207903
H -1.9016413778 2.5556639724 -1.4610305286
H -0.397338862 2.104537288 0.4672296728

