# b3lyp 6-31G(2df,p) opt Freq 

 titel

0 1
C 0.6406241772 -0.8843831273 -0.8955002853
C 1.1697473477 -0.0096848694 0.2423259642
C 1.2021299973 1.4843091404 -0.1399218356
C 1.7007258237 2.3479757373 0.9199463168
C 2.1162597263 3.0435592042 1.8126189212
C 2.6013193526 3.9512078146 2.8218470953
O 2.701225 5.14646536 2.6848992479
O 2.9326159853 3.2890899823 3.9495072987
C 3.4267398632 4.1173221255 5.0096862595
H 0.6253639047 -1.9389114106 -0.6053290468
H -0.3803451247 -0.6006490971 -1.1740723819
H 1.2657152999 -0.7941955326 -1.7908240812
H 0.5476923638 -0.1327675421 1.1355879651
H 2.1804923172 -0.3246774152 0.5237572198
H 1.8241463245 1.6244173806 -1.0344961333
H 0.1939486953 1.8159487052 -0.4235254341
H 3.6465044735 3.4390498216 5.834044664
H 4.330207926 4.6472359708 4.697135119
H 2.6751976764 4.852944832 5.3077558468

