# b3lyp 6-31G(2df,p) opt Freq 

 titel

0 1
C 2.1913669161 1.7301915398 -0.5106068513
C 1.6400939558 0.3228303417 -0.2400480757
C 2.1913674107 -0.7206882296 -1.1705250851
C 1.6864480286 -0.9675063545 -2.5856830408
C 1.6584817126 -2.0887486725 -1.600219705
O 0.4849136813 -2.7529541978 -1.3038446408
C 3.0911955961 -2.6942383736 -1.3845373367
O 4.034523697 -2.0016655986 -2.2155287006
C 3.600980806 -1.3875054824 -0.9897780575
H 1.7800878814 2.457990998 0.1959184853
H 3.2823629333 1.752960179 -0.4170706984
H 1.9402655185 2.0584240432 -1.523970325
H 1.8581689136 0.0414603802 0.800022959
H 0.5466420759 0.3311952916 -0.3281066709
H 0.7037524231 -0.5415659777 -2.7668874207
H 2.3583703309 -0.9763728063 -3.4349578995
H 0.4829671815 -2.9738399692 -0.3654602581
H 3.3347263246 -3.7010576792 -1.0625479151
H 4.3640349132 -1.1014513221 -0.274644693

