# b3lyp 6-31G(2df,p) opt Freq 

 titel

0 1
C -0.5419860837 2.0849380253 1.2095860508
C -0.7661018864 1.2732888763 -0.0737282583
C -2.1810818667 0.76064393 -0.2499169182
C -2.4781145133 -0.0645924226 -1.4926295424
C -2.0989846687 -0.743250756 -0.2081507689
C -2.9946244425 -1.672816423 0.5557300425
O -0.7243915065 -1.1093707154 -0.1201417949
C 0.0816658404 -0.0095212737 -0.0519363327
O 1.272623604 -0.0950520427 0.0177193672
H -0.8892433925 1.5349542857 2.0902750473
H 0.5221501797 2.2971803393 1.3375807556
H -1.0853513087 3.0331967609 1.1643516248
H -0.427334852 1.8667646719 -0.9306238354
H -2.9961175353 1.2859856051 0.2348922527
H -3.5138675857 -0.1290462222 -1.8080613102
H -1.7553606461 -0.0656164723 -2.3030125952
H -2.708620424 -1.70972363 1.6115961043
H -4.0326859855 -1.3354241455 0.489494751
H -2.9391521766 -2.688293791 0.1509783299

