# b3lyp 6-31G(2df,p) opt Freq 

 titel

0 1
O -3.5918138355 -0.3843566551 0.4913780635
C -2.9464742245 -0.1254043209 -0.7561108903
C -1.9628841502 -1.2507279176 -1.1137690536
C -0.8189626257 -1.3424633911 -0.0965329389
C -0.0939845468 -0.0305400509 0.1953491309
O 1.0023114398 -0.0212142019 0.7103016759
C -0.8249560865 1.242427146 -0.09160954
C -1.164365653 1.6178753668 -1.5316028141
C -2.2564151965 1.2116084167 -0.5939461921
H -4.1223978057 -1.1813798876 0.3903868049
H -3.6997540103 -0.0390070202 -1.5551770186
H -2.509634931 -2.2011357888 -1.1460941689
H -1.5775499934 -1.0961437036 -2.1277649848
H -1.2391772667 -1.6466532719 0.8711003108
H -0.0769694786 -2.0967087069 -0.3699537743
H -0.5115525777 2.061691849 0.5454801182
H -1.0667965254 2.6667022349 -1.7867741195
H -0.8670286849 0.9439184225 -2.32645245
H -2.9121566375 1.9926895205 -0.2229145989

