# b3lyp 6-31G(2df,p) opt Freq 

 titel

0 1
O 0.4693914941 0.35660269 0.2067204543
C -0.8015766916 0.1511015897 0.7530010775
C -1.9759509053 0.8590893877 0.1022797159
O -3.117397043 1.2340814487 0.8313589468
C -4.0293191393 0.1681723661 1.0963827282
C -3.3283827861 -1.0050588099 1.8299212406
C -2.8846367051 -1.4732969801 0.4120280555
C -4.1945840794 -0.7981451363 -0.1119282666
C -1.7484950907 -0.6160924858 -0.1303372746
H 0.7823383519 1.2182723423 0.5031640987
H -0.8304150406 -0.0137583108 1.8285448974
H -1.7356644846 1.5698500563 -0.6834041161
H -4.9081514405 0.6386763456 1.538923746
H -2.5815781673 -0.765578858 2.588723456
H -4.0605190235 -1.6977444137 2.2530854405
H -2.7223453098 -2.5401284082 0.2478289157
H -4.184530105 -0.3674474436 -1.1159056987
H -5.0754109116 -1.4317255389 0.0176895613
H -1.3527859526 -0.9065740411 -1.0991192482

