# b3lyp 6-31G(2df,p) opt Freq 

 titel

0 1
C -0.2226719696 1.4700606947 0.1869887542
C 0.0931175527 -0.0124150223 0.0044808707
O -1.1484998965 -0.7407674688 -0.1817655644
C -1.1802739435 -1.8094002099 0.7234355829
C -2.012401879 -1.8126451619 2.0767458839
O -2.4114180261 -0.5053698389 2.3963505645
C -0.6810920689 -2.2744310368 2.8080429615
C 0.0184749258 -1.6878282457 1.601572451
C 0.7295207934 -0.6255986158 1.2462441721
H 0.6979497286 2.0549660504 0.2863050656
H -0.7765830281 1.8420881144 -0.6796831563
H -0.8378608181 1.6065226821 1.0802350045
H 0.6994796038 -0.1482170551 -0.9051109419
H -1.3297227489 -2.7630278275 0.1987791421
H -2.8483710362 -2.5235217462 2.1244570371
H -2.7164608208 -0.5000731416 3.3090455463
H -0.471003956 -1.8252199179 3.7813222106
H -0.6257445762 -3.3645980292 2.8848674976
H 1.5040212937 -0.116260054 1.8063843876

