# b3lyp 6-31G(2df,p) opt Freq 

 titel

0 1
C -0.6364790012 4.1712640981 -0.6764655629
C -0.4968723186 3.3292173507 0.5719561576
C -1.5972162826 3.1484029128 1.5751492702
O -2.880285034 3.144717704 0.9462972711
C -2.5330133281 1.9402224166 0.2138643371
C -1.1127457226 1.9475889238 0.7822516606
C -0.3357601337 0.7174045916 1.1719481942
C 0.2848741907 0.0425349793 -0.038788484
O 0.1401676485 -1.1161382086 -0.3286267545
H -0.0487557621 3.7636131033 -1.5057253539
H -1.6812786202 4.2353239396 -0.9887779293
H -0.2876608256 5.1918818892 -0.4882464409
H 0.4786373308 3.3882445412 1.0539343424
H -1.553449691 3.4017744224 2.6290169765
H -3.1295271392 1.0924388505 0.5705672072
H -2.6629351382 2.052305618 -0.8686731934
H 0.4858975354 1.0058972015 1.8426075734
H -0.9588643465 -0.0150306455 1.695742692
H 0.900258288 0.7229806114 -0.6721579434

