# b3lyp 6-31G(2df,p) opt Freq 

 titel

0 1
C 1.2946852627 0.8543694008 0.3244865777
C -0.0229387982 0.1516815217 0.2972219373
C -0.2730914112 -1.1586209856 0.3693102427
C -1.7308488433 -1.4669250729 0.2035156356
O -2.3054334521 -2.5291941414 0.896866865
C -2.3044632704 -1.1336314635 -1.1413911699
C -2.397447125 -0.1211134132 -0.003592253
C -1.3184595236 0.9506323145 0.1085296153
O -1.253157367 1.8674427553 -0.9801239039
H 1.3551240548 1.5402909611 1.1797380044
H 2.1313766917 0.1538373687 0.3862945883
H 1.4156130565 1.4729702014 -0.5717474976
H 0.4671481791 -1.9441377274 0.4840893652
H -2.193613428 -2.359832512 1.839338867
H -1.6232536771 -0.9788002668 -1.9731554859
H -3.2400065417 -1.6178252143 -1.4010149817
H -3.3866684466 0.0743595542 0.3913874091
H -1.499972443 1.5907317794 0.9823527649
H -1.2990499674 1.3491829698 -1.7917120305

