# b3lyp 6-31G(2df,p) opt Freq 

 titel

0 1
C -0.0858676104 -0.0962020055 -0.057076697
C 1.0911377214 0.6549726105 -0.7047424213
C 2.1343995334 1.0711282051 0.3226264021
O 3.2251009842 0.5367264434 0.3748663414
C 1.775412542 2.1546947588 1.2692147849
C 2.5837692306 2.3810756468 2.5440921853
C 2.5724646226 3.4503945046 1.5255824231
O 1.3959125381 4.2443738138 1.5944836918
C 0.5669766342 3.0905809557 1.2875808527
H -0.6086087858 0.5206629415 0.6810435975
H -0.8143347259 -0.3932500836 -0.816558874
H 0.2631788437 -1.0005855525 0.4499820441
H 1.5967283949 0.0169859352 -1.4334374044
H 0.7175064067 1.5414673988 -1.2313663251
H 2.0606793375 2.5335243534 3.4838605407
H 3.4778304713 1.7679720616 2.574730586
H 3.4357249716 3.8489738627 1.005119879
H -0.1966578902 2.9124903353 2.0537181865
H 0.0884957302 3.2229092044 0.3114200965

