# b3lyp 6-31G(2df,p) opt Freq 

 titel

0 1
C 1.5356027653 -0.9260908968 0.9730605959
C 1.1070020602 -0.0377262695 -0.1965382332
C 1.6492602043 1.4002714479 -0.078000839
C 1.2640433041 2.2793549308 -1.2168956319
C 0.4702238425 3.3831901584 -1.3163870973
C 0.4846916295 3.7643970188 -2.6994940003
O -0.1570611068 4.809024936 -3.2901784154
C 1.2816386017 2.8693979666 -3.3421282256
O 1.7621799276 1.9574542418 -2.4384172546
H 1.1390720134 -1.9403967941 0.8666631205
H 2.6270579121 -1.0001785961 1.0358703551
H 1.17670026 -0.5268666005 1.9285345184
H 1.4546922641 -0.468188851 -1.1420871006
H 0.0127810696 -0.0003335661 -0.2587058778
H 1.2833862865 1.8604314671 0.8465609668
H 2.7442824761 1.3627589473 0.0025510488
H -0.0577828826 3.8683285483 -0.5087919536
H -0.6550632838 5.2827593203 -2.6183893654
H 1.5907623062 2.7501436406 -4.3651295908

