# b3lyp 6-31G(2df,p) opt Freq 

 titel

0 1
O 0.601268178 0.1894833294 0.5407839038
C -0.7372141071 0.5686861745 0.7644069795
C -1.3212573906 0.4316442789 2.2029020359
C -1.7231773305 1.9193280713 2.2049643396
O -3.0539278211 2.1190526364 2.5721337278
C -0.6467654312 2.8448228297 2.7440936468
C -0.6643187905 4.158652466 2.0067128898
C -0.0297505722 2.9746228153 1.3391361884
C -1.0953274094 2.0808917322 0.7293167392
H 1.1433524949 0.6092100834 1.2170017317
H -1.3212664012 0.0037769946 0.0341593
H -2.1915914036 -0.2255901326 2.2556456653
H -0.6087718409 0.1315369488 2.9778505366
H -3.2114553904 3.0677904186 2.6291349923
H -0.1485297544 2.7343780475 3.7019148543
H -1.591304678 4.5731324345 1.6139314428
H 0.0210812943 4.9080731611 2.3888166954
H 1.0212264788 2.9731476827 1.074440833
H -1.6362073849 2.4524633477 -0.1439610722

