# b3lyp 6-31G(2df,p) opt Freq 

 titel

0 1
C -0.1659064731 1.3238492888 0.1358474274
O 0.1224803985 -0.0968791007 0.24158437
C 1.2940810005 0.0842832323 -0.5928151572
C 2.5610192199 -0.6683155716 -0.2833032344
C 3.7129859263 -0.0283929108 -1.027578606
C 3.8478461909 1.2051488233 -1.5320475469
C 3.0158049851 2.4780187529 -1.5350586501
O 1.6153519516 2.4285731576 -1.3176305912
C 1.2951198198 1.5733365893 -0.2651173042
H -0.8745862887 1.5392772078 -0.6753190239
H -0.530014133 1.7437511497 1.0771886701
H 1.0264855591 -0.05236471 -1.6519228367
H 2.7558073099 -0.6414114385 0.7985604393
H 2.4862229766 -1.7273589821 -0.5568717911
H 4.5713904404 -0.6844509106 -1.1587657461
H 4.8110187967 1.4119450265 -2.0004418482
H 3.4779550488 3.1525177128 -0.7889346656
H 3.1394918836 2.9664326577 -2.5075414177
H 1.9077872569 1.7851979656 0.6252796325

