# b3lyp 6-31G(2df,p) opt Freq 

 titel

0 1
O -2.4218365929 -2.6932099365 4.3702787133
C -2.2400789884 -3.27628706 3.0963676116
C -2.6284749613 -2.3165518402 1.9837170388
O -1.7808654749 -1.1788435508 2.1189193565
C -2.1012084038 -0.1338238596 1.2605985579
C -1.5530933643 -0.1353018359 -0.1364002243
C -0.9669434838 0.801735726 0.9229611908
C -1.185847437 2.2158191715 0.8537556208
C -1.3736823587 3.4023108803 0.7920146805
H -1.9783404927 -1.8375399805 4.3339439616
H -1.1973514284 -3.5979633574 2.9431143498
H -2.8759068578 -4.1665450706 3.0521753586
H -2.5016311158 -2.7811085124 0.9944338121
H -3.6808983918 -2.0159327462 2.0958067267
H -3.0835581077 0.3088978005 1.4233179664
H -0.9301986676 -0.9737024708 -0.4263242384
H -2.1448984646 0.3074782275 -0.9286106569
H -0.0069678953 0.490258403 1.3237177262
H -1.5366243932 4.4501618121 0.7422615781

