# b3lyp 6-31G(2df,p) opt Freq 

 titel

0 1
C -0.0874607672 0.1139422094 0.2718853316
C 1.3879961152 0.1017030136 -0.1145493471
C 2.1656788174 1.4370661298 0.1101217075
C 3.5691496682 1.0758771416 -0.4175241155
C 3.8095825639 0.0285456848 0.683588695
O 3.8107224132 0.8667549256 1.8791693203
C 2.4037754884 0.9948062318 1.6370472407
C 2.3078087721 -0.4172751243 0.9940415397
O 2.0396961137 -1.6165238034 1.6247285529
H -0.2498850233 0.5726867419 1.2526482409
H -0.675005508 0.6758532059 -0.4612764296
H -0.4837205157 -0.9048306746 0.3175056434
H 1.5174998795 -0.3463443333 -1.106162719
H 1.7247818247 2.3961233243 -0.1525839871
H 3.5468316594 0.6764680678 -1.4347815644
H 4.3072218954 1.8781407997 -0.3498849709
H 4.6474451544 -0.6664222565 0.628022697
H 1.8221217813 1.4191992039 2.4525066869
H 2.6254688874 -1.6933173678 2.3873123476

