# b3lyp 6-31G(2df,p) opt Freq 

 titel

0 1
C 2.5904464779 0.4505125631 -1.9789237983
C 1.8962573238 0.6180411229 -0.6257643702
C 2.3749449115 1.8611144019 0.1323622318
O 3.7710701455 1.8484607021 0.3863957788
C 1.6024336891 2.0609026567 1.4395608465
C 1.1581740359 3.4094534244 1.8393680641
O 0.2360980869 2.4750805525 1.2800845861
C 1.858729219 1.0656539556 2.4571045648
C 2.1263699813 0.2172016069 3.2668020537
H 2.26377683 -0.4666005157 -2.4776379592
H 2.3651965817 1.2911857657 -2.6446031583
H 3.6757541011 0.4079724918 -1.8545007557
H 0.8106474051 0.6959561985 -0.7562233288
H 2.0720071306 -0.265002736 0.0030052176
H 2.1986780573 2.7488504772 -0.4856246429
H 3.9480658415 1.1097943293 0.9823028259
H 1.0134856562 3.6333899915 2.8942101214
H 1.4195431229 4.2550255818 1.2049074333
H 2.3396260227 -0.5244095702 3.9972704293

