# b3lyp 6-31G(2df,p) opt Freq 

 titel

0 1
C 1.2087733714 -0.1570419686 1.085050758
C 0.8806151316 0.2520828835 -0.3544898134
C 1.6322592036 -0.5553934933 -1.3866822153
O 3.0257391959 -0.3752028738 -1.346788553
C 1.1187774195 -0.784011071 -2.7762693675
O 2.0082892252 -0.7229645258 -3.8281314733
C 1.1515653905 -1.9658480079 -1.7760921544
C 2.1391067831 -2.9887777968 -1.8929549265
C 3.0310108452 -3.7973676075 -1.952174662
H 0.9358049464 -1.2009328302 1.2729178231
H 2.279318986 -0.0476856657 1.2796246113
H 0.6681452971 0.4669755694 1.8022772849
H -0.1943414238 0.1493207598 -0.5450566463
H 1.1252375904 1.310712857 -0.5071703546
H 3.4379455839 -1.2236836248 -1.1294486211
H 0.1276195299 -0.425769228 -3.0394211439
H 2.8647331828 -0.4968466754 -3.4338706515
H 0.1906120717 -2.2696781228 -1.3708877654
H 3.7824650196 -4.542502298 -2.0406826692

