# b3lyp 6-31G(2df,p) opt Freq 

 titel

0 1
C -0.0567573606 -0.4297367667 0.0275300112
C 1.3898881537 0.0305339487 0.0369283295
C 2.1137145414 -0.0883329516 -1.3195316936
O 3.5115998102 -0.0543119522 -1.0141631785
C 3.6741902335 -0.5707738764 0.2857395851
C 3.3080062367 0.3342072822 1.4432168949
C 2.6875610045 1.6761157118 1.0835495502
O 1.4277563766 1.395252683 0.4743050681
C 2.3527476079 -0.736376069 0.9669431688
H -0.4907343108 -0.3275270462 1.0253860827
H -0.6470979779 0.1814269726 -0.661506202
H -0.1327757973 -1.4748145467 -0.2861139461
H 1.8585785277 -1.0348095311 -1.8203988701
H 1.882565907 0.749069418 -1.9822963448
H 4.4909723998 -1.2782419637 0.3806655118
H 3.8475461161 0.230643969 2.3778072549
H 2.5087677355 2.2876282569 1.9748457022
H 3.3265016914 2.2418513176 0.3926488042
H 2.0371398447 -1.5966800862 1.5426917816

