# b3lyp 6-31G(2df,p) opt Freq 

 titel

0 1
C -1.4124860296 -0.3058185159 -0.2588662234
C -0.7130966434 -1.4314792904 -1.0358869446
O -0.4415672366 -2.4025404126 0.0139652544
C 0.0776528055 -1.5819317928 1.0990796977
C 0.0316722239 -0.2404287678 0.3808066374
O 0.6002420813 0.9299537429 0.8497582383
C 1.1145542107 1.6458008231 -0.2964306594
C 0.8307917699 0.7969955603 -1.5796558797
C 0.6019263637 -0.6096078377 -1.0118897648
H -1.6609520202 0.5768595551 -0.8457746086
H -2.2488742559 -0.5971487417 0.379069666
H -1.123487027 -1.9507774064 -1.899145477
H -0.5735671275 -1.6620883563 1.9761295501
H 1.092450436 -1.8967878049 1.3649402672
H 0.639992276 2.6318627323 -0.3425000892
H 2.1895242133 1.7934693042 -0.1415622949
H -0.0373823911 1.1877090323 -2.1150940747
H 1.6771758751 0.8327097518 -2.2688181015
H 1.5087674559 -1.2197330855 -1.0228980233

