# b3lyp 6-31G(2df,p) opt Freq 

 titel

0 1
O -0.004037625 -0.2586929514 0.2860971315
C -0.9865579937 0.5162367842 0.9241033042
C -1.1850004066 0.3925665246 2.4584941675
C -1.3152838888 1.9366829811 2.5401645806
C -2.7186325394 2.5009102246 2.4528355215
O -2.7136141353 3.9217215182 2.277738992
C -2.9488306803 3.1014342216 1.1257430823
C -1.7127341802 2.954671406 0.2469774397
C -0.7708732886 2.0574228466 1.0728621982
H 0.8339338963 -0.1103733254 0.7372873885
H -1.9141446315 0.305059376 0.3817519596
H -2.0224510446 -0.2160523018 2.8114099125
H -0.2725642969 0.0408785101 2.9511755915
H -0.7532727887 2.4260306535 3.338762037
H -3.5212853193 2.1086667327 3.075305356
H -3.939313635 3.1988858454 0.6868636579
H -1.95869793 2.4945241936 -0.7167043036
H -1.2863692105 3.9418742593 0.0413018818
H 0.2856294582 2.3261441013 0.9911337416

