# b3lyp 6-31G(2df,p) opt Freq 

 titel

0 1
O 1.1623062702 0.2643843891 -0.2670487049
C 0.6845784771 0.2986084213 1.0768627241
C -0.7914406603 0.5442755491 1.1408919941
C -1.417425571 1.5358860577 1.7875328475
C -2.9165586542 1.5002895742 1.5881676669
C -3.1351186057 0.2380885495 0.7454845706
O -4.107715149 0.274629289 -0.2548931812
C -2.7475309829 -1.0861437859 1.3466299679
C -1.7732785899 -0.3383943001 0.4384014406
H 0.9218113121 1.1035436435 -0.6742725118
H 0.9309539388 -0.687608908 1.4882175168
H 1.2194270985 1.0504012407 1.6766932506
H -0.9248615853 2.285753802 2.397856742
H -3.468391309 1.4787307894 2.5368299048
H -3.2725356471 2.3796942175 1.0343891533
H -4.9594484622 0.076773389 0.1493461994
H -2.5209629771 -1.156246918 2.4063393941
H -3.2291660564 -1.9566397732 0.9130225763
H -1.5337309766 -0.7680627769 -0.5265153009

