# b3lyp 6-31G(2df,p) opt Freq 

 titel

0 1
C 1.488085259 0.8250086593 -0.2848663046
C 0.1604980413 0.1520083584 -0.0842812103
C -0.0073459212 -1.1709692937 -0.0348040831
C -1.345456369 -1.8267437521 0.1574750508
O -2.4370954669 -0.9330906285 0.0423797981
C -2.2099272326 0.2959641439 0.7063387845
C -1.0524744069 1.0620851282 0.0540174435
C -1.4252500064 1.5448586304 -1.3429762544
O -0.9874778344 2.542556174 -1.8576837024
H 1.7646119573 1.4152963143 0.5982074139
H 2.2826384621 0.0986819238 -0.4745280588
H 1.4455517084 1.5273706039 -1.1253279792
H 0.8486150411 -1.8383415152 -0.1040836611
H -1.5084127252 -2.6018951716 -0.6005280506
H -1.3703305581 -2.3348006949 1.1393701588
H -3.148696579 0.854775867 0.6386057155
H -1.9864811324 0.1341775792 1.7727251371
H -0.7849492238 1.9438216345 0.6481538223
H -2.1202547033 0.8656628092 -1.8829604398

