# b3lyp 6-31G(2df,p) opt Freq 

 titel

0 1
O -1.6163190627 0.6180991229 1.3093286861
C -2.8357272802 -0.0928097238 1.2206591529
C -2.6469569769 -1.5619965279 0.7575276677
C -3.9695844423 -2.2915859345 0.4064492268
C -4.3034353544 -2.4600136982 1.910091844
C -4.7990034242 -1.1433095308 2.5586930577
C -3.3568572348 -0.5764219291 2.6004141635
C -2.8160971939 -2.0244461138 2.2446918644
O -1.8286591358 -2.7455193346 2.8853817388
H -0.9907130357 0.0729916615 1.8011239649
H -3.506418101 0.5364395731 0.6273760532
H -1.7633369375 -1.7597901555 0.1495156834
H -4.6946971951 -1.7532154519 -0.2124384769
H -3.7611237432 -3.2582321347 -0.0601834027
H -4.7693257409 -3.3938322742 2.2271823893
H -5.5488769843 -0.5662940181 2.0078532784
H -5.1746418099 -1.3194412106 3.5712775154
H -3.0531623187 0.0251594907 3.4592356859
H -2.1140476885 -2.9311351605 3.7874047771

