# b3lyp 6-31G(2df,p) opt Freq 

 titel

0 1
C 4.9797239211 -3.496869366 1.9814448929
C 3.9141854345 -2.8106764947 1.1819147769
C 2.3997006459 -3.035361586 1.2201205904
C 2.3107685273 -1.7460228059 0.3627489166
C 1.0641885568 -0.9385994694 0.1548270159
O 0.0900911957 -1.6983095263 -0.5390269618
O 2.9076233921 -2.1699639263 -0.9136304461
C 4.1509981938 -2.202707504 -0.2140291138
C 3.7271062419 -1.3151783212 0.9059704235
H 4.7908942651 -3.413022109 3.0577011896
H 5.0331625631 -4.5632602339 1.7337144664
H 5.9658239208 -3.0614312218 1.7848659262
H 1.9808858547 -3.9437992174 0.7766949008
H 1.9999662636 -2.8780053521 2.2261531714
H 0.6281322802 -0.6625059484 1.1207151564
H 1.3158410727 -0.0109100962 -0.3824049467
H 0.5194862369 -2.0295333502 -1.3368016897
H 5.0723985792 -2.2816260488 -0.7766631683
H 4.1292493446 -0.4154425925 1.3514851795

