# b3lyp 6-31G(2df,p) opt Freq 

 titel

0 1
C -0.1368413048 1.3803957045 0.1991665691
C 0.1335046171 -0.1277062132 0.0853815046
O 1.5374561558 0.1792028484 -0.3366144416
C 1.2606509408 1.0713387143 0.816327672
C 2.1727765769 1.9646525717 1.592927288
C 1.3773896227 2.2267090233 2.9057310322
C 0.7848100966 0.9474582421 3.5401616201
O -0.0771029225 0.1981349494 2.6720452654
C 0.6765065962 -0.1434628377 1.5383685001
H -0.1087191663 1.9267294672 -0.744263516
H -0.9332015529 1.7016692138 0.8708494805
H -0.3880051054 -0.8974523127 -0.4823057849
H 3.1086755887 1.4362360121 1.8110361575
H 2.4208979901 2.9029341702 1.0870710918
H 2.0244515036 2.705464931 3.6483188756
H 0.5607864244 2.9264975334 2.6958011558
H 1.6056397613 0.2968397115 3.8853163617
H 0.1776932104 1.209696251 4.4103108188
H 1.3959853972 -0.9490035004 1.7330214094

