# b3lyp 6-31G(2df,p) opt Freq 

 titel

0 1
O -2.2119287202 1.6790607685 -0.4244470296
C -1.2766209392 0.9795273986 0.3500386412
C -1.4082616708 -0.5257850532 0.350095754
O -0.2130140557 -1.2480852668 0.2333364968
C -1.7039712247 0.2585340637 1.5896789229
C -1.1396245834 0.2073713185 3.0226590464
C -2.3142573266 -0.7666566902 3.3529118871
C -2.9488489096 0.3693293935 2.4910905318
C -2.1221239252 1.373838869 3.3542533863
H -2.4451135813 2.4837366362 0.0497563377
H -0.2515292049 1.3515207793 0.3083820766
H -2.2554502906 -0.913312134 -0.218252801
H -0.2824613374 -2.0266426411 0.7952741209
H -0.0946305232 0.1154185564 3.3185287532
H -2.2759038591 -1.7608599102 2.900251899
H -2.6266995028 -0.8132439828 4.400059212
H -3.9878782252 0.4607538244 2.1747516248
H -1.8977294572 2.3450234228 2.9056320918
H -2.4203454429 1.4739282174 4.4018001681

