# b3lyp 6-31G(2df,p) opt Freq 

 titel

0 1
C 1.9376865303 1.365284015 -0.1211451983
C 1.4765075107 -0.0243264399 0.2634014909
O 1.5615389867 -0.443636807 1.3938296089
C 0.8471649285 -0.886133414 -0.8547496685
O 1.4518041089 -0.4537037111 -2.0788147711
C 0.9877668366 -2.4092574573 -0.5854385138
C -0.4173766218 -3.031246407 -0.7848294908
C -1.324164847 -1.8323510635 -0.8805410715
C -0.6568218229 -0.6794130128 -0.8905560314
H 2.2090982237 1.9183580619 0.7786523763
H 2.7984329201 1.2895382646 -0.7923646898
H 1.1624742641 1.8966962954 -0.6815926212
H 0.9009260461 -0.7782749324 -2.7989841057
H 1.7441215054 -2.8299855225 -1.2515386796
H 1.3223322816 -2.5471631761 0.4440385903
H -0.4901235016 -3.6503678745 -1.6889253319
H -0.6965305883 -3.6854002859 0.0490993865
H -2.403882136 -1.9212873716 -0.9455288141
H -1.093359985 0.3101488387 -0.9683178952

