# b3lyp 6-31G(2df,p) opt Freq 

 titel

0 1
C 2.3813405853 -2.7152163979 -1.8543779782
C 2.2349080266 -3.2213467753 -0.4403265232
O 2.0681474373 -4.6088919462 -0.4044181892
C 1.5219884907 -2.4277366071 0.6212460841
C 0.9155705085 -1.0646543671 0.3746182867
O -0.2416034841 -1.1125872697 -0.4482677345
C 3.048447216 -2.5855791442 0.6922289911
C 3.6445224244 -3.4500243551 1.6624214395
C 4.1290820674 -4.247020037 2.4256371822
H 3.2476841604 -3.1836728116 -2.3309182707
H 1.4888657957 -2.971376205 -2.4323993264
H 2.5061970229 -1.630862037 -1.890498336
H 2.6741141579 -4.9721212823 0.2552926239
H 0.9810570695 -3.0511847247 1.3294907153
H 0.7005732019 -0.5784254742 1.3392806965
H 1.6224235162 -0.4180807024 -0.154336339
H -0.8839780146 -1.6895372022 -0.0225772456
H 3.6286017919 -1.7055529342 0.4278197967
H 4.561437986 -4.9143585569 3.1295855465

