# b3lyp 6-31G(2df,p) opt Freq 

 titel

0 1
O -0.9510786404 0.8203911404 2.3627131922
C -0.7704224462 1.1243180381 0.9789519157
C -2.1014267051 0.98757228 0.2032398533
C -2.0063579926 1.6449910879 -1.1801888713
C -1.4908875922 3.077532426 -1.0421260225
O -0.2486819142 3.1188918796 -0.356243657
C -0.3373984033 2.609115626 0.9529900473
C 0.2653283568 0.2651549857 0.3940163658
C 1.0937255711 -0.4803719019 -0.057631271
H -0.9775986506 -0.138075437 2.4528726124
H -2.3802877322 -0.0684757567 0.1245789968
H -2.8665379483 1.4864888228 0.810301408
H -1.3187774929 1.0767102596 -1.8160181085
H -2.9858706055 1.6464126932 -1.6712852197
H -1.3116773392 3.5333857836 -2.0197218224
H -2.2342484603 3.6955567509 -0.5086147315
H 0.6475762509 2.7170640565 1.4113131317
H -1.0703500112 3.1706930717 1.5553722898
H 1.8380392756 -1.1235781363 -0.458462339

