# b3lyp 6-31G(2df,p) opt Freq 

 titel

0 1
C -0.658437587 -0.2554444478 -4.3836252728
C 0.1518903538 -0.1857475206 -3.114256834
C 1.6242027594 0.1495773528 -3.1159338765
C 1.1736325908 -1.2357930679 -2.7006995977
C 0.674621638 -1.5008134473 -1.274449158
O -0.7880488868 -1.5562962322 -1.4751791398
C -0.6297819909 -0.1202994641 -1.783042572
C 0.3780600075 -0.1173138808 -0.6117743194
O 1.3025801563 0.923204692 -0.4369570974
H -1.4792217739 -0.9735962899 -4.2801423756
H -1.090303747 0.719416552 -4.6406241823
H -0.0391804224 -0.5728820365 -5.2287079145
H 2.0731493028 0.1997921001 -4.1048224481
H 2.0494321908 0.831122647 -2.3970903761
H 1.3909949897 -2.0904175342 -3.3311113653
H 1.0698393709 -2.3551095486 -0.724874762
H -1.5663949669 0.437676755 -1.7617203541
H -0.1822897337 -0.3059963998 0.3076714551
H 1.6356256786 0.8800188707 0.4637091004

