# b3lyp 6-31G(2df,p) opt Freq 

 titel

0 1
O 4.5247880441 1.3547626289 0.6098662955
C 3.1067174461 1.3432102097 0.680501185
C 2.5615284222 -0.0060879111 0.1454711281
C 1.1204991154 -0.1516788431 0.2965766917
C -0.068860459 -0.2448056549 0.4450222878
C 2.592974343 2.5309032891 -0.1191783734
C 3.1932073736 2.7855593954 -1.5230453212
O 3.599630718 4.1181410426 -1.1526978712
C 3.1743792775 3.9234067313 0.2108229018
H 4.868883042 0.7044264531 1.2296253869
H 2.7711793782 1.4572519816 1.7236040928
H 2.8501215938 -0.1057920338 -0.9082792833
H 3.0682627228 -0.8204438829 0.6804468488
H -1.1197266833 -0.3382477329 0.5657842081
H 1.5019166511 2.5073373077 -0.1162199361
H 4.0526369136 2.1530781034 -1.7747482791
H 2.4846484614 2.7901037257 -2.3596737469
H 4.0229604087 3.9058423865 0.9050708034
H 2.4552563211 4.6872812437 0.5301793313

