# b3lyp 6-31G(2df,p) opt Freq 

 titel

0 1
C 0.3977047188 0.9012000314 -1.2729307088
O -0.1644549347 -0.1897143087 -0.4765720623
C 0.7918362755 0.1027471764 0.5888247476
C 0.4127477524 0.3173530596 2.0696894031
C 0.6748655188 1.8524439215 2.1702953296
C 2.1466283732 2.1829034107 1.7573474
O 2.1843371834 2.1009828469 0.300084068
C 0.9314911154 1.5112336695 0.022167313
C -0.038806109 2.3258927681 0.8928868277
H 1.1794050121 0.5379630418 -1.952032219
H -0.3704529076 1.4434907525 -1.8311556445
H 1.6839197535 -0.5220726562 0.4608378892
H -0.6372214894 0.088502823 2.2746673444
H 1.0327406709 -0.2790544716 2.7449623661
H 0.3887100623 2.3073198333 3.1196136782
H 2.4312206784 3.1990388021 2.0481441166
H 2.872116129 1.4790671092 2.1839414432
H 0.0428057226 3.3962568336 0.6899158245
H -1.0784816156 2.0014606467 0.8274307232

