# b3lyp 6-31G(2df,p) opt Freq 

 titel

0 1
C -0.6588721087 -1.4550004519 -2.5821077711
C -1.5237945701 -1.4680232074 -1.3390581215
O -2.4718598089 -0.3713376303 -1.2761940227
C -2.0904011388 -0.0350599153 0.0808370666
C -3.2535236678 -0.0184602695 1.036392641
C -1.0628072291 1.130548751 0.0842919059
C 0.0596057561 0.0770206129 -0.0042387282
O 1.254236501 0.1420827933 -0.040307847
C -0.9316829138 -1.0939277408 0.0452277551
H 0.0411359127 -2.2968946205 -2.5654602561
H -1.2876888035 -1.5504061691 -3.4728347981
H -0.0825129848 -0.5297225783 -2.6636729957
H -2.0656131652 -2.4216977666 -1.271092007
H -3.7875689469 -0.9728609971 1.0163364259
H -2.9181491751 0.1740539709 2.0604373078
H -3.9602386068 0.7699553682 0.7550546812
H -1.1412896759 1.8379454865 -0.7446128684
H -1.0150262196 1.6833079744 1.0296810379
H -0.7519309347 -1.8926824404 0.7643613544

