# b3lyp 6-31G(2df,p) opt Freq 

 titel

0 1
C -1.280040246 1.5981370389 -2.7241652714
C -1.9112592122 1.2577864764 -1.4052145665
C -3.3909755309 1.5264354805 -1.0367165843
C -2.8850233879 1.2638352619 0.3879866292
C -2.0448789959 -0.0705886467 0.3155528641
O -1.8022386549 -0.1604758906 -1.1024332967
C -0.7932754046 0.7191895017 0.7690891452
O 0.4622032267 0.2379169703 0.395212808
C -1.4808822523 1.8644639195 0.0010132934
H -1.7374961793 1.0145731019 -3.529790043
H -1.4138074906 2.6599806993 -2.949179346
H -0.2069393514 1.3836683175 -2.7104873515
H -3.6684991516 2.5757968735 -1.1684727306
H -4.1400185862 0.865775612 -1.4814674426
H -3.4278328834 1.4994906347 1.3003179739
H -2.3526342624 -1.0319411162 0.7236294648
H -0.7863516186 0.9186221846 1.8443119356
H 0.3269209281 -0.1772812736 -0.467418688
H -1.2150280165 2.9177386441 0.0652564864

