# b3lyp 6-31G(2df,p) opt Freq 

 titel

0 1
C 1.6760502641 0.0997561382 -0.0394324996
O 0.2839394003 0.1042099518 -0.2971644011
C -0.4602104038 0.572145879 0.7780334362
C -0.6640676622 2.0530623906 0.9616353679
O -0.7032998929 2.5331877637 2.2721971996
C -1.7986567028 1.1757458541 0.4625796961
C -2.9908679418 0.923294419 1.3765014425
C -3.8086800577 2.122940707 1.5532316939
C -4.4404099028 3.1371085105 1.6927091843
H 1.9283556871 -0.5640093613 0.800961882
H 2.1680362295 -0.2685784996 -0.9424316023
H 2.0490082245 1.1072695415 0.1920970789
H -0.376652469 -0.0119502001 1.6975300002
H -0.190653806 2.7050011992 0.2277271533
H -1.4677438216 3.117995857 2.3458361825
H -2.0303881752 1.2720778287 -0.5933298082
H -3.6050979579 0.1089181603 0.9741019816
H -2.6383117564 0.5907260267 2.3586961014
H -5.0223750954 4.0170842937 1.8142253407

