# b3lyp 6-31G(2df,p) opt Freq 

 titel

0 1
O 0.0449860113 -0.1796392202 0.8072930196
C 0.1932191991 -0.4007941213 -0.5820760537
C -0.5818651906 0.5983558557 -1.4160771615
C -0.0207667772 1.3655070907 -2.3639248138
C -0.7630010463 2.3653564969 -3.2045199049
C -2.1073933276 2.758438606 -2.581063829
C -2.872878793 1.5159383585 -2.1115883403
C -2.0433017221 0.6681059581 -1.1611610173
O -2.5580978968 0.0407367383 -0.2481723712
H -0.9031564546 -0.2726593005 0.974337396
H 1.2614062782 -0.3213345594 -0.8085893464
H -0.1260337548 -1.4200202256 -0.856296951
H 1.0469448473 1.2635404241 -2.5551516771
H -0.135084769 3.2500554559 -3.3620641776
H -0.918179017 1.9366170666 -4.2074433459
H -1.9231072343 3.413043908 -1.7205727815
H -2.7087044744 3.3317171587 -3.2933299421
H -3.815327702 1.7641663328 -1.6172736231
H -3.1206615062 0.8833357366 -2.9769656894

