# b3lyp 6-31G(2df,p) opt Freq 

 titel

0 1
C -3.3621636318 0.2556763195 -0.8688943522
C -2.118206813 0.0722802302 -0.0491343255
C -2.0317652582 -0.7563273467 1.1854515911
C -1.1538624594 -1.1652644984 0.0077959298
C -1.103559309 -2.5356594546 -0.6162408647
O -0.0729412643 -3.3123257221 -0.027042466
C -0.0126642639 -0.2155131894 -0.0935542641
O 1.1515707272 -0.3969128666 -0.3466954248
C -0.9148444025 1.0405389313 -0.0621123045
H -3.9847104151 -0.6442869595 -0.8551261368
H -3.9667886104 1.0812179402 -0.4752097409
H -3.1239721518 0.4887870241 -1.9122787912
H -1.5899130369 -0.3622314977 2.097349513
H -2.8545891108 -1.4451697767 1.3569909471
H -2.040647639 -3.0798447348 -0.4593768625
H -0.9539295736 -2.442250229 -1.7037295834
H 0.7441423409 -2.8096524878 -0.1399231084
H -0.8201264836 1.7230463626 0.7880516032
H -0.8039133547 1.6077158755 -0.9917171594

