# b3lyp 6-31G(2df,p) opt Freq 

 titel

0 1
C 1.3295611588 0.7065752882 0.2279104022
C -0.0424394058 0.1413201035 0.119282633
C -0.529569793 -1.1005117179 0.1982806386
C -2.0310370955 -0.8636750109 -0.0260704334
C -2.3099253093 0.3404202138 0.9208544283
C -1.3450632601 0.9514526154 -0.1419613497
C -1.2858560832 2.3946770341 -0.5656097549
O -0.5691770362 2.5255051492 -1.7829789096
O -2.0179466161 0.096659807 -1.1412048785
H 1.415074703 1.384594933 1.0875999011
H 2.0777830776 -0.0815356738 0.3482193277
H 1.5714872309 1.2983600375 -0.6613247831
H -0.0311522848 -2.0430336048 0.3728234785
H -2.7112880705 -1.7029591628 -0.1614662345
H -3.3291805533 0.726440137 0.8344393567
H -1.9771496705 0.277723025 1.9586228766
H -2.3079823007 2.7923094924 -0.6548385464
H -0.7565909776 2.9927004651 0.1842821908
H -0.9363327836 1.866116949 -2.3844153136

