# b3lyp 6-31G(2df,p) opt Freq 

 titel

0 1
C 1.450213041 0.2030643979 -0.1349599775
O 0.0528910814 0.0725458391 -0.0297953862
C -0.4476933753 0.6081257847 1.1860667958
C -1.9268829792 0.5061854902 1.2213656227
C -2.7943707556 -0.395188974 1.7684851385
C -2.4649516874 -1.6277521335 2.5521712752
C -4.1094158409 0.0751263219 1.4287160509
C -3.9357452417 1.2115675326 0.7077173814
O -2.6182817615 1.4931559443 0.571622084
H 1.976209197 -0.3333871721 0.6719095981
H 1.7465719585 -0.2270929075 -1.0945865604
H 1.7679011327 1.2579367231 -0.104529846
H -0.0213635056 0.0666969927 2.0457400321
H -0.1480005147 1.664415009 1.2837464805
H -2.949789042 -1.6178679559 3.5349050725
H -2.8070322639 -2.5308982797 2.0340188577
H -1.3884004598 -1.7295830825 2.7108333717
H -5.0507668543 -0.3818937463 1.6933742403
H -4.6151220687 1.9086713661 0.2448407387

