# b3lyp 6-31G(2df,p) opt Freq 

 titel

0 1
O 0.2274574226 -1.2079943552 0.2166049359
C 0.3815129208 -0.0453926591 -0.0591954153
C -0.3098121217 0.6612378942 -1.2077860455
C -1.040107 1.9203844294 -0.747371753
C -1.5112242287 2.9125293872 -1.8354461044
C -0.5602164776 3.8827997882 -1.143586171
C 0.3758122248 4.8990011019 -1.7035061383
C -0.7529169302 5.3125332052 -0.7646321259
O -0.1292673034 2.9043855521 -0.1912617136
H 1.0618717835 0.6043288272 0.5323609895
H 0.4579782473 0.9555873316 -1.9364404175
H -1.0039400651 -0.0364831368 -1.6867749394
H -1.8159633781 1.6629757888 -0.0153579231
H -1.2332006091 2.635006892 -2.8550525975
H -2.569171559 3.1785875997 -1.8049043839
H 1.3841891437 4.9131513664 -1.303682791
H 0.299782003 5.153252724 -2.7560357301
H -0.4794123886 5.5954801662 0.2461493495
H -1.602165074 5.8498686072 -1.1747004754

