# b3lyp 6-31G(2df,p) opt Freq 

 titel

0 1
O 0.3132239978 0.2777981354 0.8083995582
C -0.9611080794 0.8339772848 1.0241072824
C -1.0653402615 2.2818307856 0.5752139746
C -2.5076674624 2.8216677675 0.5363152037
O -3.4643501968 1.8559962146 0.1289412266
C -3.3736961381 0.639084374 0.8401095618
C -3.1152769393 0.7147035179 2.3903666422
C -1.7167147705 0.1534689842 2.1550222031
C -2.045472016 -0.1239907729 0.6749397791
H 0.9182831907 0.6765748675 1.443719162
H -0.4552304162 2.938545185 1.2100219669
H -0.6297402029 2.3134947732 -0.4300732647
H -2.7819733951 3.2322406465 1.5177045706
H -2.5836345056 3.6388027628 -0.186131103
H -4.2633188095 0.0696039609 0.5700813008
H -3.2203504957 1.681332512 2.889798651
H -3.7522748446 -0.0075031306 2.9080561255
H -1.1647266032 -0.4849083406 2.8346062405
H -1.8635200218 -1.0018539479 0.0684695887

