# b3lyp 6-31G(2df,p) opt Freq 

 titel

0 1
O 0.2429624342 -0.1060228651 4.5668103717
C 0.3132310699 -0.3987362298 3.2040677098
C 0.2326343469 -1.8316158388 2.7404572077
C -0.9259663908 -0.8789615929 2.4904326737
C -0.9915944209 -0.2066856202 1.1279042471
C 0.4246764335 0.3313255279 0.919908043
C 0.8864483348 0.9647421432 -0.3154879538
O 1.2474039664 -0.3866801154 -0.0162504298
C 1.0325545874 0.5904830397 2.2940948122
H 1.0762743236 -0.3707806037 4.9712488591
H 0.8405593424 -2.1628720703 1.9044891114
H 0.0755112961 -2.569827605 3.5191849632
H -1.8380753668 -1.0386136963 3.0530101537
H -1.2694973619 -0.8760993597 0.3081940643
H -1.713243971 0.6192548896 1.1518230674
H 0.1959437491 1.0911226593 -1.1492977484
H 1.7031155044 1.685738776 -0.2833362155
H 2.1206677106 0.4743389996 2.266280559
H 0.8009882622 1.605422932 2.6396225341

