# b3lyp 6-31G(2df,p) opt Freq 

 titel

0 1
O 0.2626811058 -0.3813681612 0.0960182114
C -0.7583979398 0.5876542682 0.1502488614
C -2.2077600989 0.0287104293 0.279792986
C -2.4635340592 0.3268617838 -1.2259563585
C -2.2132637844 -0.8470581615 -2.1600988841
C -2.084293011 -0.5453862041 -3.6441888041
C -0.8604201625 -0.6313906938 -2.7725222535
O -0.3247080877 0.6030723227 -2.352347519
C -1.1104850442 1.0989598745 -1.2917493045
H 0.3216968206 -0.7925527421 0.9644414454
H -0.5117636416 1.3878289969 0.86214309
H -2.2656855004 -1.0241818315 0.5707165253
H -2.8395211524 0.6161631818 0.9512274444
H -3.3779447813 0.8782002753 -1.4600450387
H -2.5429808623 -1.8344162846 -1.8559633138
H -2.2867979105 -1.3561751427 -4.3365653642
H -2.3677668085 0.4408719067 -3.9979252074
H -0.1187417869 -1.4124356635 -2.890244573
H -1.1550497948 2.187907366 -1.3664471531

