# b3lyp 6-31G(2df,p) opt Freq 

 titel

0 1
C 0.1987728468 0.0105576668 -0.3176182862
C 1.6626184266 -0.0169461637 0.1389010637
C 2.5087877611 -0.9291279219 -0.6888063131
O 2.6514994256 -0.6876730223 -2.1249939886
C 3.470970469 -1.8808255402 -1.9334130045
C 4.175765645 -2.4986162189 -3.0932505871
C 3.9774877761 -1.4403157914 -0.5184120501
O 3.592821275 -2.6842215279 0.1335348367
C 2.5291958535 -2.4893384446 -0.8411720723
H -0.3832304643 0.7133267556 0.2850550294
H 0.1268740669 0.3137640592 -1.3655457055
H -0.2620160633 -0.9778374705 -0.2213694468
H 2.0921557451 0.9912723947 0.0934752504
H 1.739487795 -0.3498303046 1.1811044811
H 4.7352137463 -3.3760859488 -2.7551420185
H 3.4597353136 -2.812100273 -3.8589449748
H 4.8753317636 -1.7882318689 -3.5440070437
H 4.8882977035 -0.9318150662 -0.2002719256
H 1.726933025 -3.2249182734 -0.9070419245

