# b3lyp 6-31G(2df,p) opt Freq 

 titel

0 1
C 0.4557619345 -0.2617773987 -0.4263634898
C 0.8233909385 0.1198023067 0.9923601991
O 2.167526961 -0.3623836789 1.3240319513
C 2.6502330071 0.9815124927 1.3803286019
C 1.9910678149 1.721708276 2.503835372
C 1.2648308136 1.5686014008 1.1833621428
C 3.9577063448 1.2802429446 0.7590822528
C 4.8693889869 0.1978943408 0.3632726379
O 4.1106367255 0.9082923927 -0.6167031914
H 0.3768633049 -1.3491211798 -0.517681634
H -0.5080817579 0.1786650258 -0.7051998904
H 1.2261405405 0.091242631 -1.1178719045
H 0.0917717253 -0.2604504533 1.716504493
H 1.6721015683 1.1666434233 3.3819120547
H 2.3634230825 2.7229191692 2.7001425087
H 0.9479804861 2.4080749549 0.5789102875
H 4.3752726911 2.255233561 1.0098497503
H 5.9434434582 0.3780241764 0.3498498456
H 4.557457424 -0.8299965152 0.5311691324

