# b3lyp 6-31G(2df,p) opt Freq 

 titel

0 1
O -1.494837698 -1.9141651925 4.2424256162
C -0.3240380804 -2.4683666446 3.6420705231
C 0.402951803 -1.4468076595 2.7472416523
C -0.5041970451 -0.8906424532 1.6435440211
C 0.1991526407 0.1393214087 0.795654155
C -0.0163121186 0.2511698821 -0.651441027
O 1.1701008134 -0.3544024554 -0.1343797397
C 0.5797183445 -3.0303924125 4.6493031897
C 1.3262442026 -3.4445170542 5.4958279412
H -1.2060563498 -1.3531937643 4.9710738783
H -0.6998461739 -3.2815107671 3.0077784281
H 0.7754896634 -0.6318160767 3.3820098545
H 1.2817185983 -1.9254985419 2.3018781834
H -0.8448395421 -1.7089222373 0.9974067603
H -1.396666494 -0.4454111165 2.0972650395
H 0.5238900225 1.0376603763 1.3258379929
H -0.7123892626 -0.4284527983 -1.141981284
H 0.1253293832 1.2083105232 -1.151824793
H 1.9800034527 -3.8309884263 6.238413038

