# b3lyp 6-31G(2df,p) opt Freq 

 titel

0 1
C -4.6738026329 0.9836315187 -1.1924836499
O -3.519072363 1.1115394997 -0.3963806302
C -2.5476581698 0.13175487 -0.7106976296
C -1.3686629346 0.2939003909 0.1261233354
C -0.3886168498 0.41141052 0.8177875119
C 0.8088986763 0.5546291131 1.6022076582
O 1.7873340769 1.4137548106 1.0745199154
C 1.2953210427 -0.6302952068 2.4257410783
C 0.7236196482 0.5866180582 3.1063842008
H -5.3656223189 1.7715137703 -0.8869166508
H -4.4487755543 1.1030166584 -2.2646571082
H -5.162833311 0.0059183861 -1.0529771886
H -2.9665663692 -0.8809686657 -0.5719528667
H -2.2599801385 0.204909776 -1.7747374957
H 2.0407524415 1.0690013717 0.2108551213
H 0.709801961 -1.5418819793 2.4072355592
H 2.3707091856 -0.7628425919 2.4590797518
H -0.257979661 0.5208681867 3.5588289
H 1.4172247909 1.2643340131 3.5902904074

