# b3lyp 6-31G(2df,p) opt Freq 

 titel

0 1
C -2.1736265231 1.3196317702 -1.7035262166
C -2.3698599176 1.9466047487 -0.3365790232
C -1.9471817669 3.4234856761 -0.1103648787
C -1.8812677872 3.1719311759 1.4115374809
C -1.1735619894 2.0086039161 0.6715106733
C -0.3108362833 0.9074301092 1.2336473453
C 0.3927814804 0.1038730182 0.154856368
O 0.3044264859 -1.0909801272 0.0352081468
O -0.5217815749 3.021334628 -0.2066343732
H -2.168999322 0.2266420491 -1.6391433407
H -2.9879612421 1.6051119793 -2.3779550019
H -1.2298325926 1.6470492051 -2.1448724949
H -3.3272955466 1.6695507627 0.1172662058
H -2.2473320342 4.320833699 -0.6512137181
H -1.2133109962 3.8375554585 1.9593600681
H -2.8111254478 2.9573964201 1.9441019027
H 0.4610394681 1.3678905087 1.8660908492
H -0.9098597432 0.2301711421 1.8491548795
H 1.0194567027 0.7111585204 -0.5322661624

