# b3lyp 6-31G(2df,p) opt Freq 

 titel

0 1
O 3.8282071908 5.7307906696 2.4904924429
C 4.0972380792 4.3397559736 2.4187184533
C 3.0228397238 3.7070474611 1.5391784138
C 3.1859361276 2.2132102254 1.4287949456
O 4.2717305921 1.7422707085 0.6069624292
C 2.9353615042 1.4739579416 0.1877084424
C 2.5261624046 0.009287456 0.1874217872
C 1.0816362657 -0.1588173319 0.0813043577
C -0.111671668 -0.26546213 -0.0104890774
H 4.5337296636 6.1481354874 2.9929790809
H 5.0868218394 4.1395030466 1.9816756286
H 4.0789887088 3.876623944 3.4195130545
H 2.0373518085 3.93526668 1.963174668
H 3.0647911315 4.1615407939 0.5441326743
H 3.0839329616 1.6582638841 2.364249368
H 2.6116037355 2.0386098515 -0.6873652533
H 3.023096814 -0.496655448 -0.6506564717
H 2.9029503733 -0.4639916568 1.1016921314
H -1.1651083763 -0.3723166468 -0.0893863753

