# b3lyp 6-31G(2df,p) opt Freq 

 titel

0 1
C -1.0667898499 -0.8310839958 3.1589527792
C -1.177247318 0.3686488933 2.2681625296
C -0.6985042669 1.8058722909 2.5033632925
C -0.9317053238 2.0042089246 0.9478488239
C -2.4403976339 2.2489109276 1.2324770098
C -2.172619797 1.5158585581 2.5450535209
O -2.9498064712 1.5302961775 3.6858459627
C -0.814625944 0.4637817573 0.7841191615
O 0.4822701234 -0.0063974726 0.4824067491
H -1.2392027954 -0.5595441811 4.2045873996
H -1.8013913326 -1.5988489451 2.8849703244
H -0.0751609509 -1.2886148002 3.0805022816
H -0.0416448097 2.2519553328 3.2360061931
H -0.3647518716 2.6633394738 0.2940706007
H -2.6583299664 3.305498587 1.4129155808
H -3.1645941487 1.8338195868 0.5205367775
H -3.6303761195 0.852654849 3.6019362152
H -1.4748405008 -0.0111295469 0.0489558573
H 1.0816108669 0.356567193 1.1464103609

