# b3lyp 6-31G(2df,p) opt Freq 

 titel

0 1
C 2.6814964164 -0.5043743533 -1.5145336495
C 1.8593811909 -0.0150597619 -0.3229489861
C 2.3525877135 -0.5794977078 1.0629477294
C 3.0599664346 0.7750286347 1.3832072613
O 2.3744470853 1.6291083702 2.3334423879
C 1.5617735229 2.174855401 1.277897785
C 2.1527189973 3.3796131587 0.5055199226
O 2.6436101335 2.5080658555 -0.558766405
C 2.2700468829 1.3612467822 0.1832913374
H 2.4825281968 -1.5630858309 -1.7104020539
H 2.4389536802 0.0637648906 -2.4175825169
H 3.7558584558 -0.3925364028 -1.3314597562
H 0.7910500927 -0.1340472304 -0.5313139518
H 1.5558336946 -0.8075474879 1.773048721
H 3.0223152399 -1.4388453345 0.983103142
H 4.14260089 0.7714470503 1.5188584367
H 0.4942686776 2.1826950833 1.5079604144
H 1.4298406819 4.1037293666 0.1149394342
H 2.962903013 3.8951700865 1.0310443177

