# b3lyp 6-31G(2df,p) opt Freq 

 titel

0 1
O 1.1412982814 1.4198194149 -0.1576270493
C 0.5308046598 0.4951382608 0.3065192508
O -0.7802918496 0.4489164338 0.571704737
C -1.5640231237 1.6338510275 0.2468913271
C -1.8368464974 2.4546021759 1.4633532602
C -3.0465161554 2.7493415578 1.9442336645
C -2.9874396232 3.6913716403 3.1203576607
C -1.4846495606 3.6722516255 3.5049449055
C -0.7424759015 3.1514734646 2.2481369141
H 0.9752400573 -0.4731300826 0.586192756
H -1.0108727182 2.2034833836 -0.505163039
H -2.4900742773 1.2509495176 -0.1863972035
H -3.9808266598 2.3964710173 1.5188769849
H -3.3237725928 4.6957230127 2.8251889605
H -3.6380368481 3.3837834136 3.9467282922
H -1.1197024949 4.6468753673 3.8376160225
H -1.3326734077 2.9717811627 4.3319997749
H -0.3106753307 3.9666541942 1.6507874063
H 0.0920738824 2.4893276024 2.4996967547

