# b3lyp 6-31G(2df,p) opt Freq 

 titel

0 1
C -0.1209353164 -0.0415357516 0.0054100044
C 1.386135627 -0.0433924438 -0.0400005401
O 2.0157063105 -0.7504971979 1.0011826257
C 2.1828836485 -0.0619334222 -1.3195592978
O 1.5364288523 0.6756800266 -2.3647541244
C 1.6644193975 1.881453622 -1.5833756905
C 0.6980167828 3.0111581084 -1.7017236275
C 2.1291091481 3.1522338893 -2.2097667636
C 2.2498605218 1.1501597483 -0.4054819693
H -0.4816319508 0.4545976338 0.9117450663
H -0.5379987745 0.4608468095 -0.8685376514
H -0.4986284327 -1.0718810837 0.0104837003
H 1.7747960307 -1.6795981731 0.9110176157
H 2.9145283565 -0.8144359449 -1.5913146625
H -0.0827558193 2.915411398 -2.4486716684
H 0.4057369643 3.544722182 -0.8035607335
H 2.280645778 3.1434418231 -3.2835691
H 2.818957276 3.7795673301 -1.6545474612
H 3.0411418797 1.4983756959 0.2442886077

