# b3lyp 6-31G(2df,p) opt Freq 

 titel

0 1
C 1.0817785592 -0.9152291497 0.9442341217
C 0.8229443219 0.070675506 -0.19755927
C 1.6265594743 1.3676475059 -0.0484375679
O 1.3157505897 2.04930315 1.1515253495
C 1.4426980794 2.3071270235 -1.2906031642
C 2.0762975382 1.6698927007 -2.5321500496
O 1.4567133696 1.1121119774 -3.3971520304
C 2.0465318418 3.6161275692 -1.0812070489
C 2.5867013308 4.6838938266 -0.9691315715
H 0.4516461778 -1.8036310303 0.8451453394
H 2.1262689175 -1.245467159 0.9495527845
H 0.8757795964 -0.4501367254 1.9115853759
H 1.0520926912 -0.3943330469 -1.1624501465
H -0.2451548166 0.3303653302 -0.2360871313
H 2.6946308862 1.1327145624 0.0402867807
H 0.381359253 2.2866561429 1.1291548636
H 0.3684597584 2.4034877132 -1.4940372754
H 3.1842854456 1.7569379143 -2.5634469802
H 3.0467826257 5.633129669 -0.8455665794

