# b3lyp 6-31G(2df,p) opt Freq 

 titel

0 1
C -3.6474000551 0.5051606558 -0.6264235841
C -2.424798726 -0.362157861 -0.8288721917
O -2.2945081188 -1.1097051349 -1.7742370915
C -1.3460560327 -0.2935079857 0.2290899228
C 0.1206901617 -0.5652911786 -0.1859402316
C 0.2703333268 -1.5815899118 0.9874170474
C -1.2057536487 -1.341401577 1.3941246208
C -1.4387948391 -0.1254588127 2.304584864
O -1.4915091491 0.7837022796 1.1780873376
H -4.1282577935 0.270944257 0.3295738568
H -3.3536099663 1.5579088701 -0.5663081572
H -4.3477092133 0.3476426355 -1.4472854071
H 0.1810236996 -1.0258835078 -1.1730091827
H 0.7514985477 0.324745971 -0.148230356
H 0.4665050164 -2.6018809235 0.6524280174
H 1.0027381264 -1.3254245981 1.757765614
H -1.8590430063 -2.2042850542 1.5144467645
H -2.3897846727 -0.1314119938 2.8519753693
H -0.6277277371 0.1224420698 3.0004675473

