# b3lyp 6-31G(2df,p) opt Freq 

 titel

0 1
C 1.417402973 -0.0116585937 -0.1780973331
O 0.0258315392 0.0072889112 0.0608704929
C -0.413196343 0.6880916887 1.2358747285
C -0.0014165028 2.1703449844 1.2269875304
C -0.0194381931 -0.0314715304 2.5512408629
C -1.3406844224 -0.2652731345 3.301860514
O -1.4520245388 -0.6514115476 4.4406354621
C -2.4334353192 0.0718006887 2.3568329651
C -1.9271487952 0.5662743269 1.2252857021
H 1.9842847908 -0.3874098346 0.6858731584
H 1.5777100133 -0.6911572431 -1.0187178133
H 1.8138406064 0.975946568 -0.4506929822
H -0.4397634917 2.6895021394 2.0839169356
H 1.0846208443 2.2828827605 1.2894204425
H -0.3486027916 2.6582201447 0.3110405457
H 0.4163273188 -1.0096041119 2.3242385983
H 0.6876951341 0.5130366454 3.1812091202
H -3.4782895105 -0.074215034 2.5998167726
H -2.4862263217 0.884674122 0.3521364473

