# b3lyp 6-31G(2df,p) opt Freq 

 titel

0 1
C 1.5701393633 0.5437616166 0.6431891475
C 0.1703775772 0.0282468833 0.4741665395
C -0.1501923929 -1.267861701 0.4908194766
C -1.5965172839 -1.6920257948 0.3234081701
O -1.9525717952 -1.7436741261 -1.0557342773
C -2.2218606886 -0.3847675946 -1.4084917406
C -2.2594186651 0.3627911773 -0.0434652736
C -0.9316059976 1.0554351836 0.2910774722
O -2.4558127924 -0.7158981389 0.8738532687
H 1.6366909004 1.2225864899 1.5034380541
H 2.2840002321 -0.270026429 0.7949940037
H 1.8901135317 1.1215681768 -0.2333513529
H 0.6038840219 -2.0428423645 0.5899334103
H -1.8202913471 -2.6611027886 0.7738674118
H -1.4431127456 0.0108249599 -2.0716596595
H -3.1841945113 -0.3477836883 -1.9283553792
H -3.1081924035 1.0437176909 0.044670367
H -0.6647269902 1.7595313926 -0.5088816282
H -1.0379513533 1.6570810149 1.2046985597

