# b3lyp 6-31G(2df,p) opt Freq 

 titel

0 1
O -3.6619190991 2.2184230439 -2.336158491
C -2.5863267123 2.1160329878 -1.4223245103
C -2.3110027918 0.6543322838 -1.0141476425
C -1.1773225987 0.5252678927 -0.1085133051
C -0.2352394707 0.4768369679 0.6430149765
C 0.9160768469 0.3680114792 1.5021173945
O 2.1601546509 0.3480423125 0.8481607392
C 0.8012646876 -0.4204623871 2.7982569031
C 0.9438145275 1.0808545969 2.8286992215
H -4.4734454289 1.9979984486 -1.8680242861
H -1.7091159313 2.5212921666 -1.9345008969
H -2.7505781649 2.7249224138 -0.5216292005
H -3.2124997104 0.2383970678 -0.5418420013
H -2.1442069882 0.0663880131 -1.9250167853
H 2.1608987916 -0.410120835 0.2528703165
H -0.1577783129 -0.8590011835 3.047597641
H 1.6709581792 -1.0098383865 3.0656146887
H 0.0848061113 1.6823103759 3.0995468635
H 1.9069071642 1.4880197417 3.1138951045

