# b3lyp 6-31G(2df,p) opt Freq 

 titel

0 1
C 1.4344753726 0.1677457771 -0.0412509456
C -0.0183076961 0.0993324776 0.0209998807
C -1.220143552 0.0032503836 0.063675539
C -2.6725076151 -0.0401253309 0.1296082448
O -3.3162927058 0.1035264372 -1.1599159761
C -3.7164600691 1.4611308306 -0.874437371
C -3.3391033584 1.3021231132 0.6219828203
C -4.5213723803 1.0914789695 1.5500266437
O -2.5031599403 2.2655945639 1.1930497299
H 1.8553884898 0.5056818529 0.9118565476
H 1.8651345746 -0.8138375704 -0.2663200418
H 1.7665328853 0.8643945774 -0.8184073459
H -3.0138975932 -0.9485439458 0.6400261926
H -3.0914016347 2.1958179171 -1.3994163132
H -4.7706315848 1.6379959658 -1.1141363469
H -4.1769118051 0.7428781076 2.5279878813
H -5.0569078253 2.0350288026 1.6926982982
H -5.2143531731 0.3553788086 1.1331688244
H -1.6281321491 2.1703386123 0.7931325981

