# b3lyp 6-31G(2df,p) opt Freq 

 titel

0 1
C -0.7786614597 2.627691704 -0.1407688114
C -0.959646468 1.141759378 -0.0240034351
C 0.0570600184 0.2607893074 0.0767701652
C 1.5175948979 0.6365388488 0.1436646604
C -0.2568626625 -1.1878966308 0.0476993742
O 0.5981029497 -2.053008959 0.0398121576
C -1.7318370596 -1.5650341196 -0.0557215604
O -2.5901025426 -0.6024796895 0.5167405864
C -2.3960410793 0.6769978653 -0.0343660407
H -1.0742694879 3.1258973827 0.7921540781
H 0.2511062315 2.9085402935 -0.3642625468
H -1.4257469791 3.0352723193 -0.9273509744
H 2.1094905544 -0.2627549073 0.3199614257
H 1.8652069873 1.0859300028 -0.7937082025
H 1.7172548095 1.3528495107 0.9462153843
H -1.9687298178 -1.7289659913 -1.1236346011
H -1.8936085386 -2.5075103007 0.4711644787
H -2.7815730556 0.7230347804 -1.0727367548
H -3.011542148 1.3641013654 0.5579019866

