# b3lyp 6-31G(2df,p) opt Freq 

 titel

0 1
C -2.7259773899 2.1374514876 3.6308123161
C -1.7308346499 1.8999827124 2.5204834584
C -1.1704562862 0.4483583035 2.3589532089
C -0.7289674158 0.4527646909 0.8639858707
O 0.6223417403 0.1284859914 0.6177598922
C -1.1474545277 1.9113883405 0.4484748218
O -2.3356224836 2.0824525619 1.2209659665
C -0.1688446781 2.8551388551 1.1374948236
C -0.5237215399 2.8373583106 2.4232586674
H -3.5729544842 1.4518080295 3.5369120642
H -2.2581848078 1.9733055679 4.6065384635
H -3.1050495976 3.162745613 3.5958019898
H -0.3363262297 0.2224542727 3.0281901784
H -1.9646368057 -0.280113962 2.5417566343
H -1.3113245814 -0.2654934867 0.2834574388
H 1.1614727197 0.7389817957 1.1337556022
H -1.3388247266 2.0606408799 -0.6129899703
H 0.6750845682 3.347406988 0.6733994088
H -0.0398709539 3.3084900081 3.2691800145

