# b3lyp 6-31G(2df,p) opt Freq 

 titel

0 1
C -0.261550097 -0.1421303474 0.2223396129
C 1.19314567 0.0901847999 -0.0495831527
C 1.9986984218 1.3300211464 0.1906995233
O 2.6354206664 1.820871925 -0.9722600828
C 2.4164649039 0.8430605362 -1.9983516494
C 2.0635370537 -0.4327995728 -1.2333331749
C 3.2130238395 -0.7846108787 -0.2283512904
C 2.4773115109 0.0439551796 0.8157505423
O 2.6394383347 -0.0204914115 2.1859023782
H -0.5443526964 0.2759202299 1.1940700591
H -0.8960420672 0.3306774306 -0.5369155722
H -0.5059850496 -1.210999357 0.2380164951
H 1.6448631028 2.1055550601 0.8603680141
H 1.5951074727 1.1589595931 -2.6601510511
H 3.3323022746 0.7566424341 -2.5925144267
H 1.6733366716 -1.247909269 -1.8425558612
H 3.2065289234 -1.8497272731 0.0254386857
H 4.2303364802 -0.4814224607 -0.5000281561
H 2.481413164 -0.9286720048 2.4687946968

