# b3lyp 6-31G(2df,p) opt Freq 

 titel

0 1
C 0.7101493621 -0.1876782947 0.9018733592
C 0.9270318066 0.3840677907 -0.5108105807
C 1.7987342869 -0.4883108156 -1.357322641
C 3.0267986202 -0.3013918597 -1.8436457838
C 3.4618259154 -1.5058809919 -2.6302735075
C 4.718365619 -2.1969331619 -2.1059775806
O 2.342737106 -2.4019234123 -2.5503282875
C 1.3414596466 -1.8341457941 -1.8096233601
O 0.2944077601 -2.3844687662 -1.602825423
H 0.2537939828 -1.1787345968 0.8452434884
H 1.6591211413 -0.2740776775 1.4404805149
H 0.0486351421 0.4637457617 1.4802146543
H -0.0479390103 0.4807873148 -1.0035476075
H 1.3613365517 1.3875798332 -0.4517677459
H 3.6587722488 0.5693123601 -1.7166306477
H 3.5998328529 -1.2515830672 -3.690728251
H 4.5946828568 -2.4670969669 -1.053750884
H 4.9172279784 -3.1042987945 -2.6815760682
H 5.5816874626 -1.5306080312 -2.1983811982

