# b3lyp 6-31G(2df,p) opt Freq 

 titel

0 1
C -1.042084111 2.2706344935 -0.0669038275
C 0.2087545386 1.8084529009 0.5964480966
O 0.3476746305 1.9254173188 2.0185217737
C 1.5323504406 1.0916996754 1.8858579553
C 2.5639401812 2.0237795343 1.1944187171
C 1.6227824889 1.911740895 -0.0026846911
O 1.7794897354 2.3807559428 -1.2895335458
C 1.0507937938 0.5657243368 0.478714182
C 0.8734195067 -0.7776505662 -0.1482919749
H -1.9105701571 1.7006472694 0.2773120114
H -1.2172347597 3.329552355 0.1516014502
H -0.9507822528 2.1613833546 -1.1506783695
H 1.7677013657 0.5098195203 2.774550047
H 2.7318385821 2.9994936256 1.6611163204
H 3.5140493225 1.5105916751 1.0132628195
H 2.5291102864 1.9288948441 -1.6932739539
H 0.1453255347 -1.388656075 0.3971232386
H 0.5127154087 -0.6718214851 -1.177432404
H 1.8156148347 -1.3377327352 -0.186191255

