# b3lyp 6-31G(2df,p) opt Freq 

 titel

0 1
C 2.7900046972 1.4714369373 -1.9316061715
C 1.7390874881 2.5426144899 -2.2717882373
O 1.2179962423 3.2953615242 -1.1790031744
C 0.6122237998 2.5549329942 -0.1199032737
O 0.2453665304 1.2532183802 -0.5012377672
C 1.316578216 0.3649855934 -0.1393980521
C 2.227319686 0.1560347773 -1.3623582631
C 2.0040161645 1.0843879124 0.9960287404
C 1.5969173217 2.3471580887 1.0155354595
H 3.3242894922 1.2364596893 -2.8605750347
H 3.5282854269 1.9060513562 -1.2491302487
H 2.1998454994 3.3030066382 -2.9097430892
H 0.9195219371 2.0815126868 -2.8400393345
H -0.294163649 3.1074405099 0.1492585811
H 0.8639616115 -0.5860267615 0.1635358715
H 3.0486247256 -0.5224192332 -1.0988157077
H 1.6333699385 -0.3507773575 -2.1322024532
H 2.760552505 0.6224165886 1.6175762007
H 1.9370466768 3.1516664558 1.6532753541

