# b3lyp 6-31G(2df,p) opt Freq 

 titel

0 1
C 0.2229221759 0.6991731631 0.0934910058
C 1.287072023 -0.3801960817 -0.0610686098
O 1.3519740934 -1.0654238541 1.2022809692
C 2.3840035458 -2.0074685212 1.3386693259
C 3.4502003094 -1.5611529645 2.3057925321
O 3.268912748 -0.3638240136 2.9752909089
C 3.7389203583 -1.6053594615 0.798724352
C 3.7659717886 -0.3801204648 -0.0312612041
C 2.6345972864 0.1809003122 -0.4540699272
H 0.5333034051 1.4417637645 0.8351155368
H 0.0615877274 1.2106438566 -0.8600518011
H -0.722139118 0.2564430046 0.4177824502
H 0.9539349422 -1.1009883473 -0.8265824921
H 2.0472761805 -3.0410191781 1.2980342551
H 3.9487683945 -2.3080985424 2.9163509379
H 2.4122484757 -0.026429578 2.6750491563
H 4.3985081657 -2.4092582805 0.4824501304
H 4.732642541 0.0416000744 -0.2911666371
H 2.6380451171 1.0620793024 -1.0888630192

