# b3lyp 6-31G(2df,p) opt Freq 

 titel

0 1
C -2.3203355885 -1.1155079682 0.0956880158
O -2.2563516264 -0.0932943496 1.0918392443
C -1.3852704083 0.0084802764 -0.0405069886
C 0.075029625 -0.1317633334 0.217486237
C 0.9241793252 1.114613315 0.3162130932
C 2.2344481224 0.9626871276 1.0677129306
O 2.816710383 -0.2447782931 0.5802987592
C 2.4246401306 -0.4165819634 -0.7788778385
C 1.0473964585 0.2130098683 -0.8880020625
H -1.9423577396 -2.0903903353 0.4021121418
H -3.2345051941 -1.1391895964 -0.4965245908
H -1.6573535743 0.8089244581 -0.7325441672
H 0.3433084735 -0.9585053452 0.8707127999
H 0.4543922782 2.0897616353 0.2592885288
H 2.8856209556 1.829631852 0.8691777426
H 2.1249339775 0.852873379 2.1514606782
H 3.1231270093 0.089549658 -1.4654289473
H 2.4524515817 -1.4909923809 -0.9889410369
H 0.6744234108 0.5034568258 -1.8635999295

