# b3lyp 6-31G(2df,p) opt Freq 

 titel

0 1
O 1.2364622417 0.2891765679 0.1716474496
C 0.0563462012 0.1397149028 0.1533194003
O -0.6406008451 -1.0347471161 0.0399971691
C -1.9353557057 -0.3242618151 -0.0366664177
C -2.5885119081 -0.5145054907 -1.4128822125
C -2.9328565651 0.8079433262 -2.1178513271
C -1.7263544677 1.7546587359 -2.1428010135
C -1.3567954389 2.1951214685 -0.7197938114
C -1.1964219203 1.0138271834 0.2378646397
H -2.5732915669 -0.6673301333 0.7798998894
H -1.8762353439 -1.0713400794 -2.0312660581
H -3.479503109 -1.1430671808 -1.3204477834
H -3.275511721 0.5908336774 -3.1347744563
H -3.770272272 1.3030665281 -1.6071874528
H -0.8739710024 1.2503443659 -2.6173283841
H -1.9449317695 2.6386432371 -2.7506764436
H -0.4317296858 2.7816550166 -0.7135196481
H -2.1474638138 2.8529412702 -0.3389096719
H -1.3253464677 1.3395375954 1.2746111226

