# b3lyp 6-31G(2df,p) opt Freq 

 titel

0 1
C -2.4806745104 4.5919339227 2.6240019741
C -2.1104068017 3.9946913241 1.2516087747
C -1.6353090026 2.5311276875 1.3972267912
C -1.3327957589 1.8711562428 0.0562220057
O -1.0971531714 0.4531112041 0.2159937668
C 0.1536068998 0.0836170302 0.5222899477
O 1.0943547815 0.8109995515 0.6866101295
C -1.1122581161 4.8233397282 0.5747209487
C -0.2837063306 5.5068694218 0.0344448341
H -3.2663157773 3.995386125 3.0979757621
H -1.6095643722 4.6046041897 3.285517267
H -2.840329784 5.618239081 2.5168660767
H -3.0185075039 3.9902492571 0.6310048793
H -0.738273085 2.4981596408 2.0233498116
H -2.4200024163 1.960596522 1.906756386
H -2.1914556981 1.9317230015 -0.617620551
H -0.463729704 2.3302658668 -0.4179029402
H 0.1838943204 -1.0147431248 0.5977292342
H 0.4467351608 6.108068098 -0.4480559883

