# b3lyp 6-31G(2df,p) opt Freq 

 titel

0 1
C -0.056570864 0.1460048239 0.2990751549
C 1.4496212886 0.0432176135 0.0329301625
C 2.0698639417 -0.5243451832 1.287779375
O 2.5575952601 -1.6297370017 1.35287029
C 2.196961684 1.2010204919 -0.7307656828
C 1.5248266986 0.6867588397 -2.0476586769
C 2.0103347566 -0.5746971173 -1.2971378733
O 1.8421838613 -1.8702725728 -1.7255926513
C 3.3488381446 0.2051375686 -1.0333712939
H -0.2451610818 0.6263225887 1.2666660347
H -0.5818835943 0.7291598187 -0.4580715995
H -0.507779028 -0.8513687579 0.3335531214
H 1.998086687 0.1138048662 2.1991515772
H 2.2906211789 2.2355311915 -0.4079888845
H 0.4520854627 0.8278440904 -2.1732088439
H 2.0617855281 0.9308038231 -2.9672037636
H 2.1617343964 -2.4355563997 -1.0097523188
H 3.9746041696 -0.1227410317 -0.203080855
H 3.9458892301 0.4271785579 -1.9201571223

