# b3lyp 6-31G(2df,p) opt Freq 

 titel

0 1
O -0.4905763437 -1.8678080565 -0.0013862906
C 0.3660080126 -0.7395186019 0.0395657665
C -0.0083285814 0.2530555626 1.1342077697
C 1.0047091645 1.4410060295 1.2724313125
C 1.3492259014 0.9561455128 2.6845335177
C 0.0872004365 0.9402530477 3.5342761623
C 0.2836468535 0.6185440566 4.9646632182
O -0.3707153139 1.0717662563 5.8706811875
C 0.3721623062 -0.1905795824 2.5590635334
H -0.3710858112 -2.3654627327 0.8135016575
H 1.4215732102 -1.0379346356 0.1519091549
H 0.2681507397 -0.2549681893 -0.9381875593
H -1.0596928208 0.5331635927 1.0128693384
H 1.8426563572 1.3409187658 0.5767586664
H 0.6010077351 2.4540329363 1.1921562792
H 2.3277285161 0.9803736501 3.1494354536
H -0.7167337601 1.643509105 3.3317998238
H 1.1140046763 -0.1033559943 5.1583492457
H 0.4622649918 -1.2123442528 2.9139642226

