# b3lyp 6-31G(2df,p) opt Freq 

 titel

0 1
C 0.121541175 1.2118048153 -2.3382448038
C 0.4675175172 1.4732562865 -0.871085049
C 1.4251182389 0.4332726085 -0.3868065223
O 2.4083066384 -0.095770024 -1.2301294253
C 2.2188496908 -1.451147578 -1.6147550083
C 1.2933855996 -1.5885076552 -2.8220229306
O -0.0829149184 -1.3854284992 -2.5590445795
C -0.4548919327 -0.1880349394 -1.9164373783
C -0.0198100029 0.0536193393 -0.4678107294
H -0.6504933277 1.8678495115 -2.7428284254
H 0.9797847494 1.2098833193 -3.0129198983
H 0.321930898 2.4097089348 -0.3475928851
H 1.7844916864 0.5871051106 0.6301419983
H 3.209411932 -1.8302816591 -1.8917820949
H 1.8412349585 -2.0506755941 -0.7757893214
H 1.6488799324 -0.9048438999 -3.6078031861
H 1.3637107173 -2.6100723529 -3.2129349701
H -1.5449985277 -0.1713569937 -1.9859781582
H -0.5749563644 -0.2714783502 0.4049119278

