# b3lyp 6-31G(2df,p) opt Freq 

 titel

0 1
C 1.4761884305 -0.0028639128 0.0233758808
O 0.0704773511 -0.0418779115 0.1857254077
C -0.3653149535 0.6175271333 1.327716168
C -1.774995565 1.0973515333 1.2440879149
C -2.2151631862 1.6697021824 2.5904488003
C -1.0155499021 2.6954775785 2.5495728551
C -1.4957492102 4.1183681727 2.4583596396
O -1.1000273773 5.0285493475 3.1400356248
C -0.6112333489 2.1022678653 1.1880752344
H 1.9921654355 -0.4751586703 0.8724563185
H 1.7085667403 -0.5602095948 -0.8865757675
H 1.8464831178 1.0268334627 -0.0784930852
H 0.0352966859 0.216525248 2.2647025209
H -2.4205589344 0.7553620968 0.4452542291
H -3.1824423573 2.1767053286 2.5421025652
H -2.2226873313 0.9827676292 3.4419626793
H -0.2739402806 2.6203009652 3.3499190791
H -2.279651961 4.2804632347 1.6799135101
H -0.2157366032 2.6518022214 0.3423931349

