# b3lyp 6-31G(2df,p) opt Freq 

 titel

0 1
C 1.4400086554 -0.0667068052 -0.3429747109
O 0.0434245497 0.0230965754 -0.1579412906
C -0.3131676106 0.5939621178 1.064651302
C -0.3067732657 2.1603598829 1.2182826927
C -1.5278227521 2.1716347157 0.2367635254
C -1.8114474465 0.9706351985 1.2045191644
C -1.3385845947 1.9092959261 2.3232053148
C -1.3475473172 1.9016571129 3.7779838283
O -2.1032283865 2.8688107037 3.0023566066
H 1.9177371904 -0.6475729506 0.4611493557
H 1.6082788944 -0.5764139426 -1.2943153301
H 1.9136176808 0.9251669378 -0.38077662
H 0.1329645637 0.0357270885 1.9010257035
H 0.5469897228 2.8367649648 1.2416696699
H -2.2017585979 3.0251129083 0.3187683659
H -1.3130088306 1.9042956235 -0.7960287808
H -2.6634486256 0.2921063896 1.2058955466
H -1.9531698265 1.1778448033 4.3212782929
H -0.5107961533 2.3179313797 4.3370746239

