# b3lyp 6-31G(2df,p) opt Freq 

 titel

0 1
C 0.8256692127 0.8912096939 -0.1186083613
C 0.8418876203 -0.6304248618 -0.0693535931
C 1.6344578063 -1.3678119914 1.0399026294
C 1.8300651403 -2.6441095083 0.1535538373
C 3.3528439107 -2.7061587593 0.400121296
C 3.0203509132 -1.2036729288 0.3067304946
O 3.8856707692 -0.1210973626 0.3151461328
C 1.9449911749 -1.4266916216 -0.8128769583
O 2.178428085 -1.5559216777 -2.168876652
H 0.1528330091 1.3007023859 0.6432019816
H 1.8226112681 1.3069428382 0.0485916885
H 0.4647931171 1.244748915 -1.0915746183
H -0.163733172 -1.0404186709 -0.2281668442
H 1.4712755465 -1.3700464089 2.1164056163
H 1.1137728343 -3.4570320816 0.0627240405
H 3.6766926864 -3.0858311099 1.3749996807
H 3.9610894138 -3.1220178052 -0.4074950363
H 4.3793020064 -0.1279577257 1.142534653
H 2.5774646678 -0.7370943296 -2.4838709171

