# b3lyp 6-31G(2df,p) opt Freq 

 titel

0 1
C 0.0909737439 0.366320136 0.1154354134
C 1.080822038 -0.7660968658 0.013147711
O 2.2901438549 -0.6616912408 0.7639000165
C 2.3835091116 -0.7018329853 -0.681274145
C 2.9460300292 -1.980390665 -1.2776922112
O 4.3234802407 -1.8600855632 -1.5793953134
C 4.5759615446 -0.8598967968 -2.5446469715
C 3.8823554534 0.4384196497 -2.2373505974
C 2.8921568617 0.5186916237 -1.348269423
H -0.4497962966 0.303116286 1.0654827277
H 0.5815644849 1.3406164879 0.0746088713
H -0.645021243 0.3070772724 -0.6935345607
H 0.6229268504 -1.7587585664 0.0650687563
H 2.8507802638 -2.7966441782 -0.5576191131
H 2.3749597406 -2.2407239199 -2.1864643954
H 5.6622803493 -0.7160950676 -2.5573077503
H 4.2893174938 -1.2100787258 -3.5553387028
H 4.2311699492 1.3198639222 -2.7687398855
H 2.4386096596 1.4717930371 -1.0996638069

