# b3lyp 6-31G(2df,p) opt Freq 

 titel

0 1
C -3.2496921202 0.0084425155 -1.294900696
C -1.7470743421 0.0567225036 -1.0628104446
C -1.116342919 1.0939301533 -0.0560256186
C -1.8292890233 0.7075178328 1.2476570474
O -1.809804416 -0.7409142909 1.1506341795
C -1.099431999 -0.9868121798 -0.0848927578
C -0.9306099313 -2.4511863137 -0.3475079019
C 0.0343383811 0.0628689529 0.0060386699
O 1.2270080129 0.079729844 -0.0346131527
H -3.7923973478 -0.1949945338 -0.3693976428
H -3.6151388045 0.9513456881 -1.7141085775
H -3.4966461589 -0.7870862234 -2.0052124904
H -1.1999258992 0.0820882706 -2.0108263226
H -0.9682769378 2.1465229665 -0.2849329046
H -1.2873432863 1.0338396331 2.14271657
H -2.8638636528 1.0618201834 1.3113977319
H -0.3976876443 -2.9251611482 0.4815262469
H -1.9029919904 -2.9421790165 -0.4536702254
H -0.3546908712 -2.6085767575 -1.2634572306

