# b3lyp 6-31G(2df,p) opt Freq 

 titel

0 1
O -0.854201123 -1.2643775304 2.5003390011
C -1.7033377517 -1.3969628698 1.3736697029
C -2.6853031976 -0.1902819177 1.3338684366
C -2.3513111731 0.5005751004 -0.0062476299
C -2.0681742935 -0.7276882088 -0.907967393
C -0.9616811959 -1.3026666389 0.0031092886
C -0.0297342143 -0.0971706643 0.1338830612
O 1.1687325138 -0.1103248233 0.2339876738
C -0.948748388 1.1364195097 0.0995581808
H -0.1173114316 -1.8774631243 2.4040259641
H -2.2513906185 -2.3490463534 1.4163476137
H -3.7247250677 -0.5286698093 1.3525031891
H -2.5221583496 0.4499599329 2.204129234
H -3.1230508041 1.184236792 -0.362569457
H -2.9299703318 -1.3945979507 -1.0061340299
H -1.7105991007 -0.4679901418 -1.9091371334
H -0.452251163 -2.2166121304 -0.3031571256
H -0.7940079739 1.7611346154 0.9835685572
H -0.7047605259 1.7408192226 -0.7819345241

