# b3lyp 6-31G(2df,p) opt Freq 

 titel

0 1
O 0.4158159786 -0.1397568564 0.4489554666
C -0.6416616104 0.6517602646 0.9100109952
C -1.4246198707 0.1773770482 2.1090959067
O -2.7990620579 0.3657542711 2.3073723651
C -3.3297291344 1.6037120345 1.8621786261
C -2.5276658071 2.8124276349 2.308194559
C -1.9302759929 2.8815808978 3.6873084554
C -1.0320657309 2.6713627055 2.4831216142
C -0.4434945949 1.3146733021 2.2602848356
H 0.040957481 -0.8972498793 -0.0133715852
H -1.1458400617 1.2475655104 0.1497359747
H -1.1343529773 -0.7907167759 2.503649897
H -3.4171869443 1.6072449431 0.7636047441
H -4.3457601165 1.6417768163 2.269181953
H -2.8869720127 3.7440181522 1.8796804742
H -1.9068159528 3.8435117989 4.1872961888
H -2.0826543648 2.0311241637 4.3429640781
H -0.4162670036 3.5121286904 2.175305369
H 0.4920406934 1.0902932279 2.7649940925

