# b3lyp 6-31G(2df,p) opt Freq 

 titel

0 1
O 0.4748778196 0.525678545 0.9954166482
C -0.760161952 1.0179728241 0.492017681
C -1.8182816675 -0.1134594064 0.2597029267
C -2.4612228688 0.2546759637 1.6292170126
C -1.694705829 1.5968097779 1.6025247401
O -2.5621367899 2.599386839 1.1115565151
C -1.9013217123 3.6722480909 0.4649468828
C -0.9291605106 3.2164865766 -0.5916088894
C -0.4312200608 1.9837711546 -0.5989760216
H 0.2893789924 -0.182421177 1.6213367952
H -2.4789802741 0.1035675066 -0.5814671079
H -1.4068845863 -1.1192551364 0.1393363047
H -3.5469632563 0.3528480862 1.6645939018
H -2.1388504668 -0.3977574954 2.4456193517
H -1.1771357532 1.9258472745 2.5162493517
H -2.6938139519 4.2823424222 0.0173881318
H -1.3832709988 4.3141294565 1.2009274191
H -0.6516848708 3.9435609982 -1.3500124999
H 0.2655324669 1.6480947694 -1.3622313738

