# b3lyp 6-31G(2df,p) opt Freq 

 titel

0 1
C -0.212291192 -0.0309348851 0.1290044576
C 1.3046761881 -0.0775266467 -0.0068041258
C 1.9361720661 -0.7701331545 1.2020064057
C 2.115027211 -0.3700409235 -1.2735803907
C 1.6743060459 0.367965493 -2.5734801728
O 0.4962586104 1.1607174398 -2.3510212506
C 1.7622229331 1.6678420451 -1.9192463331
C 2.2238269505 0.9827529922 -0.5793350073
O 3.3381692619 1.4870182554 0.0720405769
H -0.4807795999 0.4586078644 1.0734871471
H -0.6980253487 0.4907235942 -0.6877722463
H -0.6063554752 -1.0533551664 0.1760000265
H 1.5389352015 -1.7861051167 1.2987849175
H 3.0237967205 -0.8249783518 1.129902752
H 1.6886986875 -0.2310239752 2.1238840828
H 2.8471406051 -1.1678472778 -1.2924689361
H 1.8816011629 0.0602358911 -3.5912094723
H 2.0818670754 2.6418614026 -2.2721754604
H 3.037790426 2.0888814 0.7630295792

