# b3lyp 6-31G(2df,p) opt Freq 

 titel

0 1
C 1.0859548334 1.0602240245 0.204161436
C 0.9173748419 -0.4490083233 -0.0173332525
C 1.5704466663 -0.9233000408 -1.2813537719
C 1.1376991376 -0.4997301164 -2.7161571072
C 1.8893148519 -1.7398481526 -3.1876393816
C 3.0928237043 -1.849629631 -2.1978079146
O 3.0220643471 -0.7378435409 -1.31565753
C 1.761983154 -2.4178380298 -1.8449277962
O 1.2534630952 -3.6491609418 -1.5341884109
H 0.6287482392 1.3680640949 1.148936758
H 2.1454830702 1.3284525932 0.2320662479
H 0.6142835355 1.6340879247 -0.599883681
H 1.3479474542 -0.9988686013 0.8285058402
H -0.1462871088 -0.7131580647 -0.0584232515
H 0.0591757204 -0.6048812836 -2.8607782997
H 1.4796117295 0.4851062032 -3.0483730954
H 1.92083498 -2.1994193892 -4.1670845932
H 4.0543490639 -2.2774416526 -2.4484539118
H 1.6773628244 -3.9604422424 -0.7257087747

