# b3lyp 6-31G(2df,p) opt Freq 

 titel

0 1
C 1.5156785715 0.0296588327 -0.0330825115
C 0.0599707943 0.0192879267 -0.024259354
C -1.1445711837 0.0122956885 -0.0374759607
C -2.6029343281 0.0120097231 0.0077505151
C -3.1819751178 -1.4288775135 -0.0026683554
C -4.7023333057 -1.4656805094 -0.1838420328
O -5.1984687198 -2.7917599767 -0.252849463
C -3.0540478841 0.7359230064 1.2802482242
O -3.8768680597 1.6104727385 1.313104741
H 1.9173371515 0.0566199777 0.9857071629
H 1.9164394013 -0.8638904676 -0.5239685888
H 1.902999054 0.9048947146 -0.5657491018
H -3.0153590074 0.5730546937 -0.8396715843
H -2.7099665425 -1.9918173285 -0.8129619327
H -2.9025134932 -1.9321766916 0.9332206696
H -5.2026756376 -0.8878450407 0.6076405988
H -4.9723566044 -0.9971825896 -1.1366314476
H -5.0865596144 -3.1966321609 0.6130610883
H -2.5520622041 0.3646266366 2.2024171825

