# b3lyp 6-31G(2df,p) opt Freq 

 titel

0 1
O 0.1130864343 1.4335838682 -0.0308477196
C 0.065305559 0.0186959595 0.0129500524
C 0.5408185104 -0.6065050448 -1.3394840484
C -0.7539007204 -0.6858325076 -2.1539314114
C -1.7860268528 -0.7171708493 -1.313674116
C -3.2117794009 -0.2707621306 -1.0580316445
C -2.674334731 0.3017807873 0.3131242786
C -1.3720960295 -0.5503185951 0.1280240887
O -1.2942646541 -1.7200952596 0.9308446836
H -0.3059024966 1.711292987 -0.8540216335
H 0.6787187996 -0.2784611077 0.8662939707
H 1.297240573 0.0333641596 -1.8058424996
H 0.9989997422 -1.5916462814 -1.1888455011
H -0.7797787282 -0.6343574182 -3.2372959721
H -3.6496649228 0.431026131 -1.7722074336
H -3.9225000464 -1.0909408779 -0.9083399827
H -2.4792367062 1.3752913453 0.2797161994
H -3.2596807754 0.0629434243 1.2040390272
H -2.0038265041 -2.3183398399 0.6740281719

