# b3lyp 6-31G(2df,p) opt Freq 

 titel

0 1
C 2.054203313 1.5150809998 -0.0746429113
C 1.501950856 0.1118003921 0.0490734621
C 2.3350934917 -0.9814098818 0.7155574873
C 2.0898450465 -1.0015328665 -0.7566597655
O 3.1724178634 -0.7803229776 -1.6880306513
C 2.6760038706 -1.8404768011 -2.5090857736
C 1.3128791299 -1.5210853774 -3.0307885043
O 0.8581732512 -2.4254303959 -3.9907225105
C 1.4749066587 -2.0738541298 -1.6169784112
H 1.9408589608 2.0689787269 0.8634700047
H 3.1160053092 1.4931283913 -0.334007655
H 1.5361713843 2.0743865174 -0.8610042018
H 0.4286409865 0.0506570407 0.2161944177
H 3.3383261901 -0.7150559538 1.0338075233
H 1.8397196404 -1.7191314302 1.3388902579
H 3.3807114243 -2.5080531831 -2.9893308877
H 1.0340132481 -0.4759769345 -3.1770894606
H -0.080102126 -2.5800619973 -3.8378829416
H 1.0078802313 -2.9928806991 -1.2886587886

