# b3lyp 6-31G(2df,p) opt Freq 

 titel

0 1
C -0.8619098576 1.9941463752 0.3287712987
C -0.5358048807 0.6953897168 -0.3241398171
C 0.1083947686 0.3877751105 -1.464228285
C 0.7463539955 1.2261629548 -2.5175652472
C 0.0059699723 -1.1357785961 -1.4667942326
O 0.2880092159 -1.4884721294 -0.0629526539
C -0.9270415225 -0.6902511302 0.184435767
C -1.5141371695 -1.3515392801 -1.1181847285
O -1.9349751189 -2.6704197692 -1.0001220357
H -0.4214415603 2.0595085224 1.3316957468
H -0.4938896687 2.8426127448 -0.2550379411
H -1.9449623939 2.1202609841 0.4531953789
H 0.6578823675 2.2927900614 -2.2925181224
H 1.8131608249 0.992059308 -2.6236617284
H 0.2883959082 1.0539774008 -3.4999198045
H 0.5453455899 -1.7339072217 -2.2015155166
H -1.3625330504 -0.8228595873 1.1750224468
H -2.2629786198 -0.79977138 -1.6901848973
H -1.2453201605 -3.1180251948 -0.4896583178

