# b3lyp 6-31G(2df,p) opt Freq 

 titel

0 1
C -3.1661993181 -0.1357056629 -2.8896852176
C -2.4568839806 -0.0372261562 -1.5550355182
C -3.0115574915 -0.8348739115 -0.3817027862
C -1.7198908363 -1.2385597659 -1.0407969625
O -0.4752985585 -1.1237394121 -0.3781295552
C -0.0060893761 0.0600315134 0.0964015171
O 1.0857662089 0.0938748313 0.5938578657
C -0.9247079761 1.2660211468 -0.0065695061
C -1.7853364801 1.2957752064 -1.2760940277
H -3.5732174801 -1.1381603825 -3.0535920109
H -4.0008170616 0.5731612396 -2.9414400388
H -2.4840065884 0.0895829173 -3.7174040433
H -2.9626703412 -0.4133957988 0.6156112312
H -3.8808353453 -1.4605964356 -0.5542070477
H -1.701972508 -2.1472880888 -1.6314682615
H -1.5612377856 1.2614351861 0.886352548
H -0.291852497 2.1515791949 0.0716956465
H -2.5308406461 2.0961820803 -1.2000052828
H -1.1497587581 1.5452096082 -2.1357509102

