# b3lyp 6-31G(2df,p) opt Freq 

 titel

0 1
C -4.0043172143 0.2044230413 1.6962899641
C -2.5517885526 0.1338092268 1.2823488792
C -2.1224185365 0.7097685865 -0.0349665806
O -0.7822521962 1.1522924919 -0.13256547
C 0.0857498283 0.0970437929 -0.0704753451
O 1.2709902206 0.2443688931 -0.1219939979
C -0.6913615952 -1.2246744599 0.0682840766
C -0.3702821947 -2.1587891898 -1.1064941182
C -2.1411135109 -0.7863675362 0.1435204891
H -4.2614144146 -0.6138312321 2.3771004699
H -4.2243319499 1.1490954523 2.2041494422
H -4.6674734364 0.1310665963 0.8277806941
H -1.8305990851 0.2465609103 2.0896980538
H -2.7934892018 1.2715425241 -0.6730286911
H -0.3502568926 -1.6955594731 0.9975116379
H -0.8512488125 -3.1312489033 -0.9673733796
H -0.7216466574 -1.7366303859 -2.0535017279
H 0.7094210464 -2.3095585017 -1.1796795846
H -2.9018785348 -1.3962498236 -0.3307902619

