# b3lyp 6-31G(2df,p) opt Freq 

 titel

0 1
C 1.3357418121 0.6892740095 -0.1307853264
O -0.0071013276 0.8773864519 0.2439727945
C -0.5365441992 -0.2330027168 0.9390777949
C -1.9813505426 0.046490399 1.2559497853
C -2.6303430972 -0.5581287197 2.4572397545
O -1.8546855042 -1.4154972508 3.2368684033
C -2.3177695607 0.9361889377 2.4567756259
C -3.371945625 1.9005619073 2.3882443065
C -4.2726267451 2.6968922351 2.3339758468
H 1.4571078292 -0.1737580066 -0.8053142167
H 1.6597165198 1.5928546747 -0.6528307168
H 1.9872113006 0.5307460031 0.7438239721
H -0.4594611294 -1.1442062957 0.3208914658
H 0.0285417534 -0.4252597561 1.8630969307
H -2.6173267805 0.1803888241 0.3870734526
H -3.6816260834 -0.8289479154 2.370812741
H -2.1456147741 -1.3335358894 4.1512893517
H -1.4560224343 1.2113933948 3.0589955321
H -5.0589318418 3.4080319034 2.2810819922

