# b3lyp 6-31G(2df,p) opt Freq 

 titel

0 1
C 1.392205398 0.8277845933 0.2521333188
C 0.008680763 0.2994636948 0.061717322
C -1.1534596122 0.956538308 -0.0288788323
C -2.356249477 0.0685016504 -0.2737581082
C -2.9678282444 0.3327848638 -1.6579489417
O -3.3080374332 0.377989541 0.7463707843
C -1.7664974332 -1.3582277106 -0.1438116491
C -0.2485247394 -1.1620673664 -0.0727794782
O 0.5928748636 -2.0292905724 -0.1189703273
H 1.8237744065 0.4477442486 1.1846142238
H 2.0474508394 0.4779255354 -0.5527548689
H 1.4119350603 1.9198020098 0.2769235544
H -1.2821161031 2.0321570517 0.0426860649
H -3.8392083888 -0.313988408 -1.8186285108
H -3.2932314567 1.3739874387 -1.7386353442
H -2.2480782435 0.127668375 -2.4558860788
H -4.1315971049 -0.0714832632 0.5278912567
H -2.1062557478 -1.8063867621 0.79494424
H -2.0313363366 -2.0381284277 -0.9580212654

