# b3lyp 6-31G(2df,p) opt Freq 

 titel

0 1
C -0.714559886 -3.7401804682 1.1356306773
C -1.4715809842 -3.7484506247 -0.178772158
O -1.6334890854 -4.7705136887 -0.81263856
C -2.0395855706 -2.4647642764 -0.6998139031
C -1.4655144743 -1.0816308598 -0.3549816284
C -2.7863814763 -1.4717998755 0.1776143781
C -4.1848708532 -0.9089054481 -0.0523949652
C -4.3943804822 -1.2575749224 1.4366782734
O -3.0142224713 -1.6842081216 1.5688964397
H -1.3121766445 -3.2654290845 1.9190996025
H -0.4715761584 -4.7678962741 1.4074596289
H 0.2152422584 -3.1679076307 1.039074722
H -2.445581442 -2.585087201 -1.6995161336
H -0.6439883794 -1.0502742711 0.352711363
H -1.4060500055 -0.3510321153 -1.1550871277
H -4.213476198 0.1581555773 -0.2818552069
H -4.8051108604 -1.454355828 -0.7648657163
H -4.6181691117 -0.4210545255 2.1056204684
H -5.089774585 -2.0806096517 1.6331010158

