# b3lyp 6-31G(2df,p) opt Freq 

 titel

0 1
C -0.4391806916 2.1944872066 1.1592951916
C -0.9622788575 1.2836808437 0.0584983137
C -1.299443278 1.9141568661 -1.333595225
C -2.62316112 1.100030476 -1.3706318353
C -2.3876992426 0.6776309887 0.1105727381
O -2.2990819198 -0.7174234427 0.3838433178
C -1.0277454434 -1.1888432286 -0.0179208599
C -0.0983401785 0.028597334 -0.0885451672
O 1.0959214266 -0.0047934759 -0.2316967578
H -0.4575193177 1.6944548534 2.1337570727
H 0.5963211684 2.4798892829 0.9488506102
H -1.0434844886 3.104004364 1.2332471199
H -1.4610450086 2.9917460481 -1.2481109458
H -0.5773674891 1.7377668595 -2.1341142519
H -3.5352094164 1.6668651572 -1.5667196292
H -2.5984206819 0.243915463 -2.0493773861
H -3.0889957355 1.1060271634 0.8294557444
H -0.6596355729 -1.9221922454 0.7066715613
H -1.0539702331 -1.677971434 -1.0052650315

