# b3lyp 6-31G(2df,p) opt Freq 

 titel

0 1
C 1.333608187 0.9869652176 0.377998047
C 0.9309748732 -0.4409679643 -0.0125118806
C 1.6850680105 -0.9989681135 -1.196522481
C 1.6234156919 -0.4230459287 -2.665494047
C 2.1900882083 -1.8196733711 -3.0440883457
O 3.4793409042 -1.8282974399 -2.41590004
C 3.1992299316 -1.2699062166 -1.1031162142
C 1.2691949934 -2.3170021837 -1.9076202569
O 0.4600376519 -3.1727272579 -1.7157473609
H 0.7369666618 1.3382799713 1.2248315183
H 2.3872596331 1.0462964221 0.6694658286
H 1.1777623861 1.6848415 -0.4512183486
H 1.077111923 -1.1137978471 0.8421234346
H -0.141848866 -0.474194518 -0.2376991876
H 0.6053008486 -0.2429492943 -3.0172158965
H 2.2835517406 0.4174460182 -2.8894993176
H 2.243008351 -2.2252280186 -4.050559665
H 3.4522062486 -1.9976006742 -0.3225316172
H 3.8001250411 -0.3651790312 -0.9562935196

