# b3lyp 6-31G(2df,p) opt Freq 

 titel

0 1
C 1.3656347488 -0.113250671 -0.110470309
O -0.0275681534 0.121558481 -0.0334515981
C -0.4346411043 0.7502673639 1.1740688148
C -1.9635171747 0.6589093899 1.2432126916
C -2.6455345565 1.6344619011 0.3192689836
C -2.0387092273 2.6844818042 -0.2295716175
C -0.5885656493 3.0284049102 0.0116424219
C -0.001563922 2.2230472833 1.1599695107
O 0.7375070632 2.6917563582 1.9924931974
H 1.710783409 -0.7525403578 0.7156326612
H 1.5487824694 -0.6244496964 -1.0582216141
H 1.9513036933 0.817018101 -0.089460274
H 0.0316760138 0.2615752174 2.0411152348
H -2.2479155403 -0.3708489103 0.996130065
H -2.2883261483 0.8288231695 2.2790644156
H -3.6965030151 1.4520323013 0.1109938824
H -2.589619521 3.3491659451 -0.8896242641
H -0.0015963391 2.8141700043 -0.8941552023
H -0.4496298562 4.0917270753 0.23089196

