# b3lyp 6-31G(2df,p) opt Freq 

 titel

0 1
O 0.4897360798 -0.2178279239 0.2507294935
C -0.6711895085 0.3610350468 0.7600517048
C -2.0845945827 0.0094144153 0.1454722718
C -1.8130449162 0.335260984 -1.3269007868
O -1.0396964304 1.5632585505 -1.1850589256
C -1.0715592232 1.7676261141 0.2480072094
C -2.4991515338 1.4065681601 0.6435190307
C -3.7731597789 2.1683901187 0.5149066993
C -3.2395036747 1.7812628571 1.8847987159
H 0.6434931067 0.2001281219 -0.6074324709
H -0.6690168959 0.2707828252 1.8466121762
H -2.6294419172 -0.9025399703 0.3842032239
H -1.2120059238 -0.4233571581 -1.8396753157
H -2.7209827706 0.534130139 -1.9053373684
H -0.5621204463 2.6964839637 0.500003726
H -3.721819919 3.2122067374 0.2230666571
H -4.6509884087 1.6456142624 0.1479134706
H -2.8347104043 2.5678734482 2.5140467449
H -3.7598100922 1.0004062678 2.4305636933

