# b3lyp 6-31G(2df,p) opt Freq 

 titel

0 1
C -0.5835724835 -2.1580016227 -1.226864125
C -0.4404556917 -0.6614336786 -0.9302894169
C -0.3916174822 0.152477681 -2.2305485986
O 0.0913654987 1.4766606703 -2.0308199611
C 1.1864894346 1.5313774937 -1.1675260416
C 1.0240487258 1.1272459132 0.3269707382
O 2.4824359474 0.9085335006 0.3740175947
C 2.0527695088 0.2616962167 -0.8759100652
C 0.822235285 -0.3400833972 -0.1263293394
H -0.6715969283 -2.7337261139 -0.3004535535
H -1.4731530246 -2.3610892516 -1.8326174113
H 0.2872213603 -2.5364680147 -1.7742838448
H -1.3092119903 -0.3379955658 -0.3403374426
H 0.2654556114 -0.3671884113 -2.9475535807
H -1.3787295375 0.2483256928 -2.690546662
H 1.7419433112 2.4538475143 -1.3396781118
H 0.5606757964 1.66567792 1.1545346635
H 2.8235035259 -0.2260892302 -1.4735905099
H 1.0824166625 -1.0798984764 0.6352580182

