# b3lyp 6-31G(2df,p) opt Freq 

 titel

0 1
O 0.5850693512 0.1981086561 0.695915572
C -0.7503915485 0.6305515561 0.8652711225
C -1.2983446538 0.4357290177 2.3102744149
C -2.8210855182 0.6562267704 2.3337470918
C -3.1761090558 1.9143052172 1.5691356394
C -2.20347267 2.6338501643 1.0000932933
C -0.7766272155 2.1579090342 1.1513110362
C -0.5550900872 1.7691936644 2.6555860344
O -1.0153916738 2.5978688257 3.6810816271
H 0.6071527911 -0.7558458572 0.8251795083
H -1.3940348977 0.2892947629 0.0439232515
H -1.0074180977 -0.4744023231 2.8436026152
H -3.3406304363 -0.2095139221 1.9008789772
H -3.1749896083 0.7288308979 3.3715733582
H -4.2206297236 2.2048560669 1.4998594294
H -2.4127629237 3.5434864026 0.4461632134
H -0.0395655439 2.7821110209 0.6462256333
H 0.5006047666 1.5797196934 2.8455005889
H -1.8782219049 2.9365354518 3.4098565429

