# b3lyp 6-31G(2df,p) opt Freq 

 titel

0 1
C -0.0112581023 -0.0851736086 -0.2872662781
C 1.4581563336 0.0492909809 0.1061016452
C 1.9758128872 1.5111022332 0.1332931638
C 3.1308875127 1.4899630089 1.1136033887
O 4.034831283 0.4047336744 0.9479938734
C 3.0082956291 0.269544313 1.953625372
C 1.7917253357 -0.5133561731 1.5120354449
C 3.5078625491 0.2583712802 3.352275082
O 2.9039994286 -0.2193856377 4.2804210258
H -0.6591411451 0.4527299096 0.4144389537
H -0.1934988596 0.3198512426 -1.2882765625
H -0.3242139787 -1.1343776007 -0.2919053904
H 2.0680495121 -0.4987109104 -0.6184048153
H 2.272086515 1.8714762116 -0.8569706512
H 1.208408602 2.196669786 0.5162382227
H 3.5747668086 2.4121819632 1.4830040321
H 1.9665702172 -1.5929859128 1.5019029435
H 0.9846186757 -0.3219194402 2.228950092
H 4.5037911059 0.7393027997 3.4712379476

