# b3lyp 6-31G(2df,p) opt Freq 

 titel

0 1
C 2.7647664529 1.1561864873 -0.0837471448
C 1.7122312805 0.0952310645 0.1175322114
C 0.6312303268 -0.3286235946 -0.9154571452
C 0.344707888 -1.2395153498 0.2976507382
C 0.5658944987 0.0101200117 1.194244496
O 0.9135696595 -0.2282978637 2.540057783
C 2.1743244165 -0.8447315548 2.6466816602
O 2.3741771702 -1.8417133936 1.6735698451
C 1.8808262497 -1.4423721323 0.4141787597
H 3.4099051145 1.2699613228 0.7920888337
H 3.4041371304 0.90982776 -0.938787121
H 2.3009550965 2.1283833804 -0.284479057
H -0.1262515655 0.4235574666 -1.1520968473
H 0.9996504152 -0.8201304892 -1.8200239476
H -0.428716752 -1.9982147006 0.4066197252
H -0.2018375197 0.7877303117 1.181028263
H 2.9651315045 -0.0818822922 2.5592744306
H 2.2292492825 -1.3220529551 3.6280466102
H 2.3718728508 -2.0552208891 -0.3457914132

