# b3lyp 6-31G(2df,p) opt Freq 

 titel

0 1
C 1.1285015855 -0.6499819712 0.0216522534
O 1.0724042947 0.7757542876 0.1106579575
C 0.3607975316 1.2721851022 1.1324684169
C -0.512513992 2.313802284 1.1710497007
C -0.9755544294 3.1410723535 0.014253878
C -0.8847664509 2.4405861379 2.5647302908
C -1.8303369012 3.4445675838 3.1443879561
C -0.2156004894 1.4647933646 3.2278089264
O 0.5637694259 0.7362166454 2.3644330313
H 0.1211754973 -1.0750690976 -0.0630985437
H 1.6996847499 -0.8745629777 -0.8802359603
H 1.631021178 -1.0806237603 0.8926369706
H -0.5596324445 2.7554350242 -0.9199929524
H -2.0684977927 3.1387470714 -0.0758842998
H -0.6654925484 4.1890089799 0.1089727523
H -1.941435923 3.3055908553 4.2234037952
H -1.483222301 4.4706067218 2.9738692064
H -2.8269942802 3.3676718818 2.6935899282
H -0.1869036402 1.1529950735 4.2585136324

