# b3lyp 6-31G(2df,p) opt Freq 

 titel

0 1
C 2.0159970926 2.4531580413 0.9514450918
C 1.9439158243 0.985693472 1.213393761
O 0.8155283922 0.4674027176 1.9551400448
C 1.1326509913 -0.1067138513 0.672353562
C 0.0798606482 -0.2134402361 -0.3792193519
C 2.3349498441 -1.1087936096 0.8720132076
O 2.7090806985 -2.0043116948 -0.1135872937
C 2.8008806356 -1.1634711227 2.2992457967
C 3.1633486523 0.0266072161 1.427560193
H 2.329999491 2.9931556378 1.8522024606
H 2.7429783625 2.6679850056 0.1612040759
H 1.0397866662 2.8385549978 0.6458155544
H -0.6518906689 -0.9883357023 -0.1216719143
H -0.4558497011 0.7327290558 -0.4921818929
H 0.5330115936 -0.4843418209 -1.3374756121
H 2.295957692 -2.8536942777 0.0786657633
H 2.1112018868 -1.0539966492 3.1267774827
H 3.6299090109 -1.8472323732 2.4564282425
H 4.1865554277 0.2896477537 1.1944991186

