# b3lyp 6-31G(2df,p) opt Freq 

 titel

0 1
C 2.0476761719 1.795900114 -1.8261675757
C 1.1802174581 0.7097644527 -2.3961806598
C 1.0252962815 0.4550506231 -3.8529656966
C 1.5684991363 -0.6859540931 -3.0138972766
C 0.4245373403 -1.3644553032 -2.2677551344
C 0.0584561788 0.0146348688 -1.6211897865
O -1.2111208873 0.5697444572 -1.8876317124
C 2.9218218024 -1.2175667165 -3.1744514587
O 3.274165053 -2.319082331 -2.8172837501
H 2.4305088885 1.5282840452 -0.835600566
H 2.9030174527 2.0133791387 -2.4725516976
H 1.4690911933 2.7214633573 -1.7215821584
H 0.041287312 0.3399384332 -4.2979029741
H 1.7526872254 0.9547056527 -4.4867946199
H -0.3552160436 -1.7985155079 -2.9009425121
H 0.7674064907 -2.108752333 -1.5473832367
H 0.2733270606 0.0144758911 -0.5438589156
H -1.8688829546 0.0697867888 -1.3934142457
H 3.6412983601 -0.5108290683 -3.650839243

