# b3lyp 6-31G(2df,p) opt Freq 

 titel

0 1
C 2.2246978702 1.3436971885 -2.6480603327
C 0.826015039 0.9191739398 -2.2900092792
C -0.3002551055 0.9361980036 -3.2888629115
C -0.4558885541 1.7243386735 -2.0207912073
C -0.8709359271 0.7689385454 -0.9053142347
C 0.4604628332 -0.0592641659 -1.1504954975
O 0.3424792741 -1.4056071827 -1.4876839592
C 1.3589623447 0.0949705621 0.0521549424
O 1.8557789174 -0.8552522403 0.6091664092
H 2.7871081714 1.7089720987 -1.7813584308
H 2.7854058779 0.506174172 -3.0793772313
H 2.209086278 2.1463278363 -3.3922247839
H -0.0883339947 1.5163075908 -4.181727452
H -0.903755669 0.0495737664 -3.4621689313
H -0.5867596394 2.7990414368 -2.0102196434
H -0.9256370036 1.2202550595 0.0893356771
H -1.7759942394 0.1814400313 -1.0811180133
H 0.8539017624 -1.8932609056 -0.8217948097
H 1.5183920145 1.13076494 0.414056969

