# b3lyp 6-31G(2df,p) opt Freq 

 titel

0 1
C 0.0500484236 -0.2070577653 -0.527861481
C 1.4389016171 0.2215524145 -0.1400795839
C 2.0651844888 1.5240412204 -0.6825322958
C 3.4367136533 1.2073177766 -0.044889087
C 3.8036428418 -0.0237952775 -0.9085089435
C 2.6668624634 -0.8530026116 -0.289356735
O 3.1653435561 -0.9097592899 1.0565390605
C 2.9505033571 0.4678649482 1.3144742273
O 1.5405268234 0.542870349 1.2647506254
H -0.2458579773 -1.1032730789 0.0250983127
H -0.6736229545 0.5843229239 -0.309499954
H 0.0020403969 -0.4281690885 -1.5986077474
H 2.1204704054 1.6142890953 -1.7698502847
H 1.5407467353 2.3860806247 -0.2676570261
H 4.1648576691 2.0073816931 0.0706539351
H 3.7289696586 0.1796108922 -1.9788016638
H 4.7664363767 -0.4856400346 -0.6865170649
H 2.4271204053 -1.8461377276 -0.6641510923
H 3.3497672199 0.7745413361 2.2781124186

