# b3lyp 6-31G(2df,p) opt Freq 

 titel

0 1
C 1.2866095612 0.6229674537 -0.2437553745
C 0.0075678289 -0.113521524 0.0415595369
C -0.0502338926 -1.3903390804 0.4307076847
C -1.3397616589 -2.1185769058 0.7196447385
C -2.4587107227 -1.1918380063 1.2337381319
O -2.2915387235 -0.9063895212 2.6092527184
C -2.5127228147 0.1146996116 0.4230286626
O -1.8609160459 1.2262001743 1.053995429
C -1.2632616666 0.6457277142 -0.1354854904
H 1.3953655515 1.493538764 0.4150353019
H 2.1585541716 -0.0212786612 -0.1042990644
H 1.3058110356 1.0047924697 -1.2726304901
H 0.8742801265 -1.9529117944 0.5425642673
H -1.6786073215 -2.6447865265 -0.1860108213
H -1.1773608377 -2.8899417128 1.4788366933
H -3.4192569319 -1.7098813458 1.1314836655
H -1.8284713208 -0.0578782656 2.6463010348
H -3.4598232511 0.3693437752 -0.0489705867
H -1.3106397174 1.3166084712 -0.9936925674

