# b3lyp 6-31G(2df,p) opt Freq 

 titel

0 1
O -0.7626312077 0.7686891473 0.7935511531
C -2.1253485437 0.5183422192 0.5303076419
C -2.4406939707 0.0213459076 -0.9307899897
C -3.3844379116 1.1529995236 -1.3913476335
C -4.3128867609 1.3103514714 -0.145067688
C -3.0034119996 1.7920271481 0.5513950869
C -2.6546754358 2.3746182182 -0.8241864155
C -2.5109553529 3.7462590934 -1.2853918203
O -1.3770195315 2.8487450017 -1.2288457431
H -0.4806864174 1.4856061731 0.2109071498
H -2.4432606531 -0.2064941581 1.2845052751
H -1.5206208627 -0.032526907 -1.5182389608
H -2.9256082516 -0.9583901333 -0.9535743913
H -3.7709452262 1.1251200771 -2.4094264109
H -5.0547475369 2.1040222174 -0.2537152071
H -4.7787102409 0.4016649545 0.243851596
H -2.9968830435 2.384869192 1.4647931767
H -2.8200255042 4.0204711026 -2.2927051132
H -2.4882407589 4.5652169711 -0.5680427259

