# b3lyp 6-31G(2df,p) opt Freq 

 titel

0 1
C -0.1468711456 -0.1686997207 0.1438137303
C 1.3641987284 -0.0131573183 0.1432114549
O 1.8453072857 -0.4891549898 -1.1099566362
C 3.2558145852 -0.5515654795 -1.275766643
C 3.9345386435 0.8227439744 -1.3003864697
C 3.4010189981 -1.2563377725 -2.6487956978
O 4.2438583735 -0.9969917341 -3.4601046621
C 3.8846761216 -1.4524633744 -0.2965220424
C 4.4050779744 -2.2208968692 0.4684971523
H -0.5627110056 0.1937629413 1.0886557677
H -0.5943547517 0.4033578961 -0.6739012156
H -0.4251668527 -1.2189819863 0.0206118566
H 1.6416297297 1.041163096 0.2841644029
H 1.8174337212 -0.5903594262 0.960741778
H 3.976338792 1.2638852478 -0.3028224382
H 4.9511697233 0.7156969246 -1.6830699926
H 3.3785216878 1.4858027237 -1.9685183971
H 2.6283902463 -2.0376477918 -2.7999958188
H 4.8669256349 -2.891505691 1.1511415008

