# b3lyp 6-31G(2df,p) opt Freq 

 titel

0 1
C 1.0825768489 0.8572853956 -0.2017651851
C 0.9304881221 -0.6453432978 0.0766914076
C 1.7363469667 -1.0226140245 1.3029781012
O 2.0473793731 -2.4076547687 1.4833942353
C 3.1232163528 -1.4956558351 1.1209866384
C 3.6550693485 -1.6125514798 -0.2578519831
C 2.8306744141 -1.6082304579 -1.3086494742
C 1.3283240764 -1.522017101 -1.136803382
O 0.7556463876 -2.823555579 -1.0396516214
H 0.7872977534 1.4523001696 0.6687327332
H 2.1189531546 1.110844534 -0.4458079359
H 0.4511078589 1.1617327584 -1.0418339419
H -0.1254146921 -0.870624465 0.2711602109
H 1.4796099241 -0.5022709822 2.2268073506
H 3.8419554078 -1.352305473 1.924094462
H 4.7299051248 -1.7074874179 -0.3784321181
H 3.2186190181 -1.7253043609 -2.3159537664
H 0.8834006403 -1.0842334571 -2.0367827036
H 1.1319633698 -3.2071023678 -0.2347456176

