# b3lyp 6-31G(2df,p) opt Freq 

 titel

0 1
C 2.9526484715 2.0220222248 0.5975757225
C 2.2868289397 0.8497046178 1.2387305574
C 1.7495589279 0.5476330565 2.6023596213
O 0.4632725996 0.1107527454 2.1721626739
C 1.0716144 -0.1024784589 0.8543243563
C 0.1136425441 0.0175707488 -0.2894509874
C 1.9915825706 -1.336526644 1.0867274383
C 2.8041576846 -0.3835107481 1.9614589045
O 4.0842996912 -0.5332469943 2.4515867051
H 3.7787710995 2.3739877796 1.2239941852
H 3.3725412183 1.7628748864 -0.3811906608
H 2.2568539459 2.8564668178 0.4567618004
H 1.8630635007 1.0449987938 3.5578231895
H -0.6639472666 -0.7499660737 -0.2099415284
H -0.3718844488 0.9976499992 -0.2884869424
H 0.6327457745 -0.1174882648 -1.2430642547
H 1.5167315591 -2.2163111955 1.5345772209
H 2.5417710067 -1.6082192887 0.1816168983
H 4.0410912716 -1.037727812 3.2718682502

