# b3lyp 6-31G(2df,p) opt Freq 

 titel

0 1
O -0.5159261193 2.8947763322 1.7654150468
C -1.2950854723 1.9940911592 0.9876858417
C -2.593841952 2.5454699773 0.4465598662
C -2.8044833905 2.1434519001 -0.8093207459
C -1.6932023797 1.2988138044 -1.3165463994
C -1.9513890526 -0.0543589251 -1.9500224012
C -1.417436356 1.0785799806 -2.7830581695
C -0.5724360478 1.4970736218 -0.293908033
O 0.2038966286 0.3292414825 -0.1306794393
H -0.4339073859 3.7118610745 1.2603562893
H -1.4728266178 1.1391931058 1.6535274709
H -3.2650586648 3.1450067745 1.0506339641
H -3.6827914776 2.3642986877 -1.4073707292
H -1.2697933796 -0.8508849096 -1.6776996292
H -2.9836886058 -0.3573318201 -2.088720421
H -0.376896447 1.0322500906 -3.088588177
H -2.0775093277 1.5512051869 -3.5035320426
H 0.0652644309 2.3317902999 -0.6366544179
H 0.8961618269 0.5299771065 0.5078634763

