# b3lyp 6-31G(2df,p) opt Freq 

 titel

0 1
C -2.0109181655 -2.5283673697 -1.8704423138
C -1.8172306271 -1.260940984 -1.0661479274
C -2.1733586301 -1.2600168868 0.3904812628
C -0.7070245373 -1.2235315649 -0.029613354
C 0.1338999221 -0.0024867944 0.1280723931
O 1.216139125 -0.0199105416 0.6518897059
O -0.3272169468 1.1707576965 -0.3838004169
C -1.6172053454 1.2587434909 -1.0031462943
C -1.9727160141 0.0346829227 -1.8409565438
H -1.8323498973 -3.4180530448 -1.259073086
H -3.0327265775 -2.5910104211 -2.2623501932
H -1.3230322138 -2.562737766 -2.7227083085
H -2.6083425442 -0.3802127142 0.8486675111
H -2.5086376346 -2.192550191 0.8306762155
H -0.1325361516 -2.1238943899 0.152053883
H -2.3722438667 1.4415466538 -0.2292449887
H -1.5721375926 2.1533733661 -1.6287894887
H -3.0013911233 0.1513587449 -2.2048326705
H -1.3221575894 0.0005318334 -2.7239604253

