# b3lyp 6-31G(2df,p) opt Freq 

 titel

0 1
C -0.2064341902 -0.1693587087 0.0677245896
C 1.2868319927 -0.0060967004 -0.1088247193
O 1.9988685468 -0.5911830226 0.9661935426
C 2.0697092802 1.1987419063 -0.5510278529
C 1.5380482382 1.9435932982 -1.8067829915
O 0.3323442244 1.3306307178 -2.2972460432
C 1.59947306 0.72517392 -2.6146982545
C 1.9200266912 0.4453110685 -4.0444386103
C 2.1118665301 -0.0960196644 -1.385812324
H -0.5015829765 0.2580682293 1.0317324587
H -0.7706757822 0.302628075 -0.7304309193
H -0.4563273837 -1.2390161424 0.0871440115
H 1.7300041671 -1.5154322229 1.0150323356
H 2.8569451804 1.5944544267 0.0772617217
H 1.6968999057 2.9879244302 -2.0511324781
H 1.4112832634 -0.46390026 -4.3854503748
H 1.5969527912 1.2776836105 -4.6751425256
H 2.9966538171 0.2973408602 -4.1777453426
H 2.9368267641 -0.7946047914 -1.4493356238

