# b3lyp 6-31G(2df,p) opt Freq 

 titel

0 1
C 1.9654226604 1.6335028947 -0.6859603316
C 1.544248441 0.253617908 -0.2318611832
C 1.9735966076 -0.3469684835 1.0408435199
C 2.4975149894 -0.9848032873 -0.2672369551
C 3.9287444084 -0.7311066291 -0.5581096682
O 4.66933131 -1.4338850485 -1.2045577619
C 1.7982127264 -2.266805267 -0.6663640708
C 2.5225727923 -3.2907295948 -1.5069897245
O 0.6518170623 -2.44742191 -0.3060410703
H 1.21325481 2.3617461775 -0.3641035594
H 2.922736609 1.9470526407 -0.262736614
H 2.038892705 1.6937236057 -1.7764007229
H 0.5520675874 -0.0493794096 -0.5532528887
H 2.7118169104 0.1772621588 1.6401466619
H 1.2730713697 -0.9696987461 1.5838472673
H 4.3138245206 0.2069497746 -0.1000351868
H 3.422435447 -3.6432295049 -0.9956923019
H 1.8411360594 -4.1195676915 -1.7032706196
H 2.8728892437 -2.8473631979 -2.4431288502

