# b3lyp 6-31G(2df,p) opt Freq 

 titel

0 1
C 4.199830011 1.89053635 4.5024303268
C 3.2022288856 2.0351307699 3.3472074521
C 3.2781642728 0.8783714126 2.3813048075
O 4.4015669264 0.8560523496 1.4849932432
C 3.1006416656 1.0345681816 0.9337829677
C 2.5854797266 -0.09708861 0.0569597434
O 3.1781227813 -0.0740442633 -1.236150819
C 1.1208462793 -0.0599978425 -0.0091212644
C -0.075708492 0.0249237431 -0.088824497
H 4.0060233503 0.9818034095 5.0827357915
H 5.2234113155 1.8329891517 4.1207068339
H 4.1371680505 2.7425626559 5.1854317261
H 2.1780910287 2.0968467691 3.7371874174
H 3.3935107239 2.9650144508 2.800196453
H 3.0502939425 -0.1004892751 2.8106792598
H 2.9029835584 2.033752978 0.539288238
H 2.9162577932 -1.0412242637 0.5045416566
H 2.7663502755 0.6405351165 -1.7348668511
H -1.1347033051 0.0765427162 -0.1547292052

