# b3lyp 6-31G(2df,p) opt Freq 

 titel

0 1
C -0.0062399852 0.9443532969 3.823416078
C -0.9222011704 -0.2546675716 3.9464283961
O -1.6798758586 -0.4187676563 4.8762375111
C -0.8846618939 -1.2709900608 2.8370061674
O -0.2327323964 -0.912758773 1.6127004397
C 0.3792144811 -1.9194259498 2.4151328907
C 0.4081175909 -3.3085346713 1.8826773225
C 1.6895815981 -3.8537908071 1.2946953556
C 1.1970350101 -4.3650531435 2.6206532186
H -0.1069948548 1.567734883 4.7121230528
H 1.0378580196 0.6389805226 3.6989173394
H -0.2680046844 1.5160513556 2.9271383486
H -1.8063013263 -1.8426909391 2.7348945905
H 1.300575547 -1.5969462762 2.9055498026
H -0.5187652891 -3.6214097366 1.4125617059
H 1.6119830452 -4.4984634342 0.4268565763
H 2.5587913431 -3.2044053995 1.2903477858
H 0.7777969189 -5.3630440975 2.6727969906
H 1.7343189051 -4.0637289615 3.5140228079

