# b3lyp 6-31G(2df,p) opt Freq 

 titel

0 1
O 1.8450240828 0.3319402603 -0.0879224994
C 0.4757437844 0.6771193712 0.0788125242
C -0.342888212 0.3922348401 -1.1468014457
C -1.3756440139 -0.4431897161 -1.2854911803
C -1.8622222581 -0.5103332153 -2.697915365
C -0.8494518366 -1.0750546856 -3.6746096034
C -0.9592612141 0.4223573153 -3.4725302642
C -0.0165340302 1.0827137232 -2.4705782331
O 1.3760657908 1.0176752032 -2.8199254078
H 2.1141617102 0.7193910612 -0.9324935814
H 0.1021815413 0.0975965695 0.9293018592
H 0.3737947479 1.7450167266 0.3436672709
H -1.7986259974 -1.048965288 -0.490778293
H -2.9197671332 -0.6036789625 -2.9156782438
H -0.0089944368 -1.6228526506 -3.258116491
H -1.2108069077 -1.4584883975 -4.6230540563
H -1.3330599196 1.011520894 -4.3005075414
H -0.2139178816 2.1603238074 -2.4027850419
H 1.5465969439 0.1183701338 -3.1251881568

