# b3lyp 6-31G(2df,p) opt Freq 

 titel

0 1
O 1.4012597835 0.3175575492 -0.3346472091
C 0.0361689066 0.4212351827 0.0313585376
C -0.8745048926 0.5349795831 -1.1778947635
C -2.1638346818 -0.2670712202 -1.2199867635
C -0.9860634185 -0.6688357482 -2.0757458522
O -0.2278309064 -1.8157051743 -1.7054795868
C 0.0858785246 -2.5724494589 -2.8813971614
C -0.3897641037 -1.7222219024 -4.0278177351
C -0.9980130601 -0.6393917432 -3.552823347
H 1.4648786896 -0.5068678696 -0.8317854578
H -0.2747632563 -0.4366565694 0.6449385966
H -0.0514237113 1.3173187429 0.6545937579
H -0.8670534444 1.5023036057 -1.6730117408
H -2.3764789941 -0.8995761423 -0.36411259
H -3.0385772135 0.1537030074 -1.7046132144
H 1.1677578004 -2.766361981 -2.9050517166
H -0.4204288015 -3.5504078043 -2.846194931
H -0.2531948201 -1.9947516689 -5.0657971576
H -1.4615267706 0.1567567117 -4.1201275053

