# b3lyp 6-31G(2df,p) opt Freq 

 titel

0 1
O 0.4076438086 -1.0678302537 -0.0143824471
C 0.52887502 0.1175161645 -0.1762218391
C -0.1802625537 0.9218057014 -1.2460718029
C -0.9874046102 2.1007343207 -0.6476868643
C -1.5453668643 2.9401762999 -1.7862557999
O -1.1799695297 4.0522109159 -2.0632553417
C -2.1226607468 1.6206128324 0.2421669122
C -1.9113957182 1.4303854409 1.7248377654
C -2.7682906003 2.5656632627 1.2253349788
H 1.2075367054 0.7209133714 0.4707997388
H 0.5893126844 1.3228593742 -1.9207462508
H -0.8234350637 0.2472868266 -1.8197775183
H -0.3135557228 2.7523556756 -0.0789891927
H -2.3478232791 2.4336072156 -2.3728653019
H -2.7847960209 0.9033601875 -0.2369196118
H -2.3938729591 0.586056348 2.2035017798
H -0.9385831808 1.6765435356 2.1374003561
H -3.8412505611 2.5052354885 1.3669639271
H -2.3666777377 3.5712889222 1.2952857621

