# b3lyp 6-31G(2df,p) opt Freq 

 titel

0 1
C 1.9423358429 3.0672938488 1.4158425399
C 1.2123674491 3.1157615845 0.0883894445
O 0.1991674668 3.7679033824 -0.0684051147
C 1.7920221766 2.3064077835 -1.0229369565
C 1.5899650749 2.8199566992 -2.4475938978
C 0.823170998 1.6441471103 -1.9883310922
C -0.6828263223 1.4647988355 -1.8322505002
O -0.5797708648 0.1002644842 -2.3113112347
C 0.8467027546 0.2032867104 -2.4870058723
H 1.427108573 3.6886973803 2.1488524306
H 1.9980240022 2.0343583331 1.7788930509
H 2.9744772222 3.41558344 1.2933695619
H 2.7120228259 1.7703605446 -0.8109094639
H 1.0587644885 3.7628148254 -2.5290099604
H 2.4074165691 2.6736569634 -3.1459761524
H -1.0772019284 1.5170708715 -0.8124691754
H -1.3023775555 2.0863400985 -2.4893793386
H 1.3947898902 -0.5153661718 -1.8628558723
H 1.1467383569 0.0696809662 -3.5352915961

