# b3lyp 6-31G(2df,p) opt Freq 

 titel

0 1
C -0.4894958479 -1.9434268604 1.3872378928
C -0.7547869433 -1.2520005398 0.0387231354
C 0.1293012817 0.0043913493 -0.0834071177
O 1.3215183089 -0.0083898921 -0.2458309678
C -0.733227801 1.2692981479 0.0666186291
C -2.1629191374 0.7926286944 -0.0687357417
C -2.5104118876 0.0379736409 -1.340393976
C -2.1813182982 -0.7313673737 -0.1010906608
O -3.2311163286 -1.4697827675 0.4450537971
H -1.1030774053 -2.8433926957 1.4829787718
H 0.56262357 -2.2288879983 1.4589349831
H -0.714105103 -1.281619263 2.2327684373
H -0.4846185363 -1.9447767853 -0.7661338214
H -0.5369657096 1.6972864484 1.0583650869
H -0.4224336415 2.0194948246 -0.6680870716
H -2.9613614844 1.3314373733 0.4277464169
H -3.5547366688 0.033887296 -1.6298703802
H -1.8080768649 0.0447189323 -2.1699707699
H -3.1395375228 -1.4635444113 1.4040830064

