# b3lyp 6-31G(2df,p) opt Freq 

 titel

0 1
C -3.0725130243 -1.021077079 1.2503141995
C -2.3699234927 -0.7023109206 -0.0848111254
C -3.2347680284 -1.170202897 -1.2649738795
C -2.0688166276 0.7851670251 -0.1663029351
C -0.7867299532 1.1042545965 0.0631944184
C -0.0358380262 -0.1352109893 0.33074825
O 1.0477007965 -0.2935959499 0.8508807921
C -0.9318399637 -1.2972213289 -0.1131361512
O -0.7263235852 -2.4442382963 0.6644971853
H -3.2433440118 -2.0968372391 1.3350742125
H -2.4645510114 -0.7099002117 2.1036969706
H -4.0370222445 -0.5061783532 1.3092455481
H -3.3911295301 -2.2524543818 -1.2189572103
H -4.2182948844 -0.6878878755 -1.247175041
H -2.761570418 -0.9363630151 -2.2242162452
H -2.8613975283 1.5012593302 -0.3656092488
H -0.3561411734 2.0956448958 0.119291052
H -0.6754794953 -1.4958540042 -1.1698531784
H 0.1492701919 -2.3289849659 1.0644067366

