# b3lyp 6-31G(2df,p) opt Freq 

 titel

0 1
O 5.7701695927 -1.7420228416 2.2003232262
C 5.4054608335 -0.5086736359 2.7967024721
C 4.5432087596 0.3361262604 1.8765992564
C 3.3350401456 1.0798933269 2.4297802715
C 3.1593868012 -0.1451337521 1.5689853086
O 2.8185575783 -1.3567797398 2.1921790987
C 2.5969285716 -0.0151045457 0.1573888065
C 1.1397621766 -0.1217000896 0.1593555658
C -0.054795624 -0.2441775355 0.2278643235
H 4.9446991575 -2.2262654429 2.0789475937
H 4.8814973121 -0.6683995854 3.7491256663
H 6.3405407835 0.0154938346 3.0200831716
H 5.0769489913 0.8036823884 1.0534017908
H 3.133907153 0.9652162096 3.4896409503
H 3.0815392474 2.0519121349 2.0203730173
H 1.8548650202 -1.413685414 2.2145418674
H 2.9066693781 0.9411470556 -0.2789342402
H 3.0220133244 -0.8071613564 -0.4721622739
H -1.1127994226 -0.3332166117 0.2551386478

