# b3lyp 6-31G(2df,p) opt Freq 

 titel

0 1
C -3.2558154387 -1.9380802161 -1.2297448957
C -2.1732626949 -0.8960841415 -1.0285605137
C -2.2804454733 0.0696390541 0.095226275
C -1.2117080238 1.1589260751 -0.0953328741
O -1.1148077846 2.1293405566 0.9126744914
C -0.1941251237 0.0108538664 0.147619025
O 0.9032651069 0.0909708325 0.6434395502
C -1.1937686822 -1.0866216962 0.1280473155
C -1.0407172821 -2.3426055201 0.9387723141
H -3.7215213057 -2.232807508 -0.2857404395
H -4.0432648611 -1.5376147449 -1.8757975983
H -2.8568910822 -2.8390797597 -1.7065866613
H -1.7653171363 -0.5165152457 -1.9657094481
H -3.1367117914 0.154856178 0.7515676891
H -1.2362589197 1.6275402777 -1.0884983982
H -0.2255568145 2.0513070934 1.2840751544
H -0.4223607431 -3.0752432926 0.4082676047
H -0.5462907387 -2.1212260552 1.8891219119
H -2.0027984609 -2.8136409039 1.1526511677

