# b3lyp 6-31G(2df,p) opt Freq 

 titel

0 1
C 1.4342057398 -0.1067428713 2.9454256938
C 1.0841616755 -1.1500367688 1.8974961194
C 2.1942969965 -1.190494256 0.8472878742
O 2.1350627948 0.2536309651 0.6595352738
C 1.0326965982 0.3265010063 1.5737878399
C -0.2706474276 0.9761623786 1.2032008338
O -1.3431936243 0.1948955123 1.7275008477
C -1.3204125884 -1.1580152858 1.2862144221
C -0.1848419213 -1.9691975799 1.9478230898
H 0.6825984885 0.0185172916 3.7182662268
H 2.4638676183 0.0319523515 3.2626293893
H 3.1895148333 -1.5281996539 1.1617386042
H 1.9045550186 -1.7102547697 -0.0745164354
H -0.4020745178 1.9796518733 1.6189464477
H -0.3308982895 1.0395837797 0.1048882813
H -2.2998129197 -1.572260596 1.5415578417
H -1.2126230357 -1.1876614016 0.1895136811
H -0.456715857 -2.2069558984 2.9814917066
H -0.0624835022 -2.9234186672 1.4226025322

