# b3lyp 6-31G(2df,p) opt Freq 

 titel

0 1
C -3.8274427138 1.0784143503 -1.4116260845
C -3.2859049384 -0.1128699873 -0.6549783202
O -3.4527489654 -1.3416423428 -1.3154888363
C -3.3082067241 -0.1316845525 0.8605635506
C -2.0029513466 -0.0257922868 0.1105552374
C -0.8874210168 -1.0852507987 0.0722793852
C 0.1231197297 0.0758121885 0.0853827955
O 1.3172255982 0.1369960316 0.0795572893
C -0.9953588803 1.1394765109 0.1258605171
H -3.6336188401 2.0134418285 -0.8788897473
H -3.3728155887 1.1433627355 -2.4056603821
H -4.913028429 0.9922112745 -1.5432356929
H -4.3935915763 -1.5498845344 -1.3271395797
H -3.6758751852 0.7455060325 1.3852305777
H -3.5286994317 -1.0797771192 1.3411252092
H -0.8117612674 -1.7446891652 0.9431403599
H -0.8598211879 -1.7012221829 -0.8314973599
H -0.982102643 1.7530619803 1.0329641675
H -1.0073000333 1.8050026173 -0.7436248365

