# b3lyp 6-31G(2df,p) opt Freq 

 titel

0 1
C 1.6198323609 0.9972652887 -0.0094556188
C 0.2466646148 0.4501279997 0.156470776
C -0.9727347278 0.9750239903 -0.0060059982
C -1.876806922 -0.2122893494 0.3548180683
O -1.2002227146 -1.3196873862 -0.3398165144
C -0.1185651923 -0.9895269351 0.5901990763
C -1.2132682883 -0.7235507037 1.6776369881
C -1.8546903062 -1.9463392016 2.3146232107
O -3.1043907337 -1.6359829982 2.9203134895
H 2.1937760788 0.9305262386 0.9238084598
H 2.1842471106 0.4333377045 -0.7630089095
H 1.5979172975 2.0463709422 -0.3170054713
H -1.2779312869 1.9665316396 -0.3073534084
H -2.9536325199 -0.168140662 0.2024502362
H 0.6596095641 -1.7494450789 0.6751779149
H -0.9772158987 0.0423579389 2.4252783531
H -2.066219836 -2.6921685291 1.5453699213
H -1.1602732012 -2.3976954316 3.0418676448
H -2.9372893992 -1.0256438567 3.6457369216

