# b3lyp 6-31G(2df,p) opt Freq 

 titel

0 1
C 2.3631219524 1.4697903636 -0.1821076418
C 1.7860363767 0.0514150648 -0.1334973363
C 2.132020067 -0.7644166536 -1.3740549228
C 1.4605236352 -0.3988034411 -2.7423463779
C 0.9314722946 -1.8409473255 -2.8589494256
O -0.4048884272 -1.9768847051 -2.2753715983
C 0.1144305842 -2.3582380026 -1.05505085
O -0.4904142295 -2.6541708281 -0.0754093607
C 1.5668081408 -2.2243010036 -1.5008922465
H 2.0967732226 2.033973469 0.7163516491
H 3.4564556826 1.4513185561 -0.253081695
H 1.9845287453 2.0256882329 -1.0467708423
H 2.1634604251 -0.4721473755 0.7538975238
H 0.6966868023 0.099085141 -0.0152639463
H 3.2195402865 -0.8015694623 -1.4922188666
H 0.6635172649 0.3473145841 -2.7018833026
H 2.1693595186 -0.1193155316 -3.5246767602
H 1.015275833 -2.4048139154 -3.786053015
H 2.2293303051 -3.0658346971 -1.309427435

