# b3lyp 6-31G(2df,p) opt Freq 

 titel

0 1
C -0.1591401368 1.553442099 0.0084534082
C -0.2138686678 0.015835538 -0.014575224
C 1.3313224297 0.0907772221 -0.0330895088
C 2.1016586119 -0.4812269297 1.1809949965
C 3.494552307 -0.7642933194 0.6609775262
O 4.0642137629 0.3319143642 -0.0641829543
C 3.4758250226 -0.7414813259 -0.8082700735
C 2.0702440087 -0.4429615898 -1.2835881162
O 1.2805165428 1.5440174098 -0.0098805301
H -0.5785359351 2.0592412732 -0.8699862979
H -0.5560194137 2.0317788893 0.9123655726
H -0.6419135376 -0.4541137774 0.8733104787
H -0.6646039714 -0.4267172488 -0.9053043708
H 2.0856576954 0.2314155826 2.0100779616
H 1.6416736526 -1.417257794 1.5237012294
H 4.1975369072 -1.3626172158 1.2355758774
H 4.1637033506 -1.3214030313 -1.4188895661
H 2.0334078595 0.2950693168 -2.0894713319
H 1.6013081017 -1.3680848331 -1.6433550571

