# b3lyp 6-31G(2df,p) opt Freq 

 titel

0 1
C 1.5078926125 -0.1276010835 0.1287612528
O 0.0988873795 0.0252478988 0.0459214276
C -0.4580097367 0.6697185664 1.1204822948
C -0.7503900026 -0.0159202531 2.43566117
C -1.8890137105 0.5614700119 1.6237552681
C -1.959307919 2.0850498161 1.8298069003
C -0.5042175422 2.1808466566 1.3272955245
C 0.5513362172 3.1630616102 1.58170292
O -0.1281945759 3.0898004736 0.3143366221
H 1.8016037308 -0.6380874054 1.0563876362
H 1.8107286814 -0.734088465 -0.7275077888
H 2.0217406603 0.8406983877 0.0742143363
H -0.6652076708 -1.0971782049 2.3908017625
H -0.4670431023 0.4253837961 3.3888199098
H -2.6905666379 -0.0584778332 1.2445053193
H -2.6344937573 2.5831154769 1.1296731569
H -2.1638640988 2.4319836439 2.847646765
H 0.3332379624 4.0530369426 2.1710228694
H 1.5975544501 2.8606115442 1.570157793

