# b3lyp 6-31G(2df,p) opt Freq 

 titel

0 1
O 1.6074920961 0.6800055366 -0.0337146685
C 0.2435954634 0.3647653373 0.1969051685
C -0.7082022133 1.2182009624 -0.6494959509
C -2.1549525052 0.8164630673 -0.4592004893
C -2.9571506074 1.3514322814 0.6824346396
O -2.3025306254 2.2214178836 1.5534541996
C -3.2748481262 1.8268343626 -0.7351261592
C -4.4853866611 1.4275587206 -1.3844773371
C -5.5064489393 1.0799861212 -1.9187325172
H 1.7557404088 1.5777976385 0.2798472599
H 0.1363047399 -0.6930089473 -0.0690107739
H -0.0216600797 0.4641888464 1.2598979889
H -0.5814779851 2.2705140034 -0.3713413583
H -0.4266967837 1.1232907605 -1.7044499157
H -2.3908778441 -0.2047300479 -0.7454579513
H -3.6889012735 0.6899680433 1.1437737296
H -2.9482569567 2.8485194703 1.8958274935
H -2.9253399441 2.8328443021 -0.9525650412
H -6.4048826732 0.7774545477 -2.3963780471

