# b3lyp 6-31G(2df,p) opt Freq 

 titel

0 1
C 1.4983902438 -0.1036858047 -0.0809206778
O 0.0875939461 -0.0347363686 0.0139578223
C -0.3668380386 0.6362830321 1.1367353927
C -1.8950155171 0.6132546289 1.4553962621
C -1.3740717476 1.0685800154 2.8633215854
C -0.1516385877 0.1436373733 2.6021342838
C -0.8243910628 2.4654632943 2.4914820003
O 0.6063702628 2.5845457469 2.4390144434
C -0.0997755329 2.165600464 1.2592862457
H 1.9350632702 -0.6490026734 0.7672875331
H 1.7304992744 -0.6376295696 -1.0048014587
H 1.9542179838 0.8959876397 -0.1208571316
H -2.5396142419 1.3010266924 0.9003130222
H -2.3108859917 -0.3968390838 1.4474896358
H -1.9819175457 0.9760517269 3.7608327268
H 0.7835472048 0.3762376189 3.1068676397
H -0.4173776704 -0.9097846594 2.7030924913
H -1.3751078975 3.3791741879 2.6876865321
H -0.0305535919 2.8051726687 0.3854291314

