# b3lyp 6-31G(2df,p) opt Freq 

 titel

0 1
C 0.2013459524 3.8887806332 0.9870987557
O -0.7144305844 3.5918464847 -0.1010423497
C -0.826745945 2.2444595546 0.3356172567
C 0.1831253656 2.4410300414 1.4757259263
C 0.5004954305 1.5336445865 0.3331603023
C 0.5068911967 0.0137643352 0.5077365341
C 1.3269759418 -0.4670547526 -0.7203896848
C 1.5292002377 0.8247767507 -1.5361250954
O 1.513106808 1.8732389753 -0.5738298892
H 1.157697502 4.2825431195 0.6300241259
H -0.2615463353 4.5891307506 1.6905957269
H -1.8012719809 1.7675798812 0.2831664824
H 0.1794842419 2.1217685862 2.5108198547
H 0.9886941473 -0.2798177944 1.4449163557
H -0.5073594826 -0.3958646957 0.5185134737
H 2.291628736 -0.8686430195 -0.4003951895
H 0.8166011073 -1.2437777057 -1.2945001254
H 2.4827834117 0.8709473599 -2.0668581181
H 0.7152147892 0.9617738792 -2.2640032623

