# b3lyp 6-31G(2df,p) opt Freq 

 titel

0 1
O -1.2714148114 1.9444216837 1.1913995498
C -1.1623445046 1.0375201157 0.1205489591
C -2.1919919236 -0.1485619606 0.0727535919
C -1.0248762959 -1.1628322171 -0.156748007
C -0.0926148253 -0.0523475296 0.3351633921
O 0.9391135054 -0.0210873413 0.946496193
C -1.0456628422 1.7623283013 -1.2098933387
C -0.2553808231 3.0387446514 -1.3159542711
C -1.7611652763 3.0745617244 -1.4108179394
H -0.4700549433 1.8483378902 1.721696082
H -2.6668339073 -0.2815368998 1.0460712716
H -2.9507392947 -0.0866904051 -0.7078706909
H -1.0103221088 -2.0887865771 0.4210979435
H -0.8690972187 -1.4015036823 -1.2131632159
H -1.0098828174 1.0974490323 -2.0687845826
H 0.1846664968 3.4264755793 -0.4048057254
H 0.3312538771 3.2050305624 -2.2123281368
H -2.2954059136 3.4808369529 -0.5604364839
H -2.2195555831 3.2620352692 -2.3752710515

