# b3lyp 6-31G(2df,p) opt Freq 

 titel

0 1
C -1.107829375 3.8115061055 -3.9026903682
C -0.5355001931 2.9910305184 -2.7438895284
C -1.5846045213 2.6801482481 -1.671955913
C -1.0290784207 1.875105842 -0.4922511272
O -0.605144682 0.5818680541 -1.0153930633
C 0.4489280448 0.0049080015 -0.41504975
O 1.0836868272 0.4497085425 0.4996192212
C -2.0166120529 1.6763629987 0.5636328783
C -2.8487369166 1.5364390758 1.4183451376
H -1.9238848534 3.277150492 -4.4013213913
H -1.5057889779 4.7705429702 -3.5530387003
H -0.3408852573 4.0229753738 -4.6537672141
H -0.1209127625 2.051365796 -3.1245871231
H 0.3005801821 3.5350207066 -2.2848045776
H -1.9978954813 3.6103812348 -1.2654502982
H -2.4246385695 2.1252993251 -2.1053055944
H -0.1435283666 2.3639252692 -0.0734889892
H 0.6448642882 -0.9571730359 -0.913544819
H -3.5724373723 1.4083962016 2.1852615302

