# b3lyp 6-31G(2df,p) opt Freq 

 titel

0 1
C -1.7062855741 -1.3807921751 -0.5962746412
C -1.9989828269 -0.2114771607 0.2945670542
C -3.3051749583 -0.1193405289 1.1439914469
C -3.2929903921 0.8750635341 2.2799346945
C -3.4165907762 1.369475163 0.8632502903
C -2.1050611353 1.3010425588 0.0565090214
O -1.9501014853 2.0925929887 -1.0582025304
C -0.9267020782 0.7489589723 0.8084856217
O 0.2167007356 0.8514629821 -0.0097450152
H -1.4946382628 -2.2898095356 -0.017149976
H -2.5564753385 -1.6010392428 -1.2518662555
H -0.8447777956 -1.1776484859 -1.2393323134
H -4.0835927003 -0.8668781557 1.0515862913
H -4.2224169143 0.9103911608 2.8421773721
H -2.420705834 1.0646418149 2.8943204992
H -4.2729253237 1.9217081464 0.4994032449
H -1.0152844145 2.0339031903 -1.3003339978
H -0.7096981511 0.9141636394 1.8635642263
H 0.7342024356 0.0437693239 0.0723037868

