# b3lyp 6-31G(2df,p) opt Freq 

 titel

0 1
C 0.6090071216 0.1134307815 -0.6882505083
O 0.5065741036 -0.3083986847 0.6662521335
C -0.1498363534 0.5476864223 1.5057331681
C -0.256370967 0.0505598789 2.9627430657
C -1.1738204049 1.1676301306 3.4343510089
C -0.8074781447 2.4176839677 2.6210846617
C 0.3173035021 2.0234112829 1.6788624638
C -1.9631408528 1.5372925605 2.1979773465
O -1.5426802365 0.7153469192 1.1314040556
H 1.2705471341 0.9831961217 -0.7915013824
H 1.0398265163 -0.7249082486 -1.2387665259
H -0.374740575 0.3559927597 -1.1023083035
H -0.7168868393 -0.9394799126 3.0043621633
H 0.7159792824 0.0283710062 3.4607289943
H -1.5847166892 1.2234352588 4.4329897618
H -0.9439317728 3.4207891414 3.0019799417
H 0.2951039732 2.582488876 0.7400463365
H 1.3154954191 2.0831717368 2.1203479913
H -3.0040337967 1.8265418019 2.1692668975

