# b3lyp 6-31G(2df,p) opt Freq 

 titel

0 1
O 0.2781598345 -0.0397301708 0.3272537248
C -0.9219108107 0.6229611958 0.6425192904
C -2.2240272343 -0.127141699 0.3914938368
C -3.5095268172 0.3611131797 1.0216653594
C -3.5090840352 1.593832371 1.8963957249
C -3.8385342463 1.7242989769 0.4304597856
C -2.7407739008 2.0959047843 -0.5656687752
C -1.733009689 0.9444765398 -0.580383561
O -1.1714378588 0.6746535014 -1.8215707733
H 0.3471609149 -0.8295943834 0.8730650603
H -0.832155027 1.3228691624 1.4708003739
H -2.1335720153 -1.1793045546 0.1408086011
H -4.2833880026 -0.3790782537 1.1889384806
H -4.3341229469 1.697048903 2.5935524969
H -2.5759165935 1.9936649694 2.2770332004
H -4.8582471901 1.9823310583 0.1679857367
H -3.1587845545 2.1656254939 -1.5749210843
H -2.2677017036 3.0594925324 -0.3452273161
H -0.3076450438 0.2771325833 -1.6431819221

