# b3lyp 6-31G(2df,p) opt Freq 

 titel

0 1
O -0.4567828747 2.2729312134 0.7727455078
C -0.7868360538 1.1398754796 0.0190876736
C -2.2561013531 0.7033775108 0.0971485878
C -3.0997361837 0.868274481 -1.1929388814
C -2.6924347673 -0.5707160339 -1.6196954634
C -2.2118812928 -0.848646698 -0.1636162776
C -0.7834653068 -1.3557606234 0.0959715527
C -0.0096224516 -0.098054166 0.4854219294
O 1.0055823692 -0.0208600242 1.1319313477
H 0.3829796597 2.057361958 1.2076039651
H -0.5101246736 1.2844092222 -1.0442842143
H -2.6873370881 1.0569835161 1.0360177146
H -4.1673782685 0.9422373252 -0.9708854145
H -2.8281244162 1.6900571596 -1.8607626958
H -3.4809441686 -1.2176570486 -2.0106463098
H -1.8632898292 -0.5774823846 -2.3345925361
H -2.9561466152 -1.4038473742 0.4094239274
H -0.7076052621 -2.0869977585 0.9054215413
H -0.3231854838 -1.8132336945 -0.7881848445

