# b3lyp 6-31G(2df,p) opt Freq 

 titel

0 1
C 0.6184040347 1.3853373961 -0.0300984894
C 1.4219505664 0.1033061947 -0.0285041285
C -0.0742545026 0.0629433616 0.0359527951
C -0.9029860779 -0.6175723536 1.1372493258
C -1.1100465339 -1.7861525971 0.1311613649
C -0.9914268726 -0.675606136 -0.952020572
O -2.2587896853 -0.0185455706 -1.0543095655
C -2.5599011259 0.7069622903 0.1232834483
O -2.1587220795 0.0471177847 1.3096288534
H 0.632601186 1.99861367 0.8654021798
H 0.5554923257 1.9480199399 -0.9561984405
H 1.9039521877 -0.1994649704 -0.9529269436
H 1.9810053589 -0.1489091566 0.8672628344
H -0.483737223 -0.7922874715 2.1297312875
H -0.2683680927 -2.4820591661 0.1148625348
H -2.0644736871 -2.3114386426 0.1861540571
H -0.6570771122 -0.9060315031 -1.9651493003
H -2.0826613232 1.6959619341 0.0756098678
H -3.6459535036 0.8216528663 0.1660712309

