# b3lyp 6-31G(2df,p) opt Freq 

 titel

0 1
C 0.8258022444 0.2769986836 -3.3631258066
C 0.0483856571 0.3376805304 -2.0736076474
C -1.0152759057 -0.7165176903 -1.8228077901
O -1.396510478 -0.7340374923 -0.4414215118
C -1.6422510598 0.7223379738 -0.5218709535
C -0.42774331 1.4261007214 0.0609374147
C 0.7355876613 0.8338473546 -0.7867651898
O 1.4430608392 -0.1978505805 -0.1192806323
C -1.4297319168 0.7008246999 -2.0514788034
H 1.7249309317 -0.3350148029 -3.2356217479
H 0.2324916187 -0.1620101607 -4.1725738827
H 1.1406939639 1.2753474927 -3.6879738416
H -1.1381284381 -1.6281035497 -2.3967020216
H -2.623281885 0.9761104574 -0.1182684861
H -0.5200453641 2.5089363162 -0.0833466942
H -0.2770938042 1.2277952627 1.125479022
H 1.4865624803 1.5939509582 -1.0221694596
H 0.7732091619 -0.8480778364 0.1298165646
H -2.0040373069 1.1841278919 -2.8299674626

