# b3lyp 6-31G(2df,p) opt Freq 

 titel

0 1
C 1.5051009828 -0.8207372563 0.6701353608
C 0.8992984276 0.3073872163 -0.1813353448
C 1.691501342 1.5806268388 -0.1306055295
C 1.3098851919 2.7695071115 0.4076381396
O 2.2905216941 3.7062652292 0.2770056312
C 3.3390472514 3.0999082662 -0.3576168576
C 4.5413848124 3.9503143857 -0.57869461
O 5.2113669086 4.3032314505 0.6274668001
C 3.0251515496 1.805199877 -0.6253048159
H 1.5567400257 -0.5295689527 1.7236880218
H 0.9036149918 -1.7320605295 0.5953680172
H 2.5216964933 -1.0608789196 0.3431290238
H 0.8194246777 -0.0328319897 -1.2218433004
H -0.1248618542 0.5079702111 0.1531413996
H 0.4067181726 3.0996968247 0.8951272182
H 5.2627528075 3.3923157819 -1.1812250133
H 4.2607983038 4.8525371109 -1.1450080544
H 4.561841376 4.7307313326 1.1956497647
H 3.6645513054 1.0886290014 -1.1186663511

