# b3lyp 6-31G(2df,p) opt Freq 

 titel

0 1
C -2.3973745028 2.0777386143 -1.4753691575
O -1.5563145707 2.2108140069 -2.6465003933
C -0.6689490148 1.1746970449 -2.182713965
C -1.4624038685 1.0273453516 -0.8550237493
C -0.2594683561 1.6172316112 -0.0741589451
C 0.5511690593 0.5929145684 0.7248959524
O 1.265821979 -0.1746592758 -0.2355252464
C 1.7063975598 0.7489970048 -1.2253364418
C 0.5532284431 1.7366672986 -1.4229415459
H -2.5083357014 3.0238496159 -0.929489139
H -3.3931342971 1.7028433657 -1.7443383187
H -0.506994562 0.3908171113 -2.9289663685
H -1.8996634113 0.0983973714 -0.4892317723
H -0.4643339943 2.5278137664 0.493249475
H 1.2483492291 1.1106050625 1.4048380377
H -0.0603830787 -0.0963977127 1.3145654849
H 2.6095736433 1.281612094 -0.8847557528
H 1.9597879219 0.1781077881 -2.1236992424
H 0.8727953421 2.7238263925 -1.7594887618

