# b3lyp 6-31G(2df,p) opt Freq 

 titel

0 1
C -3.0406233479 -0.0330651481 -1.1877213411
C -2.1191933684 0.0165243672 0.0349919201
C -2.9189911392 0.0867825213 1.3326120691
C -1.036400089 -1.1208589206 -0.0300069892
C -0.0084102684 -0.0774939229 -0.4678685821
O 1.0726486299 -0.1148162167 -0.9764721742
C -0.9640812158 1.077894587 -0.0847292979
C -1.0178713084 2.2950264392 -0.9687278233
O -2.0239657588 2.8008327881 -1.3977915979
H -3.6779907697 -0.9223920311 -1.1317878301
H -3.6738258986 0.8537143324 -1.2443353747
H -2.4715653836 -0.0907176913 -2.1218031734
H -3.5912739816 -0.7733600075 1.4240386772
H -2.2622774786 0.0919427426 2.2097362445
H -3.531944941 0.9936919454 1.3638857312
H -0.7797895551 -1.5323493851 0.9527201419
H -1.2102165451 -1.948342412 -0.7230449476
H -0.6480908068 1.4292204061 0.9100198986
H -0.0145761338 2.7135538659 -1.2044174209

