# b3lyp 6-31G(2df,p) opt Freq 

 titel

0 1
C 0.1812127296 4.3212626124 1.0980081786
C 0.7217145302 2.9299094683 0.9146289095
C 1.3293380152 2.4929298715 -0.4220455179
C 1.1243244223 0.9935959363 -0.4322814413
C 0.469727132 0.55883693 0.650982361
C 0.0757249106 -0.8505745812 0.9750455251
O 0.2412275148 -1.7531690732 -0.1020590562
C 0.1933105116 1.7136576104 1.5635182087
O 1.3979541992 2.3580742256 2.0430686848
H -0.2555399862 4.4347610511 2.0932517662
H 0.9803135214 5.0635799285 0.9919301485
H -0.5851853514 4.5449631267 0.3485469056
H 0.8275466214 2.9833833233 -1.2669034048
H 2.389817208 2.766832869 -0.481874097
H 1.5125854527 0.3513206265 -1.2140455382
H 0.7015898782 -1.2384255691 1.7894947964
H -0.9604034834 -0.8623450645 1.3579497714
H -0.2794087059 -1.4162784851 -0.8392252639
H -0.6372264803 1.7136234234 2.2656005434

