# b3lyp 6-31G(2df,p) opt Freq 

 titel

0 1
C 1.2446041288 0.8121028124 0.2173425173
C -0.0738442074 0.110448697 0.295528057
C -0.3151473752 -1.162411569 0.6285061714
C -1.78667716 -1.5199266234 0.5835293493
C -2.4446279686 -0.1977114524 0.2133161667
O -2.2530278443 0.846618017 1.1719811637
C -1.380827214 0.8086743114 0.0158789004
C -1.4774876863 2.0042318177 -0.8978249129
O -0.8806864431 1.7627944965 -2.1642542421
H 1.299455071 1.6384870764 0.9374439501
H 2.071710463 0.1280855418 0.4247314172
H 1.3901615625 1.2456929803 -0.7781500409
H 0.4428827456 -1.8728017825 0.9414805854
H -2.0041003438 -2.2922531227 -0.1661882215
H -2.1557905982 -1.8980752035 1.5448306176
H -3.3969411447 -0.1723706873 -0.3120092368
H -2.5311468658 2.3068191864 -0.9803841824
H -0.9282072534 2.8500907704 -0.4701693658
H -1.3232169162 1.0026947335 -2.5562302235

