# b3lyp 6-31G(2df,p) opt Freq 

 titel

0 1
O 0.603664873 0.18976462 0.5765208972
C -0.7562276861 0.4669497168 0.6964981979
C -1.4200820019 0.4471679282 2.0724166146
C -1.6628640513 -0.6549565752 1.0842805996
O -1.0015452004 -1.9124831528 1.3074423178
C -1.9745161456 -2.8318068738 0.7606611186
C -2.3985180894 -2.1594513353 -0.5678728819
C -2.9593383544 -1.1026513126 0.4409385176
C -3.3066830771 -2.3201072768 1.3625413726
H 0.6879650523 -0.7703542999 0.6613624029
H -1.1007497526 1.2060969973 -0.0231274818
H -0.7771320051 0.2133599265 2.9145762372
H -2.2187157471 1.1540689038 2.2765308296
H -1.6013524194 -3.8501410171 0.8516740067
H -1.6037402265 -1.8518108986 -1.2510239022
H -3.1847170598 -2.7031604257 -1.0937213703
H -3.68044742 -0.3353834526 0.1650662305
H -3.3361803463 -2.1593821335 2.4420288229
H -4.1797145321 -2.8767324686 1.0181486604

