# b3lyp 6-31G(2df,p) opt Freq 

 titel

0 1
O -4.5863806461 0.4875219603 2.8411359543
C -4.1227760125 0.0725344602 1.5843821967
C -3.5901125853 1.1745236168 0.6874736258
C -2.6708558513 0.1467162019 1.2715149362
C -1.4447253061 0.2581960185 2.1904988757
C -1.3712265234 -1.3016540345 2.1373608534
C -1.6690034489 -0.8566639443 0.6682908805
C -0.6082464338 0.2586710303 0.8612145674
O 0.726275996 -0.1793991393 0.8765533276
H -4.3442773383 -0.1888838624 3.4822336494
H -4.7209199706 -0.707496435 1.1102007633
H -3.8385568647 1.1394265937 -0.3687116243
H -3.5819270316 2.169395253 1.1218273204
H -1.3262595378 0.909159965 3.0576678081
H -0.3929855849 -1.745859933 2.3157847292
H -2.171038361 -1.8441577888 2.6474036796
H -1.8052842496 -1.4897370536 -0.2090289693
H -0.7377557193 1.1469990087 0.2308044938
H 1.2794421794 0.5565679724 1.1558543522

