# b3lyp 6-31G(2df,p) opt Freq 

 titel

0 1
O 1.3208668717 0.236689378 0.4895290715
C 0.1189124689 0.0594331831 -0.2423574716
C -0.6296840199 1.3748067378 -0.4824809976
C -1.8918731277 1.1829072747 -1.2987081121
C -1.757392839 1.2042041331 -2.8032969538
C -3.1204342123 0.9219497514 -3.5136893122
O -4.1361789975 0.680656249 -2.5279066587
C -3.7512979298 2.0340293463 -2.8126456896
C -2.4158975136 2.3672468647 -2.0706330668
H 1.0869294164 0.5695378036 1.3618351234
H 0.4154416922 -0.3797183857 -1.2004264896
H -0.549209844 -0.6654263347 0.2501674035
H -0.8907724786 1.8201873133 0.488415732
H 0.0503295428 2.0788183064 -0.9769009318
H -2.6204303882 0.5017748638 -0.8719072663
H -0.8021419054 1.1899635439 -3.311860949
H -3.2730559332 0.5053806981 -4.5018681419
H -4.5323552402 2.7266788316 -3.1017110036
H -2.0386993726 3.3726862815 -1.9366325659

