# b3lyp 6-31G(2df,p) opt Freq 

 titel

0 1
C 1.9934454282 1.7416330049 1.2065721736
C 1.9021510288 0.4550945037 0.3841823399
C 2.0432273145 -0.855626944 1.2253878257
C 3.2335099784 -1.4897639391 0.5337815333
O 3.6654475369 -2.7071139867 1.0117618619
C 4.2685291561 -0.3825078577 0.1254644631
O 4.6326738391 -1.1621726816 -1.0744843574
C 3.1587815528 -1.2209090466 -1.0116215424
C 3.0623788728 0.2678424723 -0.6009187022
H 1.1717473627 1.8074276724 1.927085277
H 2.9329418665 1.7866013762 1.7692124487
H 1.9474920354 2.6275684497 0.5642019713
H 0.9516248166 0.4532329619 -0.1618034214
H 2.2505275647 -0.655983698 2.2816496779
H 1.158127308 -1.4964611698 1.1771081666
H 4.4201042813 -2.9513242854 0.4558935195
H 5.0789439002 0.0707824434 0.6975178601
H 2.6377117651 -1.7683130634 -1.7984327923
H 3.266255362 1.0243849078 -1.3574195626

