# b3lyp 6-31G(2df,p) opt Freq 

 titel

0 1
C 1.0613034092 -0.573076114 -1.0214585016
C 0.9750620578 0.1145877842 0.3278166982
C 1.5828816865 1.5071823151 0.6403912144
C 3.0656465992 1.3953464102 0.2300460627
C 3.3620486497 0.0216373931 0.9098418786
C 1.9561314354 -0.2024510662 1.5099770719
O 1.6330588917 1.1134214099 2.0502746736
C 1.6922236147 -1.3537252025 2.4263173145
O 2.1214122584 -2.4649992949 2.237060556
H 0.7852505134 -1.6287037666 -0.930534811
H 0.3665466973 -0.1097656309 -1.7302704444
H 2.0620571311 -0.5281136402 -1.4577356749
H -0.0442512292 0.0902724733 0.7223816392
H 1.0501201723 2.4410174409 0.4596156093
H 3.2156770666 1.3945011285 -0.8525842279
H 3.6509804503 2.2099126543 0.6603040775
H 3.6582909691 -0.7702907881 0.2202141878
H 4.1121239638 0.0923370435 1.6992515449
H 1.0305288127 -1.1109473294 3.2868998512

