# b3lyp 6-31G(2df,p) opt Freq 

 titel

0 1
C -1.1628919502 -2.0446393003 1.1645729521
C -0.8682664061 -1.0128950614 0.0807859136
C -0.3454773544 0.3296653575 0.626614819
O 0.392668962 0.4543107769 1.5685947624
C -0.9260141284 1.4727933093 -0.2168780929
C -1.6598877987 0.7848305478 -1.3822258964
C -2.0199063206 -0.5869458401 -0.8226415457
C -2.9816426166 -1.4944440043 -1.4451001083
O -3.3459539908 -0.7242141132 -0.2916012001
H -1.307412505 -3.0422925145 0.7402637583
H -0.325474948 -2.0829662096 1.8654658773
H -2.0679472325 -1.7734655202 1.7124401607
H -0.0591449611 -1.3809691773 -0.5712138695
H -1.6257092099 2.0223061137 0.4243519406
H -0.1438516286 2.1760100973 -0.5120186552
H -2.5519875884 1.31794649 -1.7164681472
H -0.9913691244 0.6679151904 -2.2432012782
H -3.4745709173 -1.2045934447 -2.3728399004
H -2.9035970811 -2.5683698771 -1.2811676902

