# b3lyp 6-31G(2df,p) opt Freq 

 titel

0 1
C 0.8886233006 -0.4381265747 -0.943641722
C 1.0242560265 0.1037556954 0.4628934804
O 1.6908455607 1.4009054926 0.4958340749
C 2.7065523804 0.904515454 1.3570823172
C 4.124133557 1.3534631668 1.2470778669
C 3.2811742336 1.7356179108 2.4590000614
C 2.1043466168 -0.5104672171 1.3776636033
C 1.6651596266 -1.0123907557 2.7292318116
O 0.5229558422 -1.0637461097 3.1079750347
H 0.4144433666 -1.4255368352 -0.9262886289
H 0.2649620204 0.2288462949 -1.5465955446
H 1.8659614508 -0.5251088185 -1.4285202695
H 0.051730304 0.1635465063 0.9621410034
H 4.9170568033 0.6233520105 1.3758538665
H 4.332869417 2.1295811556 0.5185259835
H 3.5070388289 1.2766620641 3.4158808637
H 2.9309187178 2.7602363506 2.5207627374
H 2.746325554 -1.2616417375 0.9038882322
H 2.4996992427 -1.3375516131 3.392215538

