# b3lyp 6-31G(2df,p) opt Freq 

 titel

0 1
O 0.6099909541 0.039976324 0.4114210532
C -0.7176249987 0.3500706108 0.6700941028
C -1.438620583 0.1701243908 1.9952029105
C -2.3516286623 1.3635082622 2.2596164276
C -2.0173701487 2.3723621845 1.129534844
C -1.4595154896 1.5205297516 -0.0313091487
C -2.5565996103 0.7635759053 -0.8005367433
O -2.9072254597 -0.3591813038 0.0232867864
C -1.7675799935 -0.6943392387 0.7720526563
H 1.1646181979 0.6520222533 0.907911655
H -0.9475577553 -0.3425301751 2.8159655329
H -3.4025200741 1.060351831 2.2152400676
H -2.1747826107 1.7909488299 3.2502599319
H -2.8770300169 2.9816521623 0.8331048168
H -1.23583227 3.0601618217 1.4726016742
H -0.8041872368 2.0792062858 -0.7026815909
H -3.4657435103 1.3476091602 -0.9722154373
H -2.174425766 0.4099662433 -1.7696501306
H -1.5333219962 -1.7530306591 0.7993489318

