# b3lyp 6-31G(2df,p) opt Freq 

 titel

0 1
C 1.5717195225 1.3378487263 0.3173596631
C 1.1158199277 -0.1174731262 0.1564755305
C 1.657225158 -0.7669684709 -1.1080195982
C 1.0658461375 -0.4540592506 -2.5099748252
O 1.6296175169 -1.7409875508 -2.9912896278
C 1.0832154337 -2.1138714795 -1.6456557899
C 1.2521903683 -3.5148508101 -1.1600531596
C -0.1654197673 -1.3196519843 -2.1373807756
O -1.3402686385 -1.4109540148 -2.2804740578
H 1.1868650038 1.7700593662 1.2454837617
H 2.664344736 1.4098528141 0.3421862551
H 1.2170443283 1.9595190455 -0.511412029
H 1.4485588705 -0.7044087791 1.0218502994
H 0.0193595642 -0.1630355745 0.1599130894
H 2.7507748228 -0.7784984083 -1.1600354932
H 1.185346978 0.4160205157 -3.1514097418
H 0.7776601638 -3.6275006858 -0.1802814766
H 0.7806562441 -4.2187285098 -1.8516085694
H 2.3113130398 -3.7717179232 -1.064360585

