# b3lyp 6-31G(2df,p) opt Freq 

 titel

0 1
C 4.1766665294 1.959803263 -1.3729037584
C 3.2068044045 0.8105871817 -1.3786534135
C 1.9866864801 0.8105768635 -0.4543462554
C 1.6755189123 -0.6639968695 -0.2595821898
C 0.4588431706 -1.1190300543 0.4866577441
O -0.7437823043 -0.6267616295 -0.1010419723
C 2.5685309855 -1.4390178459 -0.8885333716
C 3.5533372468 -0.602562111 -1.6327808098
O 2.9326197613 0.2182014816 -2.6557793818
H 4.5785599131 2.1276125597 -0.3681828611
H 5.0068189398 1.7634704088 -2.0559481272
H 3.6834758797 2.8837215484 -1.695274128
H 2.2094400258 1.300637709 0.5033310747
H 1.1406141341 1.3486073394 -0.8952322997
H 0.452574461 -2.216701464 0.5629371261
H 0.4590230198 -0.7182976792 1.5077484069
H -0.752589837 -0.9233027084 -1.0177620368
H 2.5640986937 -2.5228424864 -0.9015765797
H 4.556126804 -0.946998637 -1.8686315467

