# b3lyp 6-31G(2df,p) opt Freq 

 titel

0 1
O 0.3181704251 -1.1793218538 0.0593575609
C 0.4431661652 -0.0089744773 -0.1947106408
C -0.279721572 0.7212234817 -1.3079072885
C -1.0593564231 1.9086661772 -0.770352095
C -1.3157922293 3.1166112756 -1.6694482284
C -0.3524506729 3.2087950106 -0.5342859801
C -0.3299149164 4.1214285241 0.6863739208
C 1.187175834 4.1921302037 0.4057557296
O 1.0564646673 3.3307805633 -0.7532777006
H 1.1240655033 0.6422951522 0.3991558704
H 0.4875826051 1.0869551166 -2.002582126
H -0.9253216493 0.0152903495 -1.838501403
H -1.8506062342 1.6568444712 -0.0676090045
H -0.8969858414 3.0854857748 -2.6703968909
H -2.2684351393 3.630676441 -1.5900052422
H -0.8678637749 5.0642634437 0.5708789528
H -0.6146516703 3.6536416789 1.6307658241
H 1.5777485875 5.1774578197 0.1307471486
H 1.8338957655 3.7461787875 1.1689638726

