# b3lyp 6-31G(2df,p) opt Freq 

 titel

0 1
O 2.2112559113 0.9338562001 2.6495867743
C 1.6277255938 1.5827319873 1.5333153524
C 2.6619903565 2.0570032778 0.4901163686
C 4.10026527 1.6003219761 0.5733031944
C 3.1595442816 0.9375085534 -0.3840589935
O 2.6427047627 -0.3226145251 -0.0116144445
C 1.233826717 -0.3144893446 -0.1051296386
C 0.4664396509 -0.7621971577 1.0996498376
C 0.5926696816 0.7116412733 0.7898475161
H 2.6701370114 0.1536715115 2.3160340055
H 1.1220766274 2.4544078656 1.9549311012
H 2.4573118321 3.022712802 0.0399417488
H 4.8637219014 2.2470332202 0.1545022329
H 4.4107199627 1.0533551868 1.4558485352
H 3.2924832506 1.0676444353 -1.4562253656
H 0.8502429641 -0.5201690765 -1.1024801132
H -0.4942897189 -1.2364509579 0.9305984707
H 1.0165490774 -1.153363572 1.9474772718
H -0.2885931737 1.2374707942 0.4376758859

