# b3lyp 6-31G(2df,p) opt Freq 

 titel

0 1
C 0.4972194329 1.3565243622 -0.0771091163
C 1.5594742056 0.2803667078 -0.1104112083
C 0.1202767064 -0.0797558291 0.1247790398
C -0.4088458219 -0.6769199942 1.4430847433
C -1.462239883 -1.6575939558 0.8777346855
C -2.6275711091 -0.8532024894 0.2644013033
O -2.0282609667 -0.3344014367 -0.9348447702
C -0.6978124205 -0.8505113401 -0.9093998579
O -0.8257236088 -2.1326371115 -0.3235680397
H 0.4662862398 2.0192928038 0.7815997138
H 0.2134677253 1.830109426 -1.0114969379
H 2.0065762813 0.0281740612 -1.0671937442
H 2.2425275916 0.2081621463 0.7301888164
H 0.3693646434 -1.2215937944 1.9849086838
H -0.8457943079 0.067284939 2.1149483844
H -1.7438843013 -2.4936756371 1.5155619996
H -3.4796149551 -1.4902550469 0.0019352037
H -2.9698726078 -0.0349683179 0.9075946753
H -0.3063131744 -0.9080491032 -1.9250454344

