# b3lyp 6-31G(2df,p) opt Freq 

 titel

0 1
C -2.5141939587 -2.454819568 -1.6302925524
C -2.084093604 -1.1911660252 -0.9171044614
C -3.1309027259 -0.3511355693 -0.2150431355
C -2.460639154 0.1555896086 -1.4697964094
C -1.4124377095 1.2403092716 -1.383881801
O -0.6599812505 1.21344394 -0.1623217358
C -0.2290619145 0.0381277024 0.3653347864
O 0.4825937588 0.0590131427 1.3314075159
C -0.6896568313 -1.2440197615 -0.3115540511
H -2.550220169 -3.3055813908 -0.9399024298
H -3.5096221684 -2.3405352381 -2.0704369658
H -1.8184017871 -2.7122157678 -2.4377562542
H -4.1641896743 -0.6706816396 -0.2938574299
H -2.8828708971 0.1199441098 0.7301681092
H -3.0506716146 0.1903991229 -2.3814752944
H -0.7171910518 1.1664348018 -2.2319232703
H -1.8616478895 2.2373161171 -1.4092626779
H 0.0381138165 -1.4704226369 -1.1048396875
H -0.593340565 -2.0392073497 0.4329121649

