# b3lyp 6-31G(2df,p) opt Freq 

 titel

0 1
C 0.0903676091 -1.1846269413 1.4057590547
O -1.3573082327 -1.2131339286 1.3989574459
C -1.4334481774 -0.1375126506 0.4409760177
C 0.0879891474 -0.0441214965 0.3917948242
C 0.932670632 1.1915934072 0.3280105154
C 2.3018345662 1.0920038389 0.9776959886
O 2.8297329198 -0.1646930375 0.5600157753
C 2.3402876723 -0.4435233194 -0.7496086483
C 0.957928313 0.1829380508 -0.8066171457
H 0.4909070105 -0.9484140883 2.3992514268
H 0.5205273576 -2.1344574154 1.0651093441
H -1.9263971817 -0.4483876206 -0.4903301587
H -1.9561395202 0.7397781977 0.8461009646
H 0.4626639839 2.1637049132 0.224903024
H 2.9394048729 1.9269407624 0.6446931128
H 2.287158658 1.0855947874 2.0725137028
H 2.9876779046 -0.000795067 -1.5238076125
H 2.3527001641 -1.5315780784 -0.8715294529
H 0.5071043403 0.3890365359 -1.7714070488

