# b3lyp 6-31G(2df,p) opt Freq 

 titel

0 1
C 1.4148855586 0.5680767258 -2.8101382052
C 0.5844499038 -0.5451268664 -2.224103597
C -0.7169959246 -0.9268923558 -2.9238367192
O -1.0592588007 -2.2263615379 -2.4586767882
C 0.1500713072 -2.9163690267 -2.1492452201
C 1.1139233009 -1.8373782554 -1.6986685095
C 0.5314336432 -0.8333071322 -0.7078877041
C 1.4627195506 -0.1486099531 0.213069249
O 2.6434558365 0.031210179 0.0085028387
H 2.3362148178 0.7143877116 -2.2451800072
H 1.6782646033 0.3350341164 -3.8480388428
H 0.8605403779 1.5134340463 -2.8133004712
H -1.5599507872 -0.2635742972 -2.7034050983
H -0.5477663707 -0.9218861496 -4.0139301466
H -0.0866703353 -3.6648294802 -1.3864248709
H 0.554229109 -3.4357226062 -3.0335166116
H 2.1787724608 -2.0268434168 -1.6336317106
H -0.4515866589 -1.0491825452 -0.2998017504
H 0.9963681481 0.2070695636 1.1583852352

