# b3lyp 6-31G(2df,p) opt Freq 

 titel

0 1
C 1.3851903823 -0.0012248228 -0.0580090357
O 0.0100576943 -0.019982722 0.2574416765
C -0.3707350129 0.6997593996 1.4183558681
C 0.1041551027 0.0448674391 2.7042820768
C -0.2331206389 2.222177652 1.2480328428
C -1.5171777016 2.7965413753 1.8763131118
O -2.2683858602 1.7151900748 2.4364876437
C -1.8999590059 0.9707618833 1.2453692249
C -1.5498288799 2.2973703994 0.4788242915
H 2.0016069932 -0.4665631529 0.7237605811
H 1.5042249618 -0.5763766771 -0.9796927278
H 1.7560798897 1.0190740693 -0.232660851
H -0.0963611714 -1.0311043751 2.6783973467
H 1.1778752591 0.1898292883 2.8609984549
H -0.4259638596 0.4853481282 3.551242611
H 0.6596604453 2.8207286278 1.1176413333
H -1.6024900979 3.7822606834 2.314179788
H -2.5902846867 0.1761084575 0.9717065275
H -1.8286846335 2.7238367619 -0.4732205141

