# b3lyp 6-31G(2df,p) opt Freq 

 titel

0 1
C 2.2804990144 1.2624897544 -2.7622913933
C 1.292759867 2.0333163518 -1.8248354569
C 1.4176394884 0.8605030087 -0.8601322856
O 1.2357343484 0.8422509673 0.5406610571
C 0.4272590119 -0.0347839978 -0.2635322925
C 0.7599150357 -1.5138078645 -0.2155303717
O 2.1105597673 -1.8028919756 -0.5264595831
C 2.5462100734 -1.2134904708 -1.7448449768
C 2.6417287907 0.3030038475 -1.5821381272
H 1.7624223283 0.7416379751 -3.5721415208
H 3.0994327639 1.8439201197 -3.1876016245
H 1.7405536062 2.9410799484 -1.4098952699
H 0.3008515646 2.2753889512 -2.2138805926
H -0.6332828529 0.2170225959 -0.2872085959
H 0.5860358735 -1.9187313542 0.7867145875
H 0.0820649062 -2.033988958 -0.916185207
H 3.5090645974 -1.6762818265 -1.9777517122
H 1.8435464108 -1.4621744795 -2.5590342134
H 3.5718370449 0.5898883069 -1.0832341411

