# b3lyp 6-31G(2df,p) opt Freq 

 titel

0 1
C -0.0646915792 -0.139529206 -0.0811091628
C 1.4321766962 0.0146540609 -0.1437466052
C 2.1936616212 -0.5041010749 -1.3577446748
C 3.6334713845 0.0240037326 -1.1789661597
C 3.488954381 1.3420941304 -0.3852158076
C 2.2327446439 1.1353339213 0.4361111009
O 2.1520710305 -0.1555914954 1.0781753017
C 1.6082270881 2.2569549471 1.184450633
O 1.8901795576 3.4170732008 1.0081678765
H -0.4736197618 0.2688690268 0.8448998512
H -0.5419726395 0.3619569484 -0.9289469889
H -0.3314721866 -1.2009997684 -0.1284020164
H 2.1458807969 -1.595675585 -1.4308248726
H 1.7243436877 -0.0956869072 -2.2611588333
H 4.2128203706 -0.6919740912 -0.5923137294
H 4.1489133746 0.1637428767 -2.1316782208
H 4.3607330376 1.5609569271 0.2378001977
H 3.3319691016 2.2067488572 -1.0385980152
H 0.8552800952 1.9398432487 1.9375332257

