# b3lyp 6-31G(2df,p) opt Freq 

 titel

0 1
C -0.0132051303 0.400702024 0.0321730861
C 1.424300423 -0.0381172097 0.2072501474
C 1.9425416993 -0.3433450136 1.6574084891
C 3.1961641102 0.4788742665 1.3654327535
C 3.7016079286 0.0867875012 -0.0292379824
O 3.340063377 -1.1736359727 -0.5518870786
C 1.9180700138 -1.1404959693 -0.7369557299
C 2.5702491234 1.0246147797 0.0741090015
O 2.5130224555 2.2645352421 -0.5224606313
H -0.26292801 1.2271418452 0.706939531
H -0.2008376269 0.7375263597 -0.9930899128
H -0.7070163175 -0.4187972176 0.2499658885
H 1.3107878935 0.1201800356 2.4202684654
H 2.0888794356 -1.4006803998 1.9017852593
H 3.8520179053 0.9542162114 2.0864077096
H 4.6867650692 0.4266701621 -0.3243882806
H 1.6722774606 -0.9020421159 -1.7844257541
H 1.5197113553 -2.1321923965 -0.4969730287
H 1.9600676943 2.8391448175 0.019089397

