# b3lyp 6-31G(2df,p) opt Freq 

 titel

0 1
C 1.5098323688 0.0561212676 0.0487571468
C 0.0549364441 0.0205927672 0.0267954202
C -1.1491358035 -0.0246596156 0.0115651471
C -2.6042681457 -0.0477577039 -0.0237961832
C -3.2241838147 0.275433732 1.3316786531
O -3.1187236909 -1.3152007323 -0.5430363857
C -3.863924451 -0.6600665299 -1.58741704
C -3.2544844576 0.7032485856 -1.2497173039
O -4.216376752 1.6906631735 -0.9937070446
H 1.893670692 0.1097536633 1.0734228822
H 1.9308735807 -0.8415396787 -0.4172715363
H 1.8962007929 0.9238951195 -0.4973562124
H -2.9419571355 -0.4966877503 2.0520686512
H -2.8651438683 1.2407089956 1.7017026005
H -4.3121649446 0.3145915471 1.2507020399
H -3.6385880909 -1.0708065288 -2.5773399162
H -4.9469402997 -0.6924589589 -1.4142764035
H -2.497776745 1.0433032628 -1.9645374347
H -3.7667214189 2.5306254544 -0.8578703707

