# b3lyp 6-31G(2df,p) opt Freq 

 titel

0 1
C -0.8597150222 -0.0027699448 2.4447566003
C -1.5410375574 -0.0247952091 1.0831200715
C -1.0411699242 1.0300460751 0.0342011631
C -1.9509526963 0.724608212 -1.1774933223
C -1.9090169067 -0.8485128804 -1.1723690255
O -3.1703184294 -1.4775494902 -1.1003378144
C -0.9875794526 -1.0765360501 0.0509718126
C 0.0812795036 0.0041009541 -0.2159883366
O 1.2613199286 0.0295168743 -0.3966475837
H -1.1257481912 -0.8899576427 3.0284058987
H 0.2311326294 0.0193290808 2.3513067375
H -1.1637436812 0.8789378464 3.0181930268
H -2.6305471876 -0.0377301598 1.2021202641
H -0.8460000132 2.0692820489 0.2938831005
H -2.9753017117 1.0778820221 -1.0215530749
H -1.5823776696 1.1561631641 -2.1113662781
H -1.4563005923 -1.2460031457 -2.0839057922
H -3.6220459995 -1.1730830855 -0.3062856104
H -0.7427584564 -2.1025306597 0.3181732831

