# b3lyp 6-31G(2df,p) opt Freq 

 titel

0 1
C -0.6396305826 1.922901549 -1.3746486086
C -0.9490975492 1.2407424802 -0.0268495326
C -0.7634743188 2.2306649744 1.1283984986
C -2.3430662236 0.5542963094 -0.0359856207
O -3.1845238671 1.0996504436 -1.0433958437
C -2.0361594672 -0.9159837735 -0.2405189604
C -0.7347869358 -1.1964654803 -0.1308715778
C 0.0281194169 0.0502362162 0.1163282343
O 1.2063506584 0.1450408021 0.3716677186
H -0.7650648483 1.2344879963 -2.2144217926
H -1.3094409615 2.7702805811 -1.5357991501
H 0.3948399581 2.2770943993 -1.3670034938
H -0.9986395336 1.7702212137 2.0940072485
H 0.2758563084 2.5674661722 1.1654093864
H -1.41131902 3.1036104923 0.9995002437
H -2.8170922751 0.6844010985 0.9505117203
H -4.0714505837 0.7478030778 -0.9184745899
H -2.8270169686 -1.6367017372 -0.426977277
H -0.2609085269 -2.1681298151 -0.1936370131

