# b3lyp 6-31G(2df,p) opt Freq 

 titel

0 1
O 0.8476433585 0.6685622701 -0.4535620934
C 0.0990899028 -0.2815271648 0.2942102118
C -0.4135983739 0.2843432424 1.5835992769
C -1.4616053188 1.3914476245 1.7254451901
C -1.7953804267 0.8470739653 3.1521769295
C -0.9272154947 1.5539035458 4.1910405746
O 0.418208205 1.3266481573 3.7412377787
C 0.3741263426 0.2044639376 2.8884732273
C -0.9682933276 -0.4313835125 2.8276103627
H 1.5321624783 1.0153272477 0.1287930151
H -0.7335032414 -0.5731468247 -0.356922968
H 0.6870329754 -1.1934093793 0.4949521703
H -1.118244579 2.4288513169 1.65744405
H -2.2898061714 1.2387291524 1.0281628417
H -2.8461239388 0.7449792265 3.4192932786
H -1.0953529397 2.6349773645 4.2326240413
H -1.0675096827 1.1318706041 5.1978901487
H 1.2817290788 -0.3889636216 2.9066063815
H -1.2138064466 -1.4685419223 3.0151339327

