# b3lyp 6-31G(2df,p) opt Freq 

 titel

0 1
O 1.4236907103 0.6597635783 -0.1762758482
C 0.0685884686 0.3048868108 0.0639409436
C -0.7838994269 0.4596959475 -1.1774000842
O -1.9718515805 -0.3359359568 -1.2471025606
C -0.910656417 -0.6000311134 -2.1822079136
C -0.2091253029 -1.9620406153 -2.0873207625
C -0.3158264552 -2.4966852924 -3.4934928443
C -0.8563206642 -1.6176438801 -4.336137307
C -1.2171709195 -0.3192483769 -3.6599409292
H 1.4578378773 1.6043135657 -0.3580463543
H 0.0726842121 -0.7428433076 0.3738951457
H -0.363430775 0.8902392275 0.8899679189
H -0.9192442462 1.4931393632 -1.5126217084
H 0.8357750955 -1.8562916769 -1.7670537319
H -0.707863329 -2.5997437122 -1.3482587416
H 0.0271583959 -3.4896193122 -3.7612562326
H -1.0210814622 -1.7854715004 -5.3944026901
H -0.625910695 0.5209779199 -4.0487533165
H -2.2721686559 -0.0458306587 -3.7802215931

