# b3lyp 6-31G(2df,p) opt Freq 

 titel

0 1
C -3.1180321434 -1.5537647819 0.9290878201
C -2.2478069087 -0.4991359014 0.2899078951
C -2.6710529951 0.0280688975 -1.1004134879
C -1.7504890981 1.2726854391 -1.2827047931
C -0.9069154998 1.2673146303 0.0283881381
C -1.9466716378 0.7991660413 1.0616362358
C -0.0455682517 0.0115721088 -0.0553787455
O 1.1263475414 -0.1181240246 -0.2558139237
O -0.8987675869 -1.0460072448 0.1097055898
H -2.6876224815 -1.8871386786 1.877332381
H -4.1169150435 -1.1507970828 1.1221039312
H -3.218837427 -2.4244508991 0.274604458
H -2.5100487495 -0.7386344169 -1.8613776681
H -3.7313536904 0.2956398227 -1.1083570151
H -1.123356438 1.2165523081 -2.1750330235
H -2.3309016573 2.1972859485 -1.3425428346
H -0.3320240135 2.1698335739 0.22188073
H -1.5323544473 0.6089282368 2.0551470836
H -2.8146792419 1.4591991133 1.1430588488

