# b3lyp 6-31G(2df,p) opt Freq 

 titel

0 1
C -1.3617533125 3.2601561209 -1.5569695636
C -2.3319054352 2.1144426456 -1.6705610581
C -0.8609079916 1.8411378529 -1.45521312
C -0.4036131322 1.3060261258 -0.1339629981
O 1.017617214 1.5689615413 0.108607273
C 1.3256838627 0.1691991753 0.1675905199
C 1.1605777717 -0.4458034195 1.5674455518
O -0.2457446237 -0.7142027903 1.3200443835
C -0.1529898198 -0.2147952635 -0.0248660994
H -1.1177185855 3.8222099946 -2.4511045727
H -1.3783924831 3.8536784342 -0.6490545601
H -3.0072236524 1.9358727969 -0.8400677106
H -2.7547080413 1.8856175279 -2.6420717715
H -0.30462192 1.4620139358 -2.3084113786
H -1.0250526917 1.6925179853 0.6840462279
H 2.1834010195 -0.1098130277 -0.4468362529
H 1.7150880345 -1.3778394191 1.7352907469
H 1.3232000383 0.2452100975 2.4013340969
H -0.5915983318 -0.8831399639 -0.7684969343

