# b3lyp 6-31G(2df,p) opt Freq 

 titel

0 1
C 1.3260034311 0.8485064012 0.2266902353
C -0.0101726274 0.1591063196 0.1822442027
C -0.154046642 -1.1281712872 -0.1457298429
C -1.4727100598 -1.8523522845 -0.2530150249
C -2.6667147446 -0.91309213 -0.160780772
O -3.6644736188 -1.0615724981 -0.8265130741
C -2.4746024344 0.2296692292 0.8153357891
C -1.2086396213 1.0431359713 0.4761063716
O -1.4349832992 1.9618728855 -0.5940938487
H 1.5562336696 1.1980915183 1.2413883282
H 2.1355031981 0.1906485203 -0.0993249
H 1.314242244 1.7359496111 -0.4156897721
H 0.7307496247 -1.7203135811 -0.3719025277
H -1.5481438597 -2.4179087624 -1.1877375635
H -1.5621789304 -2.5950430762 0.5562431423
H -3.3535594715 0.8770325346 0.8118006743
H -2.3493339352 -0.198887836 1.8188535454
H -0.9785077553 1.6923817997 1.3288109783
H -1.5872172778 1.4492679946 -1.3965294412

