# b3lyp 6-31G(2df,p) opt Freq 

 titel

0 1
C 1.3466150685 -0.0672988928 -0.0887661152
O -0.0602245522 -0.0996782166 0.0729628724
C -0.5149410682 0.571712084 1.1825212301
C -0.3047464978 0.2587402031 2.6877792504
C -1.2722654123 1.4644925769 2.6532238671
C -2.0291040763 0.8255955563 1.4378685047
C -2.4354437573 1.9685646122 0.5167401911
O -1.2845055599 2.8280857512 0.6245213566
C -0.4465183574 2.1056693001 1.5021450848
H 1.8621106723 -0.5442952381 0.7565005667
H 1.5752460681 -0.6209043671 -1.001685617
H 1.7174751234 0.9616071303 -0.1921192782
H -0.7220546299 -0.6851469749 3.0457563386
H 0.6880491695 0.439100643 3.1099586829
H -1.7216232882 1.9834243536 3.4960812621
H -2.7036404396 -0.0167400308 1.5898729214
H -2.5722742304 1.6530217345 -0.5243804774
H -3.3336332319 2.5023088665 0.8501502837
H 0.4870955996 2.6360363688 1.6851684852

