# b3lyp 6-31G(2df,p) opt Freq 

 titel

0 1
C 0.4578688174 0.876090404 -0.1916781595
C 0.9847104593 -0.5194876994 0.0822764811
C 2.1883163444 -0.6062621625 1.0846054799
C 3.0265779704 -1.722140607 0.5049270545
C 3.8939640263 -1.5587999473 -0.7103327362
C 2.4563597397 -2.0070767606 -0.8527399288
C 2.2409722768 -3.4265240548 -0.3164706533
O 2.9198236155 -3.0925527922 0.9331654796
O 1.4671136182 -1.0904776632 -1.1680605136
H 0.0516621954 1.3161297595 0.7244634911
H 1.2594452724 1.5221127378 -0.5636161382
H -0.3382115848 0.8483294544 -0.9405431971
H 0.1684121114 -1.1562643668 0.4546887155
H 2.7331281079 0.3425990686 1.1194143872
H 1.8522501859 -0.8430796761 2.0963713961
H 4.0790702766 -0.5395344426 -1.02971355
H 4.7035347253 -2.2620997535 -0.8813722308
H 1.1839215237 -3.6581473103 -0.1437611436
H 2.7248611081 -4.2581651283 -0.8409831439

