# b3lyp 6-31G(2df,p) opt Freq 

 titel

0 1
C 0.6102058321 -1.0655415921 -0.679481227
C -0.8227458501 -0.9189360305 -1.1169152135
C -0.266595634 -0.00019367 -0.0580444248
C -0.6888684493 -0.1397796522 1.3644134848
C 0.0139897005 0.6617051672 2.4795400282
O -1.2577088549 0.9942378898 3.0940031296
C -1.9977472594 0.3226501556 2.062296357
C -2.2200493861 -1.1648278373 2.3533313259
O -0.9361069097 -1.5090034696 1.7663211463
H 0.8525077293 -1.9249523618 -0.0656758668
H 1.3980878326 -0.744726154 -1.3512753832
H -1.02860355 -0.4990803374 -2.0949852652
H -1.5146804697 -1.6871734373 -0.7920345604
H -0.0675062908 1.0256367689 -0.35476401
H 0.6627897689 0.070912114 3.1345961823
H 0.5394252848 1.5651601028 2.1437998235
H -2.8035316487 0.9274109292 1.6425627317
H -2.2819640162 -1.4275969342 3.4142037433
H -3.0443711694 -1.6300968812 1.7983005583

