# b3lyp 6-31G(2df,p) opt Freq 

 titel

0 1
O 0.0878258992 1.7328619046 3.8992621491
C -0.2819732549 1.6893128556 2.5580798682
C -0.6178007623 2.9350504491 1.8097911704
O 0.1628652769 4.009357549 2.3533663637
C 1.3922300409 3.3599244772 1.9064258752
C 0.6253271467 2.1337733349 1.4143305311
C 0.9582903799 1.3088881345 0.2266330738
C 0.8901313957 1.8940634013 -1.1663162325
C -0.1206064258 0.8643491548 -0.7333788179
H 0.1114885706 2.6704322794 4.1362463549
H -0.8817476056 0.8151603907 2.3201754629
H -1.5485870655 3.1901176874 1.3134725805
H 1.852613561 3.9409176079 1.10097323
H 2.1042775223 3.2133122668 2.7259303414
H 1.7555975562 0.5880365933 0.3944032224
H 0.5498521129 2.919446937 -1.2647276382
H 1.6501808047 1.603658013 -1.8827480091
H -1.1354268156 1.2018239387 -0.5508495747
H -0.0540995874 -0.1350240153 -1.1480437111

