# b3lyp 6-31G(2df,p) opt Freq 

 titel

0 1
C 0.0419095267 -0.2251650159 0.1379554027
C 1.1939305922 0.6264788246 -0.3881075445
O 2.3257226782 0.5970161557 0.5091693504
C 2.5294589848 1.9100746495 1.0048909896
C 1.3339303117 2.3892575863 1.8917406159
C 0.7299256163 3.0340436326 0.6425094256
C 0.9035402257 2.1107617662 -0.5808371355
C 2.0586908193 2.9043753814 -0.1011328889
O 2.7952320249 3.749072305 -0.8998755623
H -0.3932215239 0.1986707652 1.0464620926
H -0.748031242 -0.2939544254 -0.6181652738
H 0.3910101942 -1.2378125854 0.3593669909
H 1.5316393769 0.2015479707 -1.3445419142
H 3.5371795944 1.9814595088 1.4144543294
H 0.7850567837 1.5959413944 2.4059301966
H 1.640808916 3.1472795624 2.6200154257
H 0.0007183787 3.8353370215 0.6122208851
H 0.399297259 2.4415866536 -1.4814748016
H 3.1777308635 4.4392825688 -0.3470771135

