# b3lyp 6-31G(2df,p) opt Freq 

 titel

0 1
O 1.2999396983 -0.4542282253 -0.0108929439
C 0.1567918062 -0.0744006983 0.0476544488
C -0.4228158813 0.745001395 1.1593617344
C -1.1709670593 2.0268491465 0.692514946
C -2.0235460112 2.4019221902 1.9480899969
C -1.6635997727 1.2689387764 2.9268442381
C -1.5330787808 0.051327234 2.000779385
O -0.3231084424 1.473571699 3.38895373
C 0.543668333 1.1437274085 2.2856539853
H -0.5714435674 -0.3266846157 -0.7589681013
H -0.4697098701 2.813315707 0.4022571483
H -1.8028200051 1.8109714088 -0.1752840682
H -1.7491069531 3.3713351179 2.3687431695
H -3.0945829315 2.4180858963 1.7246290805
H -2.3135895754 1.1705385899 3.7971268288
H -1.1872825921 -0.845905619 2.5190236027
H -2.4373405552 -0.1704112945 1.4278628728
H 1.1591230104 2.0108600336 2.0203071053
H 1.2094385997 0.3196830898 2.5643184409

