# b3lyp 6-31G(2df,p) opt Freq 

 titel

0 1
C -3.7251067457 -1.2055850902 -0.0390618075
C -2.3702970208 -0.5398950491 -0.017938273
C -1.9820106826 0.5418282499 1.0390739487
C -0.8706230189 0.9188228799 -0.0071610639
C -1.9191958922 0.50358471 -1.0885650271
C -0.0494208906 -0.3459384968 0.0877780016
O 1.1226433228 -0.5171967416 0.3031808267
C -1.1299064479 -1.4539289857 0.002823624
O -1.0829645634 -2.3048787018 1.1275811298
H -3.8479325342 -1.8519677099 0.8355330441
H -4.5313279256 -0.4646730974 -0.0346914131
H -3.8439852248 -1.8287267027 -0.9328325264
H -2.7330582888 1.331112599 1.1204965892
H -1.6706382963 0.2017132582 2.0287808052
H -0.3450897542 1.8709525019 -0.0034815714
H -2.670878251 1.2816225934 -1.2399097702
H -1.5541172117 0.1407326899 -2.0545466899
H -1.0406052781 -2.0282190476 -0.9338726136
H -0.149555176 -2.4663645093 1.3150237166

