# b3lyp 6-31G(2df,p) opt Freq 

 titel

0 1
O 0.9989204707 1.015188997 0.3050851421
C 0.1545889029 -0.0719816391 -0.0627595278
C -0.9671009045 0.4582201879 -0.8920149384
C -0.8450703045 1.2832379098 -2.1748182694
C -2.3497168024 1.6031697866 -1.9796706828
O -2.9495959657 2.718680461 -2.5312198096
C -3.058374159 0.24884073 -2.1927434795
C -2.3604296882 -0.1955322525 -0.9071117448
C -2.1829444765 1.2239735277 -0.4278232929
H 1.7887345912 0.6513123179 0.7159960087
H 0.7191718296 -0.8266559075 -0.6346176643
H -0.2545618188 -0.5774207946 0.8276417715
H -0.2150345425 2.1604062198 -1.9956567099
H -0.5490251064 0.791469816 -3.1097960071
H -2.3607320212 3.4715522775 -2.4121592585
H -4.1366409686 0.3473765658 -2.0418159867
H -2.8558792136 -0.2832356087 -3.1295073451
H -2.5734108856 -1.07120671 -0.3072283979
H -2.4144586669 1.7139478355 0.5067617224

