# b3lyp 6-31G(2df,p) opt Freq 

 titel

0 1
C -0.4707687712 1.8369379649 -1.3814064116
C -0.7677160652 1.2430968196 0.0089490516
C -2.2093863416 0.7888910974 0.164116063
C -2.555950016 0.0325609963 1.4201876504
C -2.2647891487 -0.7317011909 0.1534209048
C -0.8681371307 -1.2763012418 0.0107931044
O -0.6934111988 -1.7476991844 -1.3251198719
C 0.0516251821 -0.0430679133 0.1942308761
O 1.2436248691 -0.1103669812 0.3581072792
H -0.7324794387 1.1220470695 -2.167092636
H -1.0489261227 2.7524852622 -1.5390768587
H 0.5918269417 2.0771962543 -1.472177091
H -0.4647167141 1.9631844134 0.7778059883
H -2.9855732126 1.3678378858 -0.3235046205
H -1.8293213305 0.005555175 2.2290344112
H -3.5853716283 0.0552742497 1.7592523292
H -3.0644869974 -1.2684599889 -0.3421056634
H -0.6193885887 -2.0591197478 0.7409580519
H 0.2340885525 -1.9956160597 -1.418092517

