# b3lyp 6-31G(2df,p) opt Freq 

 titel

0 1
C 0.9745871425 0.2468572592 -1.8574787466
O -0.1821636622 1.1168464567 -1.8099403352
C -0.336078661 1.3235622598 -0.4019352481
C 1.1099987098 1.5990628521 0.1035976793
C 1.2072960086 1.7777503559 1.6169006216
O 0.1345844546 1.1457689916 2.29380729
C -0.2092091429 -0.1123737628 1.7395548697
C -0.1596666164 -0.0951261531 0.2135374017
C 1.2783042528 0.1160627918 -0.3655905005
H 0.7099150737 -0.7033544677 -2.3371314479
H 1.7795419151 0.7238978979 -2.4297549073
H -1.1872271296 1.9739793046 -0.2086017383
H 1.683624093 2.3601822888 -0.4332672286
H 2.1799352317 1.401706774 1.9795430698
H 1.1447031209 2.8379671561 1.8839511901
H 0.4481761407 -0.909076705 2.1294964902
H -1.2251664381 -0.3242819036 2.0891535096
H -0.759436452 -0.8997367845 -0.2217222632
H 2.1260784789 -0.4995192619 -0.0611023564

