# b3lyp 6-31G(2df,p) opt Freq 

 titel

0 1
C 0.1673998569 -0.5732516197 -0.2045604832
C 1.0965782368 0.1927163196 0.6950532944
C 0.7854784617 0.3489860905 2.2099445084
C 2.3119247878 0.3894158796 2.4961236131
O 2.8065965701 -0.2984371046 3.6050433037
C 2.952793559 1.7495253153 2.1036752514
C 2.8334708234 1.335304815 0.6167452049
O 1.4820223924 1.4760294477 0.1293887444
C 2.5831117348 -0.1372360762 1.0390429464
H -0.0554902606 -1.5591549893 0.2148745465
H -0.776969047 -0.0296369338 -0.3223927285
H 0.6103224106 -0.7037603974 -1.1962606253
H 0.1662085458 1.2011576344 2.5047105431
H 0.3693044638 -0.5800215916 2.6136422308
H 2.5220932256 0.1652384038 4.4009148877
H 2.4650169217 2.6798709044 2.4088373499
H 4.0034006551 1.751433798 2.4125590098
H 3.5702333643 1.6960106541 -0.1024831016
H 3.1493228779 -1.0219769401 0.762229044

