# b3lyp 6-31G(2df,p) opt Freq 

 titel

0 1
C -0.6039571723 2.6127792139 2.8733688779
C -1.3951529587 2.7619816009 1.594498558
C -0.8743934072 3.4898762918 0.4082237615
C -1.7509480153 4.3914484691 -0.4292839206
C -1.0462796516 1.9722771771 0.3114202969
C 0.1523767231 1.1258980349 0.2489729586
O 1.2519449591 1.3952120999 0.6970019873
C 0.0054796781 -0.2276296565 -0.4646018553
O -1.0077202399 -0.6158027289 -0.9836123399
H -0.9405284188 1.7428883508 3.4472082023
H 0.4625278817 2.4967090613 2.6724606525
H -0.7418112036 3.4994936359 3.5019298026
H -2.4719895288 2.8269084059 1.7376791833
H 0.1712502953 3.781805518 0.4781052218
H -1.7824880801 5.4022411892 -0.0077972532
H -1.3794084502 4.4677415139 -1.4563327999
H -2.7786927336 4.016312873 -0.4711887403
H -1.8874406366 1.5926749532 -0.2565899318
H 0.9508508193 -0.8107219335 -0.4542563917

