# b3lyp 6-31G(2df,p) opt Freq 

 titel

0 1
C -1.1798136915 5.0533740521 0.0118208013
C -0.0114512646 4.3996157718 0.7769664736
C -0.7548349701 3.0775662887 0.4937320508
O -1.7875228422 3.7677937865 -0.2483065373
C -0.0434524079 2.0455079734 -0.381587242
O 1.0164841264 1.4465663927 0.3672863065
C 0.8593253024 0.0280703124 0.4031540495
C -0.4168895654 -0.2421130472 -0.3431766314
C -0.9240554963 0.8985520118 -0.7955156899
H -1.8353598034 5.6973791699 0.6108545862
H -0.9221093949 5.5777509679 -0.9159974902
H 0.9660987178 4.4792925862 0.2980688446
H 0.0812954747 4.6732124471 1.8281947303
H -1.1615499894 2.5749473413 1.3810797715
H 0.3735535095 2.5726934566 -1.256670008
H 1.7305901154 -0.4578031044 -0.0648362441
H 0.8216872456 -0.3152197524 1.4484636461
H -0.8253328452 -1.2360944875 -0.4752799331
H -1.8307554508 1.0404643629 -1.3676305341

