# b3lyp 6-31G(2df,p) opt Freq 

 titel

0 1
C -1.6940083363 -1.2939477882 -0.2331597165
C -2.0842432137 -0.2602650622 0.788652536
O -3.4468397751 -0.4616382448 1.1627621228
C -3.6864904197 0.5696717009 2.122373346
C -2.3292069997 1.2490289487 2.1493820145
C -1.8100297684 1.2823203813 0.6719117121
C -0.3859902798 1.0770512155 1.2493427699
O 0.6343800373 0.4932367743 0.4727467134
C -1.2526538552 0.111765278 2.0707345064
H -0.6546477002 -1.16956394 -0.5311735914
H -1.8339899714 -2.2965684251 0.1831793546
H -2.3403890788 -1.2075018104 -1.1125754761
H -4.4949309705 1.2297073732 1.7821089471
H -3.9729880775 0.1347171729 3.0887077852
H -2.169716573 2.1054106079 2.8048716305
H -2.1370232904 1.9601593926 -0.1190805611
H 0.0004442685 1.9355610829 1.8146949454
H 1.0101776282 1.1773023722 -0.0899490671
H -0.9394081843 -0.5506046898 2.8788578383

