# b3lyp 6-31G(2df,p) opt Freq 

 titel

0 1
C -0.1574687392 2.2454068676 3.5789978717
C 0.1565230576 1.4325471495 2.335117288
O -0.4511435577 2.0613367708 1.220856593
C -0.2233124898 1.3887646059 0.0077352421
C -0.9364719356 2.1869905054 -1.0909593625
C -0.7814011363 1.5976243925 -2.4096791051
C -0.6313283525 1.0783499038 -3.490300354
C -0.4809911175 0.4984102252 -4.7987973375
O 0.140214686 -0.5126989697 -5.0357291066
H 0.299654693 1.7841770255 4.4593242394
H 0.2289587057 3.2636565363 3.4799563684
H -1.2379529174 2.302277138 3.7379957316
H 1.2461544361 1.362746632 2.1805964136
H -0.221024091 0.4015981702 2.4383575507
H 0.8534071558 1.3207152252 -0.2156151169
H -0.6164550669 0.3600780798 0.0408489978
H -2.0015394035 2.2634016467 -0.8398915467
H -0.5478494211 3.2127734787 -1.093645032
H -0.9926241858 1.0629345065 -5.605069095

