# b3lyp 6-31G(2df,p) opt Freq 

 titel

0 1
O 1.7671051801 0.2082670184 0.2479565992
C 0.3553556811 0.3198016753 0.1072094083
C -0.0263496513 0.9916974583 -1.2014640505
C -0.1087618963 0.2343592731 -2.5669638216
O -0.9182233423 1.3658860595 -3.0825183863
C -1.4847133124 1.0512267703 -1.7450406132
C -1.4191964277 -0.4347193768 -2.128183871
C -1.8192880148 -1.729617232 -1.5043712221
C -2.3737781482 -1.304201216 -2.8600487073
H 2.0867508392 -0.3686496426 -0.4528563284
H -0.1362397915 -0.6542214917 0.2211483436
H 0.0292295928 0.9491387496 0.9429196275
H 0.4846818751 1.951523077 -1.3116519301
H 0.6874773583 -0.145154551 -3.2097309816
H -2.331375831 1.6474896898 -1.4021456057
H -1.1008075963 -2.5433134119 -1.4821839137
H -2.4909370301 -1.7118106331 -0.6516633426
H -2.0226611128 -1.8332874069 -3.740003395
H -3.4148847819 -1.0023767995 -2.9097298296

