# b3lyp 6-31G(2df,p) opt Freq 

 titel

0 1
C 2.7290963252 -2.3144480344 -1.0301568778
C 3.2636837174 -1.444961438 0.1229231762
C 4.7785412342 -1.4134260799 0.0206862202
O 5.5370522363 -1.9633637724 0.7745704898
C 2.7045828886 0.0027405713 0.0759224333
C 3.2269093628 0.8576242418 1.2589413134
O 2.7782045433 2.190857629 1.199070625
C 1.2440758635 0.0290780331 0.0780906745
C 0.0436362429 0.0851814691 0.1419082283
H 3.1004650893 -3.339361971 -0.9453161519
H 1.6370346607 -2.335830653 -1.0120627752
H 3.0430252314 -1.9172914559 -2.0022831179
H 3.0067925376 -1.9045729055 1.0826873471
H 5.1568015153 -0.8454628274 -0.8645828512
H 3.0556809728 0.4815026367 -0.8497552254
H 2.943366968 0.3672155672 2.2031584994
H 4.3202573012 0.8991737899 1.2230050469
H 1.813660562 2.1684853617 1.203717425
H -1.0176867324 0.1224209679 0.1713435903

