# b3lyp 6-31G(2df,p) opt Freq 

 titel

0 1
C 1.2144970086 0.9206052871 0.2737013701
C -0.0921585946 0.2478026583 0.0195437592
C -1.3292759242 0.7565659116 -0.0517335182
C -2.3044778605 -0.4093820798 -0.1462515931
O -3.6001173227 -0.1699029723 -0.6204456196
C -2.2025598628 -1.1510988473 1.2303859685
O -0.870845015 -1.6682976786 1.2420225028
C -0.2827482968 -1.2672758956 -0.0359913753
C -1.473539346 -1.4008421424 -0.9919390545
H 1.6482683209 0.5789024706 1.2220088214
H 1.9462817025 0.6842592594 -0.508985632
H 1.106648286 2.0078325042 0.3221420392
H -1.6282484241 1.792119108 0.0699184696
H -4.0216313775 0.4760115913 -0.0440604594
H -2.3595865192 -0.4793862749 2.0839793114
H -2.9313031926 -1.9703780624 1.2760394012
H 0.6018625221 -1.8815090201 -0.1988282798
H -1.2826500866 -1.0265016618 -1.9979609249
H -1.8910731674 -2.4107231953 -1.0225099766

