# b3lyp 6-31G(2df,p) opt Freq 

 titel

0 1
C 2.1870095637 1.6276362543 -0.2709753834
C 1.883042974 0.1366038021 -0.0840533783
C 2.0558547097 -0.6567057648 -1.3630832542
C 3.3988886423 -1.2042152901 -1.7569726815
C 2.3080176161 -2.1428199017 -1.3118378805
C 2.2322169264 -3.1460276093 -0.1690155404
O 1.5680962635 -4.0906209248 -1.0742140985
C 1.6317011397 -3.2014169487 -2.1291882844
O 1.2406505984 -3.3558159062 -3.2419666832
H 2.0513639573 2.1768541613 0.6654555109
H 3.2173374841 1.7807555566 -0.6076461981
H 1.523364253 2.0735262506 -1.0192798057
H 2.5384905535 -0.2780882781 0.6926682615
H 0.8563931743 0.0142938136 0.2837934498
H 1.4165329138 -0.3455472683 -2.1864891579
H 3.6720790727 -1.230173125 -2.8062511453
H 4.2279134206 -1.0588781514 -1.0706717104
H 3.1794198798 -3.5561144655 0.1890707802
H 1.578860327 -2.8910090845 0.6688139894

