# b3lyp 6-31G(2df,p) opt Freq 

 titel

0 1
O 0.537344759 0.2743767019 0.7161128444
C -0.7316984136 0.8346694944 0.4510193113
C -1.2988970224 1.7095848295 1.5649886333
C -1.9834049333 0.8081254606 2.6476795572
C -3.039517821 1.9160742652 2.8742161449
C -2.8394096271 1.85339942 1.3411386833
C -2.8185077898 0.2920896231 1.4293747068
C -1.8709605677 -0.2506967817 0.3759140215
O -1.4022275248 -1.5343625953 0.7809692101
H 0.3720763545 -0.4905812383 1.2835530505
H -0.6338705738 1.3917114777 -0.4872569711
H -0.7190673752 2.5769724985 1.884631152
H -1.4879445703 0.1941936564 3.4004675683
H -4.0137714491 1.5970075539 3.2563185676
H -2.6998193027 2.8264223727 3.3762018062
H -3.333493626 2.4537866063 0.5742611108
H -3.7484749291 -0.2483366894 1.6121361087
H -2.3332249482 -0.3106501679 -0.6177746057
H -0.8732117195 -1.8927882375 0.0599839698

