# b3lyp 6-31G(2df,p) opt Freq 

 titel

0 1
O 0.230463752 1.087794577 3.7540078374
C 0.336211517 1.198089327 2.5626181752
C -0.3651894606 0.1983810453 1.6370360593
C -0.0593274832 0.1613559236 0.145594051
C 1.4618426982 0.1192369517 -0.1609871388
C 1.4124868548 1.661356977 -0.3308450287
C -0.1204237158 1.5495775571 -0.5527912446
C 1.7893719471 2.4403137376 0.9180585322
O 0.9468245793 2.3117692716 2.0737471513
H -0.1871234506 -0.7845797634 2.0850405318
H -1.4337496729 0.401849154 1.788588413
H -0.6635406826 -0.6276884834 -0.3097406243
H 2.1218696491 -0.2865745922 0.6131360239
H 1.6803246138 -0.3857818496 -1.1051279155
H 2.0034893917 2.0722653939 -1.1553594721
H -0.7526914484 2.3169859047 -0.098180491
H -0.3723477516 1.4618382571 -1.6121850735
H 2.8129702676 2.1842375392 1.2233808703
H 1.7655664052 3.5132152418 0.7043898032

