# b3lyp 6-31G(2df,p) opt Freq 

 titel

0 1
C 3.1991853133 0.9935875235 -0.0338353423
C 2.8085975209 -0.479820408 -0.0265013159
C 1.6886183989 -0.8645717663 -1.029656422
O 1.6351676675 -2.2983245095 -1.1499887705
C 0.9830276243 -2.7201195122 0.0415086814
C -0.2561502787 -1.8197888215 0.1053330705
C 0.6080036788 -0.5697164138 0.0745184637
C 1.7856311028 -0.8798675821 1.0699282365
O 1.7425550832 -2.3152676144 1.1737905626
H 3.8360610505 1.2319429751 0.8246491382
H 3.7556929897 1.2444168481 -0.9431159737
H 2.3261869319 1.6538574954 0.0105104722
H 3.6882973241 -1.1269758564 -0.0718566401
H 1.6504576549 -0.4159877451 -2.0244474521
H 0.8814735482 -3.8034105884 0.0383023797
H -0.9050118774 -1.9340358269 -0.765316514
H -0.8220333257 -1.9471283669 1.0303552702
H 0.1519848832 0.4151003857 0.1027718611
H 1.8396542796 -0.4458433962 2.0704285147

