# b3lyp 6-31G(2df,p) opt Freq 

 titel

0 1
C 0.1904367821 2.8469871616 -1.1541597459
C -1.0971066462 2.3352109705 -0.5365014029
C -2.3650884227 2.6265234212 -1.3147848792
C -1.1921360935 2.2813791911 0.9724080776
C -1.0437818126 1.0051204109 0.1883692787
O -2.0671218563 0.0038967122 0.102331155
C -1.1011990139 -1.0751198061 0.1053991878
C 0.0286658048 -0.0368151223 0.2237834594
O 1.2217743363 -0.053510326 0.3084620347
H 1.0667802991 2.5100406891 -0.5943794424
H 0.2968593844 2.4938038949 -2.1857091237
H 0.1943856621 3.9430542482 -1.1738260953
H -3.2372254137 2.158645961 -0.8522743367
H -2.539026645 3.7069616442 -1.3703002394
H -2.2873120143 2.2462573753 -2.3390468707
H -0.3434020664 2.6002023626 1.5696380307
H -2.1654181165 2.43778754 1.4265122611
H -1.2186361579 -1.7442307762 0.9650749374
H -1.1107195199 -1.6545467023 -0.8249152359

