# b3lyp 6-31G(2df,p) opt Freq 

 titel

0 1
C 1.2464423196 -0.2562790028 -0.2667529654
O -0.0955795964 0.0140678237 0.1008127787
C -0.2792565567 0.6893275381 1.3154286376
C 0.0590581868 2.205358942 1.3395181408
C -1.1001293542 3.122019254 0.9370648925
C 0.5512534072 2.4083562102 2.7533392112
C 0.7726584954 1.2658193734 3.4171112848
C 0.451804699 0.1093376882 2.55269163
O 0.6998099779 -1.058279058 2.7458991098
H 1.7328872141 -0.9315493145 0.4451243533
H 1.2043213655 -0.7363951223 -1.2468748176
H 1.8465462248 0.6616369986 -0.3581125482
H -1.3510811729 0.5865313258 1.5362257026
H 0.8959230692 2.3877792879 0.6508337033
H -1.9563357936 2.9910586216 1.6076861669
H -0.804324025 4.1758985955 0.9707994617
H -1.4292240218 2.895017634 -0.08112558
H 0.7045342428 3.4041433619 3.1596721115
H 1.1587503183 1.1583095326 4.4229277265

