# b3lyp 6-31G(2df,p) opt Freq 

 titel

0 1
C 2.6824208985 0.2578935124 -1.7656318673
C 2.3310571506 1.0152757602 -0.5182223476
C 2.7543836707 2.45173641 -0.250965929
C 3.185041877 1.3542581268 0.6854751606
O 4.49550417 0.9749314405 0.9046023171
C 2.0115643766 0.9125069506 1.626201075
O 0.8496544713 1.7036154469 1.328294117
C 1.1766026913 0.5889113592 0.4726998913
C 0.1295177404 -0.4455074253 0.2222605591
H 2.692225608 -0.8243829379 -1.5933948074
H 1.9728502185 0.4604402008 -2.576590497
H 3.6795443215 0.540938227 -2.1161281623
H 3.5490373147 2.7893384138 -0.9106505767
H 2.0388206887 3.2066071649 0.0501389716
H 4.937346678 1.6789699349 1.3931044218
H 2.0955660574 0.4672966025 2.6119330241
H -0.4006043583 -0.6753072131 1.1502780419
H -0.6028934209 -0.0925342494 -0.5127659733
H 0.574858736 -1.3676559047 -0.1640011489

