# b3lyp 6-31G(2df,p) opt Freq 

 titel

0 1
C -2.1050066961 -2.739681374 -1.6824065423
C -1.7071394024 -1.3434391574 -1.2569451002
C -2.3638847417 -0.7102470512 -0.0588687167
C -2.3455418221 0.8189552926 0.0046103497
C -0.8644681257 1.2294637004 -0.1929695034
C -0.0700077274 -0.0119110842 0.203837476
O 1.0426904519 -0.0620137139 0.6810164778
C -0.9305741417 -1.2144938607 0.0511361948
O -0.5216733813 -2.3428974499 0.7359352212
H -2.3312398507 -3.3673014483 -0.8174023194
H -2.9881118142 -2.7083469344 -2.3293222484
H -1.2957928382 -3.225067344 -2.2369500755
H -1.4266567882 -0.6839353818 -2.076390848
H -3.165000239 -1.2548188864 0.429214056
H -3.0062146204 1.2694484661 -0.743489482
H -2.6929424366 1.1505250745 0.9885168791
H -0.6392170464 1.4809630682 -1.2362449496
H -0.5575310799 2.0838155964 0.4127631363
H 0.3740813802 -2.1317597519 1.0430346045

