# b3lyp 6-31G(2df,p) opt Freq 

 titel

0 1
O 1.4782231601 -0.4251540864 -0.3933788593
C 0.4585632158 0.0206926604 0.0641329534
C 0.3073068544 1.437772514 0.5871594281
C -1.0569531425 2.0939976618 0.2212011257
C -1.8121785214 2.2875242509 1.5578034118
C -0.6914751722 2.4497680203 2.5976853257
C 0.3344549656 1.4369394791 2.1272443418
C 1.4694630981 0.9452752542 2.9057585311
O 0.2900351628 0.1421919758 2.7586361029
H -0.4645340463 -0.5964613874 0.1333038689
H 1.151790796 2.0156320408 0.2021157864
H -0.8786649403 3.0577942525 -0.2640934772
H -1.6275342604 1.4850530355 -0.4877442787
H -2.5054628648 3.1316952778 1.5296858806
H -2.3954252431 1.3907266872 1.794207561
H -0.264874272 3.4596916435 2.5465238586
H -1.002316019 2.258879044 3.6273224004
H 2.3518213476 0.5690022686 2.3896032925
H 1.6431424714 1.3319727974 3.9091210664

