# b3lyp 6-31G(2df,p) opt Freq 

 titel

0 1
C 2.7331818651 3.5174963638 0.2179822009
C 1.9305088929 2.4486626702 -0.5271788053
C 2.7560622013 1.406339975 -1.3146865419
C 2.2146482941 0.0742479841 -0.8613919886
C 1.2845437756 0.1739569822 0.0981753808
C 0.5511483886 -0.9258379154 0.8059764393
O 1.066880089 -2.219504261 0.5409225044
C 1.070835098 1.6042299957 0.430808564
O 0.3561924688 2.0374857761 1.3084628047
H 2.0643978076 4.1168163753 0.8413360484
H 3.4824868207 3.0593222816 0.8730008095
H 3.2539948702 4.1815703471 -0.4782150657
H 1.22722747 2.9489730575 -1.2053126915
H 2.6688820623 1.5240332922 -2.4013705163
H 3.8281355325 1.4858576001 -1.0894806175
H 2.5600762868 -0.8663698856 -1.2771313271
H 0.5212430862 -0.7005732161 1.8827194193
H -0.4942612936 -0.943524439 0.4751743819
H 1.942293764 -2.2706080737 0.9382935806

