# b3lyp 6-31G(2df,p) opt Freq 

 titel

0 1
C 3.4873666757 -0.579705331 -0.3000850332
C 2.562437824 -0.4763098565 0.8740155472
C 2.1179549591 -1.4032148752 1.9833119482
O 0.7287954431 -1.1261254439 1.8271424182
C 1.0663414361 -0.027808286 0.9068327594
C 0.2180000341 -0.0344811037 -0.3365747354
C 1.0849970647 1.2336036497 1.7658493511
O 2.083304925 0.9781028871 2.7598534613
C 2.8517003188 -0.1092068064 2.3003796717
H 3.0582388591 -1.1896097567 -1.1029005602
H 3.7212131213 0.4080269551 -0.7146819132
H 4.434860029 -1.042159344 -0.0055032625
H 2.413669963 -2.4046842162 2.2779053213
H 0.3033259335 -0.9932622143 -0.8543450353
H -0.8343907951 0.1184414229 -0.0770060134
H 0.5234119877 0.762879461 -1.0217480037
H 1.3455989006 2.1268186966 1.1754497555
H 0.1246059961 1.3967753278 2.2645639984
H 3.8567254342 -0.1384987462 2.7057548846

