# b3lyp 6-31G(2df,p) opt Freq 

 titel

0 1
C 4.5310414991 2.4720874961 -3.3546851743
C 3.8654787526 1.8789384772 -4.5791683562
O 3.707602549 2.5194668856 -5.5954332267
C 3.4241767254 0.4225698974 -4.5262535817
C 2.8475702616 -0.2542394675 -3.2379489266
C 3.8073467536 -1.4642790632 -3.4294763502
C 5.1412863603 -1.317800244 -2.6880976971
O 5.664401327 -0.4481921227 -3.7255911365
C 4.5187577128 -0.6870905261 -4.5715934506
H 5.379484314 1.8439523887 -3.0652109265
H 4.8598150079 3.4879149054 -3.5770264923
H 3.8361206535 2.494109968 -2.5075109509
H 2.75323821 0.2711665715 -5.3759647812
H 3.0158142081 0.2916241402 -2.3061835586
H 1.7841080345 -0.4887859514 -3.3085588977
H 3.3683694089 -2.4546982032 -3.5334162854
H 5.1157823966 -0.8284653349 -1.7068256715
H 5.7325552819 -2.2394997382 -2.6169431456
H 4.8079893332 -1.076351479 -5.5507751905

