# b3lyp 6-31G(2df,p) opt Freq 

 titel

0 1
C -1.5267539596 1.4558645996 1.424792321
C -0.9310915323 1.3266933616 0.0087869474
C -2.0415102758 1.2787202602 -1.0700774927
O -1.5644506418 1.705061272 -2.346752397
C -2.6899375615 -0.0795242995 -1.170246328
C -2.1230621154 -1.2008621607 -0.7244065153
C -0.7846031506 -1.2445739374 -0.0345285391
C -0.0478668836 0.0906358883 -0.0851104587
O 1.1542087128 0.1498374727 -0.1981879588
H -2.2009072521 0.6267013836 1.659464722
H -0.7372570666 1.4835507578 2.1812033038
H -2.1011891342 2.3841309924 1.5039993104
H -0.2983864676 2.1931060739 -0.2014843303
H -2.7967116091 2.0292431989 -0.8071996351
H -1.0175073171 0.9984521287 -2.7080119958
H -3.6456500547 -0.1187479972 -1.6855010347
H -2.6291856854 -2.1543674139 -0.8566267343
H -0.9161468716 -1.5257793093 1.0220533436
H -0.1310951338 -2.0105164316 -0.4650103383

