# b3lyp 6-31G(2df,p) opt Freq 

 titel

0 1
C -0.0173440316 -0.1280479971 0.0337115492
C 1.4815698847 0.0033935054 0.0055259678
O 2.1687148283 -1.2870682774 -0.0523264049
C 2.8869918308 -0.903640176 -1.2522097325
C 2.3174898662 0.5242981209 -1.1869420231
C 2.9756739663 1.5505310495 -0.2308061965
O 3.2202679197 2.861803924 -0.5977256686
C 3.6234077237 0.9117266518 0.9628154422
C 2.1193148518 1.0616378635 0.9379077494
H -0.3351608616 -0.6054144139 0.967703154
H -0.4921237165 0.8568196787 -0.0229825803
H -0.3723660401 -0.7397743246 -0.8005222357
H 3.9720196016 -1.0214749169 -1.1456134271
H 2.5466555685 -1.4841490896 -2.1187148592
H 1.853411555 0.9647711856 -2.068292451
H 4.1472510246 2.9407560011 -0.8487379124
H 4.0708190917 -0.0756674787 0.934335763
H 4.1196807561 1.625059486 1.613597394
H 1.5887249608 1.6204053776 1.7001357516

