# b3lyp 6-31G(2df,p) opt Freq 

 titel

0 1
C -0.1159829163 0.2094617612 -0.1864136606
C 1.3476662166 -0.0183913007 0.0802716308
C 2.1109728086 0.763213743 1.1942747181
C 3.3619124614 0.5584831611 0.3487131685
C 3.2452338723 -0.8584156722 -0.3038471678
O 4.3442379017 -1.5118233102 -0.8213925065
C 1.9360607804 -1.4635562444 0.1885693436
C 2.563269668 0.3326814771 -0.909504801
O 2.641572146 0.9681289037 -2.1197059205
H -0.726268143 -0.119562087 0.66346832
H -0.3258361243 1.2707426525 -0.3572059709
H -0.454780956 -0.3437440754 -1.0695924362
H 1.8123960591 1.81569494 1.2296327586
H 2.0801788523 0.3393670299 2.2051297866
H 4.3376650483 1.0223051643 0.4240777825
H 4.9192909204 -1.7735216431 -0.0938140906
H 1.502629171 -2.1367251121 -0.558026631
H 1.9055666784 -1.9370833001 1.177582721
H 2.5216138251 0.3150224824 -2.8184478443

