# b3lyp 6-31G(2df,p) opt Freq 

 titel

0 1
O 0.2249719863 -0.1166895668 0.2750458714
C -0.9093590347 0.4833349835 0.849763833
C -2.2028866658 0.0699282669 0.1105717174
O -1.8959383536 0.6268038983 -1.2118188283
C -2.1226797991 1.9044061239 -0.5458537528
C -3.1915738651 1.2487491514 0.3614599473
C -3.1786179832 1.923931357 1.7351450194
C -1.805326881 2.6672274884 1.7487223371
C -1.0469923592 2.019737674 0.5801630178
H 0.0919986672 -0.0359820163 -0.6801866613
H -0.8969378893 0.2383124741 1.9149726015
H -2.4849696656 -0.9829781702 0.0925398569
H -2.2952463487 2.7384909023 -1.2253021342
H -4.1616223337 1.084253983 -0.1067303548
H -4.0165449848 2.6179859707 1.8438616532
H -3.264063619 1.1968369186 2.5490243364
H -1.9470948639 3.7398638206 1.5754504852
H -1.2717380608 2.5620474651 2.6977263606
H -0.1006057761 2.4894555154 0.312402334

