# b3lyp 6-31G(2df,p) opt Freq 

 titel

0 1
O 1.9884706403 0.5139549226 0.6349721384
C 0.9590622264 0.554725462 1.5823854817
C 0.8203509418 -0.5267206777 2.6177033599
C 1.2626506428 0.8758064654 3.0144280231
C 0.2429101488 1.9067713085 3.5186619378
C -0.6799214838 2.2303135525 2.3401927441
C -1.5937319224 1.1443480337 1.7877858908
C -0.26440892 1.3784030992 1.1534462799
O -0.251242563 1.8109569905 -0.167939992
H 1.7536330734 -0.1508317822 -0.0232347143
H -0.1586968454 -0.8988356666 2.8984608019
H 1.6033704111 -1.2784399058 2.6291304832
H 2.2933386199 0.974528681 3.3363057659
H -0.3064500982 1.5493509027 4.397949521
H 0.7731984491 2.8141860699 3.8264022172
H -1.0047218775 3.2554806692 2.2012980061
H -1.7916877715 0.2443260311 2.3603402186
H -2.4446598955 1.4994949075 1.2154449301
H 0.6657503935 2.0431662165 -0.3634955635

