# b3lyp 6-31G(2df,p) opt Freq 

 titel

0 1
O 1.0727708495 0.8832865281 0.4933893524
C -0.1240659347 0.2687734519 0.0305104099
C -1.3533096022 1.0671479733 0.3913925888
C -1.8898874834 1.0401786119 1.8585920459
C -3.3056672604 0.6423933553 1.33431537
C -2.781384796 0.6808230536 -0.1308181157
C -2.8343392126 2.0467047622 -0.8566867877
O -2.6768387562 3.0804350356 0.1230485147
C -1.4992387509 2.420461132 -0.3536915538
H 1.0142352715 0.9480429035 1.4524398521
H -0.0192587299 0.2058438965 -1.0592783815
H -0.2189268052 -0.7620499496 0.4084256657
H -1.418014635 0.2677395325 2.474298512
H -1.8442812757 1.9941842768 2.3860424319
H -3.6252135851 -0.3539753935 1.6474046827
H -4.0990818597 1.3570424996 1.5575741955
H -2.9296548632 -0.1909955508 -0.7695341645
H -3.3601166054 2.3158061158 -1.7662238343
H -0.7138383855 3.0443941652 -0.7655442343

