# b3lyp 6-31G(2df,p) opt Freq 

 titel

0 1
O 0.6572964084 0.1785892625 0.1251641373
C -0.5690395715 0.4154219027 0.737227408
C -1.8578908438 0.0819205714 -0.046324721
C -2.4995832789 1.0610082424 0.9628107723
C -1.1727284406 1.870757245 0.9466295259
C -1.0455412287 2.4961217933 2.3314762249
O -1.8884385925 1.6808760289 3.1628159881
C -2.1915126389 0.5192669631 2.3872858661
C -0.8730073334 -0.2510105995 2.0962032204
H 1.3503608946 0.2431209408 0.7906170728
H -1.8430848317 0.4920736485 -1.0587548079
H -2.1881094139 -0.9607402806 -0.0650311495
H -3.4701778022 1.5270520842 0.8060879426
H -1.0115545155 2.5277672148 0.0925192023
H -0.0136059704 2.4942843264 2.7124993519
H -1.4122755505 3.5287991386 2.3630217923
H -2.9732518439 -0.0353273621 2.9056493678
H -0.132366039 -0.0523429581 2.8773292457
H -0.9938684776 -1.3333956523 1.99299441

