# b3lyp 6-31G(2df,p) opt Freq 

 titel

0 1
O 1.2287326603 -0.1650847571 0.3896469119
C 0.063722572 -0.1262305272 0.1169338611
C -1.0040038995 -1.1870646133 -0.1959045254
C -2.0806486048 -0.0989458074 0.1004600206
C -0.9781766314 1.009495337 0.1070878198
C -0.9160412181 2.0310056998 1.2408859102
C -2.0415037939 3.0350916928 1.1815657472
C -2.6862950626 3.5688647631 2.386749025
O -3.3331700284 2.5721731162 1.5921513552
H -0.9698408415 -1.4963231285 -1.2459326107
H -0.9840801828 -2.0840139754 0.4280661398
H -2.8690525828 0.0159772894 -0.643430809
H -2.5429088606 -0.2175918827 1.0820252884
H -0.9372554015 1.5210996392 -0.8643108433
H -0.9492309189 1.5137053839 2.2068396645
H 0.045221837 2.5578640224 1.1930848873
H -2.0673506076 3.6527336735 0.2809478209
H -2.3464365764 3.2368642973 3.3671383278
H -3.1467433486 4.555588887 2.3660515687

