# b3lyp 6-31G(2df,p) opt Freq 

 titel

0 1
C 1.416877843 -0.1802089455 -0.0039700501
O 0.0138139859 -0.065774632 0.1300807288
C -0.4344323157 0.6791864446 1.22865869
C 0.0087697667 0.1158230862 2.5941198202
C -0.3807141358 -1.2731346089 2.7962357308
C -0.7088174591 -2.4185331368 2.9525977476
C -1.9434280965 0.9706993281 1.1383465467
O -1.7155213384 2.382962285 1.3416146296
C -0.2966763602 2.2254344012 1.1451597906
H 1.8578709564 -0.8229339512 0.769494201
H 1.6015888721 -0.6359007621 -0.979138717
H 1.9135311577 0.8010957175 0.0237375776
H 1.0954011334 0.2214812571 2.7030569034
H -0.435728617 0.7481577304 3.3721575102
H -0.9977210117 -3.4305883696 3.0930686789
H -2.3464925152 0.7522623076 0.1424674317
H -2.5877905225 0.5355463763 1.9087110887
H 0.0263730712 2.5693193973 0.1536013143
H 0.2860794454 2.7338062449 1.922133767

