# b3lyp 6-31G(2df,p) opt Freq 

 titel

0 1
O 2.6269182276 2.0499039935 -1.2198850364
C 3.1475814997 1.368571585 -0.0989164702
C 2.569016542 -0.0610492391 0.049054079
C 1.1087423538 0.0036012982 0.1398733723
C -0.0846830753 0.1086597555 0.2592706226
C 3.1429950571 -0.7732304281 1.2741908957
O 2.8208351471 -0.1581643883 2.4913810892
C 4.5181105068 -1.3602636211 1.2157484641
C 3.304132017 -2.2713478479 1.2661073136
H 1.6719848446 2.1099902168 -1.0994048514
H 4.22759363 1.2942084299 -0.2545084767
H 2.9767366697 1.91402853 0.8386712558
H 2.8409812586 -0.6266880298 -0.8504912212
H -1.1420738755 0.1728015935 0.3402070901
H 1.8607189632 -0.2013468931 2.5856403623
H 5.0753029242 -1.2912349096 0.2876715757
H 5.1163769475 -1.2744051414 2.1150807377
H 3.0323497924 -2.8252671357 0.373949825
H 3.1102400395 -2.7829189581 2.2018337728

