# b3lyp 6-31G(2df,p) opt Freq 

 titel

0 1
C -1.4708456527 -0.8566596386 2.3323163056
C 0.0246778089 -0.591931186 2.2232264169
C 0.5149415455 0.670262558 2.955458163
O 1.8883046124 0.8582682784 2.6707342875
C 0.9501886435 1.2912634958 1.6688373284
C 0.9461502999 2.7191296145 1.3095313284
O 0.5100017534 3.1457402817 0.2673124239
C 0.4914075559 0.0656758828 0.8660366801
C 1.5386090529 -0.6487939234 0.0249884214
H -1.7456640826 -1.1767883002 3.3432053811
H -2.053095108 0.0409095709 2.0953469979
H -1.7766228292 -1.6445063718 1.6366796041
H 0.6019896465 -1.478334199 2.5046288518
H 0.118796758 1.1417516237 3.8497327458
H 1.370984169 3.379466058 2.0967543149
H -0.3823927536 0.3344702705 0.2651511242
H 2.4344423849 -0.8535689092 0.6180776032
H 1.1522960075 -1.6021913662 -0.3503744803
H 1.8288708579 -0.04142106 -0.838257938

