# b3lyp 6-31G(2df,p) opt Freq 

 titel

0 1
O 0.508960486 0.4520356036 0.4544514346
C -0.6555610534 -0.1707761858 0.9566031061
C -1.8466777197 0.1564293505 0.025078264
C -3.0303089404 -0.8345334459 0.1267944737
C -3.5168555237 -0.1175825506 1.4209596588
O -3.1678435478 -0.8015999248 2.6194513156
C -2.007057192 -0.2204409826 3.213399481
C -1.3343064744 0.613572188 2.1316205574
C -2.4844767681 1.0180753565 1.1730829622
H 1.1977730482 0.3817903584 1.1240348534
H -0.4852314534 -1.2417745568 1.1482266417
H -1.5616674654 0.5414787594 -0.95294281
H -3.7371299759 -0.696097776 -0.6961441443
H -2.803311083 -1.8994245418 0.2290696788
H -4.5782923468 0.1423822373 1.4565643054
H -2.2945141894 0.4076142401 4.0708925386
H -1.3711939686 -1.0323797406 3.5881657233
H -0.7047066202 1.4161560053 2.5207948527
H -2.814558392 2.0514173258 1.0903121268

