# b3lyp 6-31G(2df,p) opt Freq 

 titel

0 1
O 4.2847879048 2.9542076618 -2.5796728629
C 3.0217525488 2.3946472173 -2.3876627499
C 2.0117799419 2.4270979779 -3.5082121016
C 2.6643659568 1.117309643 -3.0938748042
C 1.907862091 0.2242098873 -2.1259924353
C 1.4366450895 1.1751378381 -0.9854068846
C 2.4938647536 2.3096482392 -0.9608847323
C 1.3474359754 0.4566813541 0.3397525459
O 0.3523941262 0.3379021634 1.0056591782
H 4.1938319213 3.9131611276 -2.5627301667
H 0.9615677857 2.6030591479 -3.2970042669
H 2.3630579631 2.849400849 -4.4432108564
H 3.3684031195 0.6697741915 -3.7857142947
H 1.062086499 -0.3049140436 -2.5756724838
H 2.591094462 -0.5371532844 -1.7262271541
H 0.444021675 1.5750078484 -1.2048436446
H 2.0736210601 3.2482098374 -0.5837406728
H 3.3373313932 2.0406557602 -0.3115637219
H 2.319615583 0.0184842339 0.6741674485

