# b3lyp 6-31G(2df,p) opt Freq 

 titel

0 1
C -0.0936096608 1.6110237905 -0.1445282606
C 0.036948779 0.1057677028 0.0015930586
O -1.2523791953 -0.4812086727 0.4380347109
C -0.7249797477 -0.7215506024 1.7783024593
C 0.6571835193 -0.49766768 1.2246784383
C 1.841630957 -1.059293901 1.0075519963
C 2.2409866191 -0.7820753527 -0.4392391461
C 0.8405959341 -0.5807975308 -1.1240575215
O 0.8539126263 0.1764992765 -2.3151294783
H 0.8749520126 2.0680143864 -0.3658589292
H -0.7677072645 1.84105804 -0.9740862692
H -0.4947126301 2.0546295865 0.7705009213
H -1.0965300261 0.0274409605 2.489683067
H -0.9538802018 -1.7247425565 2.1531171368
H 2.3862303675 -1.728075005 1.6636755374
H 2.8526794077 0.1203508274 -0.5683854737
H 2.8006247227 -1.6149453479 -0.8792372687
H 0.391030624 -1.5716234857 -1.2831322149
H 1.2860259269 -0.3417228859 -3.0003184536

