# b3lyp 6-31G(2df,p) opt Freq 

 titel

0 1
O -2.7508320984 -2.4491203483 1.2648493833
C -2.0989309194 -1.2122697094 1.0832317792
C -2.8198225999 -0.3997198288 -0.0149283515
C -1.9287768081 -1.1407345368 -1.0527265153
C -0.8799556417 -1.2907550434 0.0913318619
C -0.0859052259 -0.0135127144 0.2644093506
O 1.0702465836 0.0073548884 0.6151261283
C -0.8830254737 1.26205339 -0.0313435883
C -2.4186185252 1.0791379053 0.0897162601
H -2.1773823488 -3.0170873985 1.7902087883
H -1.9221515808 -0.7121494381 2.0463758315
H -3.9025734361 -0.5298599808 -0.0696378106
H -2.3467416934 -2.1111641601 -1.3188874991
H -1.6305738893 -0.6070238612 -1.9587342395
H -0.2301956754 -2.166055487 0.1409236209
H -0.5001109767 2.0640203352 0.6037520149
H -0.6184968726 1.5415980971 -1.0591902574
H -2.770030097 1.4766938241 1.0487226852
H -2.9236806711 1.6559142866 -0.6913475525

