# b3lyp 6-31G(2df,p) opt Freq 

 titel

0 1
C 4.4979696306 -1.2386753187 0.6344763839
O 3.3596874446 -2.1110362141 0.5566194851
C 3.1694376815 -0.7230909549 0.3166493749
C 2.1754207432 0.101419748 1.1398062608
C 1.3709359499 0.3417392916 -0.1678951344
C -0.0582760561 -0.2132644647 -0.3456053114
C -0.4373572388 1.2519858247 -0.6313463179
O 0.9292945644 1.6805055496 -0.4462921808
C 2.5634777471 -0.2144299274 -0.9946672842
H 4.9104824507 -1.0985262691 1.6332857071
H 5.2360405891 -1.363506473 -0.1574182746
H 1.6681666572 -0.4220281786 1.9541745526
H 2.6006576659 1.0384618377 1.5118381954
H -0.185618368 -0.9046548738 -1.1803947956
H -0.5006282302 -0.6482582752 0.5522895507
H -0.7975428498 1.4651742804 -1.6445835367
H -1.1133330618 1.7222039249 0.0923830904
H 2.3420003678 -0.9704787579 -1.7521883108
H 3.1380879696 0.601033483 -1.4442499978

