# b3lyp 6-31G(2df,p) opt Freq 

 titel

0 1
O 0.5521485792 -0.0933001937 0.5929324737
C -0.7294350569 0.4269006992 0.8600501989
C -1.2722668133 0.236764108 2.3082870288
C -1.4348236421 1.7684708388 2.4702724293
C -2.7806050637 2.3238368287 1.9708196539
O -2.8874940393 3.7447640335 2.1752571008
C -2.409687226 4.0248993283 0.8396701722
C -2.1931481906 2.5328841391 0.5359766219
C -0.8391090594 1.9740047641 1.0156939356
H 1.1574448426 0.2384369574 1.2650732263
H -1.3712084491 0.0186053385 0.0730095678
H -2.176877011 -0.3687305931 2.4224527664
H -0.5022518641 -0.1806014996 2.9645992785
H -1.0464623552 2.2357956198 3.3756537662
H -3.7030252301 1.7931542021 2.2280768486
H -3.1883413212 4.5046559557 0.2328562394
H -1.515175281 4.6609047432 0.8384098486
H -2.616223144 2.1372069089 -0.3883585373
H 0.0658091449 2.5384171211 0.7765149702

