# b3lyp 6-31G(2df,p) opt Freq 

 titel

0 1
O 0.2524505669 0.0337598644 0.5267626062
C -0.6331000437 1.1039052378 0.6233388078
C -1.8954474165 1.0466162747 -0.2223164854
C -2.502221961 2.0373748994 0.8164219463
C -2.1639579066 3.4589653634 0.3686144862
O -0.7908848322 3.5058481488 -0.0328867952
C -0.0230760737 2.5732103222 0.707428855
C -0.3828400804 2.6037469207 2.2215612909
C -1.448687905 1.5440999512 1.8938894297
H 1.0213377078 0.205187299 1.0809169245
H -1.8427064121 1.3698111703 -1.2657934372
H -2.347330803 0.0529961909 -0.1584090165
H -3.5569840566 1.9288819612 1.0725077225
H -2.7563566392 3.7567219638 -0.5029797371
H -2.3558170861 4.1859918056 1.1710422539
H 1.0175447149 2.6948865363 0.3958656128
H 0.4164298448 2.1781324196 2.8376475167
H -0.6722586164 3.5695369149 2.6446658388
H -1.8300614518 0.8549007557 2.6484617302

