# b3lyp 6-31G(2df,p) opt Freq 

 titel

0 1
C 1.4985828018 0.844843044 0.4532215042
C 2.0391018587 1.3481769606 -0.8908152463
C 2.5402814317 0.2467303091 -1.7829290316
C 3.6836672245 -0.78294441 -1.5627289231
C 3.1517879302 -1.1421018556 -2.9528509102
O 3.6322427485 -2.1513297319 -3.7469627987
C 2.8383789794 0.3548616093 -3.3139553142
O 1.4603887107 0.0903471299 -3.7214000376
C 1.6684076179 -0.7873445218 -2.5724968902
H 0.6631844845 0.1519183758 0.3078717793
H 2.2724678568 0.3194750953 1.0223836017
H 1.1395021578 1.6764491116 1.0667148767
H 1.2533281472 1.8890521636 -1.4326844791
H 2.8501446585 2.0670275582 -0.7163268108
H 4.6994853041 -0.3797332797 -1.5194174152
H 3.5300955874 -1.5277288821 -0.7770924922
H 3.1162253482 -2.154230572 -4.5631717901
H 3.4186416518 1.0974228428 -3.862471455
H 0.8463484805 -1.4187584371 -2.2346016377

