# b3lyp 6-31G(2df,p) opt Freq 

 titel

0 1
O 0.4850434907 -3.1891272353 -0.9647152664
C 0.9211831349 -1.9722797862 -1.5619314385
C 2.432685752 -1.762972294 -1.2883446067
C 2.9622796777 -0.385704588 -1.6223737659
C 2.6389188135 0.7075829831 -0.9298912948
C 1.7108769842 0.6570798268 0.2357415016
O 0.4553492394 1.3455505185 0.1225072667
C 0.4421835291 -0.0878665249 0.1406636194
C 0.0487989988 -0.7635226045 -1.160128537
H 0.6698627762 -3.142339724 -0.0204438354
H 0.7714923707 -2.1371094388 -2.6344565827
H 2.597132313 -1.9572841841 -0.2199503127
H 2.9886288981 -2.5356253152 -1.8255491156
H 3.6413756175 -0.2996157685 -2.4669821107
H 3.0554013492 1.6776754903 -1.1898289559
H 2.1707847975 0.7770870217 1.219594821
H 0.0305740802 -0.5065700207 1.0603556655
H -0.9917797647 -1.1008505025 -1.1203509983
H 0.1138475022 -0.0041611237 -1.9431180635

