# b3lyp 6-31G(2df,p) opt Freq 

 titel

0 1
O -0.5495872091 -2.4267691831 1.0931212346
C -0.2489964463 -1.2561611281 1.0215157188
C -0.607815188 -0.2832378709 2.1460428587
C 0.4940972264 0.706098866 2.560716731
O 0.8244935653 1.7016126175 1.6087649457
C 1.22381853 1.2913170307 0.313917366
C 1.8868744656 -0.1092948544 0.1986801872
C 0.4882560377 -0.7048602665 -0.1842314384
C 0.0673934368 0.7470534354 -0.5725007336
H -1.4943964553 0.2861904086 1.8376001551
H -0.8962503076 -0.8880267046 3.0103587134
H 0.1513872907 1.2658437984 3.4357737942
H 1.3898177379 0.1479357094 2.8699284658
H 1.786858194 2.1371855097 -0.0867793757
H 2.5556176453 -0.1404366453 -0.6646139249
H 2.4195505578 -0.5182084005 1.0589954701
H 0.4784781209 -1.467694899 -0.9631499676
H 0.2590696223 0.9351949522 -1.6319883039
H -0.9427371743 1.0827302047 -0.3293492963

