# b3lyp 6-31G(2df,p) opt Freq 

 titel

0 1
C 0.0807093017 0.454338744 -0.3148586924
C 1.5420868816 0.1151294039 -0.1776419363
C 2.2052650776 -0.6800048728 -1.3081483105
C 3.7026608461 -0.7186446865 -0.9003827422
C 3.8224975902 0.3691480926 0.1699696779
O 5.0291564549 1.0391133323 0.3587285679
C 2.8784632596 0.2653450492 1.3583249299
O 1.8102256603 -0.6326726622 1.075942491
C 2.5641095502 1.2042012317 0.2331552508
H -0.2698234255 1.0149577129 0.5554856738
H -0.0912126732 1.0566117355 -1.2132412954
H -0.5138709174 -0.4614803646 -0.3956635193
H 1.7610594349 -1.6749243115 -1.4033045389
H 2.0684002113 -0.1538777117 -2.2598440106
H 3.9904356999 -1.7019074239 -0.51424922
H 4.3663460682 -0.4798292739 -1.736065473
H 5.6232671951 0.4546098887 0.8423908404
H 3.169310823 0.4335036063 2.3897577976
H 2.4909468712 2.2808976899 0.1672517791

