# b3lyp 6-31G(2df,p) opt Freq 

 titel

0 1
C 2.2512811743 1.1926253424 0.0655661027
C 2.7165095395 -0.2127411025 0.3051733363
C 1.3086880444 0.0563009968 -0.2271228758
C 1.7034435864 -0.5231030963 -1.6023152462
O 0.9125480335 -1.5428584445 -2.1668732681
C 1.144374452 -2.8370580285 -1.6690766698
O 2.4900459347 -3.1991791361 -1.7452210881
C 3.2459953142 -2.4478803072 -0.8064452412
C 3.1027961118 -0.9251206544 -1.0031142384
H 2.031191739 1.768646756 0.9585895135
H 2.6635306118 1.7818436101 -0.7520183574
H 3.0229522556 -0.5502005223 1.2893934666
H 0.342978397 -0.046307464 0.25230062
H 1.7613484386 0.2452779384 -2.3799572759
H 0.7896265681 -2.9235355453 -0.6242896156
H 0.5802991205 -3.5151799974 -2.312626588
H 2.9254639514 -2.7252083468 0.2112461023
H 4.2854248789 -2.7616635421 -0.9259355687
H 3.9675299584 -0.523918746 -1.5414080082

