# b3lyp 6-31G(2df,p) opt Freq 

 titel

0 1
C -2.5319463036 -1.4714729328 -2.1065639331
C -2.0148561598 -0.7522790851 -0.8633372851
C -1.9716746721 0.7888588383 -1.001626996
C -1.0053600979 1.2685286035 0.0848608767
C -0.1513358397 2.473785441 -0.2628842802
O -0.2276711136 3.0811639005 -1.2992278143
C -0.0995250406 0.0474165086 0.3997588175
O 0.8054370009 0.0501817474 1.1913618328
C -0.5749626793 -1.1160520273 -0.4626735731
H -2.5504517671 -2.5567101041 -1.9633690073
H -3.549386347 -1.1496752956 -2.3522009071
H -1.8959825677 -1.2577316668 -2.973344152
H -2.670500988 -1.0003527696 -0.0169548934
H -1.5705215252 1.073146561 -1.9811360871
H -2.9627008652 1.2416661837 -0.9202580251
H -1.5089995752 1.5074711386 1.0327466297
H 0.5833433797 2.746123477 0.5228498549
H 0.0713102433 -1.1442154273 -1.353063175
H -0.454673772 -2.0693053908 0.0568150772

