# b3lyp 6-31G(2df,p) opt Freq 

 titel

0 1
C 1.3744224702 -0.2873841166 0.019318124
C -0.0646459817 -0.070765538 -0.0112267833
C -1.2557324788 0.103288982 -0.0469725881
C -2.7009455073 0.333569704 -0.0775371616
C -3.0360216387 1.7505176025 -0.5552254216
C -3.3704652608 -0.0097127532 1.2945294177
O -4.539830109 -0.7217070032 0.9324323684
C -4.1461932048 -1.453741975 -0.20038012
O -3.3494833721 -0.5917273075 -0.9798373534
H 1.6868641107 -0.7736981616 0.9498735361
H 1.6927618939 -0.9256819987 -0.8121967666
H 1.9203864104 0.6588788358 -0.0620644507
H -2.5347078346 2.4966776118 0.0677928888
H -2.7084178261 1.8820601744 -1.5889566979
H -4.1177557521 1.9036791958 -0.5057473071
H -2.698914464 -0.6301073671 1.9031814365
H -3.6608701382 0.8785276477 1.8584471054
H -3.572916286 -2.3514840024 0.0960451417
H -5.0344421209 -1.7415367406 -0.7695725087

