# b3lyp 6-31G(2df,p) opt Freq 

 titel

0 1
C 0.8855657786 -0.4428057951 0.9611500896
C 0.8568958029 0.2617858493 -0.4030185694
C 1.6031980335 -0.4976187291 -1.4483304493
O 1.2125928744 -1.8392406132 -1.7745167104
C 2.1041872434 -1.7280694802 -2.9220209916
C 3.5252463547 -1.7534913532 -2.3007597492
C 3.125034063 -0.3904998079 -1.729843091
O 3.9276657243 0.5838334136 -1.175909201
C 2.0939371579 -0.1598852927 -2.824455549
H 0.4800613548 -1.4549352834 0.8803760212
H 1.9083265653 -0.5253809672 1.3449182857
H 0.2935607524 0.1073037471 1.6980930707
H -0.1815097076 0.4000855204 -0.7271675929
H 1.3033260802 1.2601864427 -0.3294976526
H 1.8151471563 -2.3490703708 -3.7663239901
H 3.7464850505 -2.5843274922 -1.6227341921
H 4.3037421146 -1.6482123781 -3.0608875018
H 4.0757662519 0.3679310679 -0.2481139574
H 1.9121226288 0.6498852819 -3.5173909594

