# b3lyp 6-31G(2df,p) opt Freq 

 titel

0 1
O 3.7161407038 3.2841000147 1.1604372971
C 2.7304782522 2.3964454955 0.7203321787
C 2.3090390212 2.5344552207 -0.7069721141
C 1.3483805577 2.9226671108 0.4026251345
C 0.1560776879 2.084075765 0.6752187571
C -0.6053039113 1.8247642099 2.0094533962
C -1.1025005117 0.8291174625 0.9402477437
C -1.1961779045 1.9748761591 -0.0897127981
O 0.3040800158 0.6053421481 0.5273635963
H 3.5759121822 3.441030756 2.1000758549
H 2.7861164863 1.3869875773 1.1244031004
H 2.7612069596 3.3407836231 -1.2725743482
H 2.098427099 1.6270853252 -1.2608451779
H 1.2024846071 3.9873908038 0.5601772677
H -0.0036238741 1.3880481862 2.8077987062
H -1.2984423642 2.5923596133 2.3635763866
H -1.7316182184 -0.0528084686 1.0552456114
H -1.1113779272 1.6711066985 -1.1336235796
H -1.9430077016 2.7564366689 0.0723787272

