# b3lyp 6-31G(2df,p) opt Freq 

 titel

0 1
C 1.5565820242 0.6378104086 0.0700475964
O 0.1608939282 0.8099945751 0.0168320729
C -0.5147799838 0.1292690213 1.0441520059
C -1.9834247179 0.4512416088 0.9916317595
O -2.341068109 1.851728205 1.0154482802
C -2.6929663824 1.07772209 -0.1380640568
C -4.1324436358 0.5756783004 -0.1361977289
C -4.1799446075 -0.3150143732 1.0901581144
C -2.9930502915 -0.4060020456 1.6945878432
H 1.8437562994 -0.4205354617 -0.037779386
H 1.9864391061 1.2063067471 -0.7578637503
H 1.9778073571 1.0125529754 1.0161478658
H -0.3830598182 -0.9633030014 0.9478711447
H -0.1119025353 0.4156280738 2.0319989124
H -2.1898915997 1.3634817847 -1.0558137387
H -4.8503391318 1.4027072019 -0.0754707412
H -4.3621557326 0.0205595129 -1.0548445167
H -5.0960844899 -0.7817546239 1.434646846
H -2.7735573897 -0.9806600494 2.5865648072

