# b3lyp 6-31G(2df,p) opt Freq 

 titel

0 1
C 1.3690300269 -0.1320086291 -0.0170667272
O -0.0195224166 0.1520673101 0.0162968996
C -0.4353024737 0.7618854809 1.192133826
C -0.5333630044 -0.0004148247 2.490454392
C -1.792399159 0.4610020967 1.7778265836
C -2.4662728423 1.7771508372 2.1802574159
C -1.4424817254 2.8697257682 1.8947711723
O -0.2229258591 2.7672369041 2.6477600557
C -0.2375726928 2.266617613 1.3048175373
H 1.6602412687 -0.814380259 0.7930165167
H 1.5727784219 -0.6070522743 -0.979348747
H 1.9770680587 0.7801571347 0.0647033514
H -0.3315140569 -1.0651419926 2.437774076
H -0.2240206794 0.4945351846 3.402638263
H -2.4031506589 -0.3125119951 1.3266926123
H -3.3521906057 1.9495363784 1.5583952167
H -2.792932445 1.7924381663 3.2257404341
H -1.7687906265 3.8874847276 1.6922105816
H 0.4123545294 2.7715683828 0.595324

