# b3lyp 6-31G(2df,p) opt Freq 

 titel

0 1
C 1.1919016932 1.2548174234 -0.0243746931
C 1.3368083722 -0.2429588496 -0.2323412864
C -0.0019412392 0.37729954 0.0951260547
O -0.9775443001 0.4615463982 -0.9201641293
C -1.9481132103 -0.5413045961 -0.6216857269
C -2.0707972086 -0.547259693 0.9037525574
C -2.6946694744 0.7105673827 1.543221605
O -1.4043655726 1.2077615712 1.9543169528
C -0.726272224 0.0678131652 1.3819420209
H 1.5896458104 1.7023238286 0.8796648713
H 1.2413982272 1.8867197116 -0.9038096116
H 1.4747940877 -0.5892284266 -1.2504237976
H 1.8469534589 -0.8278771676 0.5262191367
H -2.8727503753 -0.2738531975 -1.1408790588
H -1.6130782494 -1.5262443446 -0.9822339647
H -2.3817491272 -1.5053045344 1.3190278314
H -3.1960131061 1.3932640918 0.845891618
H -3.3506118814 0.5253436044 2.4024607949
H -0.1116307808 -0.4542828377 2.1212617753

