# b3lyp 6-31G(2df,p) opt Freq 

 titel

0 1
C 1.3381029823 0.0562051338 -0.1819580262
O -0.0727545797 0.0376453876 -0.0515431875
C -0.5230490226 0.6327600901 1.1110720523
C -1.8899023486 1.2516401397 1.0811794571
O -2.5982328616 1.2968502623 -0.105530949
C -3.2379930761 0.067235215 -0.4149408111
C -0.6766315915 2.1640319318 1.1472654378
C -0.3682614758 2.9100816063 2.3272411888
C -0.1058873699 3.5174829711 3.3324958077
H 1.8248373614 -0.4806888393 0.6451979281
H 1.5779292001 -0.4433023348 -1.1228733292
H 1.7247374691 1.0840315194 -0.2063337854
H -0.1945442542 0.1617650061 2.0390966203
H -2.4942728199 1.1575643536 1.9849591318
H -3.9579498342 -0.2176587621 0.3666364293
H -3.7776980098 0.2215964192 -1.3518111796
H -2.5070025098 -0.7394375032 -0.5418835
H -0.4664114986 2.6384541175 0.1925732474
H 0.1240268292 4.0627460958 4.2137690875

