# b3lyp 6-31G(2df,p) opt Freq 

 titel

0 1
O -1.9540384237 0.325605318 0.2554094428
C -1.0849864474 -0.4081066165 -0.5505222873
C -1.0345488164 -1.9489827414 -0.4043827829
C -1.0782731069 -2.1050532741 -1.9558303269
C -1.1327976971 -0.5655628131 -2.1387328778
C 0.2682058678 0.1006752298 -2.2370723002
C 0.2843107619 0.2475716468 -0.7087473204
C 0.8597560547 1.2968387633 0.1295429466
O 1.3885213829 -0.039426963 0.1320459087
H -2.7524912399 -0.1928071904 0.3995022396
H -0.1579561883 -2.3381247896 0.1189665128
H -1.9300822947 -2.343240346 0.0879087255
H -0.2075388378 -2.5892530406 -2.4050085775
H -1.9734808553 -2.6213343902 -2.3102007205
H -1.9254855862 -0.1492763961 -2.7595085874
H 1.0604611484 -0.5328442347 -2.6458722717
H 0.2763140166 1.0579195445 -2.7650420911
H 1.5037850373 2.0515233017 -0.321084912
H 0.3425038441 1.5952773416 1.0387866795

