# b3lyp 6-31G(2df,p) opt Freq 

 titel

0 1
C -0.2493230763 -2.5078295591 0.4448393638
C -0.772585592 -1.2188998193 -0.1331923527
C -1.5568742512 -1.2027335751 -1.4455098748
C -2.2287939583 -0.7861819447 -0.1765594883
C -2.3197538725 0.7147950525 0.1037637954
O -2.6318625555 0.963699604 1.4697849521
C -0.8971051145 1.2462752092 -0.1218814901
C 0.0250096199 0.0348093874 0.0806013001
O 1.186413121 0.0764774926 0.4026406624
H -0.1575006133 -2.4406634516 1.533414746
H -0.9102065593 -3.3466953481 0.2070902742
H 0.7450659179 -2.727871601 0.0450329675
H -1.3258799995 -0.4614807644 -2.203801667
H -1.8055913139 -2.1798299415 -1.8457135912
H -3.003981782 -1.4248369683 0.2372992269
H -3.0550210126 1.2036367794 -0.5523315955
H -3.4864113942 0.5630657351 1.6599991264
H -0.7602112509 1.6485452026 -1.131189991
H -0.6544543528 2.0392948202 0.5866479461

