# b3lyp 6-31G(2df,p) opt Freq 

 titel

0 1
C -3.2116495562 -1.647567598 0.8879855648
C -2.1706862659 -0.7587257945 0.2635626487
C -0.7493576523 -1.2648446882 0.110104746
C 0.0938480937 -0.0107428164 -0.1598760945
O 1.2372575464 -0.0060400539 -0.5299334706
C -0.7490684358 1.236072324 0.1427798518
C -2.1705141911 0.7264448282 0.2829676699
C -3.2112738051 1.59890975 0.9304031203
O -2.5741809261 -0.0008314745 -0.8948167636
H -2.9086516216 -1.9505410621 1.8959268009
H -4.1804081565 -1.1482427486 0.9487157668
H -3.3403314243 -2.5571490518 0.2911775803
H -0.3866196473 -1.7499457195 1.0255698701
H -0.6369700867 -1.9829966293 -0.7075923918
H -0.3862211637 1.6970059581 1.0706053233
H -0.636512152 1.9753166861 -0.6558758196
H -2.9082015527 1.8753882696 1.9459093902
H -3.3397542608 2.5237960977 0.357554783
H -4.1801445519 1.0983873076 0.978084014

