# b3lyp 6-31G(2df,p) opt Freq 

 titel

0 1
C -4.0702308459 -1.3417915643 -0.086481513
C -3.4912719996 -0.2275560917 0.7549044303
O -3.8426377105 0.0009409933 1.889899603
C -2.4221110353 0.6683161638 0.0996612362
O -1.9004693225 0.0992013708 -1.0921944189
C -2.1420088592 0.9652076909 -2.2045358769
C -2.8507822872 2.150785057 -1.6217741256
C -3.0077229797 2.0106689481 -0.3071779239
C -3.6094449569 2.952173089 0.6832249871
H -4.8290311721 -1.8758497459 0.4863643978
H -4.5097189743 -0.9314186368 -1.0023575703
H -3.2756265456 -2.0225772468 -0.405306411
H -1.6216175325 0.7908388869 0.8463105796
H -1.1841053476 1.233900397 -2.6759109505
H -2.7380375406 0.4353709594 -2.9639521849
H -3.1578627771 3.0049986374 -2.2125968253
H -2.8542394419 3.2942857823 1.4016604662
H -4.0329551602 3.8293604164 0.1878463175
H -4.3908227213 2.462412183 1.2725190527

