# b3lyp 6-31G(2df,p) opt Freq 

 titel

0 1
O 0.3870196517 0.4563402823 0.1921409619
C -0.8935915229 0.827108049 0.6115124708
C -1.500644006 2.2469433296 0.372263328
C -2.4789432998 1.7970628745 1.5056817848
C -1.2464577881 1.0558799461 2.1103863173
C -3.4505521694 0.7341400424 0.8507844829
C -2.9278312395 -0.7073199858 1.0705787312
C -1.9362263114 -0.1969678604 -0.0012721534
O -3.0450260021 0.5800448448 -0.5470563875
H 1.0209183315 1.0657209865 0.5847331865
H -0.8246627691 3.0305906264 0.7265426533
H -1.9023297198 2.4903696431 -0.6069381219
H -2.9959071801 2.546579832 2.1038566552
H -0.5553688518 1.769956626 2.5702228507
H -1.3759417622 0.2126725991 2.7867948733
H -4.5094895009 0.9763604529 0.9556842754
H -2.5930800079 -1.0562999586 2.0453585625
H -3.6168180319 -1.4280597611 0.6287829934
H -1.4662991704 -0.8605926889 -0.7280446443

