# b3lyp 6-31G(2df,p) opt Freq 

 titel

0 1
C 0.5103625947 -2.393109284 0.1590591725
C -0.2381842644 -2.9080527598 1.3655922176
C -1.5141310324 -3.6248552534 1.2533439254
O -1.4785262057 -2.2590623854 1.6728247901
C 1.2014740928 -1.0553459578 0.4226688018
C 1.8292321296 -0.3863131344 -0.8557619541
C 0.8426158552 0.7753788855 -0.6754089099
O 1.0697844989 1.3253979051 0.6266518425
C 0.2510959274 0.155959441 0.5227612791
H 1.2591312137 -3.1387087311 -0.1402696191
H -0.1925665638 -2.2907746626 -0.6773023139
H 0.375969308 -3.1080172793 2.2460892329
H -1.943942567 -3.7997223032 0.2676942413
H -1.8062475876 -4.3413751207 2.0196151329
H 1.8814173492 -1.1346061157 1.2773683019
H 2.8860137736 -0.1127943279 -0.8092243856
H 1.6427489447 -0.9752631959 -1.7584698115
H 0.4142374122 1.4344284975 -1.4215722934
H -0.7483588791 0.1972251621 0.9364975194

