# b3lyp 6-31G(2df,p) opt Freq 

 titel

0 1
O 0.4109423757 -0.0757980604 0.5591584572
C -0.857441203 0.5121947697 0.7749085322
C -1.4569408007 0.3130620095 2.1996375055
C -2.9860474374 0.4520484892 2.1442611129
C -3.3366455841 1.7094675995 1.303511171
C -2.1677900917 2.678930256 1.4552408514
O -1.819507323 2.7207574701 2.8757029711
C -0.833618099 1.7155852497 2.6099796506
C -0.7872559787 2.0186912873 1.0960403692
H 1.0070807634 0.2102109834 1.2597559906
H -1.4720920618 0.183577388 -0.0677845904
H -1.1238907896 -0.5743594139 2.7425187605
H -3.4378008133 -0.4488411799 1.7175297827
H -3.3757387726 0.5684725317 3.1589405357
H -3.4884771089 1.4653696957 0.2460496849
H -4.2591088583 2.1750361088 1.6633542363
H -2.3558336214 3.67949023 1.0585815023
H -0.0003341406 1.7324200649 3.3155788374
H -0.0521482851 2.6555046605 0.6021817488

