# b3lyp 6-31G(2df,p) opt Freq 

 titel

0 1
O -0.3063137588 2.6980531853 -0.5155631306
C -0.6078054585 1.5337289171 -0.6511290411
C -1.814863352 0.9380327404 0.0766159424
C -1.4752465584 0.3685308106 1.4660265826
C -0.4468641191 -0.7525483483 1.411299531
O 0.801140857 -0.2200466499 0.982661161
C 1.4073056143 -0.8502194923 -0.1197463951
C 0.9450382048 -0.3336667666 -1.4538310545
C 0.1049435697 0.6765988288 -1.6661140329
H -2.5409639565 1.7484955856 0.1901529867
H -2.2653177408 0.1513290632 -0.5401521627
H -1.0849881608 1.1712711128 2.1011111128
H -2.391541171 -0.0047426212 1.9381132435
H -0.3129028267 -1.1975954858 2.4068988621
H -0.7822388853 -1.5491401158 0.7323279618
H 2.4873244312 -0.6698788011 -0.0276741528
H 1.2754066388 -1.9443801668 -0.0751785088
H 1.4054896226 -0.8248417912 -2.310313845
H -0.0832586704 0.9929296753 -2.6906081504

