# b3lyp 6-31G(2df,p) opt Freq 

 titel

0 1
C 2.4639115256 -1.0473958212 1.1485380644
C 1.7398958716 -0.5426371374 -0.1068900209
C 2.4348914134 -0.9309758633 -1.3924569926
C 2.1963790316 -2.2592193126 -2.0439165294
C 1.7478783975 -0.9815771257 -2.7388541889
C 2.7215562673 -0.4549275286 -3.7415964924
O 2.5578567573 -0.2242791855 -4.9039089399
O 3.9291613577 -0.2544517561 -3.1226687345
C 3.8072765557 -0.3348206526 -1.6948709279
H 2.5533441306 -2.1384759117 1.1398249135
H 3.4740769054 -0.6309759088 1.2246224111
H 1.920949014 -0.7599491183 2.0534982304
H 0.7178489346 -0.9389727767 -0.1240829673
H 1.6454255383 0.5503047283 -0.0636194563
H 3.0298526008 -2.8117298222 -2.4666662764
H 1.4019992002 -2.8770899817 -1.6392250443
H 0.6956565263 -0.7898825775 -2.899652427
H 4.6383678047 -0.9399573808 -1.3199557619
H 3.8960868372 0.6775293823 -1.2810924995

