# b3lyp 6-31G(2df,p) opt Freq 

 titel

0 1
C 1.5422932427 -0.1333320553 0.1964311748
O 0.1178695824 -0.1232738886 0.2087924273
C -0.401939776 0.7234713673 1.1687386672
C -0.2812118797 2.2355728716 1.3096446845
C -1.4278207746 2.0718713096 2.3537845775
C -0.79392254 1.2782389881 3.5411575654
C -0.7199194951 0.1307480222 2.5577425213
O -0.3989365741 -1.1753042574 2.854982102
C -1.8248602203 0.695408198 1.6771123163
H 1.9518451587 -0.4222591104 1.1733435904
H 1.8476190614 -0.8625438794 -0.5568258877
H 1.9436061303 0.8513737019 -0.0764499309
H 0.6598172617 2.6762389732 1.6590163338
H -0.6273326378 2.7521005493 0.4091000639
H -2.1183757503 2.8882638734 2.5444769392
H 0.135565789 1.6662509459 3.9746682429
H -1.5241166376 1.0888300054 4.3334192683
H -0.170101838 -1.6040053334 2.0192267167
H -2.7420242526 0.3040224285 1.2622582569

