# b3lyp 6-31G(2df,p) opt Freq 

 titel

0 1
C 0.3963941887 1.338182661 -0.4369841733
C 1.7014759945 0.625626542 -0.6961333053
C 2.7219101752 1.2642430079 -1.6357584777
O 4.0164689173 1.0304692711 -1.0789063812
C 3.9328023319 -0.0526324467 -0.1569922306
C 3.985696602 -1.3973685677 -0.893584457
O 2.6701317001 -1.5723041556 -1.4370235848
C 1.7703190896 -0.8879167838 -0.5979003242
C 2.5024780787 -0.0441662271 0.4029365381
H -0.2362408319 0.769331701 0.2518280606
H 0.5631760084 2.3278521836 0.003482904
H -0.1697825504 1.4756161095 -1.3652497705
H 2.6590401782 0.8363847994 -2.6454165139
H 2.5714976603 2.3478016704 -1.704792636
H 4.7251123122 0.0674888806 0.5849876012
H 4.7031753561 -1.3954682736 -1.7174692756
H 4.2246278621 -2.2174514456 -0.1988601775
H 0.8738428598 -1.4525728973 -0.3608708804
H 2.2820671171 0.022236721 1.4606030941

