# b3lyp 6-31G(2df,p) opt Freq 

 titel

0 1
C -0.0606345603 -0.155134091 0.1843582295
C 1.4368272914 0.0451860496 0.0661196399
O 2.1871498189 -0.6610971743 1.1325740911
C 2.4618003693 -1.7885000542 0.2377943075
C 3.765328423 -2.051989325 -0.5645531532
C 3.761295499 -0.552816306 -0.9360737747
C 2.2176110185 -0.8285132107 -0.9175918488
O 1.9851356969 -1.5843961208 -2.0875300988
C 3.0343394716 -2.5944044787 -1.8503429471
H -0.4163234955 0.2468538683 1.1374012326
H -0.5746896423 0.3709820323 -0.6268278878
H -0.3284974494 -1.2135994896 0.1310390763
H 1.6999281948 1.1085929128 0.0643710658
H 1.8147669227 -2.6381353138 0.4696168769
H 4.6399028369 -2.6192574853 -0.240762428
H 4.0989277325 0.1001860425 -0.134918333
H 4.1807560328 -0.2678163226 -1.9027525728
H 2.5611743016 -3.5724517993 -1.7087846159
H 3.7026426878 -2.630497814 -2.7149874194

