# b3lyp 6-31G(2df,p) opt Freq 

 titel

0 1
C -0.0428209523 0.1620948821 0.0682550477
C 1.4418541557 0.0287404985 0.0541398213
O 2.2193063204 1.1069027964 -0.4809562669
C 3.3554687426 0.6850093821 0.3480540303
C 4.3065845741 -0.1107638704 -0.545458476
C 3.4128569614 -1.2773770997 -1.0475740269
C 2.2146077699 -1.2691317381 -0.0929188323
O 1.4520308952 -2.4205006362 0.077209637
C 2.4755163168 -0.3357078501 1.0898326432
H -0.3543735624 1.0199031171 0.6720350486
H -0.4180821426 0.3068799036 -0.9510081808
H -0.4929768208 -0.7472772602 0.4720632307
H 3.7856154129 1.5265253449 0.8942733185
H 4.7007493882 0.5047929177 -1.3583487617
H 5.1542577014 -0.478340339 0.0446153955
H 3.0989549192 -1.1342646915 -2.0852685797
H 3.9255437171 -2.2438525551 -0.9918440036
H 1.9896888365 -3.074312058 0.5387731369
H 2.4095449268 -0.5730987542 2.143272068

