# b3lyp 6-31G(2df,p) opt Freq 

 titel

0 1
O 0.0549928236 -2.5268747544 -2.2027632048
C 0.4817528805 -1.1709622201 -2.251615564
C -0.4902235489 -0.2530188511 -1.5040053212
O -0.4346472296 -0.4339987298 -0.0916541475
C 0.8422947351 -0.5880702844 0.4700910792
C 2.1233134477 0.1416675427 0.1479287442
C 2.3508303513 0.42684782 -1.3383659473
C 1.8973072416 -1.0287160607 -1.6797984938
C 1.9328826272 -1.3698435672 -0.1696211401
H -0.1088111903 -2.7341019974 -1.2753092832
H 0.4692695235 -0.8932689534 -3.3119611058
H -0.3037924987 0.7985725443 -1.7618813787
H -1.5153515385 -0.4961869522 -1.7964521711
H 0.7146963051 -0.7534619632 1.5356587163
H 2.6992150129 0.5914623146 0.9496325688
H 1.8203202882 1.266771255 -1.7962754323
H 3.4180197979 0.5465755378 -1.5428058638
H 2.6094477115 -1.5895838785 -2.2853334841
H 2.4063624199 -2.2392365518 0.2707981489

