# b3lyp 6-31G(2df,p) opt Freq 

 titel

0 1
O 0.4447279512 -0.1755232342 -3.5906323747
C 0.0333445288 -0.0242263798 -2.2631073568
C -1.3284735022 -0.6017208619 -1.7871175704
C -0.6463190334 -1.0116221887 -0.4760076532
C -1.0590486013 -0.5440059318 0.8925711663
C -1.1066421081 -2.0129326971 0.5383134548
C 0.7348139122 -0.8612160695 -1.1255153675
C 1.9108260807 -0.2219953421 -0.4489601888
O 1.9831226072 0.0908025656 0.7143100586
H 0.3108950953 -1.0949983703 -3.8456428238
H 0.1053220567 1.0451902351 -2.0462827789
H -2.1735288479 0.0894201361 -1.7370432418
H -1.6156208912 -1.4685950976 -2.3961866531
H -0.2822727096 -0.2086319532 1.566262384
H -2.0015771594 -0.0107500235 0.970749738
H -0.3625281731 -2.6647161629 0.9851210813
H -2.0758576947 -2.4781604674 0.3881273983
H 1.0809537629 -1.8077822931 -1.568298677
H 2.7624642258 -0.0268326039 -1.1424565451

