# b3lyp 6-31G(2df,p) opt Freq 

 titel

0 1
C -0.6687181681 -2.0463791552 1.2303043302
C -0.7988945123 -1.2184050718 -0.0474792967
O -2.1762739931 -1.081698359 -0.3438509555
C -2.4703819554 -0.7798519137 -1.6923836773
C -2.0921938093 0.6057081873 -2.1355258192
C -1.4757327371 1.5370629728 -1.4093111854
C -0.9790363794 1.378871082 0.0149296975
C -0.095653982 0.1406946113 0.1389084747
O 1.0878961365 0.1930926004 0.3680932153
H -1.089576778 -3.0425302951 1.0751469663
H 0.3838900049 -2.1320542681 1.5065490348
H -1.2121937937 -1.567647312 2.0506800215
H -0.2809626085 -1.7371026561 -0.8707632193
H -1.9983383479 -1.5225059797 -2.3621643885
H -3.5543524432 -0.916149343 -1.7980621405
H -2.3755025524 0.8395500169 -3.1603846775
H -1.2641398406 2.4956486062 -1.8741374896
H -0.3824526053 2.2421612869 0.3140534829
H -1.8237033852 1.2786817101 0.7062059564

