# b3lyp 6-31G(2df,p) opt Freq 

 titel

0 1
C -0.0094580558 -0.2770496435 0.1047916086
C 1.4172233262 0.1815519372 -0.0946442202
O 2.2706052659 -0.9323723135 0.1850022473
C 3.6525668511 -0.5897653476 0.0790488624
C 3.7805551256 0.9018552408 -0.3009053344
C 3.0240405814 1.6786925951 0.7990342645
O 1.6769335189 1.2103548406 0.8652592692
C 3.0203015823 1.0995338997 -1.5872924034
C 1.7503743925 0.7122318137 -1.4755652434
H -0.137012666 -0.6356806963 1.1277383974
H -0.6959435331 0.5546066218 -0.0705520227
H -0.2403016137 -1.0882266013 -0.5897273354
H 4.1332926159 -0.7746433267 1.0493089964
H 4.1271629824 -1.2323242465 -0.673648944
H 4.8276744391 1.2070593608 -0.3484322089
H 3.500058438 1.5111172546 1.7747410499
H 3.0218154623 2.7566323479 0.5923379686
H 3.4752167794 1.509463709 -2.4816027587
H 1.0007623174 0.7526217442 -2.2570956033

