# b3lyp 6-31G(2df,p) opt Freq 

 titel

0 1
C -0.0308574166 1.5046252881 -0.0103494436
C -0.0314455795 0.0168685044 -0.1434805638
C -1.0442823086 -0.8422245035 -0.2079493033
C -2.3786100977 -1.218423901 0.3853097323
O -1.7865767205 -2.4922455556 0.7974760931
C -0.6448748187 -2.2737655437 -0.1054721335
C 0.805158898 -2.2110418916 0.3878090619
C 1.2766323428 -0.8079715674 -0.1253560188
O 2.2990747953 -0.2261899299 0.6638581201
H 0.6643554894 1.831196392 0.7691707494
H 0.3068997571 1.9804888476 -0.9404231467
H -1.0289890965 1.8888375892 0.2168314574
H -2.7377973714 -0.6223729263 1.231462399
H -3.2013892002 -1.3817855778 -0.3233446934
H -0.767675037 -2.9062938371 -0.9947211011
H 0.8048509876 -2.1930876876 1.4842631261
H 1.4477523469 -3.0299864212 0.0549222829
H 1.726129806 -0.8865013279 -1.123592203
H 1.9912707936 -0.2124438706 1.5774379651

