# b3lyp 6-31G(2df,p) opt Freq 

 titel

0 1
C 0.881730132 0.9725766225 -0.1525911648
C 0.8384727591 -0.5229000464 0.1943990996
C 1.2279315762 -1.3993354965 -1.0276640926
O 2.6365185884 -1.6241886586 -0.9410406445
C 2.9824042244 -1.646038477 0.4057921737
C 2.1735772707 -2.4318566023 1.3710177876
C 1.8882295896 -0.9335911872 1.2299992311
C 2.3077734505 -0.0751731332 2.3560569146
O 3.0780437042 -0.4255665563 3.2237206794
H 0.6043668871 1.6047771036 0.6950433162
H 1.8818220168 1.2684328654 -0.4864857389
H 0.1790138225 1.1892132055 -0.9631892821
H -0.1729515287 -0.7884841742 0.5218169498
H 0.6886223156 -2.3553388236 -1.0174665926
H 1.0317357212 -0.9098429336 -1.9850092029
H 4.0347803997 -1.456350083 0.5784256166
H 1.4301481551 -3.1337672333 1.0112726873
H 2.6602841541 -2.6940171223 2.303760843
H 1.8821256415 0.9496911903 2.3659602496

