# b3lyp 6-31G(2df,p) opt Freq 

 titel

0 1
O 1.6178270987 0.2680109937 -0.3097527089
C 0.4261347189 0.2496388791 -0.1345207616
C -0.2752284976 0.8280116623 1.0722852479
C -1.2533465021 1.9654116353 0.7120600569
C -1.8563955596 2.6448857937 1.9729500776
C -3.2512086848 3.1666219223 1.5555910036
C -3.6660056584 2.2298297264 0.4397300674
O -3.4497848908 0.840787765 0.7384555534
C -2.4836154897 1.5283095194 -0.0708892825
H -0.2500348659 -0.2106687718 -0.8924564873
H -0.8520637205 0.0271793855 1.5551476636
H 0.4873934484 1.1815312344 1.7722539695
H -0.7236685363 2.7136781085 0.10637058
H -1.9678703515 1.8962644493 2.7611883908
H -1.2083484181 3.4343456305 2.3604163531
H -3.9604098012 3.1779294676 2.3887718402
H -3.1983530866 4.1865621687 1.155359547
H -4.5360460183 2.4394100663 -0.1774480019
H -2.4063617448 1.1822706638 -1.0987954888

