# b3lyp 6-31G(2df,p) opt Freq 

 titel

0 1
O -0.257056273 1.4256706866 0.1335949139
C -0.0157128429 0.0501129304 0.0065625041
C 0.2349100058 -0.5872369707 -1.424495488
C -0.7069819318 -1.7686211639 -1.007038713
C -1.9861323322 -2.2180204157 -1.7414987927
C -3.1411311693 -1.9269122515 -0.721857774
O -4.3629085077 -1.5526154854 -1.3384254246
C -2.550590856 -0.8356096273 0.1734681818
C -1.2287835868 -0.83422055 0.0531934767
H 0.5880644084 1.8768313176 0.2212446682
H 0.7684821604 -0.289248946 0.7002916553
H -0.2227281642 0.046727255 -2.1881556579
H 1.268254468 -0.819923841 -1.6953766447
H -0.1266116182 -2.6145642048 -0.6231296279
H -2.1605574039 -1.5907641176 -2.6245928925
H -1.9727978606 -3.2587432832 -2.0763738514
H -3.3993371287 -2.8302404302 -0.15427497
H -4.2090875839 -0.7167854354 -1.7940618813
H -3.1768168537 -0.1441219566 0.7238939678

