# b3lyp 6-31G(2df,p) opt Freq 

 titel

0 1
O -0.6247729649 2.3467985545 0.6980060524
C -0.9908407491 1.2000139377 -0.016237494
C -2.4071298489 0.6722697579 0.2628853891
C -2.3498225528 -0.8204055158 -0.1267001743
C -2.2810810017 -1.1476305376 -1.6497319286
C -0.8358223232 -1.6927517722 -1.4756368376
C -0.8566526818 -1.2778093048 0.0347194707
C -0.1096905378 -0.0013347866 0.3482829884
O 0.9614222104 0.1264309759 0.892966497
H 0.2569404049 2.1555007513 1.0546468196
H -0.8734559134 1.3693814008 -1.1030958162
H -2.6028692316 0.7813419359 1.3358803493
H -3.1839154735 1.2207166273 -0.2771550071
H -3.0863638209 -1.4132688678 0.417093717
H -3.0089755001 -1.8850552896 -1.9944852284
H -2.3614977796 -0.2701208302 -2.2972304305
H -0.7537013835 -2.7738482087 -1.6012600274
H -0.0606176743 -1.2218390796 -2.0852456813
H -0.6039479882 -2.0640765283 0.7464692617

