# b3lyp 6-31G(2df,p) opt Freq 

 titel

0 1
C -0.4369350004 -1.0623222409 -2.4758080332
O 0.6831736928 -1.7216059128 -1.8559504002
C -0.3012560806 -1.1469183199 -1.0250669738
C -1.0924887347 -1.9003790931 0.0350644111
O -0.8456817388 -0.8311512809 0.975282507
C -0.0274731226 -0.0907130879 0.0475655455
C -0.3096618204 1.4070495624 -0.1878040571
C 1.2261038351 1.6341037334 -0.2778763332
C 1.4346675399 0.2536410734 0.4071275944
H -0.2012354055 -0.1332022275 -2.9927177978
H -1.1342421185 -1.7187462857 -2.9948800052
H -2.1621202771 -2.0464790176 -0.1559278445
H -0.6401677779 -2.8493690419 0.3475840662
H -0.9351878388 1.6787057005 -1.0422352933
H -0.7355045213 1.8485918662 0.7177338002
H 1.5852163446 1.6375474308 -1.3101586284
H 1.6287199548 2.510463152 0.2326808105
H 2.2079994309 -0.4083073104 0.012600611
H 1.5425440785 0.34186859 1.4914803608

