# b3lyp 6-31G(2df,p) opt Freq 

 titel

0 1
O 0.2399659658 0.9560038439 2.9969562112
C -1.0176283698 0.4694008219 2.4836740817
C -2.1625492569 1.3413738716 2.9290837372
C -2.5627120145 2.3973715033 2.2139960764
C -1.9618853803 2.747699158 0.9056549901
C -2.4446181189 2.0545158298 -0.3557830613
C -1.1088020349 1.6918107214 0.2384901444
C -0.9226659564 0.3407968085 0.947422133
O 0.3124239999 -0.2522729218 0.602559699
H 0.2159497854 1.9172501529 2.9289622073
H -1.1068748689 -0.5368184047 2.9044658805
H -2.6246881824 1.1138704366 3.8850314959
H -3.3606091961 3.0365535791 2.5865390204
H -1.675844919 3.7898766367 0.7873359085
H -3.2507383825 1.3345334493 -0.2509400362
H -2.4678700455 2.6301617429 -1.2746872731
H -0.2244987885 2.0179566756 -0.2983809539
H -1.7089606072 -0.3501537251 0.6193838242
H 0.9389445307 0.0783781898 1.2632749448

