# b3lyp 6-31G(2df,p) opt Freq 

 titel

0 1
C 2.2814180607 -1.3695777957 0.3020297493
C 3.4909060148 -0.6486047367 -0.2067402041
O 4.0761116924 -1.3438268203 -1.3114969894
C 2.8702017825 -1.131190814 -2.0911643552
C 2.1629875258 -0.4654982712 -0.9099212905
C 1.2555848787 0.7185867683 -0.9800186894
C -0.2806510282 0.5016715973 -0.9796104498
C -0.2618662046 1.3999000048 0.2703600808
O 1.183834123 1.4247291489 0.2839582103
H 2.2230344901 -2.4505778035 0.2059912075
H 1.847341347 -0.9440405782 1.2009373864
H 4.116302226 0.02560827 0.3661213507
H 3.0670175152 -0.4411418799 -2.9210309766
H 2.4516716166 -2.0674100799 -2.4795262844
H 1.592052101 1.3944483224 -1.7809427995
H -0.8229822632 0.8810664932 -1.8464942437
H -0.5740734193 -0.5315829251 -0.7867160465
H -0.680801402 2.4038584408 0.1265840202
H -0.6709223563 0.973173469 1.1927744839

