# b3lyp 6-31G(2df,p) opt Freq 

 titel

0 1
C -1.127515291 1.7372157964 1.488551141
C -0.8743117663 1.2998010718 0.0338844633
C -0.1752982368 2.4015036027 -0.7579016308
O -2.1056381539 1.0547664436 -0.6624582938
C -2.8673877824 -0.0487476311 -0.2343800919
C -2.0598780475 -1.2977906733 -0.0652689274
C -0.7262364213 -1.2602087077 0.0179778883
C -0.0050173144 0.0257434728 0.0557084739
O 1.2027353005 0.0856231767 0.1746487975
H -1.6096377202 0.9498120441 2.0762925289
H -0.1783618213 1.9799127115 1.9731872064
H -1.7695119297 2.6227547582 1.4995097083
H 0.8269798092 2.5658156725 -0.3599707501
H -0.0915535137 2.1124604633 -1.8086453955
H -0.7514377031 3.3287043363 -0.6982195644
H -3.4107916009 0.1629168499 0.7056494267
H -3.6359777699 -0.2006495228 -1.0017717812
H -2.6053835678 -2.2369235426 -0.0045772351
H -0.1175320593 -2.153058792 0.1191179459

