# b3lyp 6-31G(2df,p) opt Freq 

 titel

0 1
O 0.717701818 -2.0500360878 0.8827914316
C 0.794346751 -0.6747105969 0.5421833546
C -0.3126675512 0.1391644815 1.2006907076
C -0.2666052935 1.6947275308 1.0555334658
C 0.7240456648 1.7086916981 2.2561175253
C -0.1323515084 0.4869390706 2.7300345034
C -1.4633925869 1.1844014077 2.9826252546
O -2.2275130578 1.057360001 3.8996208394
C -1.5855422015 2.1021680178 1.7414211578
H 0.8626722513 -2.1287528949 1.8311330449
H 1.7914235817 -0.2663514992 0.760543793
H 0.6643010763 -0.6344433175 -0.545330049
H -1.268040015 -0.3325580659 0.9440754609
H -0.0239974351 2.1709878534 0.1055147748
H 1.7437554006 1.4322925853 1.9901367994
H 0.740133478 2.594999473 2.8966899908
H 0.1958096897 -0.2270675026 3.4842423819
H -2.483841409 1.8659496774 1.1630164762
H -1.6292757429 3.1566945083 2.0309539069

