# b3lyp 6-31G(2df,p) opt Freq 

 titel

0 1
O 0.2770105725 -0.0567520536 0.8655492825
C -1.0468270723 0.4502893365 1.0179104065
C -1.8373147196 -0.0279961053 -0.2033121035
C -3.1842356 0.6661416028 -0.3597100864
C -4.2601336035 0.5665702042 0.7453022749
O -4.3730294395 2.0017099589 0.8289301588
C -3.2301575869 2.1856779124 -0.0626317822
C -2.0326349512 2.7325358784 0.6532541098
C -1.0641747949 1.9550772395 1.1364863922
H 0.7694615908 0.1436153776 1.6679112118
H -1.4977449724 0.0249600292 1.9314146039
H -1.2172012572 0.1843181408 -1.0819689069
H -1.9604617411 -1.1155737312 -0.1583573838
H -3.6046762418 0.4372003169 -1.3414204887
H -5.208281824 0.0964523795 0.4599629942
H -3.9217057785 0.1247030748 1.6930074302
H -3.5111165571 2.8317852357 -0.9027022002
H -1.9955491847 3.8089470484 0.8014977046
H -0.2280519287 2.3973409547 1.6764310023

