# b3lyp 6-31G(2df,p) opt Freq 

 titel

0 1
C 1.2652635308 -0.0911094124 -0.0494246728
O -0.1415701264 -0.0333256037 0.0739255309
C -0.6310182928 0.6514621239 1.1739472846
C -0.2883401667 2.1388093412 1.5171164114
C -0.885362809 1.73877833 2.9089089022
C -0.2628577108 0.3233692673 2.6586056601
C -2.332552431 1.4743619882 2.5206879997
O -3.3432960477 1.8090840841 3.075594814
C -2.1679902626 0.659547192 1.2211119048
H 1.7333707355 -0.6030245925 0.8025602053
H 1.475694033 -0.6593645213 -0.9578057223
H 1.7121252154 0.9077711916 -0.1474674907
H 0.7843272385 2.3292056203 1.5906146505
H -0.7801260102 2.9313557173 0.9470071398
H -0.6985013717 2.310517829 3.8140392152
H 0.8124065273 0.3287114019 2.8484637646
H -0.7313516897 -0.5435295954 3.1318996793
H -2.6012587959 -0.3410382296 1.3079507535
H -2.622360896 1.1624746527 0.3625984033

