# b3lyp 6-31G(2df,p) opt Freq 

 titel

0 1
C 3.1626310268 -2.0031916973 1.6333206596
C 2.018592173 -1.4618014328 0.8045591199
C 1.3754527845 -2.2177756697 -0.2852753371
C -0.118696164 -2.2661558595 -0.5055605065
C 2.2135908353 -0.9457511004 -0.6454185461
C 3.4854131723 -1.2009753706 -1.3656031153
O 3.9857144807 -0.4439575185 -2.1634419632
C 1.5125281558 0.3218755311 -0.9958252208
O 0.5452418267 0.7543375144 -0.4091035467
H 2.7646143198 -2.5094306883 2.5192131752
H 3.7681314469 -2.7307639568 1.0867632589
H 3.8224955536 -1.200457598 1.9767207159
H 1.3515519354 -0.7822689553 1.3316552452
H 1.9017326038 -3.1248551424 -0.5827430679
H -0.5513104128 -3.0630579072 0.1090710253
H -0.5913302244 -1.3221702202 -0.2318044708
H -0.3571817807 -2.4841424797 -1.5513327142
H 3.9650340639 -2.1786386904 -1.1355709565
H 1.9581759435 0.8597278316 -1.8527965649

