# b3lyp 6-31G(2df,p) opt Freq 

 titel

0 1
C 0.8632614263 2.9869808209 2.9745664924
C -0.0961747099 1.769063503 2.9844875762
C 0.5731967689 0.5589926365 3.4453761603
C 1.1358131781 -0.4300138761 3.8341506129
C -0.7360690234 1.6492696082 1.5801376056
O -1.676980489 2.3559456948 1.3025161793
C -0.1203589696 0.6871494699 0.5857407844
C -0.7074142102 0.8145284222 -0.8205333367
O -0.0594520019 -0.0411426124 -1.7485177143
H 1.2721819694 3.1499796701 3.9742356664
H 1.6991651379 2.8214229264 2.2888827046
H 0.3174672026 3.8799797194 2.6611129006
H -0.9290310741 2.003853397 3.657165091
H 1.6257982636 -1.3066278293 4.1797957991
H 0.9670111434 0.8347540861 0.5622407193
H -0.255824011 -0.330059724 0.9792549391
H -1.7917105555 0.6432717301 -0.7907190337
H -0.5601274712 1.8322181347 -1.1923676298
H -0.2756324644 -0.9497201173 -1.5165153067

