# b3lyp 6-31G(2df,p) opt Freq 

 titel

0 1
O 1.2613274533 0.7160828465 0.5982462392
C 0.0040832495 0.2959775194 0.115909486
C -0.5919180778 1.3104499651 -0.8571227685
C -2.0570483767 1.0280495976 -1.2438813362
C -2.8517914423 2.0148194294 -0.3721870749
C -1.8714050044 3.1978285899 -0.2619394919
O -0.58276319 2.5865699386 -0.1802665062
C -1.9626226583 4.1145290239 -1.405023742
C -2.0429148305 4.8592991034 -2.3450578783
H 1.1398455115 1.6309568681 0.8805287396
H 0.1562178942 -0.6620884344 -0.3937688916
H -0.7114277909 0.1274904173 0.9398685056
H 0.0572997004 1.3888343948 -1.73720135
H -2.2217158946 1.2384360492 -2.3033387472
H -2.3369447853 -0.0128814395 -1.0603833
H -3.8131032704 2.2998607496 -0.8021080319
H -3.0242652957 1.6047721918 0.6272828166
H -2.0134465949 3.7653001501 0.6639832534
H -2.1069453871 5.5246892989 -3.1705229218

