# b3lyp 6-31G(2df,p) opt Freq 

 titel

0 1
C -0.1036542985 -0.2146372454 0.0568217385
C 1.3963760489 -0.0672232899 0.0166446532
O 2.0597916587 -0.4229960597 1.2029227553
C 2.1755340301 -0.3025838302 -1.2620073721
O 1.454064084 -0.5634448863 -2.4307698953
C 1.4492202083 0.4929926623 -3.3871507815
C 1.1057510213 1.8332194003 -2.7863829636
C 1.3783397101 2.0955029066 -1.5088709317
C 2.0886461621 1.0920223855 -0.6809577717
H -0.5205796737 0.380962646 0.8749661674
H -0.5603201553 0.1004701477 -0.8816595206
H -0.3781192651 -1.2634054554 0.2252061356
H 1.9155222127 -1.3655970538 1.3473198822
H 3.1162504971 -0.845393031 -1.1790554404
H 2.4221724307 0.5463957777 -3.9051846337
H 0.7048003804 0.20331758 -4.1358485646
H 0.6312435853 2.5653480119 -3.4329344376
H 1.1162212449 3.0488829145 -1.0587449659
H 2.9671081481 1.4453720392 -0.1481372635

