# b3lyp 6-31G(2df,p) opt Freq 

 titel

0 1
C -0.8116261892 0.8640361295 0.7577597513
C 0.2164451913 0.3001405206 -0.2300117837
O 1.1595547053 -0.6579910082 0.2191145452
C 1.9324450144 -0.3230088652 1.3643877592
C 1.1187969812 -0.5029467222 2.5694764095
C 0.1351336907 -0.6558365229 3.2479202975
C -1.2625924508 -0.7524954574 3.6408011102
C -2.1044587657 0.0644090273 2.6123294436
O -1.6786181175 -0.1317580372 1.2786860588
H -0.3061497829 1.4045605251 1.5643201269
H -1.3995207661 1.6053543018 0.1885357673
H -0.3120983514 -0.2023333058 -1.0460515955
H 0.7373923993 1.1760161514 -0.6562600606
H 2.7977089982 -0.993532991 1.3462707857
H 2.3178881154 0.7076791898 1.2989993874
H -1.5785335466 -1.8023802745 3.6237850217
H -1.4621344411 -0.3756352249 4.6508476596
H -3.1496116689 -0.2585504487 2.6747470311
H -2.0673193156 1.1289478427 2.8792038947

