# b3lyp 6-31G(2df,p) opt Freq 

 titel

0 1
C 3.4188038126 1.3165611141 -3.3540708617
C 2.9477713154 1.1080838657 -1.9385810235
O 2.6406075743 -0.2372765456 -1.5500879673
C 1.5708793847 0.7109357053 -1.6084218235
C 0.9215851032 1.0709958841 -0.3157387644
C -0.3537234817 1.8469411372 -0.2965789414
C -0.3816052799 0.3714535052 0.0714252598
C -0.5749499672 0.0062840558 1.491681831
O -1.1633851503 -0.9699526392 1.8825943441
H 2.8031838336 0.7473461183 -4.0557324204
H 3.3707458008 2.3770149224 -3.6238045618
H 4.4571096726 0.9875002604 -3.4656015112
H 3.4973542545 1.6643767187 -1.1761732007
H 0.8788537366 0.5518907903 -2.4389979667
H 1.6175441382 1.249438263 0.4994852156
H -0.5021608615 2.5695080372 0.498920413
H -0.8139130616 2.1170035724 -1.2406704298
H -0.8109194306 -0.323061266 -0.6424632222
H -0.1177289338 0.7319957607 2.2082817312

