# b3lyp 6-31G(2df,p) opt Freq 

 titel

0 1
C 4.1792329896 2.7739751955 0.1632699288
C 3.1250606748 3.8482378743 0.4726325734
C 2.1287537986 3.3292771515 1.4924629007
O 1.7581507652 3.9315938817 2.4669989839
C 2.3505859209 4.2684067966 -0.7892487111
C 1.3771342204 5.4904305042 -0.588393704
C 2.2366422864 6.281168999 -1.5812047239
O 2.2546693048 5.5438297398 -2.8112759246
C 3.1528215387 5.1466932642 -1.7751347102
H 4.7628877676 2.5217101482 1.0537568328
H 3.7071171928 1.8551740496 -0.2023826616
H 4.8752939383 3.1167166496 -0.6072135571
H 3.5984861386 4.7339963857 0.9119876928
H 1.7248150075 2.315074929 1.2574978426
H 1.9005153321 3.3932524272 -1.2698510552
H 0.3356528825 5.3483611662 -0.8851721994
H 1.4169433431 5.8790175938 0.4319615662
H 2.4064582739 7.3494094308 -1.6455373457
H 4.2094839642 5.1127592431 -2.0161270783

