# b3lyp 6-31G(2df,p) opt Freq 

 titel

0 1
C -1.4014435642 4.5214355883 -1.8166730907
C -1.5996804416 3.3036926917 -0.9513264866
O -2.896725681 3.2431363829 -0.4296502689
C -0.4645903998 2.769743497 -0.0972241326
C -0.9566882664 1.9931101146 -1.3070559639
O -1.7954197384 0.8863372774 -1.1243272028
C -1.1336188244 -0.3500645064 -0.8875297588
C -0.6092454433 -0.5136501253 0.469394551
C -0.1924591616 -0.6853678022 1.5833053235
H -0.3839999078 4.5590777843 -2.2163670757
H -2.1076404856 4.5173116618 -2.6529803909
H -1.5720448268 5.4310959785 -1.2316107126
H -3.1376253897 2.3082212591 -0.3936934434
H 0.5141613016 3.2353295659 -0.1526158196
H -0.7369717194 2.376114428 0.8742255394
H -0.3203085372 1.9231157304 -2.1897642717
H -1.8829309137 -1.1242809419 -1.0842098026
H -0.3223270246 -0.4870644451 -1.617522893
H 0.181999934 -0.8289841891 2.5669112298

