# b3lyp 6-31G(2df,p) opt Freq 

 titel

0 1
O -2.6614352193 -0.6573872029 -0.6357440187
C -1.5993924013 -1.0943691291 0.1798560535
C -1.8767409704 -1.888240118 1.5039284008
C -0.9833366792 -0.8928681365 2.2507695233
C -1.5659163079 0.4823465161 2.1323685863
C -0.7809756208 -0.0656065873 0.9659327742
C 0.4203231845 0.6174603903 0.4304403143
C 0.5075426669 1.0060965966 -0.9854295895
O 1.2236141633 -0.1296290739 -0.4916659828
H -3.2123541015 -0.0608702531 -0.1176136615
H -0.9382336723 -1.6630335709 -0.4770270722
H -2.9233006185 -1.9089619787 1.8274517343
H -1.4988553894 -2.9117056098 1.4715843148
H -0.2440661904 -1.1430125357 3.0012112504
H -2.6451248599 0.6218701721 2.0775312381
H -1.0596022449 1.2656352976 2.6887994703
H 0.9977609231 1.1945045443 1.1552294988
H -0.3298015396 0.7792172862 -1.6433255018
H 1.1229234274 1.8554453924 -1.2790311428

