# b3lyp 6-31G(2df,p) opt Freq 

 titel

0 1
C 0.6778439237 1.2570083206 -0.2678796984
C 1.6182323267 0.0987213117 0.0295510055
C 0.1442050753 -0.1071318332 0.0939318402
O -0.4314870971 -0.8923101775 -0.9272969827
C -1.8416185008 -0.8590437952 -0.7108171245
C -2.0199884877 -0.8742918011 0.8056202305
O -1.8103699658 -2.1757486988 1.3870228982
C -0.5440770434 -1.7762383172 1.9536058991
C -0.6588337429 -0.3584636719 1.3505755272
H 0.6025527431 2.0622614827 0.4556876522
H 0.5830454317 1.5593498651 -1.3046971656
H 2.1372134828 -0.3493045379 -0.8101610924
H 2.1803245896 0.1100552001 0.9573164719
H -2.282583956 0.0584011628 -1.1325399684
H -2.2829959834 -1.7322819737 -1.196558297
H -2.9544512487 -0.4163143056 1.1452196
H -0.5601871411 -1.8202000142 3.049428734
H 0.287484057 -2.3822396232 1.575766476
H -0.655121083 0.4719092863 2.0553362444

