# b3lyp 6-31G(2df,p) opt Freq 

 titel

0 1
O 0.3083194664 -1.427060942 0.274366107
C 0.6805710612 -0.2854312824 0.9833097062
C -0.2243022353 0.8920549142 0.6338966997
O -1.138673525 0.7081347816 -0.153645744
C 0.0357280107 2.1923913422 1.267696614
C -0.4892667838 3.4652119264 0.6306953617
C -1.0353420006 3.0930717762 1.9584175794
C -0.0410291291 3.421316799 3.0771459256
C 1.0410813886 2.5324729011 2.379192981
H -0.4649904302 -1.148323321 -0.2452142601
H 0.6281950362 -0.4537663603 2.0724753808
H 1.7237658765 0.0023829218 0.7686543513
H 0.1906244494 4.308318904 0.5311666274
H -1.1424481563 3.2872608031 -0.2158562994
H -2.0794420491 2.8369911533 2.0897102766
H 0.1974279163 4.4829515793 3.1943624105
H -0.3395302272 3.0218953224 4.0479162991
H 1.9541007885 3.0374500482 2.0489139487
H 1.3233609227 1.6739081032 2.9916595744

