# b3lyp 6-31G(2df,p) opt Freq 

 titel

0 1
O 2.1956263818 3.0776919905 -3.8045987154
C 2.1268823071 1.7935045155 -3.1729298351
C 3.2571393914 1.5840373999 -2.1548812282
C 2.9412058952 2.2447219533 -0.806762863
C 1.6236820861 1.7230400428 -0.1945052659
C 1.8074043418 0.3679000638 0.4836311354
O 1.4245949613 0.1049677422 1.5935081456
C 0.540718177 1.5848525872 -1.241361736
C 0.7660744245 1.5916786843 -2.5567356226
H 1.8132404692 3.7200804326 -3.1976025911
H 2.2613265485 1.0842751283 -3.997846201
H 3.4159954119 0.5072934065 -2.0208899089
H 4.1800107929 1.9937312414 -2.5756279005
H 3.7687555603 2.1047885412 -0.103061639
H 2.8423456643 3.3278776789 -0.9498392366
H 1.2755816529 2.3984990688 0.5945886221
H 2.3194647691 -0.3969021534 -0.1432157776
H -0.470800672 1.4556692525 -0.8640089524
H -0.0673773933 1.5128238037 -3.2502427798

