# b3lyp 6-31G(2df,p) opt Freq 

 titel

0 1
C -0.0783177636 -1.1123435005 -3.3315844504
C -0.261738566 -0.6620226058 -1.9078645386
O -0.5237378907 0.7545909088 -1.7925392138
C -1.6444247914 0.5219562183 -0.8995938936
C -1.4408467816 -1.0044587606 -0.9479785741
C -0.4480899718 -1.5585425849 0.1035991932
C 0.7489389525 -1.1553948647 -0.7997774924
C 1.6513600159 -0.0615896105 -0.2910288382
O 1.5822238937 0.4277430898 0.8079903415
H 0.0472252652 -2.1984020653 -3.385438229
H -0.9424287214 -0.8271837606 -3.9389263694
H 0.8110558609 -0.6434957998 -3.7680618234
H -1.4966155028 0.9952952506 0.0778956223
H -2.5788839181 0.885646142 -1.3425674646
H -2.2941150798 -1.618752309 -1.2338845626
H -0.4589347795 -1.0677015253 1.078931547
H -0.5312957763 -2.6376841251 0.246553395
H 1.3710809411 -1.9894369075 -1.1443223282
H 2.4102084038 0.2890956201 -1.0259508607

