# b3lyp 6-31G(2df,p) opt Freq 

 titel

0 1
O 1.4734733606 -0.1771187838 4.4635621927
C 0.4872266364 0.1931120225 3.5441093224
C -0.6199241848 -0.7743215661 3.2039265822
C 0.5118028881 -0.5145679873 2.2241269918
C 0.2735845091 0.2191718305 0.9436183115
C 1.4797856292 0.4299056661 0.040730724
C 1.04484802 1.1814923808 -1.211276112
O -0.0364134722 0.237329461 -1.4529174278
C 0.3915012444 -0.5492216737 -0.3390394129
H 1.0853451565 -0.1419718279 5.3444086926
H 0.2430457948 1.2562066309 3.5326538225
H -0.6192572599 -1.7280739217 3.7202109763
H -1.6033299802 -0.3758743984 2.9754936159
H 1.2552256089 -1.305954931 2.1695565493
H -0.4868797952 0.9986614044 0.9818290899
H 2.4959395881 0.2695369476 0.3749864078
H 0.6814162936 2.209386136 -1.090814031
H 1.7758201081 1.140550703 -2.0269864469
H 0.3605774046 -1.6295130128 -0.4302964983

