# b3lyp 6-31G(2df,p) opt Freq 

 titel

0 1
C -0.2410735289 0.3185205805 0.0234236797
C 1.2103030896 -0.1617726934 0.0353692996
C 1.4619047555 -1.4253938391 -0.8245671747
C 2.6138115277 -2.1464599681 -0.1072037508
O 3.8115971315 -1.9276252963 -0.8379806091
C 2.6279250279 -1.4769382284 1.296278737
O 1.5006194482 -0.6163825209 1.3650064505
C 2.1166310904 0.9371074639 -0.3426383033
C 2.8368023967 1.8526330454 -0.6388498339
H -0.3642272112 1.1646976403 0.7030951841
H -0.5289720789 0.6355685159 -0.982229786
H -0.8969231739 -0.4940696799 0.347547262
H 0.5575425971 -2.0394868346 -0.8104491391
H 1.7266248061 -1.2048234185 -1.8590739812
H 2.4127433099 -3.2234567088 -0.0285903213
H 4.5412066836 -2.3154839833 -0.3444004694
H 2.5463219895 -2.1870881486 2.1243825985
H 3.5650500756 -0.9098759188 1.3986455827
H 3.4841180038 2.6515405629 -0.9045923854

