# b3lyp 6-31G(2df,p) opt Freq 

 titel

0 1
C 0.1564893021 0.1482718133 0.3280455489
C 1.0652484268 -0.3823681772 -0.7608917805
O 2.4705697833 -0.1719959447 -0.4805066005
C 2.6466059143 0.6550524247 -1.6436482104
C 1.1738200675 0.4556248739 -2.0801333484
O 0.4075447165 1.6507294776 -2.1138917336
C -0.3769604828 1.7134311912 -3.3041350646
C -0.008113229 0.4784423295 -4.0745848486
C 0.8747985639 -0.227781687 -3.3777269456
H 0.3782936824 -0.3595455796 1.2718419056
H 0.2914888028 1.2235528093 0.4620305478
H -0.8925041488 -0.0387907038 0.0750752793
H 0.8691438307 -1.4487401948 -0.9410683489
H 2.8794732514 1.6964260277 -1.3908670601
H 3.4116292835 0.2619073018 -2.3248547536
H -1.4475992003 1.7463975354 -3.0492239482
H -0.1441199581 2.6403633117 -3.8493203125
H -0.4232022359 0.2350592278 -5.0441177091
H 1.3310817895 -1.1685422069 -3.6578845868

