# b3lyp 6-31G(2df,p) opt Freq 

 titel

0 1
O 1.3102835833 0.7951881472 -0.0169115005
C 0.329227046 -0.0459564303 0.5737466809
C -0.928366084 0.7139156662 0.9674346357
C -2.1698430914 -0.190002774 1.1701019803
C -3.2978370619 0.5307296613 1.9250090168
C -3.5160574502 1.8926384567 1.2951622165
C -2.7777872272 2.2355955358 0.2392529368
C -1.7776628616 1.2023817448 -0.2354771063
O -2.4423835342 -0.1037942547 -0.2579647592
H 1.5878484572 1.4355858158 0.6461189865
H 0.0803104073 -0.794433712 -0.1842271289
H 0.733733286 -0.5800385582 1.449186458
H -0.7182750763 1.4565823332 1.7449259232
H -2.0207054651 -1.2225010187 1.5025603039
H -4.217608592 -0.0667828708 1.8751052708
H -3.0471305777 0.625782975 2.9905064024
H -4.2773131104 2.5454895773 1.7118360828
H -2.865270385 3.1931845404 -0.2625404025
H -1.2775356831 1.433063895 -1.1771650171

