# b3lyp 6-31G(2df,p) opt Freq 

 titel

0 1
C 1.3333393244 0.0062944612 -0.2379429601
O -0.0544675376 0.1878728324 -0.0357297469
C -0.4408347685 0.6663724159 1.2496022232
C -0.0271290123 2.160163598 1.4752476345
C -1.3728553086 2.8777274403 1.6713409265
O -2.3101085232 2.106282698 0.9387352015
C -1.9961226447 0.7597993121 1.2240655569
C 0.0273454999 -0.2248556614 2.316370391
C 0.3990387517 -0.9591353112 3.1930902553
H 1.7538069302 -0.7260007376 0.4630112742
H 1.4487890428 -0.3645006075 -1.2588160044
H 1.8956055469 0.9462974914 -0.1407032251
H 0.6557247983 2.2916500574 2.3156251633
H 0.460311104 2.5145349811 0.5642480445
H -1.6462284697 2.9103399877 2.7391199235
H -1.3891918277 3.8968431049 1.2782530464
H -2.4009476357 0.4587455254 2.2015365664
H -2.4057285144 0.1213265323 0.4402512864
H 0.7238334441 -1.6093009104 3.9678014829

