# b3lyp 6-31G(2df,p) opt Freq 

 titel

0 1
C 1.8660866238 -0.0958576018 1.3569859735
C 1.0019885245 -0.5681924141 0.209271725
C 0.7190591986 0.3390457375 -0.9832907463
C 1.5804266334 -0.8666498194 -1.138074628
O 1.1716862626 -2.0175091065 -1.9041099401
C 2.5221708904 -2.2327267722 -2.3530571922
C 2.8898138873 -1.4372845962 -3.6169594703
O 3.3158953221 -0.2981224868 -2.8227918728
C 3.0262937742 -0.9895114125 -1.5933379572
H 2.2900350368 -0.9381862044 1.9147579634
H 2.6975506468 0.5211767294 1.0000183774
H 1.2863872349 0.5129583433 2.0592480397
H 0.1792917216 -1.2237187885 0.4849523734
H -0.2691188613 0.2962407941 -1.4283579909
H 1.1968752231 1.3132644991 -1.0239168258
H 2.8505180547 -3.2665532422 -2.2416940349
H 3.7250955923 -1.8454834378 -4.1995415695
H 2.0461138606 -1.2068863109 -4.2757550695
H 3.8344565837 -0.9237614301 -0.8632730448

