# b3lyp 6-31G(2df,p) opt Freq 

 titel

0 1
C 1.2362592186 0.6521351257 -0.3965694979
C -0.1295644637 0.2239012292 0.034606752
C -1.2300835203 0.969599033 0.1838648914
C -2.4421896998 0.1663245495 0.6146684647
C -1.8868641686 -1.2412370345 0.802259264
C -0.7986738399 -1.4380624683 1.8407887994
O -0.5357080131 -2.751197105 2.262300966
C -0.4092939801 -1.1978789839 0.4026644066
O 0.2646909143 -2.1949118119 -0.2850833772
H 1.9751810356 0.4700010776 0.3938349994
H 1.5648175499 0.0717363862 -1.2652721812
H 1.2607694471 1.7139856327 -0.6542671002
H -1.2710667635 2.0435126574 0.0379412194
H -2.8880488637 0.5624277236 1.5373031129
H -3.2348475724 0.1910511413 -0.145274826
H -2.489992413 -2.1104054787 0.5614585228
H -0.6157779452 -0.6689759382 2.5919427763
H -1.3426980939 -3.1304115662 2.6258795007
H 0.3573911816 -2.9302425095 0.3369244469

