# b3lyp 6-31G(2df,p) opt Freq 

 titel

0 1
C -0.8797079887 1.3374180337 -0.6929361557
O -0.7365956436 -0.0126464103 -1.2176852357
C 0.5057645003 -0.156798664 -0.5288633372
C 0.4854355632 1.2651365204 -0.0183584236
C 1.5248328411 0.8212394949 -1.0370570277
C 2.9401190325 0.685597077 -0.5494514842
C 3.8957050403 1.8939301561 -0.7143045719
O 4.8576880776 1.092358101 -1.4273568418
C 3.9626238862 -0.0368878177 -1.4609068324
H -1.0198447113 2.0810049485 -1.4865299287
H -1.7167649728 1.3847221335 0.0126231293
H 0.7251320123 -1.1105969098 -0.0615183123
H 0.7452754237 1.6756923968 0.9482268719
H 1.4152687298 1.1593284083 -2.0675205855
H 2.9514785573 0.2928356426 0.471947781
H 3.4930666838 2.705361679 -1.3365926951
H 4.3155477086 2.3238172697 0.202599104
H 3.5961157387 -0.2426397692 -2.4761846483
H 4.4286901611 -0.9446590102 -1.0605414358

