# b3lyp 6-31G(2df,p) opt Freq 

 titel

0 1
O 0.0028352996 -1.2535337584 -2.2127754016
C -0.6633799218 -0.9554621471 -1.0435652509
C -2.1603748927 -1.0676245064 -0.9585399627
C -1.2968114135 -1.7761648953 0.0562838095
O -0.8680899642 -0.8536741192 1.0640827165
C -0.1520333543 -0.0567022977 0.087435616
C -0.3088443506 1.4751533743 0.0568367935
C 1.208701776 1.5706919907 -0.2712679514
C 1.3737216229 0.1178560357 0.2546136905
H 0.8476678761 -1.6590189285 -1.9868138674
H -2.7812809612 -0.229158974 -0.6536572871
H -2.581351056 -1.7122526303 -1.7245887341
H -1.3331527115 -2.8303545018 0.301975394
H -1.0261168577 1.8920417819 -0.6545712106
H -0.5330102742 1.8555766035 1.0573744847
H 1.3888633543 1.6363814664 -1.3468022305
H 1.7823889197 2.3505762728 0.2319489825
H 2.0380021877 -0.5615675493 -0.2884313737
H 1.6351727016 0.0890952827 1.3156890629

