# b3lyp 6-31G(2df,p) opt Freq 

 titel

0 1
C 0.3873818824 -4.0319273472 -1.7813580884
C -0.7140693659 -3.0801745096 -1.3473574623
O -0.1541680963 -2.0997267416 -0.4959644923
C -1.1002184876 -1.161680111 -0.0350923819
C -0.3680687645 -0.1743814731 0.8626147172
C -1.2771972606 0.8961917295 1.4291721364
O -2.4646134501 0.9564529954 1.1892491141
C -0.6283950231 1.8683003918 2.2961954242
C -0.0747676842 2.6633159184 3.0105069869
H 0.838323664 -4.5194083326 -0.9122787922
H -0.0154348624 -4.8045187947 -2.4430080437
H 1.173292611 -3.4914042786 -2.3165798836
H -1.1794383254 -2.5992697618 -2.2244535504
H -1.514390166 -3.6270843128 -0.820562622
H -1.5752552864 -0.6319832374 -0.8755317518
H -1.9094864537 -1.6567022334 0.5240358679
H 0.1172412619 -0.6995449641 1.6952797281
H 0.4474735668 0.3126122946 0.3127095037
H 0.39763183 3.3750893182 3.64326801

