# b3lyp 6-31G(2df,p) opt Freq 

 titel

0 1
C 1.4204079816 -0.0552727767 -0.0271132764
O 0.016067696 -0.0450483899 0.0809052717
C -0.4480204103 0.7173284428 1.1706759043
C -1.9774573319 0.6868464564 1.1561326687
C -2.6021537052 1.3909802535 -0.065906245
C -3.4997940442 2.4999109433 0.5051792981
O -4.1654093376 3.2800334702 -0.1343161402
C -3.3923730992 2.4188711365 1.9836853742
C -2.5674674866 1.4274711172 2.3359169925
H 1.8953057454 -0.49083094 0.8661524539
H 1.6763259824 -0.6656765321 -0.8962464742
H 1.8263443712 0.9582904087 -0.1713545383
H -0.0653859312 0.3077054777 2.121933819
H -0.0916417083 1.7599137791 1.0980539742
H -2.2701372113 -0.3704513996 1.1968570617
H -1.8464853601 1.8250650721 -0.7268446314
H -3.2044616952 0.7191875534 -0.6835455523
H -3.9313272998 3.0872844076 2.6429453071
H -2.3158884556 1.1555459097 3.3566558225

