# b3lyp 6-31G(2df,p) opt Freq 

 titel

0 1
C -0.0514868209 1.4817179161 0.2530661422
C 0.0583275043 -0.0101912166 0.0158069305
O -1.1809337381 -0.7338761367 0.3418138509
C -0.4433140526 -1.7298107511 1.1054533379
C -0.6518427943 -1.954109775 2.6246604316
O -1.4382997411 -0.8935589483 3.127769348
C 0.8333743066 -1.8674862612 3.1334977886
C 1.4618410688 -0.8477087428 2.1821387748
C 0.7625623606 -0.8554740096 1.0542846258
H 0.9106345334 1.9693835456 0.0625909187
H -0.7959833641 1.9179537837 -0.419968616
H -0.3543497601 1.6704418515 1.2855096342
H 0.3422552827 -0.227749001 -1.0234328947
H -0.4171950304 -2.6858761333 0.56442322
H -1.1083180789 -2.9280543621 2.8548388454
H -1.4952219902 -0.9989851733 4.0825966241
H 0.8688597643 -1.5360909675 4.1783368249
H 1.3203884163 -2.8519648591 3.0993569231
H 2.2541126336 -0.1689645295 2.4734869501

