# b3lyp 6-31G(2df,p) opt Freq 

 titel

0 1
C 1.4741063014 -0.175013233 0.1012212133
O 0.09204965 0.0820152039 -0.002556955
C -0.473813925 0.7678436498 1.0951867393
C -1.9846309613 0.7241124482 0.9566467383
C -2.5354306365 1.9360533411 0.9997987161
C -1.4693416861 2.977085117 1.1316106871
O -0.5594717573 3.0008750403 0.0072253044
C -0.171344618 2.2864120656 1.1865484304
C 1.0307693372 2.8074133193 1.9286811284
H 1.7288847443 -0.6525065992 1.0608859854
H 1.7330205718 -0.8586338931 -0.7113129198
H 2.0800335896 0.7351554198 -0.0060929244
H -0.1487810289 0.2832510841 2.0347738486
H -2.4989392572 -0.2138965096 0.7850365235
H -3.5906073193 2.1644326353 0.913624608
H -1.6490574095 3.9395666104 1.6026066201
H 1.0833153086 2.376133396 2.9340576375
H 1.9606652262 2.5574056089 1.4082216757
H 0.98083473 3.8956631252 2.0194695931

