# b3lyp 6-31G(2df,p) opt Freq 

 titel

0 1
C 2.392428807 -1.8180444477 0.8959057676
C 1.467734824 -1.0231365625 -0.0359742568
C 2.2194149174 -0.5031605181 -1.2355868285
O 1.4321086168 -0.1036914913 -2.4033687609
C 2.2694517528 -1.2200482545 -2.492990936
C 3.3341083064 -1.5887284777 -3.5410381706
C 2.2037949362 -2.1604767251 -4.4347835842
C 1.9668351292 -2.6489300281 -2.9824882413
O 3.4231077915 -2.9085258868 -2.8654437388
H 1.8388192862 -2.2176132987 1.7501891993
H 2.855833704 -2.6538026408 0.3622359337
H 3.1983773063 -1.1879243685 1.2873708253
H 0.641194734 -1.6516466207 -0.3844172397
H 1.0187555355 -0.1799522561 0.5030025158
H 3.032391854 0.1913559017 -1.0164528005
H 4.2651998192 -1.095511135 -3.8166537861
H 1.4851022094 -1.4583521331 -4.8635450188
H 2.52353484 -2.9393254719 -5.1280591196
H 1.2838245901 -3.4074070751 -2.6023621798

