# b3lyp 6-31G(2df,p) opt Freq 

 titel

0 1
C 1.5770103393 2.7334767043 -3.65505172
C 0.9309070835 1.6763296951 -2.8276069398
O 1.3279017371 0.3038741692 -3.0181299898
C 0.1264593751 -0.0681646157 -2.2559318152
C -0.4180760461 -1.4193259432 -2.5908965877
C -0.4842434156 1.3582169854 -2.4844913148
C 0.4727172283 1.8077537206 -1.3707815333
C 0.5445579473 0.3809174187 -0.822121691
O 1.7449360915 -0.1278874255 -0.321204144
H 1.1344757351 3.709103301 -3.4337940715
H 2.6499459246 2.7907936628 -3.4421664
H 1.4485882604 2.5284875998 -4.7222907865
H -1.3354715372 -1.6109384864 -2.0260068052
H -0.6382559279 -1.5020517259 -3.6588519988
H 0.3140727798 -2.1896946604 -2.3266691062
H -1.444224075 1.7270538121 -2.8164276554
H 0.4820008217 2.7475221209 -0.8331303136
H -0.2440229255 0.1887803888 -0.0897015081
H 2.3557505536 -0.1079330217 -1.0713205491

