# b3lyp 6-31G(2df,p) opt Freq 

 titel

0 1
C 3.4441267059 -0.949389511 1.3155003021
C 2.4982184161 0.0606398607 0.7568333645
O 2.8610312295 0.682509999 -0.4758657363
C 2.3048213537 1.9466180225 -0.0111244319
C 1.7953709158 1.2838071434 1.2572796432
C 0.9464383545 0.0615588718 0.8821678149
C 0.0642823248 -0.0000852848 -0.3475595184
C 0.4485688137 -0.6711618281 2.0735328843
O 0.8859933261 -0.5654724489 3.1987144524
H 3.0897211656 -1.3175287139 2.2788914409
H 3.5466455212 -1.7936756072 0.6249360368
H 4.433499561 -0.5019974639 1.4515432855
H 3.1095535936 2.6666192019 0.1695932408
H 1.5765100514 2.3680407214 -0.7118025469
H 1.7459383812 1.6987590739 2.2546260381
H -0.3812839197 -0.9959230389 -0.4457379109
H -0.7546066596 0.7261346099 -0.3006800553
H 0.6466908375 0.1905302796 -1.2511663339
H -0.3912461025 -1.3690736976 1.85630491

