# b3lyp 6-31G(2df,p) opt Freq 

 titel

0 1
O -0.958669383 -2.3517141261 -2.1148240355
C -1.6007866953 -1.2881378238 -1.4380554083
C -1.5215661348 0.0293131657 -2.2443369623
C -1.7161283356 1.3016137216 -1.3862336779
C -1.1374198467 1.0964716648 0.0334438647
C -1.9373218807 -0.0420307497 0.7385705137
C -1.0352377973 -1.0705655537 -0.0082148285
C 0.0042339532 0.063099671 -0.0478575159
O 1.2006681063 0.1152800041 -0.0237881133
H -0.0305782878 -2.1160986734 -2.22943258
H -2.6413270466 -1.6167078487 -1.334866985
H -0.5140096023 0.0642542859 -2.6793500266
H -2.2177722556 0.0032684094 -3.0868967716
H -1.2238851516 2.1459286209 -1.8781567719
H -2.776920012 1.5616381279 -1.295584097
H -0.9603332023 2.0348777378 0.560745898
H -1.783301833 -0.0610143806 1.8191186635
H -3.0070087687 -0.0865303701 0.5168797456
H -0.7783793063 -2.0223283731 0.4582486883

