# b3lyp 6-31G(2df,p) opt Freq 

 titel

0 1
C 1.5603870398 0.9798818728 0.5149928831
C 0.9228642071 -0.3393073165 0.0660988735
C 1.618992509 -0.9819267747 -1.1297702403
C 1.0965284311 -2.3538756923 -1.6615024794
O 1.0661691545 -3.4565903168 -1.2018455644
C 0.8180139656 -1.7548566967 -3.0335414951
O -0.056980231 -0.6300588004 -2.7704953578
C 1.3418181531 -0.442914198 -2.5578400042
C 2.0536082731 0.6319443755 -3.3134434107
H 1.0418960121 1.3877053083 1.3880455074
H 2.6128209466 0.8415959534 0.7867739525
H 1.5183683798 1.7372559712 -0.2751018961
H 0.9410223351 -1.0591696053 0.8930223861
H -0.1308205373 -0.1834402922 -0.1882191176
H 2.6970609842 -1.0914600484 -0.9464362105
H 0.7752543658 -2.2000503027 -4.0210011517
H 1.8526864037 1.6146957766 -2.8740298901
H 3.1353729467 0.4680472465 -3.288858265
H 1.721508811 0.6508679496 -4.3546807897

