# b3lyp 6-31G(2df,p) opt Freq 

 titel

0 1
C 1.4372863195 -0.1728894932 -0.0575771858
O 0.0485399525 0.0434976807 0.0682429686
C -0.3861607853 0.7413393762 1.2269392346
C 0.0490076572 0.0705763843 2.5329831106
C -0.0525844227 2.2572575576 1.1710637211
C -1.3951733282 2.9419013011 1.14623825
C -2.4293437794 2.0932387199 1.1250365079
C -1.9453558389 0.6997896186 1.14968891
O -2.598354586 -0.3147163294 1.1416680702
H 1.8229311062 -0.8816482689 0.6874295142
H 1.5940403207 -0.5980906078 -1.0519436664
H 2.0180768605 0.75902469 0.0168112643
H -0.2953851352 -0.9668080869 2.5389312795
H 1.1345348433 0.0953106339 2.663195461
H -0.3995035985 0.586753709 3.3879474291
H 0.5509206307 2.5992250303 2.0205806283
H 0.5166126963 2.4959429748 0.265209016
H -1.4797522593 4.0239868743 1.1452947374
H -3.4817665631 2.3441938755 1.0970218494

