# b3lyp 6-31G(2df,p) opt Freq 

 titel

0 1
C -0.0763050149 -0.0820723744 -0.0324439885
C 1.4348799404 -0.1388988969 -0.1038853947
C 2.1901355816 1.1420694051 0.1489735715
C 3.7307486255 0.9546126189 -0.013942499
O 4.0146242901 -0.4010062407 -0.3978520766
C 3.7421780888 -0.1045275872 0.9916719296
C 4.7484486664 -0.5581055181 1.9972889873
O 4.6548760684 -1.9510626426 2.2521259843
C 2.1960774463 0.0229270486 1.1873018048
H -0.4182494543 0.6249273566 0.7309456979
H -0.5011631366 0.2313266451 -0.9919454703
H -0.4916959941 -1.0650022972 0.213528302
H 1.8372952345 -0.821413652 -0.8435977826
H 1.7102510401 2.1102989144 0.2074969055
H 4.4623513192 1.7095869457 -0.2786234437
H 5.7516742965 -0.2698590076 1.6492288187
H 4.5671448619 -0.0627493102 2.9571146136
H 4.7797293933 -2.4002381663 1.40878839
H 1.7203951368 0.0058444687 2.1594249803

