# b3lyp 6-31G(2df,p) opt Freq 

 titel

0 1
C -0.452520378 2.0814026166 1.2224452871
C -0.7862398277 1.3354030234 -0.0809438791
C -2.2062139325 0.8020746462 -0.1320680297
C -2.6275749172 0.0099042226 -1.3394975254
O -3.9577624027 -0.0224864165 -1.7656256798
C -2.1752965754 -0.7367912594 -0.1137126168
C -0.7322715573 -1.1912247689 -0.0593984805
C 0.1127758058 0.0857146758 -0.2115498059
O 1.3030582507 0.1146731397 -0.383852149
H -0.671869807 1.4633090327 2.0997207092
H 0.608191974 2.3442349686 1.2446082414
H -1.0412726854 3.0001646717 1.3025111116
H -0.5570838403 1.9943937581 -0.9272141511
H -2.9804035597 1.3360678387 0.4115896728
H -1.9761204163 0.0120886425 -2.2108319334
H -4.5322112733 0.0283657401 -0.9949933311
H -2.92568519 -1.2905390604 0.4410344468
H -0.4858218693 -1.6435733288 0.9095667971
H -0.4475092683 -1.9169137526 -0.8281775341

