# b3lyp 6-31G(2df,p) opt Freq 

 titel

0 1
O -3.9594420539 2.854289513 1.7438236206
C -2.8771726413 3.1730881469 0.8944845288
C -2.4840904585 1.9139495588 0.0713700915
C -1.1071741636 1.9038190592 0.7597779463
C -0.356243748 0.667966413 1.1936471693
C 0.2941423778 -0.0373618724 0.0196150714
O 1.46022749 -0.3290184163 -0.046728883
C -0.4237348503 3.2232646684 0.5104529461
C -1.4941085959 3.1441081873 1.5662320542
H -4.1117994606 3.606418426 2.3255237605
H -3.0872887723 4.0822568371 0.3115214469
H -3.1197572877 1.0802509782 0.3786271172
H -2.4945750942 1.9982330744 -1.0196602155
H 0.4244060526 0.9093162963 1.9215369677
H -1.0547425074 -0.0395120006 1.6650423245
H -0.4023500347 -0.2746239216 -0.8182408406
H 0.5928569437 3.3012185019 0.8835500345
H -0.6003055965 3.7741305256 -0.4115907631
H -1.3016025692 3.3722388649 2.6089172026

