# b3lyp 6-31G(2df,p) opt Freq 

 titel

0 1
C -0.6860068992 -1.0332453462 -1.3872393324
C 0.4133699586 -0.5211877548 -2.2720085165
C 0.2665550522 -0.226352245 -3.7777112604
C 1.7297993514 -0.742478357 -4.0061602613
O 1.8515187696 -1.8834271117 -4.8208239055
C 1.8342813029 -0.9919999392 -2.4955058298
C 1.5903918635 0.3276813526 -1.7696300511
C 1.8909851844 0.3472383455 -0.3196912503
O 1.8432226117 -0.6131715079 0.4163716078
H -0.3059992018 -1.3104974923 -0.402511802
H -1.4691385603 -0.2769353968 -1.2577766129
H -1.1539851181 -1.9169685622 -1.8357414032
H -0.447263232 -0.8954859687 -4.267854148
H 0.0322964008 0.8049743791 -4.0607206527
H 2.4389819425 -0.0167942845 -4.4156223028
H 1.2729057414 -2.5691129121 -4.4683380489
H 2.3949321856 -1.7746569457 -1.9966748477
H 1.8075834858 1.2614695721 -2.2852009957
H 2.182942121 1.3459760749 0.0740413835

