# b3lyp 6-31G(2df,p) opt Freq 

 titel

0 1
C 0.1917756228 -0.5961335715 -0.4143564201
C 1.5352078821 -0.039782069 -0.0275086942
O 1.7095112125 1.3751164799 -0.2190840421
C 2.5437350469 0.4790198485 -0.9721034194
C 3.9457414757 0.3909926563 -0.3986678311
C 3.754657116 -0.2609970926 0.982424211
O 3.988158051 -1.6915176925 0.9479954504
C 2.6275883584 -1.9789988114 1.3246621108
C 2.2385154672 -0.4896873402 1.2407094883
H -0.5587666899 -0.3492678073 0.3448615416
H -0.1376726439 -0.1720807543 -1.3659428242
H 0.2251320194 -1.6859035532 -0.5115394531
H 2.378959101 0.4905457988 -2.0474305792
H 4.6017106265 -0.2388853121 -1.0074070183
H 4.3917092434 1.3884983688 -0.3309981695
H 4.3385920262 0.2124704802 1.7781251457
H 2.1399573575 -2.6620523871 0.6180382731
H 2.5650833037 -2.4100950862 2.3321181573
H 1.7936019934 -0.0512685551 2.1360047133

