# b3lyp 6-31G(2df,p) opt Freq 

 titel

0 1
C 1.4754925845 -0.4060056352 0.0977252139
O 0.0795137917 -0.1780394171 0.1818255422
C -0.3595558757 0.6182577946 1.2461315319
C 0.0669839843 0.1155683954 2.6212993966
C -1.8633225536 0.9176892368 1.1183937159
O -1.6411358933 2.3386683106 1.2407250167
C -0.2068753119 2.1869130932 1.0967915717
C 0.3003948082 2.6869159738 -0.1695435208
C 0.7215818914 3.1184938158 -1.2097919283
H 1.8395318255 -1.0571148853 0.9035412299
H 1.6487398551 -0.9049025085 -0.8582258205
H 2.0429849702 0.5330358749 0.1099131812
H -0.2278089159 -0.931019718 2.7477495469
H 1.148544204 0.1924407397 2.7668519713
H -0.4176388935 0.7091488377 3.4015473167
H -2.2583167427 0.6432763026 0.1337131016
H -2.5174347392 0.5341545459 1.9084600062
H 0.3158370878 2.673720765 1.9295170245
H 1.0881595531 3.4977080681 -2.1317082975

