# b3lyp 6-31G(2df,p) opt Freq 

 titel

0 1
C 1.6083719811 -0.3284091988 0.0283718832
O 0.2351045037 -0.0049670262 -0.0499693879
C -0.3741098629 0.5946352698 1.0917466116
C -0.1050698571 -0.1340957933 2.4049468248
C 0.0376099193 2.1017999713 1.1469077512
C -0.586387726 2.8626867405 2.218470692
C -1.1083612534 3.4871889293 3.102402682
C -1.8647084609 0.5310443287 0.7301609832
O -2.7576718501 0.3699421587 1.5158282546
H 1.814214167 -1.0910355313 0.7899169231
H 1.882502668 -0.7295296865 -0.9501780316
H 2.2409541467 0.547015461 0.2308462416
H -0.2858053227 -1.2058150536 2.2852036388
H 0.9212438702 0.0175146033 2.7498401708
H -0.7874349644 0.2442995289 3.16717876
H 1.1281210112 2.1504086575 1.2509774038
H -0.1997672632 2.5501895556 0.174255185
H -1.5750234806 4.0369796977 3.8818338162
H -2.0440016461 0.6559489176 -0.3602932125

