# b3lyp 6-31G(2df,p) opt Freq 

 titel

0 1
C 0.17280286 -0.3871616039 -0.0649213428
C 1.4653355956 0.3425814718 0.1607313887
C 1.7366137072 1.7315835739 -0.3629120917
C 2.5549795232 0.5463349546 -0.8519735636
C 3.8638122735 0.3086107448 -0.1374522108
O 4.3805710866 -1.0285943453 -0.3231600174
C 4.032575881 -1.4062899865 1.0286944788
C 3.4488312233 -0.0055198143 1.3202998227
O 2.0393921902 0.0693220413 1.433002304
H -0.5600707692 -0.1176676763 0.7025844928
H -0.2483034606 -0.1311693627 -1.0411614331
H 0.3245773131 -1.4705302811 -0.0248554951
H 1.0329369644 2.1694802304 -1.063193748
H 2.2033506029 2.4415193561 0.3130647261
H 2.4638424563 0.2116572866 -1.87906241
H 4.6325327805 1.0662791666 -0.3259704478
H 3.2953146342 -2.2160025203 1.067179517
H 4.919532844 -1.6832097944 1.6110554494
H 3.9077197739 0.5513969287 2.1389667108

