# b3lyp 6-31G(2df,p) opt Freq 

 titel

0 1
C 1.510532293 0.0958428598 -0.050297858
O 0.1445504542 -0.2096874479 0.1764364114
C -0.4633479068 0.5855388395 1.1986724433
C -1.9514044826 0.5544529353 0.997172553
C -2.7967711425 -0.0261908044 1.8479823802
C -2.3694209029 -0.7573448483 3.0917808119
C -0.8784379915 -1.1468914872 3.0450367912
C -0.0398992811 0.0175121522 2.562640565
O 0.9215900098 0.4502803055 3.1560784068
H 2.1247608021 -0.0549164924 0.8462167848
H 1.8538242541 -0.5757714328 -0.8406979518
H 1.6354412721 1.1369233146 -0.3835221281
H -0.0853763014 1.6175761937 1.136016753
H -2.3178805973 1.0476725125 0.1011095574
H -3.8652206796 0.0173125237 1.6501527916
H -2.5643112949 -0.1322705186 3.9747127445
H -2.9842863219 -1.654736653 3.2258489978
H -0.5071519532 -1.4875837319 4.0134868377
H -0.7513645496 -1.9547783104 2.3131346683

