# b3lyp 6-31G(2df,p) opt Freq 

 titel

0 1
C 6.6200066538 0.4939506365 1.1514259585
C 5.1204003278 0.6322359284 1.3479162676
O 4.5161813389 -0.6167329603 1.0443805105
C 3.1173993813 -0.6676774121 1.2269990041
C 2.3768689625 -0.2055315866 -0.0606627453
C 0.9363649578 -0.0922423899 0.1043604119
C -0.2509570472 0.0047632203 0.2586404288
C 2.7892250488 -2.1241949019 1.5353016886
O 1.8471140729 -2.4886694213 2.1843300905
H 7.021331863 -0.2870459783 1.8030497815
H 6.8495323109 0.2286998294 0.115649079
H 7.1209234531 1.437222862 1.387826626
H 4.8869410287 0.9141451025 2.3868166437
H 4.7213180992 1.4263933445 0.698124282
H 2.7926463187 -0.0502165934 2.0752151096
H 2.7961805522 0.7636479755 -0.3557519094
H 2.620418964 -0.9047780063 -0.8705073775
H -1.3011710428 0.0800199252 0.3957060572
H 3.5185954964 -2.834578834 1.0849389926

