# b3lyp 6-31G(2df,p) opt Freq 

 titel

0 1
C 2.4377704754 4.5554546907 -1.6416942045
C 3.0280610748 3.3716494313 -0.8747971006
C 2.3737828842 3.0841936956 0.5006655108
C 1.5483859692 1.9219747975 -0.1338808337
C 2.4903387356 1.98125393 -1.3766261403
C 1.5368984882 0.6248285883 0.6267342345
O 0.5498328791 0.0085381948 0.9349447277
C 4.537109902 3.439761586 -0.8809746227
O 5.2425650839 3.3103678117 0.0869133677
H 2.6564821503 5.5019347013 -1.1358151907
H 2.8456107606 4.610790268 -2.6575077319
H 1.3505267259 4.4621546056 -1.7239582099
H 3.1202498204 2.7324471055 1.2182067728
H 1.797018272 3.8924235974 0.9539880338
H 0.5206855015 2.2035381853 -0.3688993441
H 3.2564231271 1.1994993745 -1.3506044395
H 2.0070163084 1.9671409801 -2.355657266
H 2.5551289959 0.2572046471 0.9023389005
H 4.9793495054 3.5961734792 -1.893686174

