# b3lyp 6-31G(2df,p) opt Freq 

 titel

0 1
C 0.3783141883 -2.0457152562 -2.1617857176
C -0.6286829557 -0.9686017733 -1.7488814554
C -1.0438940707 -1.0759258351 -0.2677276295
C -0.1230021982 -0.2425358846 0.619818771
C 1.302253083 0.1131566248 0.1017688876
O 1.2882450056 1.3314043927 0.9264952479
C -0.0563263336 1.2775380556 0.3243573395
C 0.622594677 0.9408457754 -1.03608816
O -0.1053259442 0.332748948 -2.0573984345
H 1.2659831247 -2.0422135794 -1.5212534577
H -0.0783495777 -3.0389161379 -2.0973386992
H 0.701138218 -1.8777578611 -3.1924818043
H -1.5137064199 -1.0645855463 -2.3858354437
H -2.0750001981 -0.7289598986 -0.1311168314
H -1.024834637 -2.1278370115 0.0362336827
H -0.1650059396 -0.4874152814 1.683275266
H 2.2196071671 -0.4768444655 0.1013163105
H -0.7639420785 2.0661574652 0.5827301494
H 1.2311580595 1.7411658691 -1.4585429212

