# b3lyp 6-31G(2df,p) opt Freq 

 titel

0 1
C 1.665833354 -0.5966344639 -1.0256952507
C 1.2846633419 0.2365135016 0.1928083585
C 2.0057428098 1.6180484371 0.4649508759
C 1.2452657981 2.0732069795 1.7093251654
C 1.1772608586 0.9649536476 2.4592598148
C 1.9157797016 -0.0644673141 1.6020335387
O 2.0788409734 -1.3915501692 1.9992405561
C 3.1571692637 0.816198199 1.1934339699
O 4.1231509847 0.1807332859 0.3976343273
H 1.3664850826 -1.6397126625 -0.8728746542
H 1.1229130587 -0.2276572611 -1.9030849533
H 2.7306316182 -0.5681040258 -1.2480943695
H 0.1950179769 0.3118005817 0.2470015041
H 2.2166087104 2.3318915335 -0.3287493934
H 0.8801456003 3.069705738 1.9145182769
H 0.7408757152 0.7965975828 3.4347214785
H 2.3364246451 -1.4096114255 2.9276978129
H 3.6390662519 1.3676272611 2.0114349352
H 4.116125225 -0.7530233956 0.6426239769

