# b3lyp 6-31G(2df,p) opt Freq 

 titel

0 1
C 4.7559586567 -0.3264656607 1.6139275868
C 3.4746247844 -0.5334990195 0.867367848
O 2.7154063999 -1.7239159091 1.1183899502
C 2.0967042755 -0.4544225623 1.350800357
C 1.3932501075 0.1345478226 0.0836181626
C -0.1035308114 0.2258451269 0.0197515571
C 2.3871929587 1.289171703 -0.2672962055
C 3.2354977007 0.02572718 -0.573730514
O 2.0180372858 -0.6431865979 -0.9807008395
H 4.6422101769 -0.6083658257 2.6636989009
H 5.5592173423 -0.9351278627 1.1837287092
H 5.0707279826 0.7217933362 1.5656147551
H 1.7802162085 -0.2267209295 2.3638612149
H -0.4840603095 0.8411289049 0.8418317724
H -0.4287977503 0.6686496263 -0.9255202693
H -0.5459598606 -0.7715871941 0.1059502122
H 2.0946817626 1.8331893018 -1.1675864855
H 2.7111853749 1.9684599452 0.5274707594
H 4.0410122849 -0.0101410955 -1.306761162

