# b3lyp 6-31G(2df,p) opt Freq 

 titel

0 1
O 0.554297939 -0.1103499622 0.4203519128
C -0.678934756 0.5452836698 0.3010901509
C -1.9733682825 -0.2778653759 0.3737729579
C -2.0784831064 -0.9492529103 1.7058547567
C -2.4119341119 0.517710074 1.6212534687
C -1.1339511619 1.3283120478 1.5790244539
C -1.0813639611 2.863743832 1.6367583732
C -0.0006235719 2.6525719162 2.713595734
O -0.2053687 1.2183942692 2.6911177947
H 0.8323482806 0.0326357188 1.3377598118
H -0.6646410303 1.192780657 -0.5844265397
H -2.5740943727 -0.5744439398 -0.4767467383
H -2.9337539833 -1.6040253102 1.835027692
H -1.1835375407 -1.2761454971 2.2258141564
H -3.3895040347 0.9047073298 1.8834958529
H -0.7665232651 3.3627357371 0.7185677387
H -1.9988735353 3.3275354658 2.0047103584
H 1.0187912873 2.921324735 2.4145893094
H -0.2078903231 3.0703407829 3.7039323454

