# b3lyp 6-31G(2df,p) opt Freq 

 titel

0 1
O 0.5134691319 0.0760641873 0.7996480058
C -0.858663487 0.3907616072 0.8524840297
C -1.4049071868 0.445843627 2.281226777
C -2.8930064524 0.6425403849 2.4212951106
C -1.9690162792 1.8210513972 2.5804560333
C -1.7952131669 2.6978972156 1.3593466577
C -0.4891126275 3.5141491155 1.2987785794
O 0.0888602287 2.6108827748 0.3230622236
C -1.1242985645 1.8144790944 0.269938288
H 0.9705729201 0.9311181194 0.7803700968
H -1.3868709259 -0.3710317713 0.2654681564
H -0.8749951414 -0.1356888282 3.0261729017
H -3.5083303849 0.583707069 1.5262171928
H -3.3742312748 0.2528583294 3.3113871784
H -1.8658593724 2.2746273945 3.5610035441
H -2.6958211059 3.2453294966 1.0733678612
H -0.5827318695 4.5257896998 0.8883769861
H 0.0989956029 3.5500132743 2.2231003998
H -1.5419137846 1.8105532727 -0.7405467623

