# b3lyp 6-31G(2df,p) opt Freq 

 titel

0 1
C 1.3885558548 -0.1885430549 -0.0436027745
O -0.0196942859 -0.1161551157 0.1053232703
C -0.4168088678 0.5598356195 1.246491489
C -1.8111683573 1.0425666194 1.2247039267
C -2.2224309037 1.6344212199 2.5760435395
C -1.0195579842 2.6338561366 2.5145269596
C -0.6298793641 2.0764008773 1.1457058583
C -0.2339699315 2.8642953771 -0.0202187235
O -0.0299712873 4.0592064938 0.0082795018
H 1.8556611793 -0.6811514042 0.8209449718
H 1.5828050804 -0.7807233573 -0.9398673455
H 1.8357335593 0.8078707426 -0.163235033
H 0.0256346193 0.1853488807 2.175676971
H -2.4678649225 0.7537389229 0.4128922103
H -3.1862804967 2.1439866447 2.531093592
H -2.2375647864 0.9295385698 3.4133406655
H -1.3256757345 3.6791297522 2.4573517875
H -0.2629159256 2.531386015 3.2986602394
H -0.1482167356 2.2854609306 -0.9647978163

