# b3lyp 6-31G(2df,p) opt Freq 

 titel

0 1
C 0.7571007108 4.0324853417 0.3698931049
C 1.5538183093 2.7497825283 0.3484478522
C 2.8803138754 2.6685626062 0.9782442831
O 2.7520553501 2.7558993421 -0.4435287355
C 0.7538718577 1.4962551241 0.1897865386
C -0.2869631572 1.1273249187 -0.9063370574
C -0.3525059692 0.0901435982 0.2355371295
C 1.191515503 0.0107720796 0.2556958202
O -0.2857031237 1.2007051704 1.2171532733
H 0.0213774724 4.0045946698 1.1788773895
H 1.4158484277 4.8921852841 0.5125316128
H 0.2177608937 4.1649899607 -0.5735570425
H 3.2878128743 3.5534179725 1.465238813
H 3.2476738155 1.7171278743 1.3573777283
H -1.1476554425 1.7932610706 -0.9746547466
H 0.0898406694 0.8058149995 -1.8800548961
H -1.0864055849 -0.6936559534 0.4184920758
H 1.6224042978 -0.3035341412 1.2070369743
H 1.7013235304 -0.4121430364 -0.6123856372

