# b3lyp 6-31G(2df,p) opt Freq 

 titel

0 1
C 1.3168806254 -0.0277844674 -0.1398003266
O -0.08121569 -0.0341414486 0.0339449999
C -0.5068404 0.8015760546 1.0887490827
C -2.0238122822 0.6909899373 1.1991022272
C -2.4747300876 -0.7647620953 1.5035117535
C -3.9164718009 -0.9593561166 1.4231066867
C -5.1074713341 -1.1019406777 1.3428103667
C -2.5787675021 1.6590793739 2.2248367001
O -1.9155444602 2.4705385658 2.8220057032
H 1.8407823951 -0.3832564385 0.7611974608
H 1.5458387983 -0.6986097961 -0.9711368956
H 1.6923083448 0.9789957472 -0.3795730949
H -0.0333047241 0.5047446219 2.0394371044
H -0.2219874825 1.8477593063 0.9051386194
H -2.4691401651 0.9672131698 0.2322147559
H -1.9675602823 -1.4163583377 0.7852382758
H -2.1127872504 -1.0561794693 2.4984623966
H -6.1579760931 -1.2422493194 1.2763385154
H -3.672025799 1.5676410098 2.3985444487

