# b3lyp 6-31G(2df,p) opt Freq 

 titel

0 1
O 1.1549408716 1.1057651815 -1.74884565
C 2.1137756201 0.2178146306 -1.2355110623
C 3.5714084096 0.5449681755 -1.7467784331
C 3.8296594255 -0.7111710393 -2.5999640293
C 3.3789558744 -1.8405699412 -1.6312299695
C 1.9769647556 -1.2020739283 -1.8605545925
C 2.463030499 -0.9170561149 -3.3121550802
C 2.0113762827 0.2049159559 0.2713714654
O 1.2081664721 0.8873519876 0.8645326559
H 0.6896464514 1.4630408866 -0.9754232397
H 3.5350760769 1.4736747888 -2.3195613876
H 4.3033551063 0.6588172381 -0.9401376418
H 4.7758680606 -0.7564039107 -3.1389477012
H 3.4466162166 -2.8349877936 -2.078242213
H 3.8055773324 -1.8625075613 -0.6241901895
H 1.045373696 -1.7270536811 -1.6492343861
H 2.4449750996 -1.8169097174 -3.9310236654
H 2.0142816198 -0.0744963804 -3.8405949211
H 2.7080937297 -0.4628733664 0.8141417109

