# b3lyp 6-31G(2df,p) opt Freq 

 titel

0 1
C -1.2629245503 2.4669539149 -0.1066854974
C -1.2562689789 0.9671646965 -0.1410519508
C -1.5409025419 -0.0088925965 -1.3370597075
C -1.2536206737 -1.0141534918 -0.1661375854
C -1.2562705676 -2.5143433865 -0.1697982669
C -2.1348439417 -0.0354337997 0.6967981542
O -2.0774315379 -0.0529884548 2.0915568189
C -0.1307694561 -0.0264449595 0.1980925111
O 0.9940986428 -0.0300904201 0.6050125126
H -1.111005036 2.8252417078 0.916685465
H -0.4624494829 2.8803768438 -0.7283532447
H -2.2154360793 2.870014076 -0.4655464304
H -2.5757523719 -0.0057889988 -1.6906497158
H -0.8304770151 0.0025212712 -2.1644943297
H -1.1023399194 -2.8980707988 0.8440037542
H -2.2080854283 -2.9107107793 -0.5378469792
H -0.4553530189 -2.909729453 -0.8025300256
H -3.1920828143 -0.0333512568 0.4198141979
H -1.1560947787 -0.0553979045 2.3788745394

