# b3lyp 6-31G(2df,p) opt Freq 

 titel

0 1
C -0.0963080141 0.1228726002 -0.0306508881
C 1.400626104 0.1380228093 0.0538815822
C 2.3183254924 1.3660311485 0.0504687177
C 3.437730263 0.3943448592 0.5033873099
O 4.5741057741 0.8131841869 1.1713947506
C 3.6592071591 -0.5254479587 -0.7201961301
C 2.2541963658 -1.042970812 -0.4243002463
O 1.6218933576 -2.1308395033 -0.9915042527
C 2.3041227415 -0.6083863292 1.0264580896
H -0.5462424646 0.7275101916 0.7647764699
H -0.4407996108 0.5247433931 -0.9906859523
H -0.4785381902 -0.897855653 0.0539147029
H 2.4746865256 1.9231661117 -0.8814859601
H 2.0339540371 2.0584636951 0.8525253195
H 4.3079103636 1.4168673944 1.8731833067
H 3.8679976432 -0.0478141815 -1.6841063659
H 4.4199079938 -1.2808865898 -0.4978157915
H 2.0976265445 -2.9266997999 -0.7299960226
H 2.1061207643 -1.1172949826 1.9593183506

