# b3lyp 6-31G(2df,p) opt Freq 

 titel

0 1
C -0.077902232 -0.7195139337 0.027782049
C 1.3344074138 -0.2580511084 -0.130973778
O 1.746604069 -0.3434408272 -1.4998495146
C 0.7391124763 0.6467149581 -1.8705767238
C 0.2025271489 0.6933865684 -0.4433116713
C 1.416914198 1.9166377499 -2.3425599526
C 1.9862385686 1.9169945897 -3.7771787309
C 0.9384755304 3.0183712256 -4.0380804896
O 0.4436055987 2.932753875 -2.682348597
H -0.4774548729 -1.464845977 -0.6547478806
H -0.4370129223 -0.7891625499 1.0501359392
H 2.1031765418 -0.2771626575 0.6325643004
H 0.0569959299 0.2679337603 -2.6430453336
H -0.1520768484 1.5793830701 0.0646540895
H 2.1119615926 2.2672935489 -1.5685982778
H 3.0286668845 2.2225827645 -3.8683762177
H 1.836714965 0.9856473168 -4.3264217305
H 1.343041261 4.0134868792 -4.2593038253
H 0.1592169571 2.7829265073 -4.7725912146

