# b3lyp 6-31G(2df,p) opt Freq 

 titel

0 1
C 1.3966954987 -0.1679639015 0.0385132093
O 0.0069787118 0.1039292288 0.0675435514
C -0.4106872899 0.7755710444 1.213143489
C -0.5588798615 -0.0069834821 2.4900286115
C -1.7925812277 0.4951495112 1.7552798686
C -2.3637680157 1.8154540613 2.2146593584
O -1.6333533807 2.4437677034 3.2804145753
C -1.3923917075 2.8886534389 1.938749455
C -0.1590123726 2.2932580442 1.2757426727
H 1.7120089662 -0.758457936 0.9100802497
H 1.5901355723 -0.7409592164 -0.87128621
H 1.9949145893 0.7539963359 0.008646257
H -0.3682980741 -1.0722402168 2.4156377207
H -0.3124199541 0.4554252539 3.4378610761
H -2.4444985376 -0.2198850024 1.2692629317
H -3.4385753022 1.9698862795 2.2358720729
H -1.6712828828 3.9210370788 1.7413496571
H -0.0824046417 2.6683367357 0.2489695351
H 0.7595380697 2.5665843392 1.8051543287

