# b3lyp 6-31G(2df,p) opt Freq 

 titel

0 1
C -0.1060557685 0.0546802763 0.178790824
C 1.4003459596 -0.0489756728 -0.0156686322
O 1.9330703227 -1.0483574823 0.8503371071
C 2.2642725757 1.2147986402 -0.0314781749
C 3.2257410566 0.6004338534 -1.0293662285
C 2.0127747762 -0.3372800244 -1.4195470568
C 1.4955745181 0.7868375118 -2.3598084634
C 2.3433648824 1.7173232221 -1.4942643763
O 2.7604033947 2.9973853134 -1.7946680058
H -0.331840447 0.348099874 1.2118315753
H -0.560730192 0.8007393245 -0.4776519513
H -0.5817526319 -0.9140456735 -0.0037797976
H 1.8143318664 -0.7475894669 1.7575505869
H 2.5036475914 1.8879352836 0.7844701602
H 4.2964623177 0.4696311319 -1.0139967119
H 2.0874029536 -1.3687919278 -1.7551684527
H 1.9304076449 0.6972139593 -3.3595896421
H 0.4142364359 0.9430772157 -2.4429535893
H 2.0582073534 3.6111497013 -1.5519902306

