# b3lyp 6-31G(2df,p) opt Freq 

 titel

0 1
O 2.9209349265 -0.5353214633 2.3655913372
C 1.6167493168 -0.7648869722 1.9565171231
C 0.3415723064 0.0800288842 2.1956280264
C -0.0833511967 -1.0759002478 1.2520819654
C 0.7776323868 -2.0783009779 2.0847001291
C 1.3767978514 -3.1400299634 1.157266299
C 1.7156766633 -2.2569582742 -0.071719975
C 1.2369088645 -0.8964497355 0.4473602225
O 1.3191543606 0.2034509273 -0.4067471242
H 2.9405098532 -0.4829509836 3.3271555797
H -0.08056543 0.0629885013 3.2048732193
H 0.3333512106 1.0817831719 1.764340157
H -1.0713289834 -1.2637860875 0.8366900091
H 0.4110004522 -2.3736946979 3.0691869326
H 2.2636141815 -3.6064459791 1.5969461571
H 0.6650945008 -3.937018452 0.9222253102
H 2.785865674 -2.2439123887 -0.3045605148
H 1.1794190577 -2.5478964029 -0.9795521075
H 2.2519523837 0.3877420513 -0.5624464962

