# b3lyp 6-31G(2df,p) opt Freq 

 titel

0 1
C -0.0556549408 0.0367982932 -0.1275767794
C 1.4618186521 0.0408448936 -0.0750535067
C 2.0358977029 -0.3341100729 1.3188786801
O 2.2756105423 1.0574994739 1.6147751408
C 2.0824408277 1.4325102118 0.2154289469
C 3.3840468764 1.6686572734 -0.4831213381
C 3.9395643531 0.7294921656 -1.2448627758
C 3.2916380025 -0.5986177947 -1.5060134049
O 1.9038793236 -0.6403999016 -1.2237759863
H -0.4682479783 0.5538096474 0.7429514739
H -0.4036532979 0.5376360128 -1.0357114022
H -0.4296151379 -0.9913786068 -0.137343176
H 1.3439137967 -0.7956634788 2.0316216895
H 2.9659673219 -0.9165522354 1.287076109
H 1.4092812746 2.2945542134 0.1418745909
H 3.8864905988 2.6151843107 -0.3037136216
H 4.9136924353 0.8819980195 -1.7031060894
H 3.3838916945 -0.8652201637 -2.5654894271
H 3.8270784725 -1.3837973113 -0.9426888435

