# b3lyp 6-31G(2df,p) opt Freq 

 titel

0 1
C -3.9861739922 0.6004502164 -1.0815324638
C -3.0210684484 1.3641879036 -0.1679059565
C -3.1199686801 0.8843563997 1.2915113423
O -1.6798724947 1.3635776396 -0.6698039983
C -0.9718319846 0.1354434022 -0.7000235413
C -0.1987792274 -0.1354644031 0.5149815466
C 0.4600910484 -0.3586635853 1.4949513122
C -3.3766008916 2.8569578535 -0.1720280948
O -4.4999229605 3.2815885993 -0.1172242251
H -3.8772599463 -0.4826982968 -0.9745100237
H -5.0120421021 0.8697571034 -0.8197129532
H -3.8134285095 0.8714715092 -2.1267077875
H -2.8681147607 -0.176243271 1.3741995651
H -2.4375858084 1.4451870803 1.9356304569
H -4.1432291164 1.0274967058 1.6491876303
H -1.6384143792 -0.7106691652 -0.9118803786
H -0.2823464296 0.2112265813 -1.5489323627
H 1.0384793362 -0.5573676736 2.3633773044
H -2.4855854731 3.5200108107 -0.2037997123

