# b3lyp 6-31G(2df,p) opt Freq 

 titel

0 1
C -0.1510293115 0.1757470715 -0.021627087
C 1.0456415601 0.0773785103 0.0263695697
C 2.4937614793 -0.0436118739 0.1218722467
C 2.9697801839 -0.160604814 1.5734995865
O 4.3789320683 -0.2717208198 1.5492451951
C 4.9610089804 -0.3492548329 2.8205352846
C 6.4868301576 -0.5176640763 2.7781475115
O 6.4191356789 -1.7134187434 3.5828958439
C 4.9776991887 -1.726728335 3.5308083183
H -1.2076081473 0.2630517295 -0.0800013416
H 2.8405553589 -0.9240931288 -0.4317559292
H 2.9812572108 0.8246871558 -0.3368564287
H 2.6592973393 0.7260605381 2.1478188338
H 2.5105870411 -1.0403784946 2.0488719721
H 4.6095859574 0.4723084697 3.4601012026
H 6.8578678763 -0.7134866488 1.7643807524
H 7.0911738813 0.264855725 3.2493983195
H 4.5903223193 -2.5402795999 2.9027174836
H 4.5316745773 -1.7866867725 4.5299989662

