# b3lyp 6-31G(2df,p) opt Freq 

 titel

0 1
C -2.9979928852 2.7111740151 1.737940714
C -1.5098704374 2.7467081186 1.4436955562
C -0.6262363469 2.7043550528 2.6739772484
C -1.0510749689 3.4999505781 0.2443507262
C -1.0837247343 1.9780965541 0.1629813524
C 0.1848714638 1.2386317084 0.1000821355
O 1.2726431834 1.6324982398 0.4780403569
C 0.1294054674 -0.1720809301 -0.5077186513
O -0.8662419955 -0.6840226703 -0.9472651638
H -3.2816678954 3.5679093803 2.3602615418
H -3.5939719604 2.7502714181 0.8214817493
H -3.2712130365 1.8006014768 2.2819987394
H -0.8534798531 1.8277656556 3.2911089704
H 0.432579213 2.676602089 2.4137011717
H -0.8071341458 3.5947615189 3.2869516396
H -1.778254531 4.0352946231 -0.3569507071
H -0.0571713422 3.9349706341 0.2692204744
H -1.8917913009 1.5092692148 -0.3852310809
H 1.1228318757 -0.6689140373 -0.5029067634

