# b3lyp 6-31G(2df,p) opt Freq 

 titel

0 1
C -2.9946933588 -1.0896399237 -1.4849423979
C -2.2928208192 -0.8187647107 -0.1482517464
C -2.1381821398 0.6951810998 0.1207673437
O -0.8430642904 1.0699904068 -0.383236618
C -0.033050711 -0.0206365348 -0.4708270515
O 1.128039022 0.0564397399 -0.7613234149
C -0.8315349245 -1.244811819 -0.1414639545
C -0.2912284482 -2.5843324549 -0.5690930088
C -0.2116831097 -2.1927048816 0.8739367029
H -3.0269107901 -2.1599988487 -1.7074364433
H -4.0247442853 -0.7191667607 -1.4640102115
H -2.4731108165 -0.5922293419 -2.3095879289
H -2.8569314531 -1.2885667551 0.6629464333
H -2.8828299017 1.3023767858 -0.3990693166
H -2.1740103659 0.9290267051 1.1909015482
H -1.0096282812 -3.3438125149 -0.857126756
H 0.6246572525 -2.5651494872 -1.1492879126
H -0.8867723452 -2.6676822922 1.577898317
H 0.757543446 -1.9175407418 1.2740554157

