# b3lyp 6-31G(2df,p) opt Freq 

 titel

0 1
O 0.5552640308 0.4086717954 0.3470544513
C -0.4045819967 1.4041848017 0.4886964471
C -1.0457369028 1.6391554062 1.8703988187
O -0.8915611387 3.0683078426 1.7618021019
C -0.2204280675 2.9755052887 0.4897595128
C -1.1970984188 3.0901271194 -0.6873908774
C -0.5022608999 2.9778850498 -2.0702764152
C -0.7267923998 1.4369963502 -2.073532027
C -1.3988557279 1.5163694953 -0.6798136707
H 1.1600943542 0.450380434 1.0958514278
H -2.0909976856 1.3309011621 1.9977779368
H -0.451218885 1.2302944666 2.7024145027
H 0.7206839026 3.5341423785 0.4642428741
H -2.0059714525 3.8106256127 -0.5672147122
H -1.0317611918 3.5029056774 -2.8682562181
H 0.5412040921 3.3080876428 -2.0868077587
H -1.4163000385 1.1076255315 -2.8539482872
H 0.1676128233 0.8130134538 -2.1155787212
H -2.3588397976 1.0125381914 -0.5519646957

