# b3lyp 6-31G(2df,p) opt Freq 

 titel

0 1
O 0.3830833128 0.2456209017 0.6528498402
C -0.9231495433 0.7170743401 0.4132610967
C -1.9759442833 -0.1422532219 1.0584653678
C -1.7198471004 1.2397077892 1.5976551516
O -2.7550829101 2.142037312 1.3611474314
C -2.3714091002 3.4803275043 1.1009568109
C -1.1935195762 3.626359905 0.1110299488
C -1.2497627576 2.6729704688 -1.0592807831
C -1.1344103274 1.3504899644 -0.9175172328
H 0.9892334181 0.9750401363 0.4796294484
H -2.9124845895 -0.286217764 0.5325969616
H -1.6193225591 -0.9871439836 1.6363458112
H -1.1979073322 1.3386142412 2.5505089624
H -3.2707997366 3.9536370506 0.6949358752
H -2.1119625377 4.0010783696 2.0362497378
H -1.1745739063 4.6653788166 -0.2330656494
H -0.2572161344 3.4729892103 0.6598704006
H -1.3935323807 3.0951335504 -2.0507654682
H -1.1429883158 0.6953284091 -1.786080211

