# b3lyp 6-31G(2df,p) opt Freq 

 titel

0 1
C -2.9765332122 -1.1713151696 -1.2268661608
C -2.3666076753 -0.8007214353 0.1295854364
C -0.8692784706 -1.2108680043 0.2139735513
C -0.1043776267 0.057787298 -0.1471495435
O 0.9558124669 0.1504305165 -0.7262129459
C -0.9407079892 1.2426969374 0.1827373892
O -0.5758225578 2.4327466039 -0.4134103405
C -1.6211702786 1.2412597009 1.5371267402
C -2.3645704919 0.7191586414 0.3389657627
H -2.9743362952 -2.2554961487 -1.3769092799
H -4.0117511453 -0.8225305384 -1.2999650074
H -2.4124780038 -0.7166791336 -2.0493425983
H -2.9439657947 -1.2893619406 0.9236005132
H -0.5820001719 -1.5292828105 1.2229046398
H -0.6025783751 -2.0224283405 -0.4661719554
H 0.2622897331 2.2371106548 -0.8611514379
H -1.2969725032 0.565405436 2.3229110963
H -1.8919124245 2.2352701936 1.8761295123
H -3.197163224 1.3007587788 -0.041858882

