# b3lyp 6-31G(2df,p) opt Freq 

 titel

0 1
C 3.4289242252 1.9613940737 -3.0879469206
C 2.7311003824 1.0376306695 -2.1305324295
C 2.5425117245 1.3310754312 -0.8401886566
C 1.8156287622 0.4130374442 0.080881611
O 0.5342984445 0.8393768353 0.5737868112
C 0.5715406249 -0.2353105081 -0.3708776189
C 0.0322427399 0.1074217477 -1.7508381492
O 0.8080487219 -0.3932345355 -2.8294404253
C 2.2247359291 -0.2878670553 -2.6892262797
H 3.7481338593 2.8871940662 -2.602342614
H 4.312833625 1.4824157197 -3.5282325838
H 2.7672139461 2.2201658461 -3.9243329084
H 2.9124075671 2.2647348856 -0.4214450497
H 2.412948383 -0.0885306047 0.8448534301
H 0.3118232051 -1.2097607572 0.041628886
H -0.9665007969 -0.3161848767 -1.894935833
H -0.0531875774 1.2003848846 -1.7962130635
H 2.5973987594 -1.1110105055 -2.0629647186
H 2.6154509747 -0.4469102508 -3.6983500977

