# b3lyp 6-31G(2df,p) opt Freq 

 titel

0 1
C 2.592053572 1.3591943409 -0.282786143
C 1.8631539168 0.0377331273 -0.1700620836
O 2.2749776614 -0.7412201595 0.9911227502
C 2.6060990351 -1.8903518153 0.189783695
C 2.2867396447 -1.117947079 -1.0828799903
C 3.0205491238 -1.0779718005 -2.3624550095
C 1.5945709694 -1.6356257456 -2.3368678011
C 0.5217034792 -0.8056623986 -2.9283543945
O 0.5250757085 0.4055053671 -2.936036899
H 2.3698270429 1.9836657917 0.5879952244
H 3.6745002944 1.2082592699 -0.3328221695
H 2.2589963213 1.8853179905 -1.1820829416
H 0.7785932125 0.2026530655 -0.1512384456
H 3.6519575079 -2.1992728595 0.316771888
H 1.9513105356 -2.7470074942 0.4004801662
H 3.1326204207 -0.1168223922 -2.853382971
H 3.8212382918 -1.7905127111 -2.5311544654
H 1.4692949247 -2.7103869967 -2.4243667009
H -0.3242891927 -1.3722355507 -3.374892249

