# b3lyp 6-31G(2df,p) opt Freq 

 titel

0 1
C 0.3912856 0.0990356884 -0.5201622506
C 0.9629471153 -0.7297711026 0.6127110091
O 2.4149411332 -0.6644911858 0.6814354966
C 2.5700022065 -2.0505659323 0.314685372
C 3.1218346178 -2.2416023534 -1.0184051857
C 3.5067243457 -2.4152915795 -2.1458416316
C 1.0160165111 -2.2792583488 0.4211201649
C 0.5906312563 -3.0739782915 1.6425952078
O 0.3688930848 -2.8256732761 -0.6924670569
H 0.6079676113 1.1583823881 -0.3530936769
H 0.8220864033 -0.1876389929 -1.4832715154
H -0.6943143222 -0.0301217454 -0.5733765445
H 0.5278697908 -0.4182636983 1.5708194028
H 3.1661055587 -2.5970218846 1.0555178925
H 3.8883025293 -2.5629884263 -3.1265368662
H 0.866700396 -4.125927036 1.5257158365
H 1.0611324734 -2.6804356653 2.5479794104
H -0.4958169144 -3.0172989821 1.7616100877
H 0.883223613 -2.6137109457 -1.4821562324

