# b3lyp 6-31G(2df,p) opt Freq 

 titel

0 1
C 3.190598287 2.941731386 0.2833505737
C 1.7747177053 2.543319363 -0.1584224873
C 1.6006449047 1.0444434198 -0.3216734142
C 0.7236197708 0.5183586464 0.5423049519
C 0.3080694092 -0.9116634569 0.6827764762
O -1.1042980082 -1.0692364439 0.6044400475
C 0.1004822774 1.6177026521 1.3483691596
O -0.6204172927 2.5678595193 0.5280254527
C 0.7219856643 2.8756924796 0.9004072588
H 3.4518819509 2.4659628686 1.2341949066
H 3.9336402181 2.6357288117 -0.4592921193
H 3.2689138651 4.0268255691 0.4108793719
H 1.5354951794 3.061188352 -1.0969984079
H 2.1369870096 0.4818167069 -1.0799210818
H 0.8328916548 -1.5308559583 -0.0610424348
H 0.5820729902 -1.2976385356 1.6729097835
H -1.4001306409 -0.6168259846 -0.1929530334
H -0.3192211393 1.4497515499 2.3352695889
H 0.8445307843 3.7465971348 1.5407306673

