# b3lyp 6-31G(2df,p) opt Freq 

 titel

0 1
C 1.9370520027 -4.0370967287 2.7130858234
C 1.9242276371 -3.9529319934 1.2036633317
O 2.0791353412 -2.6002163668 0.7080325253
C 0.9568112086 -2.7478198951 -0.1944328269
C 0.0096232995 -1.5713008064 -0.0557529822
O 0.6803099839 -0.3603831527 -0.3398530813
C 0.5636419616 -4.1028076506 0.4561491547
C 0.357676459 -5.2552092137 -0.3916035125
C 0.2050927257 -6.2120625937 -1.1036427541
H 1.7769809265 -5.0713737444 3.0357686885
H 2.9037256531 -3.7034208758 3.1032416717
H 1.154919748 -3.4069087837 3.1473094189
H 2.693337759 -4.6052010797 0.7699350688
H 1.3008143722 -2.8465357269 -1.2313510203
H -0.8153524808 -1.6621349871 -0.7712266395
H -0.4190684689 -1.5680443357 0.9601746462
H 1.4627061968 -0.3484900443 0.2249705156
H -0.2770946417 -3.9770551652 1.1476990294
H 0.0640316164 -7.057101926 -1.7310514475

