# b3lyp 6-31G(2df,p) opt Freq 

 titel

0 1
C 2.2341685748 2.3189848085 -2.252898084
C 1.9369425793 0.8381700205 -1.9831445133
O 1.7359509346 0.2402134436 -3.2588435644
C 3.1409555981 0.1627127384 -1.2725899963
C 2.8702227684 -1.2724384261 -0.8824164375
C 3.7658333592 -2.3696493296 -1.2685109616
O 2.5293836256 -2.1696009214 -1.9600277119
C 0.7238978295 0.716632861 -1.1492241789
C -0.2601554024 0.6152506693 -0.4656815891
H 2.3517918467 2.8719921291 -1.3176924122
H 3.1504466645 2.4047566919 -2.843804878
H 1.4110847466 2.7577464933 -2.8210671291
H 1.795649 -0.7184296562 -3.1431012606
H 3.9863087664 0.2139439802 -1.9667302927
H 3.4054166798 0.7284765769 -0.3723845531
H 2.2410438891 -1.4106855195 -0.0048911908
H 4.6638241852 -2.1489359513 -1.843533208
H 3.8098126923 -3.2741940703 -0.6647788804
H -1.1400368377 0.5247407815 0.1224347018

