# b3lyp 6-31G(2df,p) opt Freq 

 titel

0 1
C -0.0797473276 -0.1946508171 -0.1599332866
C 1.3908201667 0.0086379073 0.0652568113
C 2.111518358 -0.7497197676 1.2435789723
C 3.6244958933 -0.4897969414 0.8498880818
C 3.2729370182 0.414815533 -0.3199577279
C 3.6877637924 1.5373828698 -1.2609039601
O 2.3908017144 2.17025971 -1.032612469
C 2.1527965945 1.3497539879 0.1400193004
O 2.2616146336 -0.3872878545 -1.0327433452
H -0.6484664577 0.1339094068 0.7160303046
H -0.413548024 0.3783920185 -1.0288917278
H -0.3002660225 -1.2527406594 -0.3354418537
H 1.8585972766 -0.3587343632 2.233806562
H 1.8520172367 -1.8096122726 1.2100480709
H 4.1905393421 0.0151971001 1.6362510431
H 4.1453777737 -1.4038447902 0.5594108804
H 4.5067619566 2.172679368 -0.9003391402
H 3.8394769693 1.2623742268 -2.3076850545
H 2.1468841957 1.9344017878 1.0641399282

