# b3lyp 6-31G(2df,p) opt Freq 

 titel

0 1
O -1.7761095491 -2.0174570439 -0.4423986589
C -0.590193742 -1.2612561205 -0.4365845429
C 0.366776839 -1.5150046054 -1.626006081
C -0.5637138928 -1.3038790178 -2.8379570505
C -1.3096114781 -0.0099794776 -2.3636204355
C -0.6158971667 0.1932034776 -1.0035384511
C 0.8942093586 -0.0667270203 -1.3914235256
C 1.8954566572 0.1717139903 -0.2984503733
O 2.2318344684 -0.619316634 0.5501500194
H -2.211446648 -1.9096164721 0.4077803591
H -0.0670603566 -1.3295163453 0.5185901926
H 1.0455237823 -2.3666525289 -1.6341889193
H -0.002838366 -1.1544327499 -3.7645976494
H -1.243949567 -2.1456311195 -2.977134911
H -1.1630273919 0.8405034403 -3.0347013651
H -2.3817560765 -0.1760156827 -2.2411319543
H -0.9092957404 1.0537294728 -0.4004291799
H 1.2168386201 0.4843407139 -2.281924823
H 2.3396325295 1.194543963 -0.3173117602

