# b3lyp 6-31G(2df,p) opt Freq 

 titel

0 1
C 1.9762682901 -0.3329832352 1.4690255706
C 1.6380737408 0.4782472656 0.2098017673
C 1.8638239045 -0.2983608157 -1.0586107359
C 0.8699517093 -1.21753152 -1.6717332812
C 1.3082211922 -0.0002606801 -2.4862031238
C 2.6581449307 -0.2758271507 -3.0593844924
O 3.1620672819 -0.1239624719 -4.1355829705
C 3.2514527567 -0.6237858219 -1.6589348387
O 3.7772654472 -1.9197267851 -1.528793366
H 1.3651377594 -1.2389185208 1.5298865883
H 3.0279608183 -0.6406429001 1.4725691764
H 1.8028307616 0.2561019844 2.3743511217
H 0.5908304314 0.8015113784 0.2537860091
H 2.2431004881 1.3941372522 0.1902266038
H 1.1631023388 -2.2138881229 -1.985472448
H -0.1459267884 -1.1437432814 -1.2952203945
H 0.5956188243 0.7460274194 -2.8155075819
H 3.9887032322 0.1504377906 -1.3953906357
H 4.223901271 -1.9903312448 -0.6792647586

