# b3lyp 6-31G(2df,p) opt Freq 

 titel

0 1
O 1.5531199858 0.4192095365 0.317912514
C 0.1887081437 0.0700444775 0.134562124
C -0.6396262015 0.3514051894 1.3684719177
C -1.0907088927 1.7341846514 1.7055530885
C -2.2950303498 1.7434733411 2.2816510881
C -2.8908402752 0.3530637423 2.3945454503
C -1.7760149046 -0.5492899304 1.8668980839
C -0.4488760787 -0.5298759079 2.5826845602
O 0.4291224104 -1.60853419 2.4040605399
H 1.8859973207 -0.1638148366 1.0099437774
H -0.1694243996 0.6752614194 -0.7049430561
H 0.0842674743 -0.9861823602 -0.1468569559
H -0.4711809526 2.6018649753 1.5102451227
H -2.8104424191 2.6259413526 2.6436713124
H -3.1712811548 0.1073589407 3.4275997308
H -3.8079452614 0.2582899405 1.7972538001
H -2.0202762779 -1.4559031115 1.3237656674
H -0.3861580028 -0.0418593208 3.5559958997
H 0.070670186 -2.3784882792 2.8579250649

