# b3lyp 6-31G(2df,p) opt Freq 

 titel

0 1
C 1.4862587642 0.2826142748 -0.0472561827
O 0.0858509414 0.4268020214 -0.0374135204
C -0.4575111625 0.3473438433 1.2690091687
C -1.9427954902 0.5360371185 1.2283978696
C -2.655755367 1.4477160019 0.502402412
C -2.2814127504 2.504893965 -0.4735291504
O -3.9877048552 1.3074303391 0.7686095535
C -4.1217327245 0.3038345555 1.6761090771
C -2.9070019117 -0.2073877318 1.9923184108
H 1.7978173214 -0.6951579709 0.3534124407
H 1.8155275799 0.3592014204 -1.0861818239
H 1.9846902152 1.0674520282 0.5442329394
H -0.2235570229 -0.6320947996 1.7187641085
H 0.0218296555 1.1071739516 1.912381851
H -2.4929595592 3.5078958401 -0.0834275672
H -1.2177616681 2.4260510002 -0.6981956295
H -2.8424973613 2.3937781527 -1.4080352695
H -5.1298254908 0.0776127379 1.9813050496
H -2.7053986737 -1.0165511285 2.6777651726

