# b3lyp 6-31G(2df,p) opt Freq 

 titel

0 1
C -0.6910505435 0.0017114868 2.3376498896
C -1.4125950398 -0.5385183435 1.1022863883
C -2.597947237 -1.3955218043 1.5538955512
C -1.7007086972 0.4650327382 -0.0642446378
C -1.649025457 -0.7110428409 -1.0610091582
C -0.5317682551 -1.174232915 -0.061685408
C 0.436867792 -0.0227203352 -0.2859923739
O 1.6198350131 0.0305609883 -0.431834613
O -0.3941919964 1.0793815872 -0.2849530623
H -0.2824725076 -0.8244821991 2.9293432464
H 0.1272094099 0.6792728019 2.0900999326
H -1.3942973098 0.5455271863 2.9778898175
H -2.2470502731 -2.1928820588 2.2174621532
H -3.303822922 -0.7843816413 2.1274256423
H -3.1526736547 -1.8649503664 0.7405070097
H -2.4651865828 1.2398003692 -0.0424909033
H -2.5275292794 -1.3511291369 -1.0775958031
H -1.3394556684 -0.4613454596 -2.0774928198
H -0.1079703312 -2.1749747667 -0.0297238215

