# b3lyp 6-31G(2df,p) opt Freq 

 titel

0 1
C 1.931646648 -0.7825481123 1.3900483149
C 1.5838191063 0.0257038044 0.1374019959
C 1.8651101447 -0.7272016727 -1.1515926962
O 1.0351466301 -1.8791542205 -1.2460611402
C 0.992382343 -2.1717363078 -2.6154136502
O 0.8856577439 -0.9337849982 -3.2927368674
C 1.5105593341 0.0499841064 -2.4599987998
C 2.6725951194 0.6609946104 -3.0961176547
C 3.6382600538 1.1717960586 -3.5968869108
H 1.3606411046 -1.7142683788 1.4197072504
H 2.9963491083 -1.0393223278 1.4119497699
H 1.706308004 -0.213752665 2.2967562271
H 0.5228874915 0.3034134624 0.1482193588
H 2.1602756193 0.9586726875 0.1149970481
H 2.9234076626 -1.0291922564 -1.197188522
H 1.9072595412 -2.7038297521 -2.932943942
H 0.1071284683 -2.776827382 -2.8292018503
H 0.7619229618 0.8241099832 -2.2466570013
H 4.4854566252 1.6252561708 -4.0494528802

