# b3lyp 6-31G(2df,p) opt Freq 

 titel

0 1
C -3.5467252757 -1.346002844 -0.3324651849
C -2.2907318082 -0.75653182 0.2395900273
C -1.5113038839 -1.3857280582 1.3471140496
C -0.8781697934 -1.2325471253 -0.0519890995
C -0.4577169374 -2.4319804654 -0.8615521727
C -0.0878108279 0.0266505349 -0.1906212353
O 1.045435234 0.134494842 -0.5886094908
C -1.017473217 1.1865774448 0.1899586051
O -2.332729379 0.6614043043 0.2568614456
H -4.4114069787 -1.0372748249 0.2636089063
H -3.7013241646 -1.0032118723 -1.3598574253
H -3.50254492 -2.4379323167 -0.3286679792
H -1.1549242587 -0.7680385837 2.1647380357
H -1.7513309459 -2.407268716 1.6234656198
H -1.1028923476 -3.2933202399 -0.6677188364
H -0.4880201895 -2.2172230865 -1.9344366038
H 0.5703999215 -2.7110651316 -0.6112252022
H -0.7052834214 1.6238441592 1.1496760073
H -0.9710299166 1.9743008293 -0.5689641967

