# b3lyp 6-31G(2df,p) opt Freq 

 titel

0 1
O -0.0191488178 1.4371182647 0.0950682703
C 0.0090849102 0.0183226515 0.0273664318
C 0.8547954172 -0.4674186324 -1.1765250876
C 0.5032722269 -1.8594849484 -1.6531002207
C -0.4612706241 -2.5274346336 -1.041277351
C -1.5119570445 -3.5738926372 -1.3173382632
O -2.4516017061 -2.7997856752 -0.515349023
C -1.3686192703 -1.9871573612 0.0257325347
C -1.4488422021 -0.4709951401 -0.035278567
H 0.8878398921 1.7504602594 0.1739556471
H 0.4551606864 -0.3893353656 0.9505887643
H 0.6805408992 0.2344275865 -2.0044836331
H 1.9236153409 -0.3839097565 -0.9321168193
H 0.9863563006 -2.2282411064 -2.5544890432
H -1.8435433678 -3.6930268033 -2.3549219597
H -1.334611472 -4.5654203399 -0.8770052865
H -1.1364114618 -2.3243940661 1.0478375947
H -2.0164754473 -0.0301211957 0.7888949444
H -1.9087253297 -0.1621856704 -0.979741993

