# b3lyp 6-31G(2df,p) opt Freq 

 titel

0 1
C 0.2845211249 0.311351365 -0.6079881494
C 0.9449200751 -0.6005729405 0.4103056606
O 1.7019314478 0.2189035719 1.2963625993
C 2.3477014276 -0.5272453426 2.2912849785
O 3.2809422453 -1.4328455649 1.7641359085
C 2.6499190696 -2.3757754054 0.9188596121
C 1.8895715142 -1.6587621834 -0.222032707
C 1.1758917102 -2.6185701052 -1.0505376483
C 0.5797386529 -3.4348506017 -1.7020509964
H -0.358210289 1.0363567976 -0.1019781336
H 1.0431475995 0.8612617633 -1.1734015004
H -0.319612462 -0.273340818 -1.3057996455
H 0.1749687085 -1.1406332571 0.9880099959
H 2.9005940835 0.1776641564 2.9147132922
H 1.5988765743 -1.0733605772 2.8974032176
H 3.4314650619 -3.025048047 0.5190573417
H 1.941148548 -2.9965692493 1.490924736
H 2.6272782182 -1.116103298 -0.8271279529
H 0.0594061394 -4.1482618739 -2.2920607589

