# b3lyp 6-31G(2df,p) opt Freq 

 titel

0 1
C -0.0160683773 0.1485757804 0.0276210908
C 1.4259993986 0.3639924499 0.469857505
C 1.7019938123 1.7822344098 1.0954892786
C 2.2931145811 2.2033181964 -0.2482852657
C 2.0098856532 3.3966913293 -1.0463070122
O 3.2881044671 3.187052897 -0.4237675466
C 2.4069659062 0.7488652954 -0.7001325344
C 1.9371580844 -0.7701431351 1.3231464318
O 1.3052940758 -1.7458953349 1.6364559865
H -0.6777788155 0.0586670371 0.8936241024
H -0.3630340956 0.9836787036 -0.5884627801
H -0.109729282 -0.7729833136 -0.5536405805
H 0.8314705006 2.3217926402 1.4752258601
H 2.4724148452 1.7513294888 1.8734562844
H 2.0064309877 3.3345139705 -2.1338898254
H 1.4132513099 4.2039663267 -0.6231653543
H 2.0818941809 0.4887331723 -1.7099714756
H 3.4193259934 0.3632471164 -0.5384565928
H 2.993064864 -0.6375955901 1.6614457879

