# b3lyp 6-31G(2df,p) opt Freq 

 titel

0 1
O 0.3972528031 -1.1329698526 0.0287505219
C 0.4472464848 0.0609219949 -0.1210402369
C -0.258981082 0.8151964052 -1.2330649709
C -1.068105956 1.9810940592 -0.7110280777
C -1.618257741 3.1219789612 -1.6014804998
C -1.4379428768 3.8484661662 -0.2517408206
C -2.5118152111 3.2166493175 0.6570277493
C -2.2254281684 1.7270696109 0.2890615017
O -0.2785198564 2.9934896441 0.0059800838
H 1.0403507806 0.7058547314 0.5623753096
H 0.5134180566 1.2006239197 -1.9124941404
H -0.8928795113 0.1167186632 -1.7872385075
H -0.886477236 3.4451365523 -2.342855943
H -2.6182239521 3.0292814451 -2.0335097063
H -1.2298733462 4.9145434173 -0.1679955673
H -2.321202288 3.4351261573 1.709495772
H -3.5255800541 3.5424804219 0.409537396
H -1.8921947928 1.1353690134 1.1446964709
H -3.074686393 1.2169626216 -0.1732495748

