# b3lyp 6-31G(2df,p) opt Freq 

 titel

0 1
O 0.5210854366 1.0805468332 0.0868418475
C 0.2582167895 -0.2274344245 0.6201752786
C -1.0020067925 -0.2106791297 1.4384597947
C -1.2703336907 0.4155585681 2.828686129
C -2.6582666849 -0.0503280718 2.3467525961
C -2.0802117954 -1.332311183 1.6498952219
C -2.7938011114 -1.0284598857 0.3138979896
C -2.3543184106 0.3455787126 0.8642946973
O -2.5104522201 1.6031247666 0.3185080187
H 0.7367105611 1.6556398416 0.8288547288
H 0.1403732551 -0.877472142 -0.2532410384
H 1.1211690089 -0.5970614049 1.1928641837
H -0.8427450788 -0.1009633036 3.6943027057
H -1.1322832379 1.498086624 2.9180129279
H -3.6237358194 0.0179826592 2.8490534546
H -1.9142826395 -2.292658461 2.1341109136
H -2.3095207772 -1.3824155372 -0.6023056951
H -3.8701048514 -1.2228048979 0.2798049365
H -1.6954844914 1.7907158359 -0.1662937508

