# b3lyp 6-31G(2df,p) opt Freq 

 titel

0 1
O -4.1149933326 3.3776205487 -0.084841478
C -3.1660710652 2.4707782698 -0.5203912838
C -3.397755185 0.9896099771 -0.5380885091
C -2.3011124167 1.5617061256 0.3398768512
C -1.0620303256 1.9289182704 -0.4936719138
C -0.2589783161 0.8082648154 -1.1646328864
C 0.5444606807 0.0157244697 -0.1589002492
O 0.4896509576 -1.1776267842 -0.0106837277
C -1.9620938457 2.8461602444 -1.3958865289
H -4.8572764504 3.3598770925 -0.6988093795
H -4.2740655945 0.671110348 0.0175286261
H -3.1739044267 0.3833670257 -1.412949975
H -2.3163353685 1.4146646374 1.4127802452
H -0.3813092194 2.5507147925 0.0971047587
H -0.8978135634 0.1183968053 -1.7228924225
H 0.4532827262 1.2606949698 -1.8706077431
H 1.2220819625 0.6387355732 0.4736125955
H -1.69602538 3.9013036828 -1.3055686584
H -2.029707017 2.582347126 -2.4571942312

