# b3lyp 6-31G(2df,p) opt Freq 

 titel

0 1
C 1.0443120453 -1.1057843242 -0.0333326019
C 0.7190679629 0.3377890646 -0.4678072524
C 1.9654773357 1.1942980478 -0.5018602371
O 2.5575392317 1.4839453132 -1.5165145096
C 2.4939786853 1.6978298988 0.8679819759
O 1.8761462497 1.4359109485 1.8817541214
C 3.7438236589 2.4853379848 0.8405616235
C 3.8970641757 3.5797528675 1.8928132782
C 4.6860177095 2.3288698292 2.0315218286
H 1.454086126 -1.1235054628 0.9791562912
H 0.1350609913 -1.7127921367 -0.0432294156
H 1.7669940467 -1.5672042191 -0.7130519026
H 0.2867353108 0.3477139419 -1.4714406282
H 0.007972251 0.7722843726 0.2404490935
H 4.1737410028 2.6470025147 -0.1377624089
H 4.396468377 4.4885366843 1.5779872526
H 3.0490286712 3.7133674784 2.5549159328
H 5.7478367167 2.3455189785 1.8153616968
H 4.3707410718 1.6185789079 2.7875171818

