# b3lyp 6-31G(2df,p) opt Freq 

 titel

0 1
C 3.2983373737 -2.9416086712 -0.3441443972
C 2.9747381433 -2.0824174731 0.8603928307
O 3.8233789052 -1.6142670669 1.5820112599
C 1.4859872734 -1.7986186267 1.1056016292
C 1.0271742797 -0.6569714742 0.2434030125
C 1.3775821754 0.8380245619 0.3648462345
C 0.0031076045 1.1662612097 -0.3191564189
C -0.2587114356 -0.3427451972 -0.4079556468
O 0.8255345281 -0.9119194961 -1.1587555251
H 2.9409519934 -3.9639673465 -0.1697119766
H 2.7685671878 -2.5690252625 -1.2267650311
H 4.3750935083 -2.9591008029 -0.5160394336
H 0.8815248625 -2.6814133802 0.873196947
H 1.3629894117 -1.5374898787 2.160332464
H 1.426211068 1.1848452355 1.3992781389
H 2.2822580469 1.1442398033 -0.1642695971
H -0.6861044823 1.6846890183 0.3512613541
H 0.039336279 1.6839122375 -1.2802307539
H -1.199711093 -0.8818815499 -0.4208684504

