# b3lyp 6-31G(2df,p) opt Freq 

 titel

0 1
C 1.3303355584 -0.1814201974 -0.2646126293
O -0.0535708597 -0.1386129205 0.0082078358
C -0.4150101129 0.6046628012 1.1528282596
C -1.931028734 0.7501158281 1.1392216032
C 0.0670672585 -0.0584192964 2.4517678341
C 1.2687507513 0.4551446567 3.1448850952
O -0.0321919805 0.8048076873 3.6006763241
C -0.3266480301 -1.4324357748 2.654843783
C -0.6577162566 -2.5780483734 2.8044112795
H 1.8882749968 -0.7610945961 0.4835509948
H 1.4473136507 -0.6657469729 -1.2369501963
H 1.7642841669 0.8293889172 -0.3185949241
H 0.0533243621 1.6030625367 1.1222689147
H -2.2603315675 1.3335550659 2.0025334559
H -2.2467215407 1.2555316014 0.2234272664
H -2.4044950918 -0.2346625716 1.1750448132
H 1.8309532892 -0.2118442636 3.7956972249
H 1.8394895992 1.2614968314 2.6851650395
H -0.9531108995 -3.5892756393 2.9400930256

