# b3lyp 6-31G(2df,p) opt Freq 

 titel

0 1
C 1.3181670307 0.0301332362 -0.1919944798
O -0.0764433933 0.2210310001 -0.0332411604
C -0.4054142319 1.2847333715 0.7690282873
C -0.0999240072 1.505664827 2.2719600021
C -0.9547171231 2.7128997267 1.8243721363
O -1.3304298074 3.8251432757 2.547954127
C -1.8543174479 1.8439817904 0.8595739832
C -1.6369701688 2.8225040629 -0.3140758718
C -0.2812851961 2.8244961349 0.4243770017
H 1.809984762 -0.1772436411 0.7684578256
H 1.4486424926 -0.8302435303 -0.8515889869
H 1.7949877364 0.9090297605 -0.6476655837
H -0.5611143856 0.8004997169 2.9723689665
H 0.936353676 1.7209443676 2.5512977528
H -1.8876025695 3.5392877122 3.2799041824
H -2.7369620649 1.2667326576 1.1409084801
H -1.6474784892 2.3889732603 -1.3172758658
H -2.2067667461 3.7546713752 -0.2836137216
H 0.6353565734 3.3751894558 0.2086263951

