# b3lyp 6-31G(2df,p) opt Freq 

 titel

0 1
O 0.6001589177 -0.8685615756 -0.2995856352
C 0.5740200209 0.3130051938 -0.0706991689
C -0.1308078326 0.9576962022 1.1015725487
C -1.1344390909 2.0299038941 0.6536049748
C -2.3371285769 1.4751360104 -0.1575297784
C -3.4463401263 2.4728033188 0.102288678
O -3.0317179434 3.8411691128 -0.0300563611
C -3.108954249 3.2735429626 1.2858237807
C -1.7700476274 2.8185571451 1.8293743493
H 1.0896520266 1.0379987429 -0.745219047
H -0.6137994261 0.1742279287 1.6943867419
H 0.6417715993 1.4310940506 1.7255106652
H -0.6125208282 2.7525323172 0.0185159893
H -2.1055679351 1.359999978 -1.2212268076
H -2.646820681 0.4905821025 0.2168272574
H -4.4695577382 2.265011156 -0.1999635132
H -3.859652084 3.7102671755 1.9395807853
H -1.1357930201 3.6468410347 2.1608839238
H -1.9421545054 2.1672786396 2.6964604668

