# b3lyp 6-31G(2df,p) opt Freq 

 titel

0 1
C -0.1275951346 -0.0650438824 -0.3829372753
C 1.3632068724 -0.154135643 -0.1301638856
O 2.262612762 0.5949064783 -0.9021965528
C 1.8791785418 1.9723472463 -0.8350860019
C 1.0250276213 2.142964332 0.4331483222
C 1.7767273721 2.3994593678 1.748577509
O 1.0092948771 1.767642835 2.7695603922
C 0.3152805231 0.6427377678 2.2213462564
C 0.5130985117 0.7362600361 0.7239636319
H -0.4945749467 0.4544285693 -1.2628461528
H -0.7188728129 -0.9303170138 -0.098072372
H 1.799089716 -1.0838829304 0.2186491531
H 2.7934480902 2.5753227722 -0.8342646787
H 1.2982400637 2.2448773989 -1.7267209101
H 0.2307940939 2.8817404474 0.2881991206
H 2.7892689832 1.9674295305 1.692764732
H 1.8663133321 3.4581117257 2.0083210688
H 0.7157295982 -0.2939235548 2.6354111214
H -0.7404850146 0.7173289471 2.5129079117

