# b3lyp 6-31G(2df,p) opt Freq 

 titel

0 1
C 0.7199505218 -1.3344278051 -2.2180864126
C -0.7934609573 -1.4619110336 -2.0464519838
O -1.1580962215 -2.7225212927 -1.4873579922
C -1.3643371649 -0.3210307348 -1.2209401355
C -2.8147216139 0.0635120955 -1.3434406888
C -1.7346473442 0.9912131073 -1.8806952666
O -1.5300990564 1.0270959301 -3.2708293934
C -1.4724900992 2.2309986264 -1.1954482612
C -1.2724935425 3.2827731918 -0.6465377633
H 1.2238073199 -1.311531317 -1.2431415024
H 1.1086728291 -2.1853591706 -2.78403994
H 0.96982316 -0.4112471435 -2.7488925934
H -1.2656458958 -1.448165655 -3.0320699917
H -0.7098759286 -2.80693698 -0.6384548627
H -0.919870648 -0.2205938742 -0.233030279
H -3.3977237188 -0.4588786257 -2.0946813227
H -3.3604105545 0.3674644066 -0.4578948422
H -2.1499075109 1.6652170285 -3.6416468394
H -1.0837263245 4.2068052159 -0.1585935891

