# b3lyp 6-31G(2df,p) opt Freq 

 titel

0 1
C 2.5069113199 0.3159677454 3.5549148762
C 2.5119088046 0.4818682294 2.051793515
O 1.5841259877 -0.4040638118 1.4326751067
C 0.8475876487 0.3128538747 0.4434423409
C 0.81502411 -0.4454032137 -0.8721669092
C 1.5870790852 1.6759320598 0.3880938308
O 2.1159979308 1.7913186309 1.7044392239
C 0.7432462037 2.810439221 0.0553723324
C 0.0288585938 3.7230791742 -0.2593980644
H 2.7793889219 -0.7102659742 3.8135865102
H 3.2299777031 0.998115008 4.0098726136
H 1.5102451186 0.5327215222 3.9465734953
H 3.5151937278 0.2773362129 1.6341996515
H -0.17398895 0.4802495149 0.8099163945
H 0.3336540967 -1.4176474492 -0.739352006
H 0.2486292454 0.1191207214 -1.6200457998
H 1.8288461795 -0.6126910733 -1.2489997259
H 2.4129527052 1.6050107994 -0.3409086685
H -0.5971212828 4.5381964478 -0.5276472571

