# b3lyp 6-31G(2df,p) opt Freq 

 titel

0 1
O 0.190409455 0.3776524566 -0.0278438313
C -0.5957511839 1.0149958275 0.9650777386
C -1.9061694972 1.5394257707 0.2993996136
C -2.9089051612 1.4371186149 1.4125282433
C -4.3507553244 0.9353136116 1.6150914413
C -3.8050505072 0.0031933407 2.7649674796
C -2.4009216322 0.5706640601 2.4822274677
C -1.0347923196 0.0552242205 2.1298969375
O -2.4659014081 1.9938431287 2.6600358667
H 1.075660911 0.2484293285 0.3256891559
H -0.0525454427 1.8649722086 1.3948623558
H -1.7732641925 2.5402577685 -0.1207550949
H -2.1772575296 0.8629541889 -0.5191967581
H -5.0806964735 1.6987270975 1.8930514425
H -4.7298890655 0.3636857396 0.7648166307
H -4.1882015197 0.1742148611 3.7733989745
H -3.8979560743 -1.056611933 2.5165515293
H -0.3135858908 0.0512856667 2.9539477318
H -1.1066837536 -0.9644736878 1.7342752954

