# b3lyp 6-31G(2df,p) opt Freq 

 titel

0 1
C 4.0675492006 1.9139489911 -1.8570315201
C 3.577832065 0.4866158021 -1.6910385457
O 4.1160961817 -0.4437803388 -2.2485846264
C 2.3644450698 0.2909999463 -0.7909029296
C 2.0597787809 -1.167135482 -0.5137714515
C 0.6277937512 -1.5533272497 -0.0467176566
C 0.864098843 -2.997155048 -0.5460721423
C 1.3528581049 -1.9979033832 -1.6191749346
O 0.1130075212 -1.2060598646 -1.3939129498
H 3.2451967209 2.5739193716 -2.1538796787
H 4.4474790118 2.2918709351 -0.9006032406
H 4.8630496498 1.9507505846 -2.6021622029
H 2.5204091202 0.8510470132 0.1410324854
H 1.4980024617 0.7535463742 -1.2805719757
H 2.881102829 -1.6785990791 -0.0047701137
H 0.0569407746 -1.1988036993 0.8128551861
H 1.6092094433 -3.6091040549 -0.031669727
H -0.0410521989 -3.545993553 -0.8061678084
H 1.661556919 -2.1715099657 -2.6485864476

