# b3lyp 6-31G(2df,p) opt Freq 

 titel

0 1
O 1.2041796926 -0.0872967657 -0.2085317231
C 0.0122409181 -0.0565780375 -0.0409984207
C -0.745323169 1.0921418455 0.5933699853
C -1.8427009774 1.6448121523 -0.3616691254
O -1.0814898016 2.8371086497 -0.6099791063
C -0.0826579066 2.4718333251 0.3676311031
C -1.1776976635 0.779944456 2.0122078682
C -1.4050936481 -0.6198774601 2.5380474547
C -0.2187558321 0.1805582392 3.012206782
H -0.632379183 -0.9056820743 -0.3647050331
H -2.0290224765 1.0698972662 -1.2789036318
H -2.8035109907 1.8526823351 0.1280303373
H 0.9276691139 2.446709069 -0.050931886
H -0.1057894701 3.1304767772 1.2444956593
H -1.851348894 1.5366877886 2.4070015049
H -2.2340044869 -0.7682039602 3.220884171
H -1.2193866499 -1.4682455276 1.8892059271
H -0.226669367 0.5709940406 4.0233211507
H 0.7623688218 -0.1137668491 2.6549333929

