# b3lyp 6-31G(2df,p) opt Freq 

 titel

0 1
C 0.0761115517 -0.0443845707 -0.3286083196
C 1.5254024496 0.0439201414 0.0984690254
C 1.8371267996 -0.1645292028 1.5782997587
O 3.0361446538 0.5916735361 1.8162254937
C 3.5829228643 0.8748063703 0.5322636224
C 3.9161255799 -0.4551965828 -0.1998956084
C 2.5619399721 -0.5632099409 -0.9236585047
O 2.5522059115 0.7076800232 -1.6480415244
C 2.3501656012 1.28390859 -0.3377887715
H -0.5483241818 0.650597766 0.2432096415
H -0.01974004 0.19831413 -1.3904190632
H -0.3218509778 -1.053659749 -0.1726612594
H 1.0433384446 0.2305678464 2.2230180869
H 1.9872210062 -1.2227303243 1.8376126231
H 4.3919653527 1.5928459046 0.6528561629
H 4.7241764101 -0.3688178015 -0.9290936038
H 4.1431637781 -1.2541677942 0.5098304594
H 2.3399527862 -1.4312416405 -1.5453235604
H 1.994698028 2.3135159686 -0.3293649187

