# b3lyp 6-31G(2df,p) opt Freq 

 titel

0 1
C 2.9515555025 0.147218131 2.1029269661
C 1.772142716 -0.5145346261 1.4172173076
C 1.9229568842 -1.9047293095 0.8560302829
C 1.090618856 -1.6820127826 2.0960651607
C 0.8874559981 0.4529601462 0.6861366258
O -0.0447988582 -0.055079773 -0.2519316003
C 1.051328821 0.7185781067 -0.7660861033
C 0.680371016 2.0565644455 -1.3072507649
O 1.3281713106 2.6531617511 -2.1288821713
H 2.6214327291 0.9125371727 2.8153120185
H 3.5395215949 -0.5895610005 2.6576158197
H 3.6163025806 0.6301040195 1.3777074734
H 1.3886952959 -2.1406067529 -0.0570417555
H 2.8890904327 -2.386269761 0.9596999567
H 0.0146691066 -1.7716587052 1.9941930156
H 1.4838694888 -2.0083916988 3.0529324791
H 0.4941665531 1.2686575049 1.2985631788
H 1.8088651463 0.1654776189 -1.3170527534
H -0.2591427543 2.4658166931 -0.8721272561

