# b3lyp 6-31G(2df,p) opt Freq 

 titel

0 1
C -0.5940633123 -2.1195575539 0.1291349289
C -1.438258873 -2.8734036977 -0.8698045738
C -1.8650174431 -4.2587404429 -0.6460181094
O -0.7962539628 -3.9621257253 -1.5458431508
C 0.3493003122 -1.1431018702 -0.5571786998
O -0.4039366209 -0.0873500405 -1.2384895039
C 0.1355523207 0.886929449 -0.3430272528
C 1.6203865213 0.9858615177 -0.4904709974
C 1.0191309524 -0.118337763 0.3561825001
H -1.2426907312 -1.5649353091 0.818480015
H -0.0049041573 -2.8331454904 0.7184004148
H -2.0462449348 -2.2461837777 -1.5214436883
H -1.5748210596 -4.7669398637 0.2733653887
H -2.7791053712 -4.6282981656 -1.1088417571
H 1.0029723053 -1.6734706341 -1.2605451441
H -0.5215039488 1.6725987418 0.011513351
H 2.0785898731 0.7614847062 -1.4498986967
H 2.0968833993 1.7803311299 0.0759658938
H 1.2453802809 -0.2609891003 1.4045152016

