# b3lyp 6-31G(2df,p) opt Freq 

 titel

0 1
C -1.7204116392 -0.2917965436 -3.9930252474
C -1.9659659698 0.7481304823 -2.8977446703
O -1.3436887894 1.9973949468 -3.2141982244
C -1.5503824846 0.2745067848 -1.5303082226
C -1.3979658504 0.9157177392 -0.3315247895
C -1.6331583015 2.3650860296 -0.0276303228
C -0.9860641375 -0.0974230296 0.6013932064
C -0.9238836802 -1.2614011177 -0.0918305282
O -1.2605903329 -1.056916259 -1.3899729831
H -2.2877762947 -1.2070813563 -3.8058369389
H -2.0247978368 0.1276964637 -4.9547324671
H -0.6603998735 -0.5606552273 -4.0466706783
H -3.0358966116 0.9938841123 -2.8863692639
H -0.3936939849 1.8777278551 -3.1003266373
H -0.7834314479 2.7985715311 0.5118644415
H -1.7804012046 2.9356620244 -0.9457255082
H -2.5157079345 2.4997468011 0.6092798004
H -0.7673688729 0.0392934799 1.6497303437
H -0.6661881133 -2.2742101168 0.1713360403

