# b3lyp 6-31G(2df,p) opt Freq 

 titel

0 1
C 0.0830278318 -0.4945118806 0.1120431288
C 1.416605379 0.2223501406 -0.0349883284
O 2.1713261765 -0.2423563475 -1.1423871359
C 3.0958097936 -1.186272154 -0.6371676091
C 3.4533343378 -0.6014910983 0.7503585709
C 4.5606585115 0.4592253125 0.6635074676
O 2.2126689925 0.0203896483 1.1283680271
C 3.7892854862 -1.640980721 1.72178181
C 4.0994855234 -2.5027740078 2.4991574727
H -0.4404948363 -0.1248421642 0.9981057983
H -0.539073351 -0.3100880619 -0.7683118106
H 0.2358101744 -1.5713954117 0.2242123818
H 1.2636174743 1.2994459995 -0.1883390156
H 2.6530013044 -2.1854615091 -0.5323794084
H 3.9489053217 -1.2362625027 -1.3166475982
H 4.6321590607 0.9976915687 1.6109278191
H 5.5272745721 -0.0061780444 0.4503534205
H 4.3226527627 1.1693034024 -0.1333124233
H 4.3634512646 -3.2615669888 3.1939618328

