# b3lyp 6-31G(2df,p) opt Freq 

 titel

0 1
C 0.8239973266 0.9367612701 0.0258226618
C 0.9130792002 -0.5748631056 0.1963589324
C 1.5090623825 -1.3452740078 -1.0024661372
O 2.8191403831 -0.7153199126 -1.1583977363
C 3.131872482 -1.4129502626 0.0508343958
C 2.171113419 -2.5773155926 -0.258952831
C 1.6988883482 -2.6154150539 1.2036827399
C 2.0046481091 -1.0928479305 1.1653584389
O 2.1913306526 -0.3100366387 2.2958327915
H 0.5851971326 1.4119075012 0.9809650536
H 1.7698873155 1.3431441343 -0.3362853337
H 0.0387772072 1.199193327 -0.6915739486
H -0.0631819625 -0.9816623656 0.4826643666
H 0.9490225321 -1.4249893273 -1.9337021529
H 4.1877237946 -1.4698180868 0.3172454354
H 2.44937803 -3.4512084909 -0.8427904636
H 0.6794263588 -2.9253943503 1.4482088889
H 2.4138917273 -3.1764935706 1.8160737925
H 2.8799072313 -0.707982717 2.8377513958

