# b3lyp 6-31G(2df,p) opt Freq 

 titel

0 1
C 0.0073775378 -0.4783002554 0.0244195006
C 1.4471442146 0.015015123 -0.01973293
O 1.7745609963 0.7292668133 1.1627867335
C 1.8945605165 0.9024766106 -1.2240519292
C 3.0233984051 -0.0842095163 -1.5417152947
C 2.4749380677 -1.4692226396 -1.7911591277
C 2.5476286127 -1.0087169465 -0.3801875555
C 4.4296739865 0.2436198592 -1.8198933438
O 5.3014665435 -0.5740265139 -2.0117861174
H -0.1368249397 -1.1747133581 0.859838687
H -0.6726500474 0.3676207426 0.1637023707
H -0.27387761 -1.0014936207 -0.8935562579
H 1.6184921337 0.1459505639 1.9142063063
H 1.1592471678 1.061356543 -2.0187380478
H 2.2517729908 1.8666229628 -0.8569803344
H 1.5203887485 -1.5663316868 -2.3017657539
H 3.2300492333 -2.1912353581 -2.0831004706
H 3.1971975098 -1.4832954758 0.3469054776
H 4.6564815124 1.3341602128 -1.8182880029

