# b3lyp 6-31G(2df,p) opt Freq 

 titel

0 1
C 1.0260166546 1.1506694268 0.039207576
C 1.0266922471 -0.3733434015 0.0617130762
C 1.8584882285 -1.0023963194 -1.0633944096
C 2.2526562092 -2.4403084983 -0.6805477718
C 1.4925796823 -3.1192521806 0.451752662
O 1.6414611189 -2.2463911455 1.5830109631
C 2.0592531734 -0.988215454 1.0738946926
C 3.0091252407 -1.2722751753 -0.1257020505
O 4.3463948591 -0.9777636924 -0.2721792213
H 0.5726548066 1.5552433743 0.9505227742
H 2.0470811166 1.5419395776 -0.0345191611
H 0.461256867 1.5356005576 -0.8167311578
H 0.0083969429 -0.7578612129 0.1903353528
H 1.8869828932 -0.6843338923 -2.099719252
H 2.7085414206 -3.0308036264 -1.4665825165
H 0.4273332239 -3.2652056349 0.2252929278
H 1.920447895 -4.0963662045 0.7060405183
H 2.3918457324 -0.3590066537 1.899535584
H 4.859942058 -1.6557386846 0.1818480135

