# b3lyp 6-31G(2df,p) opt Freq 

 titel

0 1
O 1.0155307295 5.5576179556 -4.4487756266
C 0.9158354256 4.8420041407 -3.2408006749
C 0.9984512911 3.327364553 -3.5121823855
O 2.1645776882 3.0676241201 -4.3120727349
C 0.9760428993 2.5487473493 -2.2807325357
C 0.9968843658 1.9405213943 -1.2383492628
C 1.0092712107 1.204943658 -0.0091177078
C 1.2899757357 -0.291531283 -0.0177048111
C -0.0926891783 0.1970553344 0.2868156819
H 1.7355712516 5.1341012218 -4.9352370555
H 1.7135367117 5.1153889975 -2.5291055188
H -0.0447092493 5.0895016688 -2.7786122206
H 0.1555397166 3.0528676536 -4.1574269439
H 2.9115673582 2.9944896651 -3.7067670866
H 1.3900858972 1.7506377126 0.8492481957
H 1.4678839756 -0.7516789308 -0.9821008516
H 1.8939079623 -0.6837437612 0.7926082585
H -0.8574427278 0.0699175647 -0.4696864186
H -0.4499537737 0.1453461055 1.3089220786

