# b3lyp 6-31G(2df,p) opt Freq 

 titel

0 1
C 1.1626932704 0.9753236048 0.1692893935
C 1.192227939 -0.5400225175 -0.0392592495
C 1.916428216 -1.0041407524 -1.338622693
C 1.6239358968 -2.449898517 -1.6182825894
C 2.5312593321 -3.3992574084 -1.4332455341
C 3.921129869 -3.0892456683 -0.9853193942
O 4.283102817 -1.7053241893 -1.0344838326
C 3.4069017828 -0.6961642559 -1.2546373165
O 3.8401004963 0.4217428935 -1.3521052851
H 0.641935084 1.2204260841 1.1002371915
H 2.1706589558 1.3921855073 0.2120253756
H 0.6343129831 1.4728603835 -0.6512069544
H 1.6614199123 -1.0372609673 0.8187417941
H 0.1668425044 -0.9268279386 -0.0872641516
H 1.5405746436 -0.379201893 -2.1579867369
H 0.6158899796 -2.6952690839 -1.9421044295
H 2.3061283262 -4.4490894223 -1.5959117215
H 4.0862035288 -3.4384816172 0.0443462886
H 4.6545700428 -3.6111954723 -1.612585365

