# b3lyp 6-31G(2df,p) opt Freq 

 titel

0 1
C -0.0740096166 -0.0071810155 0.2539143838
C 1.3717153866 -0.0152809535 -0.1484942092
C 2.5427109954 0.5109908238 0.7065876589
C 3.2445956756 0.3633292389 -0.6727770986
C 1.9524897067 0.9003438187 -1.3292276228
O 4.6773635147 0.303717916 -0.7805966004
C 4.5895042706 -1.1294543056 -0.4371037131
C 3.1130073532 -1.1017630299 -0.9539744672
O 1.8294035124 -1.3936557482 -0.4070696993
H -0.223115 -0.6311913563 1.1403025785
H -0.4018288807 1.0099111591 0.4847981568
H -0.7012517271 -0.402031651 -0.5507299812
H 2.4404661934 1.5545318673 1.0105781514
H 2.8548651302 -0.120455197 1.5395695456
H 1.7035791461 1.9475673001 -1.1480579083
H 1.7506824634 0.6135846425 -2.3632297738
H 5.305582668 -1.7184826807 -1.0140174927
H 4.7263220587 -1.2908920547 0.6364003001
H 3.1256743195 -1.3513595639 -2.0200538485

