# b3lyp 6-31G(2df,p) opt Freq 

 titel

0 1
O -0.4310831014 0.0067225497 2.310115085
C -0.1250330857 1.2226937591 1.6480521389
C -0.3219118652 0.9856628502 0.1480799339
C -0.0123160381 2.1857799813 -0.6947768888
C -0.8836076914 2.8747605438 -1.4408567787
C -0.2602837617 4.0198566814 -2.187985147
C 1.2219284948 3.9336519808 -1.7879734659
O 2.1013178695 4.6593268715 -2.1690015705
C 1.3830422386 2.7562735375 -0.813011326
H -0.3177720146 0.1405256997 3.2555480341
H -0.7841889652 2.0408835021 1.9786621449
H 0.9120305524 1.5348914458 1.8487846814
H 0.3218770291 0.1434249819 -0.1396486302
H -1.3566533373 0.6672138749 -0.016105033
H -1.93883884 2.6344561852 -1.5163332733
H -0.3592764011 3.9480547022 -3.2791390583
H -0.6625623799 5.0040069055 -1.9128707861
H 2.1142886304 2.037430796 -1.2067069098
H 1.8004437669 3.1187863614 0.1353997694

