# b3lyp 6-31G(2df,p) opt Freq 

 titel

0 1
O 1.0432561062 -0.8833535201 0.0266556973
C 0.7070645805 0.4664786361 0.1138517793
C -0.2387537255 0.7220665256 1.2818642928
O -0.5589847118 -0.2240317773 1.9839779988
C -0.7201047136 2.0972318276 1.5126081724
C -1.5752546776 2.4208675213 2.4937074049
C -1.9396290538 3.8780292762 2.4806490485
C -0.9026742296 4.4949503302 1.505699523
C -0.3723403723 3.3069195099 0.6610310717
H 0.5771557815 -1.2978280554 0.7725824084
H 1.6022650375 1.097820609 0.2505390076
H 0.2235983059 0.8226218786 -0.8119182941
H -1.9823631042 1.7004818932 3.1937754122
H -2.9717431031 4.0010972453 2.1209170937
H -1.9129535008 4.3311632148 3.4777205662
H -1.321559772 5.2947689145 0.8911361183
H -0.0787870622 4.9273702449 2.0814925911
H -0.8743342105 3.2482222218 -0.3144343978
H 0.6984626053 3.3960068437 0.4506169955

