# b3lyp 6-31G(2df,p) opt Freq 

 titel

0 1
O -0.7711114207 2.79456411 3.5068327873
C -1.6024546805 2.1554537916 2.5622008159
C -2.7042884278 3.0076047538 1.8697666199
C -2.1637320525 2.5284026599 0.4869386946
C -2.7979795909 1.2933760007 -0.0901384733
C -2.0382113895 0.2051255811 0.0420455155
C -0.7206090793 0.4931920749 0.7239331634
O 0.3266170917 0.3124710368 -0.2283757251
C -0.8983783975 1.9480220071 1.1980173407
H -1.2772227599 2.9226601243 4.3157243491
H -1.998420634 1.2106149879 2.9628067081
H -3.7473426579 2.7842366807 2.1096550665
H -2.5144371049 4.0723239656 2.030554983
H -2.0383459763 3.3190739932 -0.2582227258
H -3.7745610297 1.3115540187 -0.5644911274
H -2.2866626498 -0.7879018576 -0.3148737921
H -0.5574522034 -0.1775360761 1.584427197
H 1.1632095139 0.3931878563 0.2415280842
H 0.0150488591 2.5404786009 1.1246535185

