# b3lyp 6-31G(2df,p) opt Freq 

 titel

0 1
C 2.0926651954 0.7879424023 4.8790024543
C 1.8298115722 0.5375762244 3.4271050229
C 2.7458130659 0.4040056172 2.4317730682
O 2.1396407644 0.1783800589 1.2366562548
C 0.7921752072 0.1762280432 1.469021087
C -0.0863150756 -0.0591188457 0.2821833572
O -1.0882995938 -1.0456153847 0.5110918766
C 0.5411714337 0.3871408352 2.7943365173
C -0.7979593832 0.4630255393 3.4623169742
H 1.6844859533 -0.0128509989 5.5070621187
H 3.165230866 0.8542753271 5.0813194812
H 1.6312065445 1.7230268976 5.217537626
H 3.8233672958 0.4390763913 2.4140409351
H -0.6420329601 0.8461906737 0.0122790364
H 0.5560095905 -0.3139332214 -0.5735329622
H -0.6452071385 -1.8252663726 0.862887204
H -0.8378544971 -0.1808587436 4.3487607047
H -1.0233671994 1.4816198456 3.8017615619
H -1.5888303612 0.1447571211 2.7801850219

