# b3lyp 6-31G(2df,p) opt Freq 

 titel

0 1
C -1.077946112 2.0136006679 1.0545990637
C -1.0802324325 0.8959887226 0.0173003388
C -2.2158138224 -0.1767497858 0.0722887298
C -2.7266406355 -0.6256000171 -1.3093844764
C -1.5258326197 -1.6046405858 -1.4513264147
C -1.0885191727 -1.3511279671 0.0174853172
O -0.9770212558 -2.4938216496 0.7857171266
C -0.0915819076 -0.2475133465 0.3024729603
O 0.9210382827 -0.294703737 0.9537543691
H -1.2083498572 1.6132685829 2.0648137741
H -0.126498394 2.552643359 1.0341714294
H -1.8840659371 2.7281466364 0.8628907586
H -0.9638775503 1.3106490487 -0.9904429355
H -2.9084199796 -0.0715096985 0.9068500037
H -3.6818709233 -1.1533132198 -1.2597144547
H -2.8078907855 0.1648372759 -2.0607104256
H -1.8148073841 -2.6494286455 -1.5778227304
H -0.7797492274 -1.3571945972 -2.2103902589
H -0.3211148561 -2.3130902737 1.4730264151

