# b3lyp 6-31G(2df,p) opt Freq 

 titel

0 1
C -2.8437553033 -2.4740518619 0.0159565214
C -2.2917844462 -1.0702329886 0.0052726495
C -2.751568601 -0.0048159936 1.034180835
C -2.3653391911 1.0422668245 -0.0494681212
C -2.6594740701 -0.0571731276 -1.1099465818
C -0.8540963706 1.2590691182 0.0102219573
C -0.0908223547 -0.0663140106 0.0746455056
O 1.1049178829 -0.1456406961 0.129463453
O -0.8456444691 -1.1959632006 0.0703861378
H -2.5438164711 -2.9974088006 0.9288493168
H -3.9360157591 -2.4519263578 -0.0321840402
H -2.4667006926 -3.041182179 -0.8404454873
H -3.8313215281 -0.0532486879 1.1944138914
H -2.2337207998 0.0190710908 1.9967675857
H -2.9204201184 1.980694675 -0.0961970658
H -3.721623703 -0.1156192547 -1.3595609332
H -2.0609968961 -0.0791072557 -2.0246335187
H -0.4833716283 1.8026201622 -0.8657980594
H -0.5587127903 1.8446748339 0.8877916842

