# b3lyp 6-31G(2df,p) opt Freq 

 titel

0 1
O 1.5053734435 -0.2206223697 -0.0449503662
C 0.3985830458 0.2415652381 0.0656001345
C -0.4204652091 0.7814618498 -1.0919769986
C -1.1419556027 2.0586735724 -0.740193153
C -1.3982960229 3.156947639 -1.7416276935
C -0.5094896083 3.4089513956 -0.5315504895
C -1.1694284504 3.9852571053 0.70994388
C -2.4161922077 3.0884475497 0.8860666805
O -2.121916708 1.8418679023 0.2515537258
H -0.1099402569 0.2993852513 1.0520453687
H 0.2352960029 0.915723083 -1.9555082722
H -1.1697558563 0.020599204 -1.3550463358
H -0.905315723 3.0767229012 -2.7045685229
H -2.382602882 3.6119358231 -1.7829696973
H 0.5509941759 3.5709789928 -0.6862209504
H -0.4900778734 3.8868118798 1.5631041792
H -1.4429806565 5.0408370297 0.6200737128
H -2.6635212614 2.882867441 1.9308891869
H -3.2962737195 3.5472138514 0.4159525711

