# b3lyp 6-31G(2df,p) opt Freq 

 titel

0 1
C 0.8469173618 1.3331724742 -0.0344671255
C 1.4746345256 -0.0421089319 -0.2026721191
C 0.0027083111 0.1118457909 0.0791390717
C -0.6547743832 -0.3921841785 1.3555306055
C -1.4916095637 -1.5629970293 0.847410876
O -0.7223288735 -2.7620293773 0.602033192
C -0.8881402247 -2.6426547136 -0.8289061975
C -1.6353520449 -1.2995144735 -0.6744800565
O -0.9122966417 -0.1249435746 -0.9779062348
H 1.0587530941 1.8981444308 0.8671037151
H 0.7198439798 1.9343534776 -0.9277501021
H 1.757923364 -0.3321325914 -1.207983391
H 2.1177412344 -0.4224279508 0.5838723502
H 0.0625603664 -0.7039956345 2.1174651655
H -1.3138608876 0.3735697677 1.7816640783
H -2.3866278639 -1.7691231212 1.4420336641
H 0.0672647542 -2.5885613179 -1.3613741942
H -1.4929450807 -3.4623942667 -1.2368802033
H -2.6216874775 -1.22358048 -1.1330816143

