# b3lyp 6-31G(2df,p) opt Freq 

 titel

0 1
O -1.95881072 3.6844658834 2.5131371299
C -2.1242997785 2.44079996 1.8612107305
C -2.8619457042 2.6752502781 0.5503822483
C -2.6399167159 1.5171316457 -0.4081232197
C -2.19210588 0.1693330404 0.1568614547
C -0.8257537811 0.4812270155 0.8321322448
O 0.280234047 0.0842763142 0.0328331887
C -0.8699293498 2.0001134756 1.0322977752
C -1.5693060639 2.5642710939 -0.2412823792
H -1.3550788571 3.552743772 3.2516153286
H -2.5388600804 1.6916352696 2.5550443338
H -3.6840731717 3.37007536 0.4269832431
H -3.2551411532 1.5438795134 -1.300705171
H -2.9157501111 -0.24675399 0.8661609796
H -2.0424251593 -0.576167801 -0.6296643539
H -0.7010389582 -0.0574215563 1.7770313334
H 0.2289297604 0.5771242626 -0.7945143431
H 0.0728686634 2.4392130608 1.3585844884
H -1.1659128063 3.2052142221 -1.0133743421

