# b3lyp 6-31G(2df,p) opt Freq 

 titel

0 1
C -1.0507718087 -2.3777983816 0.9769576734
C -1.0215811775 -1.0720491099 0.257294064
O -1.7768972903 -0.9282866865 -0.9758830533
C -2.0081966135 0.0240565854 0.056633174
C -0.9332096953 1.1252545704 -0.0984071506
C -0.8630102006 2.0825963874 1.0954597046
C -0.8916383008 1.8515288658 -1.4387837726
C 0.0974539259 -0.0402439205 0.111310527
O 1.2823813443 -0.065350341 0.2716744013
H -0.4209894102 -3.1121071337 0.4646934699
H -0.6698688174 -2.2618809801 1.9961381929
H -2.0706595093 -2.7686825559 1.0204265957
H -3.0099641285 0.1027461099 0.4651643593
H -0.9253982874 1.5504436573 2.0508985984
H 0.0808420487 2.6350971244 1.0816402616
H -1.6842655444 2.8062711875 1.0560905147
H -1.0298908147 1.1499178785 -2.2642971471
H -1.6743048452 2.6166375563 -1.4942929235
H 0.074334945 2.3503270265 -1.5682743298

