# b3lyp 6-31G(2df,p) opt Freq 

 titel

0 1
O 1.7318250368 0.7698992622 -0.1554618103
C 0.7843072764 0.1203600188 0.6899032115
C -0.5458533952 0.7999324773 0.6772520988
C -1.7659726481 0.2770066726 0.4879255324
C -2.7562514351 1.4043469107 0.7329438193
C -1.9888413672 2.6034885541 0.1553519593
C -0.7465345137 2.2717841656 1.0240454921
C -1.4430278205 2.2685544037 2.4181719359
O -2.7326627794 1.6986380655 2.1621338955
H 1.3661633887 0.7682040954 -1.046385346
H 0.6679162745 -0.9418799999 0.4274601575
H 1.2285230594 0.1592085409 1.6923156522
H -2.0192437261 -0.7646439012 0.3317276309
H -3.7937079253 1.2476591072 0.4433386887
H -1.7924760232 2.5266470046 -0.9150868106
H -2.4591695517 3.5617628931 0.3928686522
H 0.1307831679 2.9116000998 0.9455454753
H -0.9038373623 1.6674822365 3.1599005666
H -1.5640367859 3.2864236627 2.8099110286

