# b3lyp 6-31G(2df,p) opt Freq 

 titel

0 1
C -1.6776148646 -0.4980356974 -2.4491445162
C -1.9812198086 -1.0764419103 -1.0750867026
C -2.7280571687 -0.2560581422 0.0200541986
C -1.9895473006 -1.1228657869 1.0713236688
C -0.8617194624 -1.2422800131 0.0051507128
C -0.0215202072 0.0162817179 0.0578461954
O 1.1773851953 0.0478396374 0.059616779
O -0.7253894734 1.1827886826 0.1117898625
C -2.1681150528 1.1572782484 0.0813464684
H -1.0578912252 -1.1900116064 -3.0288150626
H -2.6025103781 -0.3328211861 -3.0127859231
H -1.1427237223 0.4542686752 -2.3922721226
H -2.4829760996 -2.0438398432 -1.1842071961
H -3.820748341 -0.2291438128 0.0131975941
H -1.7399087079 -0.66698804 2.0329113163
H -2.482573188 -2.0832107146 1.2360171874
H -0.2081124361 -2.1129545988 -0.014249837
H -2.5120973454 1.6744112855 0.9841451429
H -2.4773938535 1.7482839249 -0.787926266

