# b3lyp 6-31G(2df,p) opt Freq 

 titel

0 1
O 1.1489379703 1.0098617161 -0.3164361621
C 0.2803526798 0.1920906557 -0.4618261106
O -1.039461141 0.4018155235 -0.4042980468
C -1.4759838721 1.7696740322 -0.1548086409
C -1.7797931739 2.4884552549 -1.4264859691
C -0.7053007061 3.1345303742 -2.2626960332
C -1.7847351616 4.0035541595 -1.6858443503
C -3.0679700144 3.8747421935 -2.5163715699
C -3.0615660865 2.3314469964 -2.2602016832
H 0.4552131592 -0.877387286 -0.6589674343
H -2.3688889273 1.6558669812 0.4660410033
H -0.6973600226 2.284342666 0.4125239856
H 0.2657765451 3.1999987016 -1.7842960292
H -0.6677104815 2.9498896825 -3.3344328745
H -1.5580161453 4.8059033863 -0.9933887356
H -3.9297911177 4.3654518166 -2.0592529477
H -2.9926825965 4.2034244459 -3.5579103494
H -3.9186015216 2.0083244301 -1.6634195334
H -2.9853546362 1.6812701899 -3.1373055886

