# b3lyp 6-31G(2df,p) opt Freq 

 titel

0 1
O 0.1986282462 -0.1371512165 0.9210626482
C 0.4287167114 -0.1462346687 -0.2615489039
C -0.283154991 0.7222963541 -1.2650256603
C -0.7321605664 2.1213293155 -0.8023575298
C -1.7584624894 2.5140307961 -1.9143802403
C -1.7266528022 1.2867253081 -2.8568642594
C -0.3376881243 1.2234248752 -3.5119793933
O 0.5439080136 0.8636887831 -2.4272513434
C -1.5891864138 0.127407998 -1.8480073636
H 1.1809362664 -0.8278637754 -0.7155176621
H -1.179150705 2.0723024309 0.1929593532
H 0.1268658909 2.7940577086 -0.758532467
H -2.7602430395 2.6575935303 -1.4996229469
H -1.4833266615 3.4365841449 -2.4329369739
H -2.55333466 1.2236465259 -3.5660284209
H -0.2763017991 0.4586772925 -4.2970274352
H -0.0233498728 2.1838253001 -3.9373597551
H -2.3980877649 0.0761210577 -1.1161620362
H -1.4368249888 -0.8521283102 -2.3084155202

