# b3lyp 6-31G(2df,p) opt Freq 

 titel

0 1
C 3.7591057934 0.9765179534 -0.9475226108
C 2.2762348514 0.5856968587 -0.9672010436
C 2.0731079662 -0.8689217103 -1.3123757286
C 2.3576168893 -1.3759001154 -2.7564109043
C 1.0227630037 -2.148022478 -2.6985239268
O 0.4279225708 -2.8320774496 -3.4791655488
C 0.7086204139 -1.6460948818 -1.2836138509
C 1.398494908 -2.4929681943 -0.1897395359
O 2.6407356107 -1.7737256209 -0.3292035192
H 4.3079202496 0.3545568414 -0.235058401
H 4.2185905996 0.8463938981 -1.9330912694
H 3.883125718 2.0231470809 -0.6557927361
H 1.8283683376 0.7778641576 0.0149078375
H 1.7284252363 1.1999578684 -1.6930437016
H 2.330862746 -0.5919036885 -3.5218068918
H 3.2632686481 -1.9731398733 -2.8843444344
H -0.2764634896 -1.2283987475 -1.0783966434
H 0.96413697 -2.352299449 0.8070840878
H 1.5039923771 -3.5659207699 -0.3864107187

