# b3lyp 6-31G(2df,p) opt Freq 

 titel

0 1
C 1.9316566531 0.3859415165 1.5061915083
C 1.784751174 -0.0143463607 0.0249505733
O 1.5280840322 1.2932359598 -0.5842666927
C 0.2499015804 1.1830379068 0.0961444001
C 0.2707481544 -0.3369067222 -0.1706493788
C -0.5543315565 -1.2369942581 0.7398782189
O -0.4298428116 -0.9355514413 2.12042449
C -0.4641983584 0.4538281595 2.4056476457
C 0.6071269921 1.2085057034 1.6075462569
H 1.9639366769 -0.4600474946 2.1942152122
H 2.8213883056 1.0043887215 1.6379812211
H 2.5815304269 -0.5809928066 -0.456697653
H -0.5231848534 1.8579147149 -0.2727488373
H 0.0693539063 -0.5514834059 -1.2223575393
H -1.6107635643 -1.1531515198 0.4289003629
H -0.2653210834 -2.2881829247 0.6339524768
H -1.4646687327 0.8707061567 2.1934800933
H -0.2910446724 0.5375418289 3.4825842939
H 0.7445303311 2.2208407158 1.9933865376

