# b3lyp 6-31G(2df,p) opt Freq 

 titel

0 1
O 0.1538126408 0.0547575717 0.2957550135
C -0.7985025624 0.7422152399 1.06558031
C -1.4606082984 1.8717325225 0.2473645794
C -2.541343814 2.3665704268 1.2285581122
O -1.9253648784 3.1658755809 2.2672079872
C -1.5978949288 1.9467609278 2.972732609
C -0.2942255427 1.3563653947 2.3987885353
C -2.7142486195 1.162176376 2.2092307588
C -2.0465332186 -0.0408543445 1.5539356453
H 0.5686601451 -0.611188054 0.8546864997
H -0.7704205837 2.6731857502 -0.0255258234
H -1.8974180659 1.4552235281 -0.6667065602
H -3.3993152581 2.8670938851 0.7762335445
H -1.6257591741 2.0743041376 4.0566326672
H 0.4697806081 2.1254406119 2.2639244791
H 0.1078237529 0.5685297334 3.0496220434
H -3.6759580884 1.0512055695 2.7049884836
H -1.7986252676 -0.8393318579 2.2624246546
H -2.6198966066 -0.4680610799 0.7259519208

