# b3lyp 6-31G(2df,p) opt Freq 

 titel

0 1
C 1.5492219505 -0.0022131898 -0.1571698434
O 0.1342048318 -0.010683395 -0.1664029414
C -0.4068733431 0.5656144378 0.9740946129
C -1.8505851199 0.2839723749 1.3473110409
C -2.4817322844 -0.9435988811 0.7882618475
C -1.8584231073 -2.0547681977 1.1855908283
C -0.6943050849 -1.7557107694 2.0997960657
C -0.6813759067 -0.2262044013 2.2144635791
O -0.3017990033 0.3603410072 3.4203046309
H 1.9559629676 -0.5310273014 0.7162679458
H 1.8792957114 -0.5060600751 -1.068546995
H 1.9458129335 1.0245294859 -0.1529219009
H -0.0819166482 1.5905827705 1.1665817652
H -2.4555575587 1.1379179866 1.6344145272
H -3.3357093705 -0.9062440606 0.1219598242
H -2.114368616 -3.0627555366 0.8807573247
H -0.8146980374 -2.2086843657 3.0944045487
H 0.2501443858 -2.1425023914 1.698007721
H -0.9627577002 0.1342811122 4.0848275484

