# b3lyp 6-31G(2df,p) opt Freq 

 titel

0 1
C -2.0677875328 1.9563899603 -1.7413544727
C -2.2316485701 1.7537673382 -0.2620399692
C -3.4215812273 1.0695674836 0.3601723086
C -3.1185773982 2.4828858323 0.7657428414
C -1.986361743 2.4764761282 1.7993711776
C -1.0832590912 1.7864810593 0.7459560145
O -0.5493042797 0.5217473374 1.2015900671
C 0.3038287752 -0.0919486165 0.3753290315
O 0.6494700002 0.2967866615 -0.7081361381
H -1.6082801285 1.0807693101 -2.2099896507
H -3.0363432757 2.1331161896 -2.2206377073
H -1.4245546533 2.8170203392 -1.9560872705
H -4.2637418204 0.9435153042 -0.3128713033
H -3.2920550297 0.2557865273 1.0696255837
H -3.8083452158 3.2995246598 0.5927674507
H -1.6179347116 3.4658151238 2.0774487992
H -2.1724063938 1.8960809072 2.7080022903
H -0.2514613147 2.405595839 0.4048333254
H 0.6512724702 -1.0235602344 0.8496187515

