# b3lyp 6-31G(2df,p) opt Freq 

 titel

0 1
O 0.3017769096 0.0085114601 0.565296676
C -0.7779739583 0.8412931645 0.1884026715
C -2.1679242578 0.1349899774 0.3373622482
C -2.6174778711 0.0372535382 -1.1400946809
O -1.3597673796 -0.0824491911 -1.8354339567
C -0.7645775633 1.1304696412 -1.3318122585
C -1.8044503391 2.1976494757 -1.6622656156
C -2.6490017721 1.946298286 -2.8866463964
C -3.1082474138 1.4268020197 -1.5517250916
H 0.2786614324 -0.7500704288 -0.0310589817
H -0.6898414616 1.7445112147 0.7968833202
H -2.0226166014 -0.8475467411 0.7932482069
H -2.8718022645 0.6994708558 0.9539438961
H -3.2507583904 -0.8116506983 -1.3997795349
H 0.2341049636 1.2521349526 -1.7528791069
H -1.684565272 3.1988176114 -1.2664192395
H -3.1870191385 2.8011776546 -3.2811576486
H -2.2935405176 1.2420221416 -3.6297799505
H -3.9834718845 1.8401735557 -1.065214077

