# b3lyp 6-31G(2df,p) opt Freq 

 titel

0 1
C -0.1542145704 -0.0066450641 0.0344176933
C 1.3534500971 -0.0386939855 0.0927665633
C 2.2284893488 -1.2814658196 -0.219347235
C 3.3400963595 -0.2148390659 -0.2569241431
O 3.4083576751 0.1994541495 1.1245703101
C 2.0489467598 0.6176157577 1.3186083172
O 1.9566155368 2.0044686109 1.1127326344
C 2.3609152114 2.1975062794 -0.2594718795
C 2.2990628306 0.790077757 -0.8517116914
H -0.5906427596 -0.6907449665 0.7713074949
H -0.5294219947 0.9990670907 0.2484928454
H -0.5206744207 -0.3050022207 -0.9531699936
H 2.3249326011 -2.0640149272 0.537211782
H 1.9948112469 -1.7097112118 -1.1976989795
H 4.3418478299 -0.3729034215 -0.6533414311
H 1.7072292047 0.3869645262 2.3274041259
H 1.6645921793 2.8950543806 -0.7367533777
H 3.3691673355 2.6272396188 -0.2948891144
H 2.115113729 0.705954562 -1.9221101711

