# b3lyp 6-31G(2df,p) opt Freq 

 titel

0 1
C -3.4298224088 -1.4139556587 -0.653021252
C -2.2862108741 -0.8026336142 0.116730108
C -1.6990634283 -1.4680206172 1.3270801813
C -0.852494675 -1.2998582011 0.0703669552
C -0.3143985574 -2.4785321223 -0.6987860198
C 0.0026104396 -0.0689356824 0.1319832875
O 1.1935674816 0.0078146882 0.0313676402
O -0.784533208 1.0322517763 0.3283814693
C -2.1723281786 0.7164133436 0.1423641442
H -4.3928700676 -1.1382104834 -0.2081407586
H -3.4346149546 -1.0770276064 -1.6955651167
H -3.3705292491 -2.5058412105 -0.6523780871
H -1.4640833485 -0.8763833927 2.2069045429
H -2.020169808 -2.4830410156 1.5384517188
H 0.6597180395 -2.7709853591 -0.2963259011
H -0.9862145859 -3.3384592747 -0.6320932273
H -0.1743878371 -2.2349190243 -1.7567872285
H -2.7368422715 1.179347335 0.9583818693
H -2.5046517382 1.1556229494 -0.8065223655

