# b3lyp 6-31G(2df,p) opt Freq 

 titel

0 1
O 0.0716717214 0.096171892 -0.2477208742
C -0.8966994719 0.4992078848 0.6882625343
C -2.2668851794 -0.2091251245 0.7284420892
O -2.89133832 0.5570257596 1.8059867777
C -2.5677895754 1.9581281378 1.4826341139
C -1.8227443865 1.6863639354 0.1945673208
C -1.4880259248 2.3133853474 -1.1660181819
C -2.0165841966 0.9883604018 -1.8327722929
C -2.7337320986 0.6106204067 -0.4876443664
H 0.4508012123 -0.7326682922 0.0605198528
H -0.4505042536 0.6507539524 1.680019696
H -2.4375536696 -1.2687461932 0.9292657522
H -3.4917499747 2.530753391 1.3509881713
H -1.9850412472 2.3874508521 2.3054154285
H -2.1222422995 3.1732931048 -1.3998953364
H -0.4435385781 2.5797374147 -1.34033207
H -2.7176893054 1.1341668847 -2.6569163691
H -1.2216687174 0.3179919668 -2.1463323921
H -3.8121756949 0.7808735877 -0.5152633737

