# b3lyp 6-31G(2df,p) opt Freq 

 titel

0 1
C -0.6661330493 2.4804162986 0.3848435286
C -0.9642920282 1.0470012747 0.0320123401
C -1.7292968282 0.0357648438 0.9675740634
C -1.0654916452 -1.0712312222 0.0883663566
C -1.7243045529 -0.808582276 -1.2846770845
C -1.6450296368 0.7572833254 -1.3359493996
O -2.8817025968 1.4136663523 -1.5252138997
C 0.1025807951 -0.069785636 0.0244177617
O 1.2945693079 -0.1109486892 0.10211333
H -0.2622749354 2.569799542 1.397568341
H 0.0747206744 2.895941736 -0.3066930872
H -1.5696433945 3.0934890244 0.3124420244
H -1.3668017681 0.0562989523 1.9967485125
H -2.8233413201 0.0725995659 0.9580236146
H -0.9442000901 -2.0992079903 0.4228514655
H -1.1986148896 -1.2889588753 -2.1136477412
H -2.7676786078 -1.1400293474 -1.3084514624
H -1.0188758165 1.1102839261 -2.1600104455
H -3.4954156978 1.1133641548 -0.8464406184

