# b3lyp 6-31G(2df,p) opt Freq 

 titel

0 1
C -0.4213225286 4.4566896933 1.8000095196
C -0.799250202 3.0218555332 1.9503560568
O -0.0014857702 2.2115549004 2.8385496758
C -1.1668328631 1.3280255094 3.0488745885
C -0.981886156 0.101218061 2.1695679025
C -0.7696382108 0.7329846375 0.7608439843
O 0.5969420235 0.7954572019 0.387364475
C -1.4141234223 2.1209980253 0.8928056462
C -2.069863708 2.2939949935 2.2559454393
H -0.3973420456 4.9577876432 2.7727512712
H 0.5693659216 4.5489653018 1.3412691157
H -1.1398124751 4.9737505789 1.1574587964
H -1.3531449568 1.1703633692 4.1119824922
H -0.1245700472 -0.5153467216 2.4524392786
H -1.8852435344 -0.5191186087 2.2017031879
H -1.2582525194 0.1442110732 -0.0197512173
H 1.0347234087 1.2752170888 1.1026818058
H -1.8489197516 2.6087261994 0.0277861812
H -3.0773825426 2.6233020604 2.4690487703

