# b3lyp 6-31G(2df,p) opt Freq 

 titel

0 1
C -0.1329403686 -0.1489508361 0.0670682903
C 1.3686100267 0.0953178197 0.0422669901
C 2.259211972 -0.6531151062 -0.9815752571
C 3.517660561 -0.5330920063 -0.0673339569
O 4.3561764994 0.5614789962 -0.1110285654
C 3.8662867786 -2.032560026 -0.1728104298
C 2.3227924802 -1.956140636 -0.1233019566
O 1.4163322778 -2.9911900736 -0.2531143118
C 2.3088754746 -0.7696695219 0.916908326
H -0.5760423801 0.2443028015 0.9894681249
H -0.6237731326 0.3577621606 -0.771728462
H -0.3649433374 -1.2148687769 0.0025418709
H 1.5946020281 1.1662785411 0.0995226674
H 2.2643896339 -0.6113699412 -2.072193881
H 4.9301696098 0.5379969451 0.6621903417
H 4.3115325842 -2.370925042 -1.1137490896
H 4.3678554627 -2.4882312241 0.6895557139
H 1.5565092675 -3.6108390594 0.4712226693
H 2.3702384521 -0.8604084342 2.0045991557

