# b3lyp 6-31G(2df,p) opt Freq 

 titel

0 1
C -1.0140590856 -1.2727501754 0.3993683879
C -0.9267639792 -0.2127850439 -0.6607452864
O -2.1241835031 0.5284939981 -0.8334459867
C -2.4182698267 0.6954577718 -2.2005313039
C -1.6122155254 1.6869782952 -2.997671758
C -1.2515506568 0.2119572975 -3.0241848569
C -0.2712718497 -0.3515696859 -2.0222134735
C 0.3574024115 0.5321102529 -0.9704630905
O 1.5649050371 0.041383074 -0.4599288342
H -1.3272560339 -0.8364823734 1.3544226387
H -1.74277605 -2.0424654083 0.1262120285
H -0.0389336341 -1.7453129334 0.5378238646
H -3.4601224344 0.5078102558 -2.4378216709
H -2.0778184251 2.0850830088 -3.8936656048
H -0.97702645 2.3933287023 -2.477325621
H -1.3906412297 -0.3418195344 -3.944515289
H 0.2764038745 -1.249839189 -2.2819203267
H 0.3071570753 1.6136826006 -1.083999615
H 1.6416733253 0.3363667666 0.4540586381

