# b3lyp 6-31G(2df,p) opt Freq 

 titel

0 1
O 0.288508341 0.1500658509 0.5923258931
C -0.6760239344 1.1494767233 0.5573230313
C -2.0001843025 0.8281366477 -0.1309582324
C -2.63316543 1.9518629437 0.7489592171
C -2.5389847878 3.3074295432 0.0326856897
C -1.1060624561 3.4518072317 -0.5419503971
C -0.191424724 2.6435221777 0.3705026047
O -0.5468903455 2.9575354477 1.7546118388
C -1.408827597 1.8101725307 1.7495404264
H 1.0234755804 0.4514243517 1.1385273462
H -2.0737712447 0.9226805999 -1.2182077967
H -2.3344791928 -0.1697397759 0.1658043322
H -3.6234571272 1.7553913457 1.1609025689
H -3.2931129484 3.3812920572 -0.7570469805
H -2.7317041729 4.111392382 0.7480683406
H -1.0376375257 3.0698756758 -1.5668827526
H -0.7941455531 4.5004428835 -0.5671476585
H 0.8787474824 2.7792827084 0.1825198749
H -1.5902146316 1.382993725 2.7373609239

