# b3lyp 6-31G(2df,p) opt Freq 

 titel

0 1
C -4.1686837944 0.6141972624 1.2592917932
C -2.6898970748 0.2452796616 1.2790756267
C -1.7044430142 1.4591757219 1.3225986712
C -1.1541635857 1.0807961546 -0.0948068964
C -1.0105119884 2.1442822579 -1.157730132
C -2.1012362093 -0.1532910351 -0.0934442047
O -0.9474061615 -1.0440305717 0.0439001306
C -0.0647622381 0.0134942126 0.0147487254
O 1.122737891 -0.0316517936 0.062492276
H -4.4722023161 1.057720239 2.2129475694
H -4.3887163407 1.3438793009 0.4712104948
H -4.7935831569 -0.2674982552 1.081878309
H -2.4960719374 -0.5180259017 2.0369083885
H -2.2235182328 2.421512144 1.3105743093
H -0.967045858 1.4734062183 2.1275094806
H -0.8091076147 1.706616742 -2.1405782475
H -1.9171150249 2.7531442957 -1.231380041
H -0.1759311747 2.8096237397 -0.9125330672
H -2.7481150685 -0.4679335233 -0.9128654858

