# b3lyp 6-31G(2df,p) opt Freq 

 titel

0 1
C -2.82749511 2.5308727801 0.9815486128
C -1.9205612196 1.2984813844 1.0514445366
C -2.7290002554 -0.0055643858 1.1301859807
C -1.8245457386 -1.243469757 1.2684009931
C -0.7672330599 -1.3186925909 0.1807952037
O -0.4600136275 -2.3293168664 -0.3990831214
C -0.061389847 0.0259368585 -0.1516968649
O 1.119929301 0.0507281051 -0.3892086742
C -0.9577930282 1.2509456867 -0.1544904085
H -3.4839751682 2.5865271114 1.8557467757
H -2.2405195402 3.4538258854 0.9425993195
H -3.4613865394 2.5007434157 0.0876703364
H -1.3117889053 1.373303258 1.9644564753
H -3.4205795451 0.0330702385 1.9785947954
H -3.3494077962 -0.1008554481 0.2285601576
H -1.2851615814 -1.1845897585 2.2262765497
H -2.3886841737 -2.1798869794 1.2718804935
H -0.3272627935 2.1422990921 -0.220387735
H -1.5586937318 1.2062485604 -1.0768770059

