# b3lyp 6-31G(2df,p) opt Freq 

 titel

0 1
C 0.7133977113 1.3363128498 -0.0870244817
C 1.5717164069 0.0835033895 -0.0841577406
C 0.0678168995 -0.001513009 0.0499059103
C -0.5760384815 -0.4336275849 1.3551725673
C -1.0164750086 -1.8883191631 1.2926559989
O -2.2534793702 -2.1391920816 0.6118444368
C -1.0476384935 -2.5798773771 -0.0052162669
C -0.6170984354 -1.8331302607 -1.2486519247
O -0.6444861533 -0.4266515604 -1.0831989271
H 0.7376436845 1.9863804391 0.7812047528
H 0.5796593581 1.8448629905 -1.0347005376
H 2.0037463916 -0.2177749038 -1.0319874573
H 2.1906819724 -0.1215065688 0.7829684174
H 0.1253623885 -0.2925159037 2.1835889189
H -1.457597503 0.1843993261 1.5635864805
H -0.8900600313 -2.4775473962 2.2003681125
H -0.9143743964 -3.6621852147 -0.0463280559
H 0.3932086223 -2.1770887945 -1.5265947782
H -1.293120272 -2.0542471064 -2.0809307052

