# b3lyp 6-31G(2df,p) opt Freq 

 titel

0 1
O 1.4988434629 1.0531452773 0.0066259812
C 0.2228863432 0.4417591579 0.1243325057
C -0.7685840404 1.289039066 -0.6653174143
C -2.1760592288 0.7345028729 -0.6084903097
O -2.301720989 -0.5632088541 -1.239179146
C -3.4672706534 -0.1493818612 -1.972872064
C -3.2476207042 1.3343898181 -1.5684919995
C -4.3521605568 2.0786876778 -1.0061046133
C -5.2715490329 2.6839739983 -0.5219678766
H 2.1430323902 0.4875571274 0.4420601714
H 0.225540525 -0.5817693252 -0.2775316425
H -0.0961694644 0.3826603565 1.178244084
H -0.7702654667 2.3102618249 -0.2639925395
H -0.4357731176 1.3444783249 -1.7079896489
H -2.5403979905 0.6926713542 0.4281472012
H -3.3916667335 -0.3825959913 -3.0397809837
H -4.3898831606 -0.5806934129 -1.5656442218
H -2.7712058891 1.9010153286 -2.3742939742
H -6.0829622633 3.22353261 -0.1000138893

