# b3lyp 6-31G(2df,p) opt Freq 

 titel

0 1
O -3.6482340931 1.0878149803 -3.2588408126
C -2.7801985536 1.6064281334 -2.6092823937
C -1.7564541204 0.8300723676 -1.7990970647
O -0.8272587256 1.745084657 -1.2736565441
C 0.0877519827 1.1738250744 -0.3768947699
C 1.2794856325 2.067377593 0.0320476554
C 1.9867282566 0.7505822517 0.4675608753
C 1.3545761158 0.4320873807 -0.9167140228
C 1.872204776 1.824143957 -1.3907772809
H -2.6563961534 2.7097386275 -2.540614241
H -2.2878138597 0.28369603 -1.000487166
H -1.2845697893 0.0746620085 -2.4466694395
H -0.4467604261 0.6663372789 0.4399686503
H 1.2297399145 3.0072701528 0.5822647495
H 3.0773778127 0.7836176084 0.4964872474
H 1.5774569601 0.2282971501 1.3374020013
H 1.397095754 -0.5150757836 -1.4558909958
H 2.9561802184 1.926886468 -1.4844778715
H 1.344783338 2.2879425944 -2.2235905468

