# b3lyp 6-31G(2df,p) opt Freq 

 titel

0 1
C -1.0634052221 1.9475676302 -1.3178396478
C -1.1270146919 1.0376076287 -0.0946631654
C -1.1261246364 1.856085546 1.2076455744
C -2.2067072913 -0.1016373574 -0.0299699126
C -2.5343200243 -0.8264615668 -1.3417552197
O -1.3709158721 -1.6834182791 -1.2205035084
C -1.0851898224 -1.1826665453 0.1085920295
C -0.0320880479 -0.0582249126 0.0028412921
O 1.1632312957 -0.0260622208 -0.0106031526
H -1.0235640339 1.3817703913 -2.2522628786
H -1.9305639853 2.6163241927 -1.3564370423
H -0.1614074114 2.5657606127 -1.2728131819
H -1.1764971293 1.2137205019 2.0934861919
H -0.2142957331 2.455831727 1.2806227764
H -1.9894000646 2.5300809794 1.2315088853
H -3.007781891 0.0379969621 0.6936819373
H -3.4571433344 -1.4184512218 -1.2999523198
H -2.5273990954 -0.2424119568 -2.2676847465
H -1.0033381486 -1.9700688314 0.8622261885

