# b3lyp 6-31G(2df,p) opt Freq 

 titel

0 1
C -2.0146223722 0.3448126708 -0.9806661773
C -0.8049815697 1.1804157465 -1.3001761936
C -0.83083405 2.1741098895 -2.4923547757
C 0.5665418373 1.6518063166 -2.9526312755
C 0.6052227343 0.6732944299 -1.7517061935
C 1.0862545613 1.3008066399 -0.4374184321
O -0.2295410404 1.8007633735 -0.1109221497
C 1.5580089062 0.3404300375 0.6377950216
O 2.2352601014 -0.6326976091 0.4299991283
H -1.7834253049 -0.4077587967 -0.2209189108
H -2.8204666725 0.9804812103 -0.596081943
H -2.3815466489 -0.1641474179 -1.8774917867
H -1.631476255 1.9836039381 -3.2118964688
H -0.8787552704 3.2187423754 -2.1785189105
H 0.5356471005 1.1380783768 -3.9158378533
H 1.3744194813 2.3874529072 -2.9854795258
H 0.8762074025 -0.3679929023 -1.9187206904
H 1.8295933425 2.1089685988 -0.5306950695
H 1.2043620569 0.6148838752 1.6574532762

