# b3lyp 6-31G(2df,p) opt Freq 

 titel

0 1
O -2.5780351151 -0.3624010265 -1.4896301698
C -2.1807856214 -0.1336245251 -0.1533970804
C -1.1224087525 -1.1633490861 0.3495967606
C -0.0436007113 -0.1333233558 -0.0390694065
O 1.1274210908 -0.2009584963 -0.2664970744
C -1.0963030008 0.9939948317 -0.1405261152
C -1.0274993301 2.0002687075 -1.2517964802
C -1.6784718245 3.3554379209 -1.1031586316
C -0.1763874185 3.2354949691 -1.0928703605
H -3.0914836703 -1.1758659497 -1.5165152426
H -3.0439207117 0.0290403711 0.5023279185
H -1.1513696837 -1.3276812194 1.4320047076
H -1.0875311511 -2.1284704806 -0.1619473232
H -1.1252258341 1.4993022247 0.8347797657
H -1.0600378829 1.561278659 -2.242227678
H -2.1578931308 3.7875499197 -1.974283601
H -2.1776739084 3.580915793 -0.1662170292
H 0.3781046969 3.5848106714 -1.956287528
H 0.3406197897 3.3785612114 -0.1500214418

