# b3lyp 6-31G(2df,p) opt Freq 

 titel

0 1
C -0.37883484 0.5465062944 -0.960870826
C 0.995185644 0.1305443164 -0.4546956807
C 0.9250824443 -0.5740457089 0.8891147971
O 1.6388351689 -0.7139182286 -1.4881786498
C 2.5858289284 0.2909265876 -1.7836206437
C 3.4737953135 0.5795491405 -0.6419670034
C 2.0760617299 1.2114299242 -0.6562077049
C 1.9076973525 2.6651729223 -0.6316358835
O 0.9242948631 3.2480108028 -0.2342065546
H -0.8348968295 1.2718524477 -0.2839789677
H -0.3048333424 1.0041028412 -1.9503669778
H -1.0202756073 -0.3368734634 -1.0349994468
H 0.3069488441 -1.4735762344 0.8072849797
H 1.9129475284 -0.8724130696 1.2464475738
H 0.4708664487 0.0877520958 1.6330473286
H 2.7987795607 0.5122407257 -2.8237926731
H 3.7057138197 -0.1981045598 0.0779701481
H 4.2713058822 1.2940662492 -0.8264495443
H 2.7917165008 3.2277211468 -1.0136375911

