# b3lyp 6-31G(2df,p) opt Freq 

 titel

0 1
C 0.1331346234 0.21752243 -0.094467445
C 1.6361908761 0.0425989857 -0.0048881085
C 2.2237203824 -1.0884959773 -0.842253759
C 3.7672087096 -1.211581472 -0.7631454387
C 4.4492280383 -0.2082077683 0.1309323818
O 5.8456765458 -0.2550205475 0.2103846067
C 3.6780030376 -1.3387065472 0.7638373105
C 2.1277881779 -1.2223771609 0.6587989757
O 1.3035495461 -2.07289591 1.3745513491
H -0.2585989585 0.7140509736 0.8005639116
H -0.1356455241 0.8321576863 -0.9597998335
H -0.3741002495 -0.7463613113 -0.1857593461
H 2.17266687 0.9798130522 0.1083377631
H 1.6323907391 -1.5675086047 -1.6127593428
H 4.3451474859 -1.8110074624 -1.4576025306
H 4.1402168854 0.8281149562 0.1985596242
H 6.1273924763 -1.1738170141 0.1409985341
H 4.1573511153 -2.0615914963 1.4141413198
H 1.1048646629 -1.6587324321 2.2228758675

