# b3lyp 6-31G(2df,p) opt Freq 

 titel

0 1
C 1.5453050135 0.1877303079 -3.1630209931
C 0.6685821618 0.9834096522 -2.1949625627
O 0.0511842235 0.1857253598 -1.1974868646
C -1.0202546238 -0.6147299308 -1.6660607261
C -1.7056764838 -1.2259412516 -0.5349925317
C -2.2866408464 -1.7434749289 0.3794491945
C 1.4734978024 2.0925444496 -1.4893315844
C 1.1434253223 2.3804152634 -0.0429625353
O 2.3080468506 2.7111658458 -2.1078831339
H 2.2530569882 -0.4323242471 -2.6046621371
H 0.9482690215 -0.4596938991 -3.8104564775
H 2.1084485815 0.8842732291 -3.7866491716
H -0.1132954631 1.5154625556 -2.7693712688
H -1.7312901935 0.0013747649 -2.2428117326
H -0.6597376436 -1.4028490882 -2.3445373908
H -2.7976704506 -2.198491333 1.1917325166
H 1.3494450097 1.4969854163 0.5688400045
H 1.734540352 3.2300353372 0.3000277939
H 0.0741800975 2.5842691168 0.0733159106

