# b3lyp 6-31G(2df,p) opt Freq 

 titel

0 1
C 0.0407934792 -2.5384405166 0.047217716
C -0.827365461 -1.2850124929 -0.0848287436
C -1.6737585883 -1.2898876232 -1.3717542387
C -2.4037327453 0.0169989408 -1.5905125889
C -3.0425368151 0.7609917852 -0.4286693615
C -1.7545966983 1.2450935177 -1.0343642626
O -0.5273272651 1.158601824 -0.3393536451
C 0.0226466655 -0.0223240063 0.0501582204
O 1.1294215553 -0.0100544423 0.5168728576
H 0.6130885701 -2.5183135805 0.9755920418
H -0.5863105656 -3.435216943 0.0350101048
H 0.7539802138 -2.6071399492 -0.7798126246
H -1.5151161116 -1.2580790999 0.7720858542
H -1.0123547909 -1.4717551336 -2.2290332157
H -2.3754557061 -2.1312639364 -1.3364336719
H -2.8876201575 0.1189975867 -2.5571801625
H -3.9373915105 1.3425179687 -0.6201488878
H -3.0050880824 0.3175177908 0.5594834641
H -1.7591183762 2.16996034 -1.5985842659

