# b3lyp 6-31G(2df,p) opt Freq 

 titel

0 1
C -3.075040167 -2.7661030341 2.32742361
C -2.1919027205 -2.6246506377 1.0877703392
O -1.7146294162 -1.2721840608 0.9727776542
C -0.2942386633 -1.2328617984 0.9460944882
C 0.1363667225 -2.6746324781 1.0564989166
C -0.9357691483 -3.4550430591 1.1143497524
C 0.2638161355 -0.5955941163 -0.3433540442
C -0.6771064299 -0.487250065 -1.5210682919
O 1.4172147452 -0.2366824283 -0.3713606353
H -3.4905838609 -3.777430477 2.3895810254
H -2.4975804073 -2.5682883003 3.2350744293
H -3.905305112 -2.0561268768 2.2792373619
H -2.7988009772 -2.8525673641 0.1962317871
H 0.0879772272 -0.6249871453 1.7797235007
H 1.1775810305 -2.966946402 1.0652858064
H -0.9487303102 -4.5350111912 1.1900252269
H -1.0753241586 -1.4756108641 -1.7756451613
H -1.5381061818 0.1329796945 -1.2548268196
H -0.1482772877 -0.0641447261 -2.3757032959

