# b3lyp 6-31G(2df,p) opt Freq 

 titel

0 1
C -2.1991793954 4.9546273499 -0.4719384041
O -1.1750612119 5.2696490346 0.4772236491
C -0.8535508767 4.3905490454 -0.6011131534
C -0.5366952573 2.9680669848 -0.2061276647
C 0.8209490517 2.8463784555 0.4974348999
C 1.2366101701 1.4014618462 0.5725371099
C 0.658028318 0.4722813123 -0.1836644819
C -0.4095075849 0.8137014633 -1.1852029175
O -0.5506195063 2.2050657329 -1.4056960654
H -3.0083979093 4.3306482413 -0.0953423299
H -2.5049714724 5.7763570803 -1.1173352576
H -0.1817668241 4.8111025691 -1.3511308488
H -1.3228661287 2.6096775093 0.4792536022
H 1.5758598531 3.4359487632 -0.042376095
H 0.7469012002 3.2854533732 1.499039019
H 2.0229795965 1.1340444122 1.273085889
H 0.9333008321 -0.5761280428 -0.1059346118
H -0.1717643405 0.3774445366 -2.1630129665
H -1.3745199241 0.3740843226 -0.8703726925

