# b3lyp 6-31G(2df,p) opt Freq 

 titel

0 1
C -4.3729395134 2.9376559212 -5.7104362433
C -3.4062525476 3.9288979812 -5.0897976636
O -3.1232015436 4.9743425347 -5.6298609479
C -2.8426191939 3.5554001157 -3.7312933087
C -1.611373088 4.3579249459 -3.2262207499
C -2.3326183123 4.5214799603 -1.890512816
C -1.8377531724 4.2631938227 -0.5379378203
O -2.1586634581 5.590250913 -0.9862513437
C -3.6692865841 4.1025295 -2.505119837
H -5.1544693899 2.658843439 -4.9946998843
H -4.8224652389 3.3619523272 -6.6088124141
H -3.8393834359 2.0155056506 -5.9701035459
H -2.7116968231 2.4731997503 -3.6514805197
H -0.6430180249 3.8535141605 -3.2276924046
H -1.5365908871 5.3038878789 -3.7691006716
H -2.5062326904 3.8531654702 0.2186674236
H -0.7777454752 4.0706001942 -0.3750559892
H -4.2899481767 3.3914027662 -1.9561388399
H -4.2691376145 4.9749702582 -2.7808657738

