# b3lyp 6-31G(2df,p) opt Freq 

 titel

0 1
C 1.5958626311 -0.4348461731 -0.1037343405
O 0.2134557218 -0.1505482486 -0.0577734617
C -0.1925366981 0.5272663667 1.1032240232
C 0.0259686952 2.0561779707 1.1137667366
C -1.0497163585 2.5428844674 0.1003223136
C -2.0481960624 2.0363243956 1.1987070356
C -0.9631202026 2.4948272394 2.2306662371
C -1.7528840875 0.5494942148 1.1564435026
O -2.4985654243 -0.3892720317 1.1462751236
H 1.9107844221 -1.0336438441 0.7644300145
H 1.7739193347 -1.0111007556 -1.014531663
H 2.2105592065 0.4765592103 -0.1373489094
H 0.2211072002 0.0427876134 2.0023039209
H 1.0527214233 2.4190936939 1.086059934
H -1.0773362444 3.6303072445 0.0049866664
H -1.0777575511 2.067242406 -0.8819467927
H -3.0925071342 2.3358114531 1.2479064352
H -0.9753689294 3.5770898566 2.3746445038
H -0.9221144225 1.9868154709 3.1991669901

