# b3lyp 6-31G(2df,p) opt Freq 

 titel

0 1
O 1.9269294005 0.5856626163 -0.0896919955
C 0.5259853886 0.8168149201 0.0443340988
C -0.2442249132 0.4384904478 -1.1896164212
C -1.2148735793 -0.4780327313 -1.1990047045
C -1.970857565 -0.7658181672 -2.4416647153
C -1.4400528627 -1.735044071 -3.4923814922
C -1.3602020876 -0.249600526 -3.7140931553
O -0.0869108223 0.323260096 -3.6328733479
C 0.1335651494 1.1299242741 -2.4822887109
H 2.0419950779 -0.348618656 -0.2944145348
H 0.1103448094 0.2908789732 0.9169649047
H 0.4381294887 1.8929359122 0.2404425849
H -1.4889742982 -1.0078513081 -0.2887962625
H -3.0528822114 -0.7148597444 -2.3530079852
H -0.5009477352 -2.2334008446 -3.2813661849
H -2.1590422508 -2.3129072912 -4.0630333631
H -2.0020202947 0.2075634167 -4.4652978001
H 1.2029792068 1.3570844773 -2.4783467765
H -0.408037041 2.0880924363 -2.5670481285

