# b3lyp 6-31G(2df,p) opt Freq 

 titel

0 1
C 1.4503286836 -0.0750259796 0.0126133695
O 0.0387364148 -0.0665246747 0.1025800587
C -0.4807545984 0.6411771481 1.1955531121
C -1.9962611649 0.8810993746 1.0609003044
O -1.834169054 2.2844897029 1.3556101104
C -0.391963433 2.2019610952 1.2807995175
C 0.2876845336 2.5644666495 2.6047671148
C 0.3866583757 1.2298910166 3.313719612
C -0.0112604273 0.2034179538 2.5610098223
H 1.9194105394 -0.5454651435 0.8867526045
H 1.705063982 -0.6481884546 -0.8816088336
H 1.8577539887 0.9415016589 -0.0917763048
H -2.3539059187 0.7093401534 0.0380249695
H -2.6535709185 0.3807874996 1.7798439327
H -0.0032069607 2.7293945498 0.403119191
H 1.2732602654 3.0291085953 2.4677280307
H -0.3320196003 3.2830891279 3.1534928982
H 0.738544894 1.1455076308 4.3367382808
H -0.0333426314 -0.836592414 2.8681497692

