# b3lyp 6-31G(2df,p) opt Freq 

 titel

0 1
C 1.2070645276 0.9153465706 -0.2210279874
C -0.111241025 0.2291262585 -0.0374997293
C -0.336084674 -1.0627306262 0.2226136317
C -1.7998216767 -1.4160342432 0.3672513576
C -2.4908771024 -0.0535840784 0.2594731859
O -2.662295191 0.5943208852 1.5431633839
C -1.8617689786 1.7268504223 1.1458334593
C -1.4111108284 0.9996118987 -0.1345899402
O -1.5398837152 1.7957502467 -1.2873598471
H 1.3774319295 1.660640104 0.5663701805
H 2.0373472533 0.2049552126 -0.2000044157
H 1.2396568989 1.4611397395 -1.1707922009
H 0.4492877474 -1.8038327978 0.33827877
H -2.1320019941 -2.1261670903 -0.4019622177
H -2.0275659225 -1.8697687692 1.3389661005
H -3.4195695532 -0.0482533517 -0.3213667188
H -2.4723306511 2.6127521028 0.9287512814
H -1.0958927138 1.9753490809 1.888945135
H -1.2723834109 1.2667993149 -2.0472618386

