# b3lyp 6-31G(2df,p) opt Freq 

 titel

0 1
O -1.6915728577 0.2896459189 -2.0741027817
C -0.843829877 -0.4410971508 -1.20343633
C -0.3057444969 0.4502794666 -0.0867008628
O 0.3684050992 1.6398647205 -0.5366320356
C 1.1551591156 0.5754482365 0.0196181915
C 1.9694614041 -0.2847525849 -0.9405850523
C 1.4096106895 -0.1376709463 -2.3800108654
C 0.3060459561 -1.1452212227 -1.9512044972
C 1.3376770393 -1.7122442623 -0.9302679532
H -1.2424655278 1.1243428422 -2.2547760795
H -1.47800704 -1.2122645363 -0.7484161465
H -0.948336667 0.6103108847 0.7770422534
H 1.6046878949 0.8138976756 0.9820350088
H 3.0435442657 -0.1779218615 -0.7777487604
H 1.1176226895 0.8580992459 -2.7136498324
H 2.0880592637 -0.5855784545 -3.1101713806
H -0.104937166 -1.8143315182 -2.7097498547
H 0.966025947 -2.099298942 0.0240387993
H 1.9953303179 -2.4540148914 -1.3902230105

