# b3lyp 6-31G(2df,p) opt Freq 

 titel

0 1
C 1.3574174481 -0.3832398181 -1.1813479085
C 0.9358119123 0.1164748603 0.1974252815
C 1.6003719532 1.4684814147 0.568109013
O 1.002092315 2.054136434 1.7468253978
C 1.7953800527 1.2185427107 2.612426492
C 1.1806435587 -0.1941727988 2.7578113175
O 1.8813905222 -0.8441351046 3.8002069546
C 1.7367393689 -0.5549124142 1.3511270265
C 2.6628919204 0.7206505857 1.423650016
H 1.0416927191 -1.420006373 -1.3373914015
H 0.9142632444 0.2287361643 -1.9741781454
H 2.4466943972 -0.3478542103 -1.3019501175
H -0.1549923108 0.1066717699 0.2977052991
H 1.7777144879 2.2084751453 -0.2159649695
H 2.1313917962 1.7244515183 3.5189014776
H 0.0912427894 -0.2419816982 2.8955932467
H 1.7484081956 -1.7929187337 3.7048425459
H 2.088724119 -1.5787439986 1.204439178
H 3.7435343306 0.7685195363 1.3319988761

