# b3lyp 6-31G(2df,p) opt Freq 

 titel

0 1
O 4.3714496203 -0.5439315751 -1.0349357192
C 4.2849862101 0.6658335801 -1.7726002145
C 3.6543914771 0.3270811721 -3.1286433503
C 2.1595567502 0.1693662809 -3.0497290652
C 1.4151602319 0.6052533894 -2.0351021496
C 1.9998322597 1.3241841106 -0.8350999873
C 3.4634290688 1.7401087572 -1.0471047744
C 1.7767634242 0.4750692035 0.4062750429
O 2.6401525458 0.0757894532 1.1502798106
H 4.1948370619 -0.354612574 -0.1046243209
H 5.2969903988 1.0655748784 -1.9442007879
H 3.9066961518 1.102109955 -3.8668284296
H 4.1089518995 -0.6003200586 -3.4947146233
H 1.6715618049 -0.3208597486 -3.8889758798
H 0.3389624216 0.4521340146 -2.0377197364
H 1.3869733949 2.2238315376 -0.6570605086
H 3.4864559147 2.656761664 -1.6466491149
H 3.9257116235 1.9744516072 -0.0824322249
H 0.7094384404 0.2353346126 0.6077536933

