# b3lyp 6-31G(2df,p) opt Freq 

 titel

0 1
C -0.1448746774 -0.0825209292 -0.0973148998
C 1.362043022 0.0793150783 0.0388325327
C 1.9587928109 -0.6215775588 1.2924926478
C 2.8461837603 0.4214650068 1.9211152125
C 2.7863720342 1.5973467534 1.2982757028
C 1.8615516194 1.5657296362 0.1092913773
O 2.5144739692 1.785833098 -1.1436397156
C 2.9627092728 0.5163185133 -1.5481620029
O 1.9664804024 -0.4055349569 -1.1698882653
H -0.6575129573 0.2890036132 0.795698064
H -0.5075721784 0.4704374379 -0.9683349944
H -0.4050520432 -1.1374610963 -0.227766838
H 1.1711369693 -0.9472389975 1.9840117303
H 2.5062897703 -1.5232512478 0.9968757481
H 3.4472240091 0.2138774666 2.8007817471
H 3.3320810587 2.4923327297 1.5738138788
H 1.0536116066 2.3013922183 0.1691693094
H 3.0692862045 0.5069679344 -2.6368228637
H 3.9265037764 0.2672353901 -1.0701425611

