# b3lyp 6-31G(2df,p) opt Freq 

 titel

0 1
C 1.2132101798 1.1232535755 -0.0893161744
C -0.0379722507 0.3407685096 0.1506353027
C -0.1616153193 -0.9530855874 0.4544683287
C -1.5922416176 -1.3991375059 0.6238675647
C -2.4196113036 -0.1578074551 0.2132685115
O -3.0249306582 -0.2779868607 -1.0737879852
C -2.2243700133 0.4461713443 -1.9826006081
O -1.6698144814 1.5234515714 -1.2684377543
C -1.3957653202 1.0036934079 0.0365604446
H 1.3269236004 1.9257619239 0.6510854662
H 2.1033908836 0.490339538 -0.0444445962
H 1.1777498802 1.6086839747 -1.0712343446
H 0.6751364793 -1.632301902 0.5890305646
H -1.8549455937 -2.2575641029 -0.0042719196
H -1.8043278501 -1.6934671295 1.6601954705
H -3.2181615082 0.063790739 0.9253309301
H -1.4324166907 -0.1988894776 -2.401339732
H -2.8553210245 0.8389790595 -2.7851914494
H -1.5232329019 1.8374764373 0.7347780703

