# b3lyp 6-31G(2df,p) opt Freq 

 titel

0 1
O -6.0938642179 -0.269916245 2.1381424558
C -4.7491786 -0.6454800481 2.0247259302
C -3.6352521226 0.4083195013 1.7960535417
C -4.0399371686 0.5020022807 0.2838935036
C -2.7865536919 0.7233202223 -0.5599652925
C -1.7895218789 -0.2006803566 0.198998119
O -0.6423181891 0.4515755694 0.7190577687
C -2.7212412142 -0.756098454 1.2752817315
C -4.1288329588 -1.0215957236 0.6542196325
H -6.3066783189 0.3533810856 1.4362660344
H -4.5702993035 -1.3550545292 2.836727754
H -3.3480214744 1.2332749404 2.4532096368
H -4.9420491573 1.0469468521 -0.0042588114
H -2.9296007944 0.4304728774 -1.6049178152
H -2.435530358 1.7604984825 -0.55111919
H -1.3905756597 -0.9921204836 -0.4423085346
H -0.9409948347 1.1049401848 1.3612905461
H -2.3052500289 -1.4687641963 1.9894349346
H -4.4023533481 -1.8424611002 -0.0119442251

