# b3lyp 6-31G(2df,p) opt Freq 

 titel

0 1
O -1.3102386334 -0.1501919373 -2.1811768927
C -0.5471202134 -0.745046638 -1.4504279266
C -0.298015861 -2.2113199493 -1.6920302123
C -0.4617281749 -3.1985119425 -0.6050511363
O 0.8295004752 -2.8171797574 -1.0538176869
C 0.2198609376 -0.0752284542 -0.3377858293
C -0.2547671609 1.3235479239 0.1287198953
C 1.2202840522 1.8044884273 0.1130602127
C 1.5795798456 0.5828060383 -0.7736518397
H -0.4955426955 -2.5332409361 -2.7131028192
H -0.7338647269 -2.8634960085 0.3946059403
H -0.7755961971 -4.2082219424 -0.8637778789
H 0.3984698244 -0.765905764 0.4891294038
H -0.8548250559 1.792535498 -0.6543476299
H -0.7981299933 1.3743041545 1.0748230123
H 1.4228203683 2.7961884102 -0.2972536844
H 1.6846359855 1.7362871622 1.1008723166
H 1.5717975376 0.8345947487 -1.8376282508
H 2.4879945758 0.0230486868 -0.5462698339

