# b3lyp 6-31G(2df,p) opt Freq 

 titel

0 1
C 1.0407441955 1.1690799708 -0.232477983
C 0.9077756961 -0.3127479945 0.0959895064
C 1.5279768448 -1.2875663725 -0.9606265305
C 2.6618907831 -1.5719055529 0.021783083
C 4.1042441404 -1.6670182017 -0.2039449227
O 3.3240732791 -2.8136397498 0.1692158881
C 1.9116938515 -0.8424604083 1.1617217025
C 1.3395938228 -1.8006341839 2.1821928476
O 0.1749448364 -2.0964370304 2.2703032188
H 0.7404365588 1.790898332 0.6176545087
H 2.073166152 1.4325499159 -0.4910291806
H 0.4071944558 1.4386138198 -1.0840343932
H -0.1216977207 -0.5612474255 0.3594764863
H 0.913017008 -2.1736211911 -1.1386906775
H 1.8131243246 -0.8514317697 -1.9217081498
H 4.4903516862 -1.6808867428 -1.2223956347
H 4.8000400566 -1.3086831696 0.5541621664
H 2.5135329894 -0.0938308774 1.6915785837
H 2.0954118395 -2.2446344185 2.8657512606

