# b3lyp 6-31G(2df,p) opt Freq 

 titel

0 1
C -3.12762349 0.7097990484 -1.327433655
C -2.6152852572 -0.0027340173 -0.0550090513
C -3.2329599714 -1.4109744844 0.0698890981
C -2.9900188343 0.8376189244 1.2003212783
O -2.4411106669 2.1345771799 1.1878636654
C -1.1554235906 -0.0963617148 -0.1110187017
C 0.0542692937 -0.1229095142 -0.1146314932
C 1.4923628317 -0.18501639 -0.1445645532
O 2.2209180774 0.5850825732 0.4393279737
H -2.8053595444 0.1849643014 -2.2303861618
H -4.2221752248 0.7344730871 -1.3128503555
H -2.7593059671 1.7365678399 -1.3609225317
H -2.8588872283 -1.9318757045 0.9559047899
H -4.3219915361 -1.3318508327 0.1502307258
H -2.9980488518 -2.0188191186 -0.8077572677
H -4.0779935621 0.9631520463 1.2180250912
H -2.6994449277 0.2795271801 2.1031354746
H -1.4807550286 2.045619626 1.2169723867
H 1.9001794384 -1.0132700101 -0.7587826326

