# b3lyp 6-31G(2df,p) opt Freq 

 titel

0 1
C 1.4457149247 0.1103023446 -0.0369320028
O 0.0347577451 0.0609314106 0.0878223137
C -0.4380850862 0.7022101329 1.2197044293
C -1.7667120931 0.2724340692 1.6856763629
C -0.5046470059 -0.1795020165 2.4872393267
C -0.9921511925 0.6245095598 3.643958921
O -0.6868907312 0.6921747097 4.8027884069
C -2.2242672373 1.1647890515 2.8569679333
C -3.54496626 0.7844773066 3.521823924
H 1.9437678872 -0.4011892982 0.7980498437
H 1.6997285012 -0.3928401216 -0.9718632532
H 1.8082529745 1.1475458939 -0.0778756426
H -0.1280759351 1.7467403562 1.3092551413
H -2.4069201388 -0.3613961389 1.0862880624
H 0.0258182777 -1.1235873941 2.4968146267
H -2.198564705 2.2396989477 2.6411029196
H -3.6451910555 1.3029988075 4.4791082201
H -4.3962823357 1.0556292714 2.8899329133
H -3.5936122242 -0.2919195423 3.7167769434

