# b3lyp 6-31G(2df,p) opt Freq 

 titel

0 1
O -2.2122676705 0.7083082708 2.9021194649
C -1.8334600142 -0.4657672674 2.2033215279
C -0.3408656189 -0.5055672422 1.8695413726
C 0.0521157982 -1.7450777209 1.0591333068
C 1.5558798787 -1.7800415842 0.7266081769
C 1.9469258491 -3.018722952 -0.058383321
O 2.3310569227 -2.9850456659 -1.2069478428
C 1.8238079103 -4.2835800676 0.6558636576
C 1.7296459084 -5.3244725616 1.2536332332
H -1.7523616355 0.7090865746 3.7475985235
H -2.11736048 -1.3740493532 2.7602008892
H -2.4225761594 -0.4613302317 1.2794044904
H -0.0813424451 0.4071036595 1.3198928799
H 0.2374781814 -0.4825048281 2.8048933743
H -0.2168346336 -2.6525517958 1.6133080613
H -0.5209408156 -1.7700034772 0.12366216
H 1.8418077607 -0.9123643981 0.1254046694
H 2.1333907123 -1.7621383824 1.6600371956
H 1.6515868609 -6.2530398066 1.7654230502

