# b3lyp 6-31G(2df,p) opt Freq 

 titel

0 1
C 1.5749773133 -0.8712398873 0.661431289
C 1.0435865693 0.1917515145 -0.3187376478
C 1.6920859737 1.5388614972 -0.1781172084
C 1.107649028 2.6786052879 0.2205377311
C 2.0368545282 3.8376171332 0.0980762561
O 2.4742865101 4.0698923764 -1.2670241189
C 3.3095683626 3.3016727114 -0.4075597404
C 3.1539514658 1.786744217 -0.5517990905
O 4.0878392571 1.0825130887 0.2625758336
H 1.0688078369 -1.8277958783 0.4995806253
H 2.6493916053 -1.0198180292 0.5349886684
H 1.3947741002 -0.5669652368 1.6980718918
H 1.1971792947 -0.1677939283 -1.3454428315
H -0.0388604332 0.3016131886 -0.1885984262
H 0.0714926308 2.7756673508 0.5246154728
H 1.9478181779 4.7317977799 0.7066822907
H 4.2900062599 3.711256614 -0.1763212564
H 3.3637506594 1.4637568648 -1.5775905139
H 3.85240251 1.2533496557 1.1817185152

