# b3lyp 6-31G(2df,p) opt Freq 

 titel

0 1
C 2.876042253 -0.7730876352 1.3377299424
C 2.0563210347 -0.0218852323 0.281574283
C 2.2599984966 -0.5885681618 -1.1194611509
C 1.3766792339 -0.0795730269 -2.2903037598
C 0.2588637276 -1.0366801209 -1.8274465572
C 1.5077054707 -1.9289614585 -1.5043857976
C 2.0513437606 -2.0827919002 -2.9174612619
O 2.4870447468 -3.0130326741 -3.5242845651
O 1.9444072806 -0.8052730588 -3.4251522364
H 2.7393742402 -0.3293675122 2.3281244646
H 2.5789497518 -1.8250961691 1.3999342099
H 3.9451441838 -0.7442110982 1.1022716084
H 0.9992426809 -0.0310052629 0.5671039614
H 2.3590331174 1.0334283778 0.2697998408
H 3.3285835385 -0.5857078489 -1.3613639328
H 1.2389380432 0.9651385031 -2.5617972637
H -0.279142791 -0.7055132051 -0.9405059612
H -0.4372031393 -1.3881592395 -2.5917187303
H 1.4828352298 -2.8235975364 -0.8881141836

