# b3lyp 6-31G(2df,p) opt Freq 

 titel

0 1
C -2.9955124073 -1.9191566261 3.0057912651
C -2.0965301431 -1.1079204243 2.0760105206
C -2.8526734122 -0.1079211387 1.1706523074
C -1.8897544095 0.2003155261 0.033828279
O -0.7938964936 1.0955037998 0.4495763986
C 0.1313752642 0.0843438303 0.3651961353
O 1.2991311632 0.1501153225 0.5798476549
C -0.8894979606 -0.9803561816 -0.0466028007
C -1.2856493231 -1.9592207363 1.0703257678
H -3.5490643369 -1.2681857558 3.6902796985
H -3.727309184 -2.50289389 2.4349473275
H -2.4112917081 -2.618219758 3.6129561856
H -1.3872845566 -0.5374642518 2.6889280962
H -3.7454056736 -0.5878343866 0.7474672781
H -3.1791086268 0.7948645535 1.6943390378
H -2.341293768 0.5786520512 -0.8835534128
H -0.6908531329 -1.4414966393 -1.0141504794
H -1.9219971131 -2.7475038184 0.6492930591
H -0.4182919282 -2.4456278564 1.5249987016

