# b3lyp 6-31G(2df,p) opt Freq 

 titel

0 1
O 1.3467827415 -0.2385687544 0.0446416026
C 0.1643155568 -0.0180994478 0.0781737504
C -0.5358571811 0.7324880961 1.2105044066
C -1.2105792669 2.0265840375 0.706879866
O -2.0506522427 1.8970238018 -0.4194409258
C -3.1096820956 0.9509341768 -0.3752947135
C -3.6912664838 0.6331716221 1.0045793699
C -2.8060521137 -0.2127349105 1.8889045694
C -1.4734862611 -0.1910105408 1.9557665198
H -0.5109714202 -0.3734111734 -0.7296448977
H 0.2641674564 1.0347947488 1.8973610066
H -1.745049235 2.4778856388 1.5562727339
H -0.436683051 2.7346834296 0.3947703677
H -3.8958065552 1.36754702 -1.0145349271
H -2.7797342063 0.0059827324 -0.834965775
H -3.9839866235 1.5622380332 1.5132209669
H -4.6287810476 0.0909561031 0.8336715765
H -3.328228015 -0.9173839339 2.5326382824
H -0.9804560961 -0.8938947794 2.6235104304

