# b3lyp 6-31G(2df,p) opt Freq 

 titel

0 1
C 1.4194683908 -0.1428283885 0.0295695398
O 0.004035771 0.0000989889 0.0117981897
C -0.5113327413 0.7241444098 1.0645315359
C -1.9121286331 0.36064181 1.5020076181
C -0.7795281808 0.1506439445 2.4626792734
C -0.547811284 1.2465408584 3.5000094516
C -0.4889538879 2.5677633559 2.6982268542
C -0.1217835426 2.1616278476 1.2646495176
O 0.4582920501 2.8472884545 0.4584044078
H 1.7587617338 -0.620937429 0.9596259514
H 1.6751672123 -0.7866285012 -0.8144182486
H 1.9202138815 0.8236451906 -0.0861514088
H -2.6464341942 1.1401940137 1.6774305747
H -2.2954768329 -0.5215023212 1.0017319212
H -0.4850781735 -0.8681303359 2.6864278003
H -1.3255907764 1.2567907396 4.2707481352
H 0.4076853058 1.0756919466 4.0068311175
H -1.4552245789 3.0856687556 2.6803756836
H 0.2438139204 3.2815588301 3.0786595952

