# b3lyp 6-31G(2df,p) opt Freq 

 titel

0 1
O -0.713533751 -1.214143733 -1.9107232147
C -0.9602234465 -0.5459860513 -0.7182062184
C -1.8334917676 0.7051115306 -0.8704281524
O -2.6488127503 0.3316473929 0.2660336581
C -1.9638297239 -0.925195049 0.4321531519
C -0.8197354312 -0.8398004716 1.4727181729
C 0.1497253758 -0.4432577608 0.3410803011
C 1.5515420142 -0.9538543709 0.1488436119
C 1.2983621325 0.5188260782 0.3732004519
H -0.1479658713 -1.9705001185 -1.7189502992
H -1.3451438627 1.6772933133 -0.7376512147
H -2.413493421 0.7022663031 -1.8014047259
H -2.640966179 -1.7825741563 0.4441225259
H -0.993854713 -0.0890449601 2.246975511
H -0.5770567071 -1.7979552502 1.943393263
H 1.9981550655 -1.5331644871 0.9507601734
H 1.8556169786 -1.2590635859 -0.8486648898
H 1.5755097151 0.9462831118 1.3313130939
H 1.4307594227 1.1880611747 -0.4713436198

