# b3lyp 6-31G(2df,p) opt Freq 

 titel

0 1
O 0.1821705699 0.6159324868 -1.058016698
C 0.5404733303 0.0579503099 0.1896520584
C -0.2007629791 0.7132870083 1.35426682
C 0.2401357787 0.3540851722 2.8286558748
C 0.4669673177 1.8394803708 3.1204215485
C 1.4939704405 2.3887938464 2.1777444743
C 0.0898232356 2.1996076266 1.6788369324
C -1.693420665 0.5326404998 1.2278437069
O -2.2576556677 0.0443845175 0.2762363211
H -0.7478634774 0.388872068 -1.1845875465
H 0.3603433416 -1.0290117691 0.2180892726
H 1.6186280059 0.2091426206 0.3031488556
H -0.5661817431 -0.0985686383 3.4113772971
H 1.1218419379 -0.2909590444 2.900893598
H 0.1987589614 2.3413233386 4.0413591716
H 1.7704189895 3.4254145349 2.3412094222
H 2.3099802619 1.7659811088 1.8206227284
H -0.4929471609 3.0324350859 1.3053548471
H -2.2785054776 0.9038788567 2.0997840556

