# b3lyp 6-31G(2df,p) opt Freq 

 titel

0 1
C 1.1314494672 0.5286607732 3.2787930148
C 0.9356062467 -0.782019116 2.5728510701
C 0.8719627089 0.5121885034 1.788227966
C -0.5294466072 0.650602014 1.2065894761
C -1.599580872 0.6289535853 2.2951102946
O -1.4318512862 -0.5469042281 3.1011506127
C -0.4491496434 -1.4249232145 2.5516036198
C -0.8058475757 -1.6992708497 1.0810678337
O -0.767129831 -0.4735249629 0.3396650442
H 0.365277854 0.8668721186 3.9646904691
H 2.1437637575 0.7740742179 3.5803489217
H 1.7786385952 -1.4540125577 2.4476115874
H 1.6867480734 0.7767435824 1.123398991
H -0.6405034365 1.5356821997 0.5759635145
H -1.5369012454 1.5118487031 2.9428357997
H -2.5918059358 0.6131324538 1.8257756173
H -0.4980958833 -2.342488014 3.1431437909
H -0.0959338125 -2.4089436468 0.6354187632
H -1.8138751538 -2.1299634916 1.0160226633

