# b3lyp 6-31G(2df,p) opt Freq 

 titel

0 1
C -1.1203006737 -1.298739543 -0.8287353837
C -0.5087888425 -1.6786233413 0.5091462366
O -0.7069552034 -2.75865262 1.015425757
C 0.4105931043 -0.6508346543 1.1595118431
C -0.2239841233 0.7527544322 1.4695764504
C 0.0409410655 0.7428689156 2.9914383017
C 1.5034402335 0.2667355229 3.1221010563
C 0.8031016795 -1.0108595098 2.6102022742
O -0.3881826102 -0.6034768255 3.3554289215
H -1.6650989225 -2.1500087898 -1.2384696034
H -1.8045942738 -0.4514901791 -0.7127794371
H -0.34123561 -0.9812092387 -1.5310725746
H 1.2886582936 -0.5450964324 0.5095587999
H 0.26338138 1.5775623978 0.9437009314
H -1.2963273513 0.7909978725 1.2655096058
H -0.3957603673 1.533837662 3.6009817334
H 2.2812700625 0.7384753882 2.5149473844
H 1.8084064934 0.1721596082 4.1643669849
H 1.1349237456 -2.0253621755 2.815881518

