# b3lyp 6-31G(2df,p) opt Freq 

 titel

0 1
C 2.9107724716 1.2043756482 1.9202097185
C 3.0165262816 -0.3263890395 2.0207271984
C 2.1360036286 -1.0196831326 0.9814991776
O 4.3547716658 -0.740786338 1.7695933776
C 2.6142902985 -0.760428956 3.4296450493
O 3.6464843734 -0.6557371462 4.4108065934
C 3.173060362 -1.9776478504 4.048037657
C 2.4603459762 -2.7154205242 5.0534917441
C 1.869096029 -3.3545038301 5.8820897024
H 3.5300676935 1.6822441287 2.6865127284
H 3.2605626115 1.5336302345 0.9382991034
H 1.879242514 1.5455385362 2.0568090718
H 1.0815578463 -0.7684334797 1.1303469831
H 2.4276145211 -0.7024843377 -0.0235467759
H 2.2504744977 -2.1048805649 1.0461375615
H 4.8701751704 -0.4643584018 2.5395796521
H 1.635501479 -0.424295448 3.7722774158
H 3.891013666 -2.5413724674 3.456886
H 1.3483244739 -3.917178111 6.6171328916

