# b3lyp 6-31G(2df,p) opt Freq 

 titel

0 1
C 0.2145363663 -1.9009196887 -2.1283447734
C 0.2869417651 -2.0018903253 -0.5664239944
C 0.6929588285 -0.5297463394 -0.5222746591
O 0.2566666504 0.2971394222 0.5058712481
C 0.9632895307 1.534824605 0.3619694804
C 2.3797485638 1.152231658 -0.1152183982
C 2.1386970727 -0.1248065323 -0.9200958855
O 1.7557310382 0.0921050903 -2.301620311
C 0.4102874841 -0.3569787319 -2.0485485205
H 1.0292259719 -2.3934588615 -2.6627056736
H -0.7371438187 -2.2198561198 -2.5578108359
H -0.6986262963 -2.1518203774 -0.1186550822
H 0.9843540329 -2.7225195775 -0.1314384482
H 0.459345484 2.1690820534 -0.3807939346
H 0.9423135522 2.0455036725 1.326920348
H 2.8565050806 1.9317430951 -0.7135418381
H 3.0217675791 0.9267254254 0.7420618278
H 2.9439702737 -0.8608887157 -0.8337769804
H -0.3454037792 0.2843172677 -2.5071141393

