# b3lyp 6-31G(2df,p) opt Freq 

 titel

0 1
C -3.1691750352 -0.0072121531 1.1617808976
C -2.2150179173 -0.175767718 0.0035963198
C -2.7220779462 -0.7195171263 -1.3505297903
C -1.4984071741 -1.6730808932 -1.4501626666
C -1.0407956153 -1.3102321051 -0.0114084927
O -0.884738551 -2.393463921 0.8347228177
C -0.0656115703 -0.1654673062 0.1498425341
O 0.9963115455 -0.1387895877 0.7158686436
C -1.1091528142 0.9148597707 -0.1701373026
H -3.7219786181 -0.9332081097 1.3499918451
H -2.6391713475 0.2573461374 2.0837243995
H -3.8995928234 0.7859059018 0.9613628809
H -3.6635101319 -1.2672342329 -1.2556392303
H -2.8351539412 0.0223462783 -2.1458751854
H -1.7623893872 -2.7309276378 -1.4977836977
H -0.7750080614 -1.4615636218 -2.241396752
H -0.2023989135 -2.16041703 1.4783973448
H -1.1158853645 1.7222361814 0.5668033955
H -1.0376065834 1.3512620531 -1.1702150111

