# b3lyp 6-31G(2df,p) opt Freq 

 titel

0 1
C -0.1807413972 0.7737848018 -2.5147154432
C -1.2566633932 0.5904202621 -1.4434986216
C -2.5621720641 1.2519847873 -1.8761827547
O -1.4915936331 -0.8514709848 -1.2450448331
C -1.0857488135 -1.0759689987 0.1096592607
C -1.7309676201 0.1098193147 0.880698118
C -0.767990761 0.963324125 -0.0175128278
C 0.2012385959 -0.2225475083 0.2222695306
O 1.3456561533 -0.3692344193 0.5237511097
H 0.7442858402 0.258778514 -2.2436652852
H -0.5303470353 0.3678262629 -3.4683930437
H 0.0467872518 1.8353438706 -2.6576822048
H -3.3370411103 1.1838292788 -1.1100597295
H -2.397713396 2.3090478431 -2.108846651
H -2.9384069464 0.7580863854 -2.7774210249
H -1.1787446402 -2.124716747 0.3795503231
H -2.8029712796 0.2380102299 0.732396203
H -1.4700686163 0.1437267804 1.9402763899
H -0.5072654547 1.9997045222 0.1832477544

