# b3lyp 6-31G(2df,p) opt Freq 

 titel

0 1
C -0.1187838458 0.1137393041 0.2817459326
C 1.3216137974 -0.0940696637 -0.1261559843
O 1.6379660332 0.7637299453 -1.2108473156
C 2.6677437878 0.1768210424 -1.9994038098
C 2.4238817953 -1.3386719156 -1.9285910394
C 1.866302952 -1.5373868701 -0.5167666482
C 2.8875941628 -1.3966790986 0.6204952142
O 2.1482733179 -1.1960634388 1.8309543663
C 2.3936530385 -0.0615137161 0.9921965854
H -0.3450703957 -0.4851397578 1.1667680254
H -0.2996230983 1.1686391377 0.5116181847
H -0.7943147484 -0.1769211188 -0.5284656557
H 2.588023281 0.588590628 -3.0090175189
H 3.6608284888 0.4349403886 -1.6029437932
H 1.6723168412 -1.6355957672 -2.666347882
H 3.3309983154 -1.9189863258 -2.122601715
H 1.1858270668 -2.3853042779 -0.4202137015
H 3.8767672826 -1.8327939774 0.7092703268
H 2.8979487075 0.7942447716 1.4276773381

