# b3lyp 6-31G(2df,p) opt Freq 

 titel

0 1
C 1.3266638456 1.2182558732 -0.0263086287
C 1.1368557926 -0.3017516535 -0.0768331364
C 1.8058511717 -0.9375087547 -1.299466875
O 3.2087257628 -0.6678841612 -1.3958376144
C 2.7935795643 -1.9501650606 -0.8957923878
C 2.8136225904 -2.040144313 0.5980387474
C 1.5280480526 -2.5000817855 1.2505319056
O 1.5802446345 -2.9940868956 2.5556062206
C 1.7892870554 -1.0313746299 1.1045256718
H 0.877068509 1.6375824149 0.8790559451
H 2.3912819223 1.4665082355 -0.0344934438
H 0.8582109442 1.7028778092 -0.8892772011
H 0.062062564 -0.5262017463 -0.1153740619
H 1.2787982008 -0.9785379751 -2.2503778375
H 3.0604895246 -2.797491641 -1.5236788313
H 3.7455377591 -2.2059770055 1.127716521
H 0.7614291201 -2.9489601016 0.6150600443
H 1.9365259858 -3.8882955501 2.5223341749
H 1.9845054602 -0.4855880491 2.0204411172

