# b3lyp 6-31G(2df,p) opt Freq 

 titel

0 1
C 2.0457384777 0.39121235 0.7640136294
O 1.767962644 1.7001034091 1.2355394477
C 0.402054586 2.0336069163 1.0639134932
C -0.0019536351 1.8769482683 -0.4129021479
O 0.2189165036 0.514438193 -0.7914637391
C 1.6104248178 0.1975682991 -0.6940701934
C 2.4166351074 1.007781196 -1.7295077446
C 1.8911737562 2.4089275523 -1.8949550112
C 0.7724977148 2.814357428 -1.3025947644
H 3.1226381312 0.2370571947 0.8837433623
H 1.5138158385 -0.3519064358 1.3811250198
H -0.2363999181 1.3779415993 1.6783184129
H 0.2833855376 3.0663381422 1.4049536675
H -1.0802396795 2.0417181041 -0.5147330764
H 1.6849466928 -0.8698047452 -0.928213076
H 3.4749343011 1.0318991826 -1.439332187
H 2.3854018461 0.4934107743 -2.6996791513
H 2.4523630251 3.0766513431 -2.5435918346
H 0.4031099928 3.8299049785 -1.4110429269

