# b3lyp 6-31G(2df,p) opt Freq 

 titel

0 1
O 1.4386013516 0.7457782117 0.1395126486
C 0.5224979503 -0.1696442937 0.6832270446
C -0.8052708272 0.5081671939 1.076940685
C -1.9281461386 -0.5320292441 1.3715462187
C -2.8087525438 -0.4839412791 0.1104911845
C -2.6043296662 0.9572151558 -0.3545798455
O -1.2292066262 1.2279192055 -0.1045427856
C -0.6190307975 1.4473183297 2.1861607218
C -0.4796716189 2.1975845337 3.1146218783
H 0.9480976745 1.2471393505 -0.5238965994
H 0.2804900727 -0.9785070242 -0.0268573823
H 0.9880045935 -0.6165793664 1.567073132
H -1.5088448088 -1.5228632719 1.5647233931
H -2.4932589193 -0.2296348923 2.255206894
H -2.4392428831 -1.1780021486 -0.6507669929
H -3.8545513598 -0.7261191092 0.314547285
H -2.7852970337 1.1149839792 -1.4211050657
H -3.242287189 1.6510511021 0.2138842291
H -0.3440192105 2.8700096473 3.9254120367

