# b3lyp 6-31G(2df,p) opt Freq 

 titel

0 1
C 2.7663937243 3.3675638786 -2.7773471337
O 3.1990345468 4.3826190146 -1.8687362973
C 2.5522152994 3.2219750045 -1.3335314224
C 1.2084247344 3.4737687108 -0.7054365975
O 0.5144892982 2.2378420773 -0.4067876429
C 0.4282844116 2.5549455257 1.0034404283
C 1.1841810615 3.8583284113 0.7754316059
C 0.9636657353 5.2021068091 1.3923809143
C 2.2757825366 4.4769410734 1.5947352279
H 1.9297440664 3.6405296941 -3.4191248966
H 3.562524993 2.8046571456 -3.2616155484
H 3.2059715332 2.5523617482 -0.7740523825
H 0.6149631469 4.1284395401 -1.3592574433
H -0.6134409604 2.6571276542 1.3345253298
H 0.9303781559 1.8003183761 1.6226282997
H 0.9557321906 6.0682364493 0.7382514287
H 0.2788209347 5.2685847705 2.2321482478
H 3.149793172 4.853348548 1.0735810735
H 2.4818106796 4.0513882986 2.5719228985

