# b3lyp 6-31G(2df,p) opt Freq 

 titel

0 1
C 1.282414144 -0.7553516224 -1.0770138482
C 0.9991182268 0.0397534582 0.1997507721
C 1.6013796652 1.4505541914 0.1641235229
C 1.3304956651 2.2465030381 1.4439315762
C 2.0110856818 3.6224242348 1.5795067767
O 1.7146916922 4.0896679839 2.8871595406
C 2.8502849855 3.2104595911 2.7355986565
C 2.2579979453 1.8087719886 2.628996545
O 2.5408939688 0.7475463852 3.1013326269
H 0.8359164735 -1.753132244 -1.0293383243
H 0.8756181237 -0.2501418879 -1.960428546
H 2.3594044421 -0.8808840958 -1.2344541837
H -0.0852950987 0.118967608 0.3520506264
H 1.3944811216 -0.4934431942 1.0707215064
H 2.6846094596 1.3830028955 -0.0071059399
H 1.1911079497 2.0069849559 -0.6895697081
H 0.2614602892 2.2814335782 1.6735829533
H 2.2469751374 4.3490433854 0.811221733
H 3.8099783275 3.5592946399 3.097691784

