# b3lyp 6-31G(2df,p) opt Freq 

 titel

0 1
O -1.1394673453 2.1498799498 1.3567465744
C -0.8112557701 0.8625227485 0.8510277398
C -1.9430812607 0.2405912842 0.0010874089
C -2.8328395302 -0.5384731892 0.998614705
C -1.8926527107 -0.9558306678 2.1202955676
C -0.5684952004 -1.5859546218 1.7172089366
C -0.5981502181 -0.1220647197 1.9937987196
C -2.4281804309 -1.2508019183 3.4617426002
O -3.5956653457 -1.1858328437 3.7661643228
H -1.921758726 2.0612305588 1.9128313559
H 0.0988573746 1.019798625 0.2638069152
H -2.4832281747 1.0202565267 -0.5403190182
H -1.5202628408 -0.4360991555 -0.7481614927
H -3.6214695735 0.0922659525 1.4224541643
H -3.3348662618 -1.3909627919 0.5319987635
H -0.0822455953 -2.2147940056 2.4566475397
H -0.4753558375 -1.9484780328 0.6991286657
H -0.0924477517 0.2524101401 2.8773444979
H -1.6530933208 -1.5368805295 4.2117810839

