# b3lyp 6-31G(2df,p) opt Freq 

 titel

0 1
O -2.3193962514 4.0328354395 0.3680679594
C -1.9181724531 2.7172543237 0.2277996885
C -2.5194720651 1.5941393535 1.0214394599
C -1.0447681042 1.9163621963 1.180432947
C -0.2652524428 1.3328272952 0.0025628006
C 1.2725054978 1.4357481016 -0.0355869389
O 1.4147035013 0.0048498681 -0.1231029308
C -0.0155361215 -0.182116383 -0.1506971392
C -1.1384292532 2.1762116437 -0.9782208983
H -3.2213325506 4.1129149762 0.0386795768
H -3.1348645706 1.9190000734 1.8545098901
H -2.8419879002 0.6669898815 0.5510850031
H -0.6239516936 2.1934390424 2.1399309149
H 1.6850324131 1.9465413643 -0.9164463843
H 1.7465901518 1.8438906388 0.866887128
H -0.3512997829 -0.6231118539 -1.099038107
H -0.3666685238 -0.8082451529 0.6796226176
H -0.5484825752 2.9592141841 -1.4624466132
H -1.7085278758 1.6321557675 -1.7401775541

