# b3lyp 6-31G(2df,p) opt Freq 

 titel

0 1
C -1.6254794091 -1.0131029137 -2.9842385889
C -1.8993984949 -0.8761043292 -1.5111893274
C -0.4755102784 -0.8695596088 -2.0178864595
C 0.3081385377 0.4046024957 -1.9896988886
O 1.3688086302 0.4683314076 -2.987011702
C 2.3991584932 0.6618828058 -1.9943622453
C 1.3605168078 0.5690556716 -0.8859713383
C 1.2877081776 1.1246559792 0.4605667776
O 1.471191335 -0.2835206093 0.233364241
H -1.7748391619 -1.9797598648 -3.4512903122
H -1.8538429283 -0.1693212964 -3.6268183818
H -2.319350459 0.059970092 -1.1572347259
H -2.2337307647 -1.7467535723 -0.959243359
H 0.1131447759 -1.7594214093 -1.8194726339
H -0.3653986804 1.2681113777 -2.0954249724
H 3.142950402 -0.1442692684 -1.9958316467
H 2.9063374676 1.6289800277 -2.1026872568
H 2.1474633751 1.6440542432 0.8819722805
H 0.3217434045 1.4065127315 0.8777805997

