# b3lyp 6-31G(2df,p) opt Freq 

 titel

0 1
O -0.5546072433 -0.2909122307 0.3359954294
C -1.946753795 -0.3386481811 0.3016259456
C -2.7531757464 -0.7513397217 1.5047164681
C -2.6767769784 -1.6601638227 0.2934466799
C -3.7225615105 -1.4434644825 -0.8014158012
C -2.9962105314 -1.4974007999 -2.1680980846
C -2.2284857324 -0.1366925265 -2.1561530398
C -2.6847628636 0.4447755798 -0.7959871444
O -4.0270813723 -0.0421003884 -0.6758972822
H -0.296622486 0.5027532625 0.8174236237
H -2.1661548565 -1.0758027169 2.3570376512
H -3.6819091677 -0.242410207 1.7352976867
H -2.1363908756 -2.5969673829 0.354244451
H -4.644948585 -2.0203071283 -0.7250973519
H -2.3313793733 -2.3609950536 -2.2505664504
H -3.7182180907 -1.5434558625 -2.9867352582
H -1.1442371151 -0.2545333025 -2.197814901
H -2.5414745165 0.5083814912 -2.97994539
H -2.6795674702 1.5329624936 -0.7091484719

