# b3lyp 6-31G(2df,p) opt Freq 

 titel

0 1
C -0.0259607487 0.0692097288 0.0021982677
C 1.4774194961 -0.0931129304 0.0945170044
O 1.8872225547 -0.9058528551 1.2309958275
C 2.6260753388 -1.8192622278 0.3980079112
C 2.1832522899 -1.0658989968 -0.8626277452
C 3.0353903116 -0.6406290055 -2.0754732148
C 2.9600726157 -2.0836146656 -2.6267205718
C 1.5544372186 -1.6479655351 -2.1488008088
O 1.7733512182 -0.3288077758 -2.7960895905
H -0.4030126706 0.6092414104 0.8761414308
H -0.2835675539 0.6338359462 -0.8987123187
H -0.522381265 -0.9053677593 -0.0367077734
H 1.9632091761 0.8920640274 0.1380804023
H 3.7041326236 -1.7933919324 0.6080107623
H 2.2720533111 -2.8532322542 0.500891323
H 3.8426081771 0.0905676025 -2.1338893152
H 3.0712258838 -2.170281826 -3.7079722876
H 3.4735244638 -2.8767136722 -2.0765839457
H 0.5875449088 -2.1284936991 -2.2992453574

