# b3lyp 6-31G(2df,p) opt Freq 

 titel

0 1
C 1.5574413069 0.5636832195 -0.1775207538
C 0.1369980281 0.2590910261 -0.0779715711
C -1.0396071577 0.0079089383 -0.0088834632
C -2.4539110698 -0.3028564997 0.1032255615
C -2.9219334924 -1.5931112797 -0.5944285612
O -4.1972069684 -1.8468021871 -0.0331873255
C -4.1457510335 -1.5100370598 1.3509772093
C -2.9474259205 -0.5573535936 1.5571007823
O -3.3765448484 0.6063782388 2.2329110925
H 2.0224391147 0.6309402015 0.8123478543
H 2.0908298651 -0.2103918867 -0.7402625351
H 1.725395859 1.5185184944 -0.6878103492
H -3.0594693697 0.5260508164 -0.2845989931
H -3.037220963 -1.4856573914 -1.675292562
H -2.2152166154 -2.4154696666 -0.3961952
H -5.078498554 -1.0094980604 1.6266636774
H -4.0379781487 -2.4176444147 1.9604237508
H -2.1490518032 -1.0580880156 2.1212547583
H -2.6037829391 1.1628334703 2.377800618

