# b3lyp 6-31G(2df,p) opt Freq 

 titel

0 1
C 2.7151706461 -1.3813796783 0.4866707323
C 2.3991858114 0.0782899054 0.5475648696
O 3.1236615216 0.8772746989 1.4888143032
C 3.1228617491 1.299478436 0.12258027
C 1.810037557 2.0772966134 -0.1246082585
C 1.1486534482 2.7069163412 1.1204583753
O 0.4638991726 1.4683029344 1.4406898686
C 1.0238300032 0.8051354936 0.2894462114
C 0.0080063201 0.0861053256 -0.5578170124
H 2.2777235096 -1.9059249419 1.3436061107
H 2.318113579 -1.8364731701 -0.4257701585
H 3.7974918331 -1.5349018836 0.5121240574
H 4.0875340183 1.4261806156 -0.3572435893
H 1.6856901336 2.5486201677 -1.0982082729
H 1.8249803325 3.0198670215 1.9203664576
H 0.4313471379 3.5049712461 0.8964838817
H -0.4363079111 -0.7432524448 0.0039957817
H -0.7961127647 0.7655316192 -0.8535237605
H 0.4693684124 -0.3238491398 -1.4624077875

