# b3lyp 6-31G(2df,p) opt Freq 

 titel

0 1
O -3.0453240013 -1.3838831004 0.9993887545
C -2.2734443373 -0.7608006907 -0.0014077814
C -3.005183983 -0.768344487 -1.3612069312
C -2.6479978249 0.730449394 -1.5547256674
C -2.2259142241 0.8208175809 -0.0579800039
C -0.7983098043 1.2715874845 0.2229029942
C 0.0630108874 0.0576467023 -0.1501251678
O 1.219220957 0.084753061 -0.4803461846
C -0.7996849906 -1.2083097932 -0.0311599845
H -2.5749096142 -1.3262515411 1.8381398109
H -2.6530855845 -1.4782702292 -2.1137817218
H -4.074262075 -0.9224811428 -1.2000121673
H -1.8047907426 0.8861660271 -2.2348646102
H -3.4607098096 1.3875447615 -1.8688856679
H -2.9832007083 1.2895295048 0.5718786423
H -0.4712465884 2.1592741266 -0.3249714197
H -0.6405206521 1.4741022357 1.2918586798
H -0.5547437454 -1.9173923292 -0.826053018
H -0.5342408888 -1.6999254347 0.9145788239

