# b3lyp 6-31G(2df,p) opt Freq 

 titel

0 1
C 2.7039506571 -2.5473185055 0.5907946598
C 2.952494566 -1.4772797275 -0.4736801852
C 2.6717295281 -0.0433999279 0.0300289216
C 1.2572673184 0.1589751613 0.3389032606
C 0.0891507896 0.3665638856 0.5435004071
C 3.1099409378 1.0431358286 -1.0111310064
O 2.6448085894 2.3307150872 -0.683169547
C 4.6295271409 1.155546486 -1.0512004121
O 5.3675239336 0.3290455241 -1.5204786528
H 3.3565850338 -2.4020959217 1.4587291104
H 1.6680681502 -2.5258785346 0.9429102077
H 2.9037093777 -3.5447599549 0.1886855351
H 3.9884299094 -1.5175868534 -0.8207459404
H 2.3194986974 -1.6648277714 -1.3490737163
H 3.2464871529 0.1285703644 0.9515672678
H -0.9414244269 0.5209175205 0.7507320976
H 2.7600673282 0.7175599509 -2.0035474204
H 1.7116108323 2.2527823633 -0.4465832879
H 5.0032279839 2.0919578752 -0.5825317293

