# b3lyp 6-31G(2df,p) opt Freq 

 titel

0 1
C -0.3796241834 -0.3294338654 -0.3909022315
C -0.3652642704 1.1391111683 0.1111658848
C 0.2322228232 0.5924426374 1.4530308379
C 1.0959105622 1.4483316479 2.3961963463
O 2.4796292908 1.3291075743 2.0814863088
C 2.883512778 2.0567919503 0.9463777879
O 1.8462511618 2.2994183291 0.0412326484
C 1.0838545507 1.2090766111 -0.4340073538
C 0.9936904694 -0.1600178298 0.3166270395
H -1.0879653218 -1.0024771716 0.0960077638
H -0.3624728651 -0.4809400337 -1.4736141678
H -1.143095838 1.8938933568 -0.0106482664
H -0.4709047274 -0.0279786683 2.0181550482
H 0.7738656793 2.4985892224 2.4045504843
H 1.0122360812 1.0652340809 3.4169386862
H 3.2415925328 3.0589221095 1.2238861708
H 3.7082861663 1.4805859438 0.500758542
H 1.2015317289 1.146272267 -1.5212632438
H 1.7764731413 -0.9083922001 0.4326319246

