# b3lyp 6-31G(2df,p) opt Freq 

 titel

0 1
C 0.2011274402 1.2536599211 -0.3560287547
C 1.4435519032 1.9164680093 0.2753862899
C 2.0802347765 0.7540689683 0.9888971498
O 3.0618522936 1.0012770155 1.9490478444
C 3.5964120867 -0.2665699184 2.3338775855
C 3.4322241666 -1.2145522175 1.1188540211
C 2.2668496927 -0.6077067644 0.3476328004
C 1.0119661457 -0.294672224 1.1506757443
O -0.1297588956 0.1055586435 0.4394984615
H -0.6743666289 1.9078494242 -0.3793770532
H 0.4160414485 0.9384695635 -1.386161867
H 2.0833433274 2.3844203174 -0.4781510201
H 1.1697118626 2.6775505847 1.0138767746
H 4.6359836318 -0.1158441657 2.635216191
H 3.041924176 -0.6534080001 3.2002555247
H 4.326925281 -1.1988988467 0.488290557
H 3.2669501802 -2.2478858925 1.4389604544
H 2.1968918002 -0.7760604773 -0.7217625447
H 0.7694416816 -0.8207488908 2.0681550111

