# b3lyp 6-31G(2df,p) opt Freq 

 titel

0 1
C -0.0144795508 -0.1727774499 0.0882800827
C 1.4948190494 -0.1307056499 0.0429489013
C 2.2494616889 0.2215907324 1.3156534394
C 2.2584625305 1.1747690577 0.1460115436
O 1.5787939659 2.3913887586 0.1850722793
C 3.4522473912 1.0750064368 -0.7892784397
O 4.4018590655 0.0580712652 -0.4396476128
C 3.4323283515 -0.2331818751 -1.4587424877
C 2.2145625526 -1.0186538323 -0.9874500658
H -0.4035237351 0.6247834238 0.7265481331
H -0.4444252753 -0.0369625496 -0.9106704625
H -0.3746309281 -1.1309559178 0.480196507
H 1.6307271159 0.509414888 2.1604129591
H 3.1688044479 -0.2966415763 1.5586518832
H 1.9896528325 2.944181399 0.8585066399
H 3.8567778078 1.984762063 -1.2248998661
H 3.8493033218 -0.4123130208 -2.447245127
H 1.5545230063 -1.1951794926 -1.8452815931
H 2.4945174516 -1.9987663103 -0.5857747138

