# b3lyp 6-31G(2df,p) opt Freq 

 titel

0 1
O 0.3159761403 3.9534385808 -2.0352411208
C 1.6425135269 3.5103834886 -2.0239855771
C 2.5634192876 3.6808126895 -0.7785540781
C 3.3987339061 2.5234483389 -1.3964393146
C 2.0058530685 1.99901189 -1.8450809744
C 1.3198570666 1.6820509217 -0.4809883536
C 1.7697583242 2.9431705443 0.3200582543
C 1.7840490521 0.3593743996 0.0759648585
O 2.5937731729 0.2201594164 0.9591674421
H -0.0762726765 3.7998282882 -1.1699209706
H 2.1044938121 3.9107665341 -2.9294948852
H 3.0066992648 4.6411785064 -0.5161953616
H 4.0149160136 2.8433615773 -2.2390340792
H 3.9794162403 1.9022932677 -0.712773153
H 1.8786193327 1.2729291063 -2.6482585428
H 0.2336181229 1.6157152429 -0.6235085007
H 0.9234406592 3.5225379411 0.7054127342
H 2.3942661939 2.6620925445 1.1703686541
H 1.334663172 -0.5295453583 -0.4235096415

