# b3lyp 6-31G(2df,p) opt Freq 

 titel

0 1
C -0.4859762166 2.0679845731 -1.2473406992
C -0.8802628227 1.3521848884 0.058836511
C -2.3286423846 0.8186823872 0.0711288876
C -2.2386221367 -0.6572134558 -0.325162302
O -2.026276825 -0.8543101873 -1.7491089871
C -0.793546417 -1.5639433167 -1.5073513317
C -0.8131676584 -1.1581377202 -0.0150684686
C 0.001152486 0.1050035793 0.2678190169
O 1.1617654109 0.1216436862 0.5897322172
H -0.7194533569 1.4473432547 -2.1165973684
H -1.04234294 3.0052331061 -1.346061611
H 0.5827143426 2.2998896968 -1.2502852813
H -0.6899782198 2.0319793011 0.8950749703
H -2.7566467365 0.8844684235 1.0783339939
H -2.9936504369 1.3636654172 -0.6053188338
H -3.0806310702 -1.2594022644 0.032646972
H -0.9062097849 -2.6435606005 -1.668046025
H 0.0354972696 -1.1922617004 -2.1191879589
H -0.6319207029 -1.9402630085 0.721369018

