# b3lyp 6-31G(2df,p) opt Freq 

 titel

0 1
C -3.552923819 1.5253171074 2.3084975894
C -3.1232056905 2.7360821428 1.4733859683
C -1.6402814556 2.7554479878 1.1747205782
C -1.0868076901 3.432739098 -0.0246600238
C -1.0994030662 1.9064491853 0.0153489059
C 0.1831657618 1.2160226445 0.2225880526
O 1.1276185187 1.6598219819 0.8463613563
C 0.331865517 -0.1845166301 -0.3889349668
O -0.5282015509 -0.7395194883 -1.0207803877
H -3.0262357311 1.5015886421 3.2685887589
H -4.6264356907 1.5509107527 2.5178855988
H -3.3332807812 0.5888242194 1.7857275779
H -3.6823127785 2.7562933321 0.5294972881
H -3.3852523837 3.6617343398 2.0023742781
H -0.9866243251 2.7487119839 2.0439955456
H -1.7727794818 3.8983372614 -0.7243098094
H -0.1088578698 3.8945129207 0.0538877992
H -1.8179437762 1.3810252438 -0.6015020522
H 1.3267690628 -0.6326172251 -0.1824081274

