# b3lyp 6-31G(2df,p) opt Freq 

 titel

0 1
O 3.5063377845 1.1785186822 -3.9814762581
C 2.9274695693 1.4080582691 -2.7379352733
C 2.1581527649 2.7318767432 -2.5174490566
C 2.3697496457 2.3637721276 -1.0203647607
C 3.7447837788 1.7818460929 -1.4591511891
C 1.4629874147 1.1020051032 -0.894860816
C 1.9385124974 0.3545394005 -2.1874324235
C 1.6677184847 0.3218683003 0.3785283061
O 0.814477933 0.1289483507 1.2072344923
H 3.873685185 0.2880196383 -3.9917402592
H 2.7465889898 3.6002464304 -2.8201357418
H 1.1353928683 2.8061314617 -2.8973042504
H 2.2854578921 3.1088744971 -0.2315912488
H 4.4761542818 2.5658592839 -1.6642835313
H 4.2025794835 0.9819056219 -0.8709993971
H 0.4056068639 1.3743095571 -0.9401563883
H 2.4386980338 -0.5964135774 -1.9660335459
H 1.1157022343 0.1529778369 -2.8774681836
H 2.6969800443 -0.0831166898 0.5215610053

