# b3lyp 6-31G(2df,p) opt Freq 

 titel

0 1
O 1.4079211141 0.757760373 -0.5438647354
C 0.1097445565 0.3241862498 -0.1610636444
C -0.8157127228 0.5039768834 -1.3387867008
C -2.2695558135 0.7451727899 -1.0173737433
C -3.199477082 0.8783624123 -2.2574671964
C -2.4687373691 0.7950309752 -3.5899150328
C -2.3351228313 2.0268048131 -2.7653500996
O -2.6592040399 3.2560984465 -3.3052249856
C -1.4006612816 1.8816365056 -1.5248020127
H 2.0151173418 0.5499465904 0.1725748695
H 0.11768759 -0.7362543802 0.1374579219
H -0.2667141991 0.9030423741 0.6988924738
H -0.5241475633 -0.0938150498 -2.1956239325
H -2.6622639829 0.6011745541 -0.0179219887
H -4.2759118488 0.780828357 -2.1996318656
H -1.6584215648 0.1029575729 -3.7935232467
H -3.1380028732 0.9407188663 -4.4329913537
H -3.0052975078 3.813396053 -2.5985741925
H -1.0159186622 2.7389216333 -0.9850439245

