# b3lyp 6-31G(2df,p) opt Freq 

 titel

0 1
O 4.9499208607 2.7199029649 4.3430607332
C 5.1770471714 1.7085348497 3.4078638001
C 6.3483149195 1.8086882822 2.4491360272
C 4.948408037 2.0583134675 1.9672167573
O 4.4043274193 1.1111284473 1.106043929
C 2.9878530079 1.0793601128 1.134287125
C 2.538493329 -0.0023005836 0.1466704907
C 1.0885709077 -0.1237596545 0.0842857573
C -0.110181492 -0.2021864402 0.0525280038
H 5.6376013372 2.6647894807 5.0150743105
H 4.8846613513 0.7030229795 3.7111456192
H 7.0033281839 2.6683470787 2.537137845
H 6.8225746278 0.8848029242 2.1377031602
H 4.6621486651 3.0916455804 1.7668944577
H 2.6222701781 0.8515210824 2.1455485378
H 2.5712324887 2.0551035757 0.842797891
H 2.9441675568 0.2372376246 -0.8433925612
H 2.9884207388 -0.9569698593 0.4442649999
H -1.168247748 -0.2815527131 0.0150111765

