# b3lyp 6-31G(2df,p) opt Freq 

 titel

0 1
C 2.5022461348 3.6509298252 -2.5829156954
C 2.7358120874 2.3491198228 -1.8199575674
C 2.659070089 2.5125718442 -0.3124702293
O 2.2871043074 3.5339527761 0.2192898556
C 3.1753775805 1.3480157145 0.5575934386
O 4.596436901 1.3012834304 0.4429798257
C 2.6740790002 -0.043771277 0.1456889179
C 1.2210949947 -0.1438974962 0.1457181221
C 0.0206523119 -0.1989108815 0.1435930269
H 3.2663123201 4.3934212439 -2.3362356794
H 2.5287248287 3.4762122766 -3.6619845448
H 1.5333303404 4.083884778 -2.3233861165
H 1.9863878909 1.5956983519 -2.1001328551
H 3.7085688893 1.9030518829 -2.0608784618
H 2.8630378047 1.5653537044 1.5866275784
H 4.9516060383 2.0978965661 0.8518484027
H 3.073971271 -0.2850372892 -0.8460086089
H 3.1104529636 -0.7727490494 0.8380234832
H -1.0397609739 -0.2554748335 0.1465852976

