# b3lyp 6-31G(2df,p) opt Freq 

 titel

0 1
C -0.5805940185 2.6131209349 2.541356404
C -1.6019741754 2.5214260172 1.452924152
C -2.7661232368 3.1664442006 1.3562576414
C -3.5151423509 2.85938937 0.0843611639
C -2.7297487198 1.6603690952 -0.5028945896
C -1.3714580524 1.672304219 0.2204033233
O -1.0100756237 0.300456164 0.5618589641
C 0.2844452123 -0.0327361992 0.504886416
O 1.206223384 0.6873593459 0.2291228391
H -0.4225998812 1.6376090356 3.0166893914
H 0.3920066906 2.9254059476 2.1436617904
H -0.8858662288 3.3210972346 3.3160960996
H -3.1330725638 3.8772476784 2.0899222789
H -4.5720416983 2.6264198734 0.2570098851
H -3.5003114853 3.7219765959 -0.5955488022
H -3.2314734498 0.7215514611 -0.2526623974
H -2.6269916579 1.700934651 -1.5894670968
H -0.5516079904 2.0684728178 -0.3858413041
H 0.3791987361 -1.1014859531 0.7558599608

