# b3lyp 6-31G(2df,p) opt Freq 

 titel

0 1
C 0.0015568668 -0.4018549685 -0.3361390711
C 0.8437050751 0.3607505886 0.6522562971
O 2.0521934769 -0.3078035 1.1202060722
C 2.1769474501 0.8601727877 0.3492574881
C 3.0374828432 1.0481203966 -0.9089752531
C 4.2138436233 1.3114417097 0.0923370234
C 3.0054071165 2.1046560074 0.6962359789
C 2.6648362174 2.5646669222 -0.7637379893
O 3.4073188198 3.5591844549 -1.4044870478
H -0.5411808479 -1.2107969813 0.1638356034
H -0.7369443791 0.260939033 -0.8003320419
H 0.6225837299 -0.8382283692 -1.1223589658
H 0.2921576005 0.8466666341 1.4591509759
H 3.0534543449 0.4437108799 -1.815413603
H 4.5609182123 0.4509074604 0.6655793833
H 5.0674340115 1.8900208359 -0.2723197594
H 2.9807249094 2.6958072227 1.6111987907
H 1.6162898333 2.8113001277 -0.9464363633
H 4.3466029059 3.3925745284 -1.2767041784

