# b3lyp 6-31G(2df,p) opt Freq 

 titel

0 1
O -1.6266325669 -3.3339843141 -1.4852633323
C -0.6192630738 -2.681326324 -1.3367046933
C 0.2467869843 -2.2652085291 -2.5201479015
C -0.2336093015 -0.9335332136 -3.1792236606
C 0.4428130769 0.3274548067 -2.69040031
C 0.4853709814 0.7873167448 -1.4394677704
C -0.1342199782 0.1021231757 -0.2476163973
O 0.5926179348 -1.0834285799 0.1058401726
C -0.1715356122 -2.2619116588 0.0690244095
H 1.2935998377 -2.1701506882 -2.2219505876
H 0.1512618473 -3.069626057 -3.254299658
H -0.0631272848 -1.0167370945 -4.2556079187
H -1.3230283903 -0.8584514995 -3.0604741793
H 0.9531741792 0.9068125763 -3.4568786356
H 1.0243775799 1.709890229 -1.2416755642
H -0.1286640992 0.769342828 0.6219793948
H -1.1841044941 -0.1509041572 -0.4526663484
H 0.471597411 -3.0617318402 0.4595064122
H -1.0637770815 -2.2132093544 0.7096084281

