# b3lyp 6-31G(2df,p) opt Freq 

 titel

0 1
C 1.3757303486 -0.0867868737 0.011762124
O -0.0436105969 -0.0157500112 0.0779743772
C -0.5316929618 0.6473880403 1.1632485192
C -2.0279921362 0.8543433516 1.4400438005
C -2.8437432738 1.6845301769 0.4602626459
C -1.3367575994 1.5547732028 2.6354612103
C -0.1854887626 0.5087467681 2.6996376377
O 0.8788557089 1.50503416 2.6808581085
C -0.1299731374 2.0530264435 1.7821722628
H 1.7908161154 -0.6132647041 0.8795734851
H 1.6177767864 -0.6372131412 -0.8993459416
H 1.8246272001 0.9127768114 -0.0336654083
H -2.5539824501 -0.0682273701 1.7118850865
H -3.8171814305 1.9521150819 0.8845734562
H -2.3294686085 2.6138898705 0.1926239426
H -3.0247263283 1.1270215256 -0.464292996
H -1.7721134031 2.0740667375 3.485829218
H -0.0779619685 -0.3693778446 3.3357302792
H 0.0554276375 3.0237293447 1.324726952

