# b3lyp 6-31G(2df,p) opt Freq 

 titel

0 1
C 2.0751741711 1.412217736 0.0025697656
C 1.5315075182 -0.0152304314 0.0682290415
C 2.020038844 -0.9105115399 -1.0940176387
O 1.2178927575 -2.110988464 -1.1788517307
C 2.026701033 -2.7187640046 -0.1446563131
C 1.544572259 -2.2593604 1.2430264381
C 2.1255480508 -0.8255859649 1.2537608087
O 3.480498585 -1.0565448466 0.8150492937
C 3.1798333968 -1.6960837801 -0.4019865245
H 1.7396412375 1.9998889423 0.8635445512
H 3.1688499077 1.4124250825 0.0020064239
H 1.7319615272 1.9217411975 -0.9038183503
H 0.4378999037 -0.0148333967 0.0860206914
H 2.1397677919 -0.4132762558 -2.0586076511
H 2.1519561954 -3.7930938339 -0.2852873804
H 0.4569338562 -2.3078594319 1.3261790832
H 2.0004810112 -2.85192058 2.0418761937
H 2.1402911514 -0.3166492747 2.2177749679
H 4.0740922223 -1.9811009637 -0.9492849

