# b3lyp 6-31G(2df,p) opt Freq 

 titel

0 1
C 1.1700457506 3.1746409384 0.9874518243
C -0.2013198772 3.1251748408 0.3491486584
C -1.4098032721 3.1813160354 1.2692730701
C -2.6966810518 3.2645183488 0.4361383308
C -2.3145805356 1.9162128786 -0.2697494776
C -1.0329239083 1.8967342312 0.5557498078
O -0.5012657309 0.731452416 1.1446394106
C 0.1026336878 -0.1276402536 0.3002523468
O 0.2179793315 0.0077101588 -0.8846882083
H 1.1773687494 2.6719537605 1.9588462694
H 1.9141915537 2.6830063892 0.3519945542
H 1.4894275407 4.210333705 1.1410118904
H -0.2694355899 3.6242814053 -0.6178574868
H -1.3030854345 3.448951018 2.3135505146
H -3.6083335366 3.1793306463 1.0305727064
H -2.7780273557 4.1419485963 -0.2126568574
H -2.9955615328 1.1077290674 0.0053355931
H -2.1843173669 1.9226751014 -1.354709539
H 0.4690055688 -0.9869341738 0.8830429723

