# b3lyp 6-31G(2df,p) opt Freq 

 titel

0 1
C 1.4322561475 -0.0255797698 -0.1721818496
O 0.0424905602 -0.1952978743 0.0732900143
C -0.4390520615 0.487458938 1.1448335383
C -1.8086066537 0.9531031458 1.4421994968
O -1.9133312733 0.3401272226 2.7241157714
C -0.4608822746 0.2926143389 2.7399170634
C -0.0505836492 1.7847107265 2.8962469171
C 1.4450017255 2.0347163132 3.0322869204
C -0.6214048628 1.9676277744 1.4888486075
H 2.037994346 -0.4455202855 0.6420508787
H 1.6556422763 -0.5641143206 -1.095183399
H 1.6871668264 1.0346303809 -0.2956305365
H -2.6912290558 1.0709459774 0.8283876651
H -0.0520871623 -0.506041381 3.356868866
H -0.6031478479 2.2833896142 3.7006557481
H 1.8077211788 1.704813772 4.0121425706
H 2.015872735 1.5016601517 2.264596074
H 1.6767251756 3.1003468296 2.9345602464
H -0.5913059501 2.8348886961 0.8405524771

