# b3lyp 6-31G(2df,p) opt Freq 

 titel

0 1
C 0.6344752627 0.9421182564 -0.7868475855
O -0.0153227175 -0.0110158402 0.0603515035
C 1.3956270641 0.204101681 0.2232055222
C 1.850018912 0.7836689179 1.5576444409
C 2.3222110757 -0.4595019992 2.3411742021
C 2.9429623453 -1.3588355015 1.2730572184
O 4.2326185331 -0.875084908 0.8180334772
C 3.7305544162 -0.6458947654 -0.5141266152
C 2.28752083 -0.9854496704 -0.087561563
H 0.707168241 0.6610817281 -1.8374038445
H 0.3691282727 1.9838664954 -0.6083658699
H 2.6899441136 1.4691193959 1.4004690989
H 1.0449773211 1.3360848 2.0462716636
H 3.0336965199 -0.2308163712 3.1389549663
H 1.4641103665 -0.9765191459 2.7867224939
H 2.9915962425 -2.4164683174 1.552221523
H 3.9140586512 0.3801381371 -0.8572027606
H 4.1642279608 -1.3464361453 -1.2391343104
H 1.7651747991 -1.7490846573 -0.6625510109

