# b3lyp 6-31G(2df,p) opt Freq 

 titel

0 1
C 2.412332659 -3.0402054595 0.81816471
C 2.4242920907 -1.6206598018 0.2541059581
C 1.064026755 -0.9397869039 0.407085993
O 0.0363493239 -1.5691888741 -0.3486938461
C 3.65673876 -0.7399307177 0.6010966146
C 4.549716349 -1.4441613332 -0.4714463663
O 4.9903680929 -0.2063726779 -1.0990977799
C 3.5915607774 0.0244263084 -0.7609401774
C 3.126716126 -1.4240967174 -1.1165054296
H 2.1406970138 -3.0409034986 1.8807892046
H 1.6894922495 -3.669675226 0.2865382984
H 3.3878100368 -3.5261854025 0.7263283091
H 0.79396603 -0.884619932 1.4744694473
H 1.1095434058 0.088696233 0.0347954578
H -0.1856597771 -2.3998414901 0.0816871363
H 3.9853796966 -0.3388743695 1.560993827
H 5.267541208 -2.2563749861 -0.3668743672
H 3.1530458095 0.9891700382 -1.0105231573
H 2.8477891734 -1.7975844293 -2.1014606624

