# b3lyp 6-31G(2df,p) opt Freq 

 titel

0 1
C 1.9780506048 -0.3601203539 0.5136906472
C 0.7032715751 0.2275194812 -0.1212560122
C 0.9164739523 1.6775212258 -0.519239078
O 1.436915337 2.0027655061 -1.5620380834
C 0.4322848438 2.7487169036 0.4548664898
O 0.5844038339 2.3472177544 1.8477856408
C 1.538390496 3.4020578245 2.0475929609
C 0.9062402889 4.7399389401 1.839439934
C 1.3694294143 3.9339493162 0.6432819441
H 2.2187637696 0.1587025195 1.444553812
H 1.8348321447 -1.4203986865 0.7398285487
H 2.8261268627 -0.2668189856 -0.1705247336
H 0.452928754 -0.3260867808 -1.0313914379
H -0.1287687368 0.1487148649 0.5848798457
H -0.6170056952 2.9795237832 0.2133533772
H 2.4039382289 3.1885779934 2.6630290068
H -0.1525362365 4.8711499612 2.0464141594
H 1.5325631297 5.5946911118 2.0760746475
H 2.0871804028 4.2718240508 -0.0894534289

