# b3lyp 6-31G(2df,p) opt Freq 

 titel

0 1
C 2.818207601 -0.9440421258 -0.8380976339
C 1.6006555119 -0.5846247027 -0.0042907665
O 1.7047467996 -0.2778910872 1.1659746559
C 0.2697936524 -0.6481477485 -0.7048920737
O 0.3457273799 -0.9607244024 -2.0772199883
C -0.9518272111 0.194080129 -0.3664245012
C -1.1183351386 0.4778571134 1.131479895
C -1.1173028661 -1.0640694375 1.3990398697
C -0.9652855764 -1.3058444889 -0.1061004271
H 2.685811247 -1.9167359147 -1.3200130821
H 2.959697016 -0.2169648599 -1.6459283953
H 3.6982147383 -0.9467459621 -0.1940695007
H 0.5090478338 -0.1465015344 -2.5651618665
H -1.4127211123 0.7447447773 -1.1798440242
H -0.3333092903 1.0592332159 1.6131186583
H -2.0909532963 0.929286933 1.342117996
H -0.3226756157 -1.4461065823 2.0404669596
H -2.0822079437 -1.4216881691 1.7655790325
H -1.4195052893 -2.0968341132 -0.6905890576

