# b3lyp 6-31G(2df,p) opt Freq 

 titel

0 1
C -0.0578484509 -0.0026620653 -0.0960584016
C 1.4478540504 0.0028582078 -0.0315811096
C 2.152555277 -0.1622530482 1.3645101353
C 3.1451037763 0.9132751267 0.9293349049
C 2.2612202362 1.3058488391 -0.2552929375
C 3.5896310157 0.6743458406 -0.5077758722
O 4.6135491962 1.4675299737 -1.0160207237
C 3.356023584 -0.7079653354 -1.1179431046
O 1.9603336339 -0.9583081373 -0.9614312448
H -0.4773997636 0.7345593328 0.5937756816
H -0.3964627065 0.2320643248 -1.1097250079
H -0.4445622709 -0.9905434344 0.1732161445
H 1.5140757471 0.1880687749 2.1807929792
H 2.5234328428 -1.1656749985 1.5991760304
H 3.7233317706 1.5709870483 1.5685288343
H 1.9435220506 2.2682928926 -0.6326564056
H 5.4357989623 1.2100007553 -0.5857507853
H 3.6090002521 -0.6938932154 -2.1845960078
H 3.9458539866 -1.4993813521 -0.6321198495

