# b3lyp 6-31G(2df,p) opt Freq 

 titel

0 1
O 1.4067098848 0.5712168699 -0.29890687
C 0.0412548527 0.3318553633 -0.0165985642
C -0.816177143 0.4362966003 -1.2483877382
C -2.2847103 0.7603840805 -1.2001600859
C -1.3168428049 1.6989459696 -1.9044812891
C -1.0444314708 1.5386450836 -3.3841593585
C -1.7349184633 0.4382373951 -4.1692515987
C -0.3997945068 0.1827047876 -3.5239972618
O -0.3612482017 -0.4483138321 -2.2633137158
H 1.6202762283 0.0000296226 -1.0460515552
H -0.1033583098 -0.6602256387 0.4421626565
H -0.2756752522 1.0814899091 0.7153675591
H -2.9768679166 0.1611717407 -1.7782709746
H -2.6808161364 1.0975302248 -0.2470746674
H -1.126561382 2.6718297384 -1.46762491
H -0.6728319829 2.4061449799 -3.9152750865
H -2.6182471895 -0.0429432901 -3.7680952744
H -1.738398743 0.5432241033 -5.2494416646
H 0.4774906872 -0.0280892779 -4.1261139707

