# b3lyp 6-31G(2df,p) opt Freq 

 titel

0 1
C -0.3792251998 1.2075559385 -0.0126358653
O -0.068295605 -0.2039750775 0.0058757581
C 1.3506438526 0.050447336 -0.0134506803
C 1.1133696172 1.5658899171 -0.0342857677
C 1.6838210307 2.631375891 0.9197763243
C 3.2089961355 2.5442333919 0.7104623034
C 3.1921213133 2.5201098284 -0.8538708763
C 1.6627569055 2.6012574627 -1.0328306347
O 1.2916601501 3.6390464587 -0.0681860161
H -0.9533954776 1.4912880248 -0.9035756892
H -0.9341664948 1.5189351559 0.881248487
H 1.8543413954 -0.3435665297 0.879863557
H 1.8349697683 -0.3711151876 -0.9049022244
H 1.2878367166 2.8063713132 1.9208228687
H 3.7163573669 3.421425386 1.1161661696
H 3.6504984888 1.6486264537 1.1565324354
H 3.6903230239 3.3842070112 -1.2972758135
H 3.624199 1.6110285666 -1.2815333816
H 1.2452176723 2.7454320791 -2.0300247744

