# b3lyp 6-31G(2df,p) opt Freq 

 titel

0 1
C 0.0790733847 -0.4553146204 0.6619421596
C 1.0604061939 -0.0079897752 -0.4077759234
O 1.3549150982 1.3631179362 -0.2022164515
C 2.2240501466 1.9048251118 -1.1585002746
C 2.6912012678 3.326175477 -0.8311652392
C 3.7822121635 2.8065118883 0.1615442159
O 4.8698929391 3.56141353 -0.4503015821
C 4.0490675536 3.1108772433 -1.5684983929
C 3.7458138163 1.7096713491 -0.9532918308
H -0.1736344385 -1.5116016596 0.5303415222
H 0.5106951326 -0.3229548089 1.6581182188
H -0.841402203 0.1327732314 0.6072956998
H 1.9830048492 -0.6087407615 -0.3617100969
H 0.6307391934 -0.1528499802 -1.4131230008
H 1.8496705418 1.7296151796 -2.1783193901
H 2.1197033695 4.2499855769 -0.7562780956
H 3.7534924212 2.7088827013 1.2443233255
H 4.3445394602 3.3810600008 -2.5811390982
H 4.3728378499 0.8213830001 -1.0191334456

