# b3lyp 6-31G(2df,p) opt Freq 

 titel

0 1
C 1.1521445572 2.1904111616 3.2235528527
C 1.6502199633 1.410957377 2.049321839
O 2.2233213705 0.0714409436 2.2666982708
C 2.3340440735 0.2717785665 0.8204872075
C 2.7688420722 1.7519929959 1.0081095335
C 2.1176392 2.5571946492 -0.1004566103
O 0.8326995993 1.9077268778 -0.2050924346
C 0.8991333164 0.888023496 0.7694712889
C -0.3484499864 0.0610143345 0.8443273572
H 0.3665710052 1.636790354 3.7473502721
H 1.9617724173 2.3938271145 3.9313795922
H 0.734108412 3.1456057819 2.8898636667
H 2.7915544306 -0.5189497759 0.2259573694
H 3.7756753447 1.984493518 1.3503958243
H 1.980486669 3.6162056444 0.150413243
H 2.646362305 2.4912818971 -1.0590787102
H -0.2229130569 -0.709026333 1.6091030356
H -1.2108632388 0.684007425 1.1007423474
H -0.5527790239 -0.4190848482 -0.1172863452

