# b3lyp 6-31G(2df,p) opt Freq 

 titel

0 1
C 1.3692672252 -0.186150688 -0.062049044
O -0.0313571538 -0.074980231 0.0345863607
C -0.4452846964 0.6369946683 1.1829038037
C -1.9351540113 0.7585072003 1.154934159
C -2.8653994191 -0.2742878454 1.6782274243
C -2.8712543953 1.0964608974 2.35142229
C -3.5839707209 2.0777454594 1.4690539782
O -4.3806559736 2.9480485682 1.6772305927
C -2.7204724084 1.7090593948 0.2323211407
H 1.7965036396 -0.7319464242 0.7943725885
H 1.5903676277 -0.7385196719 -0.9782198744
H 1.8553358624 0.801083756 -0.1147651775
H -0.1237309439 0.1154920045 2.1012896371
H 0.0201632539 1.6379546244 1.1985056902
H -3.7203004333 -0.5981770395 1.0915767816
H -2.4243971154 -1.0549808893 2.2903205577
H -2.6578692998 1.2040357821 3.4081877689
H -3.2177234822 1.2606604088 -0.6318350529
H -2.1491511654 2.5828326654 -0.0959070043

