# b3lyp 6-31G(2df,p) opt Freq 

 titel

0 1
C -3.2688440909 0.6741816414 -0.0718929194
C -2.5354500711 1.953362207 -0.3125645204
O -3.0428738479 3.124369228 0.3496882204
C -2.7689539002 3.9337769653 -0.8257524317
C -2.1136372113 2.7575706803 -1.5299348943
C -1.0704169659 2.1534542718 -0.6009599483
C -0.2560121502 0.9952888131 -1.1559493416
C 0.2008022703 0.0622215687 -0.0531547538
O -0.0754136704 -1.108011206 0.0113601691
H -3.2746240343 0.4501574403 1.000938777
H -4.3081345305 0.7500751113 -0.4056572985
H -2.7918673975 -0.1656466972 -0.5824478877
H -3.7046338092 4.2633811681 -1.292072055
H -2.1438093383 4.8052995402 -0.596405469
H -2.1576754361 2.5266733763 -2.586389678
H -0.5267672584 2.8248906953 0.0631201681
H -0.8234713687 0.4121863556 -1.886856671
H 0.6354272068 1.3924913259 -1.6622988321
H 0.8207461438 0.5485788345 0.7355725863

