# b3lyp 6-31G(2df,p) opt Freq 

 titel

0 1
O 2.2198408361 0.3667858869 2.5003003236
C 1.2132705362 1.2961875155 2.7691951124
C 1.5787860179 2.757204268 2.5354287914
C 0.3486384132 3.6078763613 2.7913802553
O -0.460548926 2.7735155959 1.9128706628
C 0.6908662143 1.9968693817 1.5530987704
C 0.8247574667 1.5405620385 0.1548559087
C -0.4257305412 1.2620047599 -0.6484995211
C 0.4377195711 2.4504311326 -0.984674209
H 2.8996756909 0.4523006866 3.1771687476
H 0.5162432906 1.0301350379 3.567944823
H 2.6049607931 3.0890044872 2.4452245684
H -0.0527430239 3.6342130989 3.8120412673
H 0.4191511399 4.627716432 2.3965790793
H 1.6658084105 0.8731281175 0.006025067
H -0.41909258 0.4051426887 -1.3126362052
H -1.3780747764 1.4599356835 -0.1705426621
H 1.0386923383 2.4212010457 -1.8867471033
H 0.0496197888 3.4292764517 -0.7264152669

