# b3lyp 6-31G(2df,p) opt Freq 

 titel

0 1
C 0.9686656019 0.6679458492 3.3943628245
C 0.4221077402 -0.2664033979 2.3371863187
C -0.3896107763 -1.4276358563 2.7367671311
O 0.9789816867 -1.5922732862 2.3489764537
C 0.23805503 0.327693097 0.9688329102
C 1.4729311172 0.4118273804 0.0811154536
C 1.087172799 1.0652948711 -1.2402378918
O -0.0228042222 0.1393482824 -1.4183695344
C 0.3633621266 -0.5600417109 -0.2323769284
H 1.0900296807 0.1457056057 4.3465057736
H 1.9424103671 1.0650341256 3.0902261002
H 0.2933126538 1.5172281556 3.5438941799
H -0.5959714629 -1.6032576148 3.7917312637
H -1.1223689056 -1.8365706118 2.0432496353
H -0.4870430846 1.1392952 0.9187077863
H 2.4735199068 0.2286121738 0.4478269797
H 0.7582816331 2.1114863317 -1.2197618198
H 1.8304944157 0.926228445 -2.0333817462
H 0.3184608027 -1.6414388797 -0.2234886198

