# b3lyp 6-31G(2df,p) opt Freq 

 titel

0 1
C 1.3409057482 -0.7866049672 -1.0781655543
C 1.1571595741 -0.0122819391 0.2292084286
C 1.6985581769 1.4192063179 0.1483393563
C 1.5034252236 2.2120167592 1.444578687
O 0.1072516403 2.3412445141 1.7458218632
C -0.2386226502 3.6680610333 1.8536064796
O -1.355808141 4.0262088057 2.0954353121
C 0.9915099622 4.4643380227 1.6197228885
C 2.0020883671 3.6293752682 1.3898319549
H 0.9479590534 -1.8041418212 -0.9931325528
H 0.8168636231 -0.2960844716 -1.9057730501
H 2.3990382041 -0.8598446945 -1.3537309536
H 0.0959715256 0.0266013815 0.4962363246
H 1.66245361 -0.5429407958 1.0470637922
H 2.7725982013 1.402684809 -0.0805996694
H 1.2085077466 1.9652303169 -0.6671661502
H 1.9707547749 1.6666134963 2.2780800836
H 0.9892686554 5.5438364626 1.6470901876
H 3.0354516945 3.8758531521 1.1813682122

