# b3lyp 6-31G(2df,p) opt Freq 

 titel

0 1
C -0.2574981875 2.600947283 1.1475119156
C 1.2783180125 2.4803643767 0.8905317859
C 1.9663127293 1.5935455941 1.9417834855
O 1.0653333688 0.7060490171 2.5934888731
C 0.4980004897 -0.3241727414 1.8062810162
C 0.0939648895 0.0675676083 0.3907960202
O 1.2829448646 0.3262677285 -0.4160743805
C 0.9520016938 1.7173416217 -0.448238849
C -0.47518523 1.4983302886 0.0903663806
H -0.6066442461 2.4319733715 2.1659092897
H -0.6558582287 3.5509277733 0.7797443881
H 1.8300242095 3.4168798186 0.7754689841
H 2.8028749453 1.0438812117 1.4880919582
H 2.3586517282 2.2208724914 2.747678978
H 1.1999211536 -1.1691893613 1.7101365731
H -0.3783404205 -0.6769983562 2.3630381763
H -0.4916785052 -0.749688415 -0.0464372117
H 1.2143404715 2.2048705677 -1.3890476703
H -1.3700025481 1.5070158019 -0.5320011829

