# b3lyp 6-31G(2df,p) opt Freq 

 titel

0 1
O -0.1651908068 0.3781577549 -1.0896119262
C 0.3273015808 -0.2484518171 0.0865174139
C -0.0800188898 0.61145031 1.2725434752
C 0.5573785526 2.0172224812 1.3187192491
C 0.7601323282 2.3333022597 2.8006134089
C -0.414768335 2.1548091492 3.7010550187
C 0.6236235352 1.0394633389 3.5941679525
C 0.3131229071 -0.0405612582 2.6144265405
O 0.4156447486 -1.2295019707 2.803199908
H 0.0809818934 -0.1659436531 -1.8434030714
H -0.0844405375 -1.2578142947 0.2201157106
H 1.4251146172 -0.3419528464 0.0603778721
H -1.1753451344 0.6911465418 1.2510425037
H 1.5308644681 1.9918416154 0.8154807669
H -0.0484306032 2.7709426681 0.8084999478
H 1.5173853198 3.0579087294 3.0773168123
H -0.4180786041 2.6920659996 4.6426907893
H -1.4011023743 1.9955609287 3.2777515799
H 1.2200604439 0.7905247032 4.4623336082

