# b3lyp 6-31G(2df,p) opt Freq 

 titel

0 1
C -5.2447092959 1.1532706403 -0.7835004172
C -3.8297225726 1.2299541831 -1.3237819096
O -3.3701855819 2.249887442 -1.7858321802
C -2.9833311388 -0.0371672703 -1.2302927343
C -2.1127940095 -0.0211378759 0.0338949876
C -1.0059280755 -1.1216575224 0.1205957555
C 0.0219721398 -0.0006061058 0.3610133418
O 1.1773941363 0.0049438917 0.669468946
C -1.0227758846 1.0969174651 0.1166832294
H -5.2523483028 0.7326422511 0.2286556608
H -5.7021846817 2.1431037764 -0.7807576108
H -5.8402364212 0.476674211 -1.4082231793
H -3.6163440626 -0.9316854214 -1.229712912
H -2.3369528648 -0.069887283 -2.1137506672
H -2.7461856613 -0.0278521991 0.9257134712
H -1.0904423628 -1.8611739796 0.921347319
H -0.8310419982 -1.6522628732 -0.8220492161
H -1.1185681557 1.8373747272 0.915133424
H -0.875728676 1.6346110427 -0.8253365086

