# b3lyp 6-31G(2df,p) opt Freq 

 titel

0 1
C -0.253320626 0.2509071692 -0.0538016545
C 1.2593762977 0.3268781903 -0.2200989965
O 1.8296771746 0.829502196 0.9918124613
C 2.7120798712 1.9031486206 0.7149259296
C 2.1898669427 2.5515390737 -0.5610417409
O 1.1040555175 3.3929611675 -0.2106499517
C 1.7148253062 1.3012122154 -1.3596175844
C 2.7763868191 0.7501247595 -2.1892054966
C 3.6704244557 0.3043241259 -2.8586170573
H -0.5007333102 -0.3523634823 0.8239202329
H -0.6632675008 1.2545695391 0.0872429178
H -0.7188075165 -0.2097140591 -0.9315591802
H 1.6677562589 -0.6725588485 -0.4153313518
H 2.6950354791 2.5958965482 1.5601970894
H 3.7418552897 1.5474535232 0.5581005611
H 2.9700640393 3.1029720515 -1.0990870389
H 0.7690256196 3.8020018432 -1.0148969541
H 0.8618915152 1.5719791745 -1.9913417865
H 4.451536897 -0.0963142178 -3.4560952886

