# b3lyp 6-31G(2df,p) opt Freq 

 titel

0 1
C 5.9501183391 0.5238087911 1.5505015351
C 4.6859816461 -0.2404310798 1.2343180116
C 4.6861665288 -1.3489866682 0.2119457402
C 3.9929565212 -0.0493434961 -0.1186137731
O 4.6584689307 0.7108366801 -1.0963506305
C 2.5571317798 0.0200530289 -0.1543027167
C 1.3560931107 0.1305976641 -0.2004089182
C -0.0985668686 0.2631963024 -0.2053731005
O -0.5806901277 1.3492727182 0.5761646471
H 6.584141003 -0.0416228602 2.2418584678
H 6.5232925787 0.718034886 0.6410258341
H 5.7241863586 1.4875653416 2.0203566724
H 4.0047180602 -0.3766298296 2.0693324361
H 5.6066786166 -1.5203778733 -0.3362892694
H 4.0750577342 -2.2278331894 0.3777188655
H 4.3680311148 1.6252345006 -1.0012065367
H -0.4550354039 0.4510015336 -1.224349027
H -0.5482768452 -0.6907969268 0.1144821933
H -0.183200257 1.2719344467 1.4496935089

