# b3lyp 6-31G(2df,p) opt Freq 

 titel

0 1
O -0.8996258056 -2.3644871226 0.5969279586
C -0.822446427 -1.300054908 -0.316355364
C -2.1468083157 -1.1583514945 -1.1147664855
C -2.9395645004 0.1228698733 -0.8112292031
C -2.0787217529 1.3737809103 -0.8437638911
C -0.844748956 1.453236207 -1.6777033181
C -0.7014285846 1.2833815337 -0.1699837479
C -0.4083792482 -0.0268914557 0.4385963381
O 0.100328222 -0.1410158846 1.5391566834
H -0.4124443803 -2.0545747981 1.3788334948
H -0.0051194026 -1.4817441854 -1.0400073697
H -1.9306308615 -1.2040425686 -2.1866615077
H -2.751064302 -2.0378314316 -0.8802904855
H -3.7601788694 0.2186464211 -1.531760171
H -3.4032368707 0.0468602003 0.1804581337
H -2.6080770535 2.305509094 -0.6692129844
H -0.5766374169 0.6207763676 -2.3173523543
H -0.5483143437 2.4201023932 -2.0680100843
H -0.3507128609 2.1298883986 0.4083232381

