# b3lyp 6-31G(2df,p) opt Freq 

 titel

0 1
C -1.5446369114 -1.4015429232 -0.2987377453
C -2.4718927528 -0.1886801984 -0.2181222512
O -3.5365602781 -0.3017385966 -1.1626129248
C -1.7627700254 1.1341302742 -0.5480351561
C -2.7450837185 2.3254050458 -0.5997376058
C -0.6683048069 1.4589632417 0.4603239786
O -0.6017437864 0.9698562562 1.5688983095
C 0.3065814724 2.4486636022 0.0216749826
C 1.117782593 3.2543398329 -0.3555413414
H -0.7435125507 -1.3360166239 0.4404369266
H -2.106295621 -2.3212615144 -0.0979194087
H -1.1086778228 -1.4843448968 -1.2998591824
H -2.8746612854 -0.1116467302 0.8026407859
H -3.9910985431 -1.1322973687 -0.9922273477
H -1.2920040856 1.0431015383 -1.5358416839
H -3.2345313869 2.4622495686 0.3702023482
H -2.2228043352 3.2514188733 -0.8545324226
H -3.512560068 2.1308633389 -1.3489534298
H 1.8418871729 3.9651459102 -0.6727264916

