# b3lyp 6-31G(2df,p) opt Freq 

 titel

0 1
O 2.563765906 -4.058666523 2.8450472642
C 3.0518347681 -2.7273677156 2.8439021795
C 2.6514229385 -2.0980109074 1.5139137483
C 3.1246468383 -0.6413096309 1.3658468291
C 2.5223198869 0.0327628152 0.1012585002
C 1.0692499704 0.1239703361 0.1405468961
C -0.1290134471 0.2003489895 0.1940197299
C 4.637354831 -0.5981503728 1.2547854943
O 5.3782109453 -0.0530532369 2.0303849411
H 2.8097621416 -4.4692397205 3.679037039
H 2.6234416123 -2.1399671986 3.6721330626
H 4.1468006148 -2.7030120315 2.964984737
H 3.0585193249 -2.709198444 0.6974305006
H 1.561923017 -2.1321710137 1.4192340522
H 2.8428612779 -0.057288465 2.2479015116
H 2.9450761803 1.039533817 -0.0057351974
H 2.8324075562 -0.5291066416 -0.7901764004
H -1.188026604 0.2708849924 0.2282729433
H 5.0370007115 -1.1375218587 0.3611670189

