# b3lyp 6-31G(2df,p) opt Freq 

 titel

0 1
C -4.8079246847 1.5469664029 -2.3506624225
C -4.4962967045 0.8358398593 -1.0396268485
C -5.1724076842 1.5069514462 0.1587923442
O -3.0711612637 0.8379425566 -0.9195435029
C -2.5628804118 -0.075140949 0.026025336
C -1.1119904338 -0.1337914065 -0.0672601677
C 0.0923075225 -0.2081354835 -0.111617718
C 1.5276156775 -0.2613554385 -0.2025439998
O 2.2317472636 -0.9809483514 0.4682597935
H -4.3054654672 1.0493268892 -3.1837860631
H -5.8851803032 1.5488895779 -2.5401737015
H -4.4612130707 2.5842616933 -2.3108131362
H -4.8395833731 -0.2109133004 -1.1057699031
H -4.9673491515 0.9819504332 1.096461056
H -4.8242461023 2.5398348904 0.2590114863
H -6.2582196404 1.519213216 0.0221878649
H -2.8340490588 0.2024597229 1.0579128923
H -2.9734897257 -1.086704982 -0.1418498864
H 1.955239792 0.4288735135 -0.9579642336

