# b3lyp 6-31G(2df,p) opt Freq 

 titel

0 1
O 2.8928651541 -2.2648813327 1.0122320934
C 3.2024897237 -1.4414409468 -0.0878817619
C 2.5986744088 -0.0218519911 0.0386253652
C 3.0057491579 0.8641827747 -1.1583542256
C 2.5290346808 2.3195950991 -1.0292014348
C 2.82300553 3.1192623203 -2.27728413
O 3.439639214 4.1523003522 -2.3091469083
C 1.1469158813 -0.1216679949 0.1795581547
C -0.0444075442 -0.2596315702 0.2813115301
H 1.9311010789 -2.3099316502 1.0737735708
H 4.2937993543 -1.3612870022 -0.116769947
H 2.8713101193 -1.8857651735 -1.0400243728
H 3.0042814325 0.4187441583 0.9593599588
H 4.0984130182 0.8419148819 -1.2455160876
H 2.6035584882 0.4241416827 -2.0793490775
H 1.4395499822 2.3210446676 -0.8829032175
H 2.9895779602 2.8222669535 -0.1737137843
H 2.4136567018 2.6684532023 -3.2129949311
H -1.097883112 -0.3553623909 0.3801205054

