# b3lyp 6-31G(2df,p) opt Freq 

 titel

0 1
O -1.2291661626 2.4899218174 0.9962214751
C -1.1310117756 1.0854585362 0.9074087312
C -2.3319433651 0.4973622394 0.1103336756
C -2.9471982885 -0.3995045891 1.2038239462
C -2.9062201066 0.5314754626 2.448397365
C -1.3569317591 0.3653535958 2.2586671153
C -1.6867000038 -1.0893683822 1.8052076998
C -0.4232576243 0.6999772343 3.3684828179
O 0.3052301232 1.6690265969 3.3650717046
H -0.5525152278 2.7607618638 1.6316151901
H -0.1633442409 0.7903274431 0.47661776
H -2.9989913353 1.3020978378 -0.2078303657
H -2.0194927647 -0.067620665 -0.7718428405
H -3.8408215804 -0.9675850065 0.9457069144
H -3.2939656476 1.5476384269 2.3588480207
H -3.2710030863 0.0474517306 3.3572184147
H -0.9838395295 -1.5760681267 1.1219052577
H -1.917627796 -1.7501695256 2.6445153063
H -0.4373686591 0.0117762804 4.2434144217

