# b3lyp 6-31G(2df,p) opt Freq 

 titel

0 1
O 0.4774774194 0.3531323762 1.1373988305
C -0.7360002037 0.7378585969 0.5587237773
C -1.8833062457 -0.2387284339 0.5008366508
C -1.8941212354 0.8961863369 1.4917118338
C -2.8616387124 2.0879523972 1.6145108174
C -2.8027476112 1.9363440969 3.1612696771
C -3.7476832464 0.8700084887 3.7462272932
O -2.7750602387 -0.1848602253 3.5553663899
C -1.8135717349 0.7431196405 3.0101383603
H 0.8840769161 -0.306810832 0.5664308497
H -0.6478346697 1.4623049065 -0.2531261315
H -2.5593493395 -0.193104749 -0.347565431
H -1.7215677527 -1.2318236989 0.9081972569
H -2.4424300252 3.0313428817 1.2520341111
H -3.8535516733 1.954918706 1.1705276707
H -2.6090804162 2.8255451486 3.7587060914
H -3.988059466 0.9973102188 4.8092719329
H -4.6776096973 0.6902116563 3.1904775294
H -0.8265144571 0.6447317077 3.4649217001

