# b3lyp 6-31G(2df,p) opt Freq 

 titel

0 1
C 2.0456269275 1.7531665019 -1.9345832939
C 2.2952878752 0.6492010522 -0.8967729132
C 1.9785166568 -0.7204245739 -1.430167848
C 2.8038027273 -1.4654601915 -2.4992906513
C 2.6660860105 -2.7444940035 -1.6302396747
O 3.2036106306 -3.8164834375 -1.6706831673
C 1.789461373 -2.0630234758 -0.6387039137
C 0.637848659 -1.3436619235 -1.3740961351
O -0.2790541576 -0.697724035 -0.5481152618
H 2.2999391281 2.7352647839 -1.5250601541
H 2.650708595 1.599527552 -2.8344342849
H 0.9937694422 1.7741965711 -2.2355399953
H 3.3435661678 0.6745630704 -0.5736880863
H 1.6824224632 0.8326222597 -0.009610659
H 2.3969437895 -1.4985514928 -3.5150112156
H 3.8499471941 -1.1468732151 -2.5413575992
H 1.694265426 -2.2513680297 0.4242795778
H 0.2040933816 -1.8024996406 -2.2649485701
H -0.8854501397 -1.3565317823 -0.1938069944

