# b3lyp 6-31G(2df,p) opt Freq 

 titel

0 1
C -0.065847833 -0.046707084 -0.2124046114
C -0.5264190594 1.1162581996 -1.1324191293
C 0.8011038607 1.8526152668 -1.4025549676
O 1.7700665055 0.8125938508 -1.4201122383
C 1.486600899 0.0469286596 -0.2448909515
C 2.0788482589 0.7715003784 0.9759453301
C 1.7188802423 2.2511207493 0.9513949197
O 2.4573559959 3.0707586606 0.0341393151
C 1.090907236 2.8145275275 -0.2563710791
H -0.4552539486 0.049226603 0.8044019056
H -0.401638804 -1.0110514053 -0.5993258516
H -0.9440568634 0.7392483186 -2.0687181525
H -1.2786299928 1.7575633808 -0.6644808215
H 0.8452351903 2.3626671711 -2.3685493326
H 1.9583037337 -0.929745584 -0.3766246896
H 1.7090668748 0.3139585151 1.9007799102
H 3.1697787097 0.6736831885 0.9768372963
H 1.53903912 2.7294535636 1.9136772612
H 0.4245157443 3.6747389202 -0.1760990234

