# b3lyp 6-31G(2df,p) opt Freq 

 titel

0 1
C 1.3301987247 0.4169796823 0.3359904006
C -0.0842095194 0.1603632985 0.1084809467
C -1.2559284693 -0.0508735053 -0.0701934393
C -2.6725720475 -0.3180964123 -0.3092888691
C -3.3672663698 0.7528379422 -1.1874547897
O -3.8953716628 1.6490968186 -0.2310731938
C -4.3344925789 0.8364018801 0.8318055891
C -4.3434832409 1.6177689342 2.1264664867
O -3.4270508552 -0.2621030201 0.9079907618
H 1.543617602 0.5166821768 1.4058956295
H 1.9506386959 -0.3987638175 -0.0509992842
H 1.6522690631 1.3424406291 -0.1538525315
H -2.7913573447 -1.3175400231 -0.7458538311
H -2.6827623427 1.2932220588 -1.8414151671
H -4.1675538047 0.2910513196 -1.7862353041
H -5.3393229355 0.4352819812 0.6008289816
H -4.645357216 0.9657057021 2.9497593209
H -3.3427090776 2.0078735405 2.3254118145
H -5.0505431607 2.4488988944 2.0577890885

