# b3lyp 6-31G(2df,p) opt Freq 

 titel

0 1
C 1.1740114057 1.056776695 0.3870304145
C 0.773589699 -0.3965398943 0.1010009081
C 1.39861781 -0.9407048855 -1.1716610919
C 0.8326611239 -0.4356340375 -2.4513108394
O 1.1911193793 -0.7870988804 -3.5532414683
C 1.966417949 -2.3630829527 -1.3337040115
C 2.6695982235 -2.7963227363 -0.0546963175
O 3.4603269097 -1.5720057226 -0.039110193
C 2.9018305173 -1.2016557755 -1.2928838166
H 0.6808176811 1.42742097 1.2906567317
H 2.2553473588 1.1321364155 0.5346047461
H 0.8993899412 1.7237933176 -0.4371928422
H 1.059005015 -1.0163176724 0.9539264629
H -0.3181068299 -0.4776283212 0.0192309722
H 0.0278699479 0.323539709 -2.3305375823
H 1.6698458353 -2.9840893103 -2.1668440799
H 2.0821192512 -2.9311234681 0.8595233173
H 3.3215000322 -3.6625838244 -0.2085061599
H 3.5307441296 -0.7312388259 -2.0385323303

