# b3lyp 6-31G(2df,p) opt Freq 

 titel

0 1
C -3.203104906 -1.9200105948 -1.3453421774
C -2.0623471345 -0.9503517418 -1.1224533607
C -2.2053316441 0.1266278357 -0.1017655652
C -1.0092968504 1.0901917582 -0.193357613
C -0.1186841706 -0.1294129747 0.1458671513
O 1.0279835429 -0.2500604001 0.4970194376
C -1.2617208191 -1.0874149554 0.1758655565
C -1.2389881336 -2.2757726312 1.1043437515
O -0.1222675854 -3.0992707012 0.8112239181
H -3.7893395874 -2.0749708781 -0.4345353363
H -3.8809536189 -1.5337943543 -2.1132563361
H -2.8350869073 -2.8953142727 -1.6789474007
H -1.5089389088 -0.710568467 -2.029590185
H -3.1420678894 0.3386282454 0.3979548542
H -0.8530397751 1.5907524367 -1.1536555182
H -0.9544770612 1.8296629503 0.6107863165
H -1.2118804253 -1.9260857134 2.1488993292
H -2.1305934039 -2.8995360374 0.9934611973
H 0.6572641979 -2.5301346143 0.8630085204

