# b3lyp 6-31G(2df,p) opt Freq 

 titel

0 1
C 1.9896192599 -0.1472029254 -1.7371761127
C 3.4372765807 -0.6380858773 -1.5874641242
C 3.5274914844 -2.1624599681 -1.6400774833
O 4.228619953 -0.1461785044 -2.6602328987
C 4.0326580387 -0.1080829796 -0.2607184857
C 5.4725905102 0.2040987698 -0.1848059153
O 4.5110136451 1.2516498915 -0.3623530004
C 3.3222410835 -0.4284178477 0.9536652656
C 2.721387302 -0.7234021264 1.9523637622
H 1.3480696664 -0.5404926459 -0.9445565914
H 1.9511883061 0.946411635 -1.6930286753
H 1.59703306 -0.4680036368 -2.7054532452
H 2.9692821491 -2.614423845 -0.8165334143
H 3.1127601488 -2.523051254 -2.5852779931
H 4.570469138 -2.4849042051 -1.5782406934
H 4.2940823243 0.8094960014 -2.5300722829
H 5.9640462447 0.1910891286 0.7851848957
H 6.0915152187 -0.0052461746 -1.0527442711
H 2.1932334665 -0.974399476 2.8392064833

