# b3lyp 6-31G(2df,p) opt Freq 

 titel

0 1
C 1.8001074027 0.4117520114 1.3957634229
C 1.5777835505 0.0967722432 -0.0706564159
O 2.1045245473 -0.8378585474 -0.6257630674
C 0.6332633883 1.0398955543 -0.8286477495
C 0.0150888534 0.473555568 -2.1387610826
C -1.3824030073 0.9444421217 -1.6463328906
C -0.793790243 1.2501108801 -0.23970977
C 1.3878366853 2.3343924193 -1.0781454864
O 1.182410718 3.37691655 -0.5118390818
H 2.6618555932 -0.1454143366 1.7649777647
H 1.9379771051 1.4859764036 1.5525776752
H 0.9162325666 0.1185127276 1.973380698
H 0.3801029913 0.9118709677 -3.0720689391
H 0.1388927488 -0.6092469795 -2.1984037475
H -1.7324036196 1.8437688773 -2.1583724777
H -2.1770523125 0.1968725713 -1.6802358188
H -0.9706059708 2.2457773216 0.170320054
H -1.0621662607 0.501745087 0.5094932504
H 2.1781210036 2.2430414095 -1.8566674778

