# b3lyp 6-31G(2df,p) opt Freq 

 titel

0 1
C 2.3322641697 1.5472413168 0.1221064282
C 1.5710730939 0.248645485 0.2890688998
C 1.7803862651 -0.8306490265 -0.7310050871
C 0.8326787625 -2.0067454086 -0.4631170125
C 1.4907803561 -2.206156926 0.9583068385
O 2.2318266453 -3.3899986775 1.0358705172
C 0.574193687 -2.1096453354 2.15565043
O 0.5174582963 -2.9851531782 2.9884479496
C 2.3761318693 -0.971461143 0.6713226045
H 2.4645579197 2.05688456 1.0822902745
H 3.3271618627 1.3694394942 -0.2995666333
H 1.8021800773 2.2296425654 -0.5506643366
H 0.5693505049 0.3760719594 0.6977729611
H 2.2888364435 -0.6388690532 -1.6680794322
H -0.2404933105 -1.790384209 -0.5123651526
H 1.0542664771 -2.8981936987 -1.0507955901
H 1.9207336348 -3.8375435891 1.8395468817
H -0.046120107 -1.196889197 2.2393256599
H 3.4068151021 -0.9056086184 0.9991563694

