# b3lyp 6-31G(2df,p) opt Freq 

 titel

0 1
C 1.5309402995 -0.0893895222 -0.066402388
O 0.1210048692 -0.1806581317 0.0151343228
C -0.4128247053 0.5110901982 1.1108049373
C -1.9610074032 0.4064092221 1.2057738368
C -1.8336698206 -0.2331707999 2.5935180015
C -1.0087258065 -1.4632733274 2.54039848
C -0.2761484945 -0.1340889009 2.5013221096
C 0.641611516 0.284755626 3.560694577
O 1.5535941863 1.066172571 3.4092290295
H 2.0201721897 -0.4899677228 0.831915638
H 1.841105651 -0.6732792202 -0.9359327083
H 1.8584391 0.9526120626 -0.1956022723
H -0.0526902686 1.548219967 1.1335857187
H -2.4509675679 1.3812031751 1.2104450788
H -2.4191005879 -0.2260109451 0.4406481042
H -2.4307156931 0.0200648245 3.46075163
H -0.9063798325 -2.0135764103 3.4706302452
H -0.9814818697 -2.0725277793 1.641661176
H 0.4330327482 -0.1705211166 4.558019573

