# b3lyp 6-31G(2df,p) opt Freq 

 titel

0 1
C 0.1992677917 0.6924209908 0.1525458346
C 0.8987795049 -0.5568980404 -0.3282607302
O 2.3671914017 -0.4511602198 -0.2860380008
C 2.4584527757 -1.8438727039 0.1213282349
C 3.112795785 -2.4193054515 1.399041402
C 1.7596447962 -2.6776083286 2.1427693634
C 0.6973512082 -3.1939864988 1.0994931134
C 1.0132770005 -1.7747723102 0.603637472
O 1.1672792579 -1.3601254113 1.9952805092
H 0.4809780604 0.9100592667 1.1838581562
H 0.4770687097 1.5406468674 -0.4803559841
H -0.8867886761 0.5644652914 0.0965047187
H 0.5796179106 -0.8386538587 -1.3415151945
H 2.6377594128 -2.4717907262 -0.7599272405
H 3.7167631512 -3.3078148405 1.1978899269
H 3.7038009874 -1.6993551392 1.9677347409
H 1.7818915697 -3.0500121775 3.1674323323
H 0.9336027302 -4.037048193 0.4448184676
H -0.2751863776 -3.3090576868 1.578770708

