# b3lyp 6-31G(2df,p) opt Freq 

 titel

0 1
C 1.4889115196 -0.3450703611 2.6709513789
C 0.0525229508 -0.8343353068 2.6447964899
C -0.2316463223 -2.2560569082 3.1293079306
C -0.6406197557 -1.1028216582 3.9785664591
C -0.8756575731 -0.3684280895 1.5611660469
O -2.0418802339 -0.7033718176 1.5272129687
C -0.3364391776 0.5674805724 0.5013564918
C -1.1832467973 1.7093337854 0.0885069084
O -1.0466340402 0.5686967806 -0.7352324315
H 2.0051240459 -0.7457190393 3.5482027812
H 2.0518042122 -0.6697369303 1.7889502796
H 1.5501609612 0.7472766543 2.7296999733
H -1.013141276 -2.7909119837 2.6031482941
H 0.6295195405 -2.8463126866 3.4231001828
H -1.6970665822 -0.8664300672 4.0212295409
H -0.069504598 -0.8813302642 4.8735028798
H 0.7410329615 0.663313375 0.4007316337
H -2.1552359387 1.8215295378 0.5647664096
H -0.7050326667 2.6202289272 -0.2694500379

