# b3lyp 6-31G(2df,p) opt Freq 

 titel

0 1
C -1.1984706566 0.1139899452 0.788715404
C -0.8510369747 -1.3054746036 1.2433886371
C 0.6203068395 -1.6666149707 1.1268776035
O 1.2460461265 -1.2746740549 -0.1377810152
C 2.3441225842 -0.7011478651 0.5771447207
C 1.9021658095 0.4789820512 1.3882140534
C 0.7808032175 1.4299435888 0.9714215016
O -0.4986277996 1.1215230481 1.4934777995
C 1.6958476578 -0.9251413609 1.9238012605
H -1.0143267736 0.208185109 -0.2907741541
H -2.2641541287 0.2969311716 0.9648818687
H -1.1452543278 -1.4417042985 2.2916755859
H -1.4492682208 -2.010374547 0.6503406565
H 0.7515892013 -2.7492271777 1.252530778
H 3.3428514303 -0.8793658099 0.1951167871
H 2.7366284737 0.9618440564 1.8931352259
H 1.0146833429 2.4315297741 1.3454378952
H 0.732076958 1.4852881383 -0.1259200987
H 2.1108829105 -1.2609550047 2.8644402602

