# b3lyp 6-31G(2df,p) opt Freq 

 titel

0 1
C 1.3880604975 1.9148377867 -1.3328747033
C 1.3640239315 0.7251506949 -0.3873338029
O 2.398013716 0.2803314474 0.0770244249
C 0.0301223237 0.1565956595 -0.0759130505
C -0.2463791177 -0.8873996288 0.7263288269
C 0.6643925225 -1.7623886725 1.5195368934
C -1.7345285338 -1.1061598913 0.7429188728
O -2.2961741404 -0.1172716424 -0.1043176688
C -1.263936607 0.6991193522 -0.645155975
H 0.7977181972 2.7438754058 -0.9258462166
H 2.4186438812 2.2375113544 -1.4818727954
H 0.941486474 1.6504407455 -2.2983309507
H 0.3976919036 -1.7204744762 2.5834713193
H 0.5439556587 -2.8097173395 1.2138064222
H 1.7036147098 -1.466554847 1.3950960766
H -1.9987037625 -2.1146232481 0.3831075816
H -2.1447603836 -1.0156832328 1.7626189881
H -1.295153217 0.6512865639 -1.7452209106
H -1.4413151937 1.7498447382 -0.3660303919

