# b3lyp 6-31G(2df,p) opt Freq 

 titel

0 1
C 2.0859763733 -4.4838706404 -2.8785181367
O 2.0964665636 -3.1679818165 -2.3717693385
C 1.6287521589 -3.0569632236 -1.0310250537
C 2.696778304 -3.4817009549 -0.0093040878
C 1.2125455192 -1.6708338174 -0.8136518483
C 0.8603618676 -0.5379152458 -0.6107447471
C 0.48691673 0.8424696543 -0.3420110777
C 1.5307681617 1.5744350287 0.5052076952
O 1.2544727506 2.3670030126 1.3634187189
H 2.7962205387 -5.146227193 -2.3625516108
H 1.0835767575 -4.9358491136 -2.8147966254
H 2.3759379332 -4.4195907791 -3.9299003377
H 0.7440381161 -3.7052560766 -0.9062965474
H 2.313664489 -3.3677164009 1.0083550256
H 2.977131762 -4.5285663051 -0.1537703185
H 3.5868969271 -2.8579982913 -0.122544293
H 0.4033034739 1.3980558742 -1.2889559146
H -0.4822432621 0.9247404645 0.1607641956
H 2.5826192557 1.3208339938 0.2504273418

