# b3lyp 6-31G(2df,p) opt Freq 

 titel

0 1
C 1.408424238 -0.0185063007 -0.0816095089
O 0.0047292106 -0.0569594215 0.0667339626
C -0.4676894639 0.7244306449 1.1211505747
C -1.9975323304 0.9233697983 1.1565371241
C -2.5481375293 1.3997516428 -0.2130709583
C -1.9570915304 2.802361325 0.0548346209
O -0.5299443926 2.8398111151 -0.1856812817
C -0.2616139456 2.2696184054 1.1085116046
C -1.7426504221 2.431452988 1.5528816011
H 1.9235371351 -0.3568908177 0.8313787539
H 1.6648955888 -0.6946420896 -0.9004114368
H 1.7619189204 0.9911763286 -0.3312857377
H -0.1150345411 0.3435709004 2.0969760119
H -2.5866007437 0.2137217598 1.7358384604
H -2.2010780535 0.8795429541 -1.1077665874
H -3.6423250238 1.4338556405 -0.1995609293
H -2.4586415894 3.6896087398 -0.3368109965
H 0.6211415898 2.7061441336 1.5801725448
H -2.113567417 2.9585661332 2.4267749576

