# b3lyp 6-31G(2df,p) opt Freq 

 titel

0 1
C 0.0827385433 -0.2062604859 -0.1764188346
C 1.5921210907 -0.1505725152 -0.0429618497
C 2.0978766115 -0.6924773564 1.3123305916
O 3.5140258103 -0.5353972255 1.3981737911
C 4.0483664474 0.0699268945 0.2063242699
C 3.3715772677 1.4429865245 0.0597456487
O 1.9644424062 1.2504346866 -0.0768920556
C 3.6767643742 -0.7599370442 -0.9969113042
C 2.3557438491 -0.8811647379 -1.1267276132
H -0.3951442346 0.3493323092 0.6346760019
H -0.2263112394 0.2406918054 -1.1253753657
H -0.2680596375 -1.2423658018 -0.1486420895
H 1.6273658369 -0.1214774265 2.1236741582
H 1.8409623213 -1.7537132731 1.4296520649
H 5.122777245 0.1654390312 0.3676477573
H 3.5644838502 2.0427371835 0.9584671819
H 3.7565674876 1.981408566 -0.8167153015
H 4.4182709373 -1.1857142343 -1.6627753334
H 1.8458500728 -1.4388137501 -1.904783448

