# b3lyp 6-31G(2df,p) opt Freq 

 titel

0 1
C 2.305545558 -0.9156232662 -1.2038178605
C 1.5636814403 -0.1127391748 -0.1575083887
C 2.0418939905 -0.0974626547 1.293853448
C 2.166959025 1.1161722837 0.4289414163
O 1.4283908415 2.3212683675 0.6994050261
C 2.6083383389 3.1086883605 0.4801586157
C 3.1101187774 2.9364018571 -0.9336200395
C 3.4240204558 1.8880315597 0.0975947612
O 4.7156923308 1.4703790013 0.3295254468
H 2.0213929199 -1.972946679 -1.1660767491
H 2.09264377 -0.5462385246 -2.2126217661
H 3.3873898607 -0.8518405162 -1.0497209487
H 0.4834474039 -0.0718703741 -0.2729447998
H 1.2940112972 -0.0757678332 2.0788749858
H 2.9458648903 -0.6507721483 1.535117651
H 2.7737363994 3.969686202 1.1154456062
H 2.4134644712 2.7482495375 -1.7460879003
H 3.9639140492 3.5611084415 -1.1800096073
H 4.7875943698 1.2284070403 1.260575833

