# b3lyp 6-31G(2df,p) opt Freq 

 titel

0 1
C -1.6962277793 -3.9973697722 -1.3822330795
C -0.606073342 -2.9702924583 -1.5422200746
O 0.7452836254 -3.4588545114 -1.5285295381
C 0.3170776415 -2.6229153021 -0.4552191659
C 0.9921632576 -1.2800076633 -0.3348619336
O 0.8463836736 -0.4612394465 -1.5302754256
C 0.0563806817 0.4825772441 -0.7999850735
C 0.8520071557 1.1114442496 0.2984836764
C 0.2286038016 -0.2544067369 0.50581613
H -1.4482281055 -4.7124273307 -0.5929459012
H -2.6467478484 -3.5136749131 -1.1318349396
H -1.8391547175 -4.553402035 -2.3146379961
H -0.7711431891 -2.204982166 -2.2985183635
H 0.2093399881 -3.1388557602 0.5034951039
H 2.0521423356 -1.4235471888 -0.0850681492
H -0.8004199745 0.9218045435 -1.2972624175
H 1.927663039 1.2184589176 0.1879633509
H 0.3580906543 1.9183388715 0.8313552362
H -0.4765707577 -0.4808871819 1.2941602606

