# b3lyp 6-31G(2df,p) opt Freq 

 titel

0 1
C 1.6657624177 0.7840619435 0.0774026959
O 0.3824600699 0.4508214566 0.6066466562
C -0.5965610251 0.7501651678 -0.3757307739
C 0.0897641254 0.4122221176 -1.713302592
C -0.5092805325 0.992805968 -2.9606941909
C 0.0781908616 1.991890197 -3.6145818154
C 1.3387547194 2.6322786442 -3.1027919673
O 1.6026196922 2.3291965661 -1.7464892642
C 1.5112877742 0.9421309938 -1.4448531791
H 2.0345850708 1.7297562222 0.4950009663
H 2.3604100799 -0.0177605564 0.3479037787
H -1.4833613142 0.146795041 -0.1640524867
H -0.8759444319 1.8146493361 -0.3564434176
H 0.1344017468 -0.6815909461 -1.7965726376
H -1.4320924456 0.554137511 -3.3312334864
H -0.3294332213 2.3803434665 -4.5438532276
H 2.1953220358 2.3457780021 -3.7416364736
H 1.2613252684 3.7244266567 -3.1536371585
H 2.2745031385 0.3872393021 -2.0095749363

