# b3lyp 6-31G(2df,p) opt Freq 

 titel

0 1
O 1.3911438032 -0.1297783782 0.8352804336
C 0.5168785755 0.0438458839 0.0262831359
C 0.3254666617 1.3087637508 -0.7885531638
C -0.965073027 2.0426083509 -0.3582375545
C -1.3323734927 3.0977603647 -1.3997723193
O -1.6637503124 2.4957568519 -2.6424978685
C -0.6541538416 1.6989343163 -3.1939206714
C -0.7630346234 0.2137623053 -2.9821848761
C 0.3298113354 1.0044308089 -2.283541051
H -0.2424910977 -0.7458507564 -0.1804091794
H 1.1794134564 1.9583980279 -0.5673694087
H -1.8032124393 1.3413874455 -0.260347185
H -0.8120056785 2.5057520553 0.6218616011
H -2.2229140196 3.6552995553 -1.0972697324
H -0.5047511578 3.8153173345 -1.5199103432
H -0.2992074703 2.0722527969 -4.1518674995
H -1.6224145198 -0.1116987022 -2.4068897462
H -0.4687554053 -0.4612268366 -3.7780455614
H 1.325878933 0.8638256552 -2.6923403302

