# b3lyp 6-31G(2df,p) opt Freq 

 titel

0 1
O -2.00720697 0.4928734097 4.8208998471
C -1.4260784548 -0.4680656019 3.9473202068
C 0.1060502784 -0.6352282585 4.1152954003
C 0.6567527504 -0.8258497303 2.6829903286
C -0.4300300104 -0.2129291218 1.8207229844
C -1.5507642632 -0.0108359286 2.5180177614
C -0.2459307121 0.0879616164 0.389576842
C 0.6375189958 -0.7043463601 -0.4881410219
O 1.0498043017 0.571101565 -0.0135754822
H -2.0208898544 0.1168629241 5.7065244421
H -1.9428276973 -1.4357458286 4.0765812641
H 0.4800399534 0.3029510371 4.5371966856
H 0.38173173 -1.4470870959 4.7941360305
H 1.6288118712 -0.3510789456 2.5204349806
H 0.78312747 -1.8910675458 2.4445773254
H -2.4755109397 0.4009575817 2.1294981961
H -1.0757509941 0.6118206458 -0.0849490398
H 1.1814556955 -1.5552547242 -0.0811942942
H 0.4119760597 -0.7629884985 -1.5525160468

