# b3lyp 6-31G(2df,p) opt Freq 

 titel

0 1
C 4.2692091325 -0.4344879879 1.7161894743
C 3.2352930127 -0.1670886415 0.6602746628
C 2.5008829056 1.1775539123 0.4486722104
C 1.4529008193 0.1868216336 -0.1103428351
C -0.0305009957 0.4190188105 -0.1427676446
O 1.9125496639 -0.7827584097 0.9090240471
C 2.1649808144 -0.4023190762 -1.3649704213
O 3.3137765774 0.3338837016 -1.8191058041
C 3.4799202298 -0.6634001263 -0.7964545451
H 4.5008043204 -1.5038968283 1.7659801538
H 5.1933824061 0.1047749281 1.4851531006
H 3.9128767211 -0.114225012 2.6986700285
H 2.1697385383 1.588153764 1.4030586209
H 2.9336773388 1.9315111223 -0.2059706773
H -0.3942682091 0.7452431713 0.8350139792
H -0.2767174097 1.1870069378 -0.8829292224
H -0.5578493673 -0.5011531305 -0.4165412099
H 1.650163379 -1.0141331914 -2.098178787
H 4.1236018026 -1.5052111877 -1.0287837906

