# b3lyp 6-31G(2df,p) opt Freq 

 titel

0 1
C 1.2561717998 0.9470287768 0.4924268373
C 0.8268171195 -0.4803905731 0.1241477389
C 1.5282902017 -0.9925408509 -1.0917242772
O 2.917089779 -1.3643447799 -1.0187317745
C 1.9630369262 -2.3099275415 -1.5438577598
C 1.645533942 -1.9652648688 -3.0312030743
C 2.4042451692 -0.7298085909 -3.4842140026
C 1.2072105018 -0.5873096397 -2.5876651803
O 0.0404881576 0.070841871 -2.9298551051
H 0.7372124962 1.2913135206 1.3915802154
H 2.3329327967 0.9922857613 0.6797461304
H 1.0247808449 1.6496845112 -0.3151243417
H 1.0312879571 -1.1622434383 0.9569107697
H -0.2526141686 -0.5093188743 -0.0646501839
H 1.9196413986 -3.2851540488 -1.0730315229
H 1.1626681964 -2.6425229073 -3.722133549
H 3.4084221263 -0.5338022847 -3.1295553165
H 2.2033093227 -0.4604340029 -4.5169476277
H 0.2364765729 1.0112350203 -3.0090405464

