# b3lyp 6-31G(2df,p) opt Freq 

 titel

0 1
C -0.020107066 -0.2445067742 0.4543356125
C 1.3684238279 0.1293205972 -0.0281944999
C 2.2028820764 0.8933433342 1.060752114
O 3.0173749903 -0.3019888867 1.3489950547
C 2.5987593596 -0.8097553091 0.0943104808
C 3.1987375819 -0.1257184073 -1.1973891611
C 1.7119758242 -0.0876804412 -1.5251989423
O 1.4280823093 -1.5358976258 -1.6254298157
C 2.1020055619 -2.1272170902 -0.4660209618
H 0.0148133191 -0.696186099 1.4528332194
H -0.6528987143 0.6482980903 0.5227655803
H -0.4968021692 -0.9510596424 -0.2277519168
H 2.8242074376 1.7352518876 0.7441141322
H 1.6192498283 1.1753164656 1.9400130038
H 3.6642576075 0.8361733605 -0.9934927926
H 3.8206001443 -0.7333093658 -1.8555694644
H 1.2490871844 0.39277308 -2.3865063865
H 1.3757243662 -2.6394587092 0.172363543
H 2.8677145505 -2.8318649646 -0.8043921096

