# b3lyp 6-31G(2df,p) opt Freq 

 titel

0 1
C 4.7097213369 -1.4289434626 -1.8484553882
C 3.7618040348 -0.2625967792 -1.7405342043
O 4.0857643878 0.744767629 -0.7774615718
C 2.90264367 -0.0464334892 -0.5668991201
C 1.6047067336 0.6945965214 -0.6602882631
C 0.2801583595 -0.0832954137 -0.4107238101
C -0.4285692931 1.246654113 -0.065145441
C 0.9373204228 1.1918566697 0.6563474573
O 0.6525308657 -0.2194429518 1.019590476
H 4.9949566723 -1.7883428907 -0.8562432301
H 4.2453391365 -2.2533027158 -2.4004321141
H 5.6203189726 -1.137334816 -2.3822835434
H 3.4140843942 0.1434332004 -2.6935104795
H 2.9727311189 -0.7505124734 0.2597498427
H 1.602217246 1.4035813357 -1.4934847132
H -0.1081150385 -0.9695127573 -0.913835125
H -0.5671629026 1.9837518599 -0.8599023448
H -1.2958230948 1.145320312 0.5873693388
H 1.3442434573 1.8385297787 1.433466864

