# b3lyp 6-31G(2df,p) opt Freq 

 titel

0 1
O 0.5314477 0.1647590253 0.6333101461
C -0.8585984895 0.3609575586 0.604798615
C -1.6327101608 0.020757339 1.8577770554
C -1.6953413485 -0.8886617555 0.6467798297
C -2.9154879219 -0.8195867627 -0.2563713398
C -2.4809609212 -0.4019940897 -1.6786451605
C -2.6224373035 1.0110671231 -1.0685251504
C -1.3510445363 1.4648686375 -0.3419037024
O -3.560285862 0.4763071122 -0.0869053724
H 0.9181539694 0.876926316 1.1549614692
H -1.0477490346 -0.3293863284 2.7011455825
H -2.5164219722 0.6021960712 2.0919058114
H -1.1705232429 -1.8374213115 0.690486546
H -3.6183773205 -1.645004284 -0.1170020027
H -1.4990600738 -0.7254906629 -2.0301131383
H -3.2486778394 -0.5980916979 -2.4287963159
H -3.072438098 1.8035879196 -1.6719700886
H -0.5615416014 1.6596763981 -1.0761335653
H -1.5440007328 2.4015360821 0.195710851

