# b3lyp 6-31G(2df,p) opt Freq 

 titel

0 1
O 1.0101204028 3.1074327691 -1.0845065623
C -0.2618391285 3.1713570151 -0.5223336727
C -1.3866159059 3.2629702741 -1.5081617409
C -2.7069064939 3.4820741247 -0.7644055391
C -2.459502532 2.1628703546 0.0425166421
C -1.1431190186 1.9604410723 -0.7199011171
C -0.5756884266 0.6379330203 -1.177729065
C 0.4114878637 0.012739926 -0.2072949473
O 1.2956234833 0.6253073605 0.3458392563
H 1.4888201554 2.4392125344 -0.5694421317
H -0.328255541 3.7303147355 0.4168055885
H -1.1814586706 3.4771965619 -2.5502710466
H -2.7758194343 4.4057478533 -0.1801904176
H -3.5838288607 3.4127550685 -1.4110778678
H -2.3754072974 2.2583259082 1.1309595505
H -3.2063178187 1.3960239918 -0.1811661119
H -1.3726465436 -0.0797194205 -1.4021015654
H -0.0120694051 0.7868117159 -2.1090907298
H 0.3097345517 -1.0812766659 -0.0392613922

