# b3lyp 6-31G(2df,p) opt Freq 

 titel

0 1
C -0.0333457223 -0.2167838627 0.0754050745
C 1.4281484934 0.1301165541 -0.0528194759
C 2.0653032868 0.5041631726 -1.4135230784
C 3.4099561982 -0.0324598134 -0.8604907349
C 4.041062366 0.990145658 0.1142515481
C 3.1084152249 0.7821766851 1.3232280207
O 3.0910921076 -0.6300124378 1.4667402816
C 2.5960459359 -0.9024699827 0.1734469564
O 1.7818567556 1.1207470079 0.9372955838
H -0.2457677018 -0.60911729 1.0741634938
H -0.6542645104 0.6716688968 -0.0799131536
H -0.3192938248 -0.9676975883 -0.6674788156
H 1.6734695917 -0.1186541029 -2.2240871064
H 2.0154707723 1.5567316426 -1.7035529824
H 4.1137865755 -0.5091488673 -1.5414917099
H 5.0669932101 0.7235628512 0.3822064756
H 4.0210240562 2.0152155906 -0.262465762
H 3.357112156 1.271137377 2.2640979794
H 2.4326195292 -1.9645407306 0.0097379653

