# b3lyp 6-31G(2df,p) opt Freq 

 titel

0 1
C 0.0928214216 -0.351546448 0.108162817
C 1.5392369908 0.0554296526 -0.0434015261
O 2.3522055013 -0.662744392 0.872450926
C 3.5933949492 0.0530656613 0.8350948051
C 4.2636681913 -0.3685290622 -0.4874694167
C 3.3143969794 -0.0134498422 -1.6534514672
O 1.9380545479 -0.2821285202 -1.3719475588
C 3.137498283 1.5057719347 0.7756875174
C 1.9102758917 1.5092926569 0.2665388375
H -0.2521492024 -0.1301359348 1.1205593495
H -0.5267232811 0.1884055462 -0.6118772542
H -0.005661995 -1.4233871384 -0.0785338794
H 4.1834916428 -0.2136977576 1.7151846517
H 5.2291310289 0.1266133483 -0.6421933953
H 4.4370121251 -1.4480072663 -0.4418504371
H 3.438891227 1.0473125553 -1.9087115634
H 3.5543009309 -0.5997449817 -2.5444748538
H 3.7612280242 2.3543755595 1.0252666865
H 1.2941646235 2.3572204887 -0.0012490287

