# b3lyp 6-31G(2df,p) opt Freq 

 titel

0 1
O 0.5905611737 6.4801245082 1.4852193342
C 1.0414199264 5.6601386735 0.4191542891
C 0.7587644056 4.1752568611 0.6475639677
C 1.1826660085 3.2978718997 -0.5443129232
C 0.9135202437 1.8374802987 -0.3332979205
C 1.8287166783 0.8407736362 -0.1929321188
O 1.2209826738 -0.3621332633 -0.0022052783
C -0.1168735375 -0.1288327774 -0.020979011
C -0.368152424 1.1898698367 -0.2180692212
H 1.0638558556 6.2136596563 2.2798567292
H 0.5044239252 6.0117004704 -0.4693029243
H 2.1162485757 5.8120212191 0.2237451409
H 1.2880715601 3.8361531228 1.548711489
H -0.3111457772 4.0485812752 0.849014907
H 0.656394502 3.6440851809 -1.44406132
H 2.2517247285 3.4430576608 -0.7419244806
H 2.9064400435 0.8239687093 -0.2088065017
H -0.7446780376 -0.9939924706 0.1151277628
H -1.3401038943 1.6551388123 -0.2801064102

