# b3lyp 6-31G(2df,p) opt Freq 

 titel

0 1
C 3.0587444507 1.0038183134 1.1197666437
C 2.1518086328 -0.118998521 0.6631236295
C 2.5626497662 -1.5367623643 1.0398659153
C 2.6601392185 -1.0458794925 -0.4071091036
O 3.8277170936 -0.8239602539 -1.1145566441
C 1.5614817576 -2.0265393506 -0.855254944
C 1.485201103 -2.4995947883 0.6123298697
C 1.1665884037 -3.8280637014 1.1281701739
O 0.2758251983 -2.7184731714 1.3245685247
H 2.8462334279 1.2813785965 2.1570895846
H 4.1110788541 0.7156458216 1.0501879362
H 2.9180395973 1.898742303 0.5027785393
H 1.0887293102 0.1191277909 0.6809107312
H 3.3465946391 -1.7207043924 1.7648675301
H 3.6822078101 -0.0870268796 -1.7186911505
H 0.6479819061 -1.5930621767 -1.2749213425
H 1.9457547231 -2.8003631688 -1.5248728581
H 0.8094271015 -4.6018523217 0.4488602467
H 1.6591154662 -4.1946726927 2.0285634279

