# b3lyp 6-31G(2df,p) opt Freq 

 titel

0 1
C 1.3732840058 -0.221714013 -0.2502421657
O -0.0010563745 -0.1018166487 0.0346689232
C -0.2823472924 0.6985634327 1.15338776
C 0.0918619759 0.0843556896 2.5397798345
C -1.0595160719 0.516624409 3.443580684
C -2.444724228 0.0793166486 3.0094300087
O -2.4219221692 -0.3485529583 1.6475510214
C -1.7860963812 0.9215505575 1.2854218514
C -1.9935761527 1.4730614525 2.7082340733
H 1.9223074469 -0.7344483524 0.5533597297
H 1.463787251 -0.8110132707 -1.1658671104
H 1.8416404451 0.7624668857 -0.4136678899
H 0.2036774982 1.6856090951 1.0436436338
H 0.1525678123 -1.0041729983 2.4448398386
H 1.0521520051 0.4512423477 2.9109493211
H -0.9039199484 0.6649629012 4.506373563
H -3.2120414755 -0.3232122857 3.6603069834
H -2.2768256148 1.3870725452 0.4303176309
H -2.3328883916 2.4481143423 3.0271620091

