# b3lyp 6-31G(2df,p) opt Freq 

 titel

0 1
O 1.6410194598 0.6953129086 -0.2786581736
C 0.6784970061 0.0613282585 0.5471601692
C -0.3485083634 1.0460372841 1.1262350557
C -1.3828169016 0.3843001381 2.0232709659
C -2.6324367589 0.6928948627 1.6712181617
C -2.6654278234 1.5791275539 0.466294309
O -3.6521395113 2.5547064321 0.344076834
C -2.142656767 0.9612924682 -0.7962297431
C -1.2015849143 1.7680416678 0.0824464132
H 2.139462952 1.3108281307 0.2685405185
H 0.1763613248 -0.672254209 -0.0913151961
H 1.1593453961 -0.4950143907 1.3682582743
H 0.2226874173 1.7856550899 1.7126426813
H -1.1046922142 -0.292996408 2.823770183
H -3.5396045385 0.3439034004 2.1521716669
H -3.5537354249 3.1679678291 1.0812677123
H -2.0565343526 -0.1186001779 -0.8538373465
H -2.4371678299 1.4491199144 -1.7194078391
H -0.8610051761 2.7136510873 -0.3198792568

