# b3lyp 6-31G(2df,p) opt Freq 

 titel

0 1
C -0.0712165863 0.0131232772 -0.2168839725
C 1.3943048649 -0.0217389777 0.2098216689
C 2.4015548 -0.5699993024 -0.8743184815
C 2.9767909376 -1.7469237863 -0.060088306
C 1.7363669884 -2.4356658432 0.543200983
C 1.7457177199 -1.0912865906 1.3002408053
O 3.2047482998 -1.1211813308 1.2450830617
C 1.846093823 1.3453424565 0.6919626665
O 1.1715613483 2.3440913338 0.6473608802
H -0.7203231857 0.2426552618 0.6338001425
H -0.2313963407 0.7991005103 -0.9591540996
H -0.3911247193 -0.9390733224 -0.6472683338
H 1.890493093 -0.8760903543 -1.7908304569
H 3.1828370067 0.1480660891 -1.1367236488
H 3.836923309 -2.2882587569 -0.4526571813
H 0.8952772729 -2.6990721945 -0.1003556229
H 2.0126104795 -3.2598656997 1.2010220213
H 1.3358247083 -0.9573284156 2.3016706371
H 2.8781905809 1.3616561158 1.0999900568

