# b3lyp 6-31G(2df,p) opt Freq 

 titel

0 1
C 0.2429074647 0.6718994746 0.1726668734
C 1.5874757055 0.0067705675 0.0632360003
O 1.8330923007 -0.7368106354 -1.1491070104
C 2.6534334243 0.4070597039 -0.8752814639
C 4.0300357387 0.0452330052 -0.337077965
C 3.741823293 -0.5965195702 1.0244744459
O 4.5843957631 -1.6104196347 1.4736979601
C 3.1403230277 0.2742815387 2.084717925
C 2.2429123956 -0.6310037161 1.2554000318
H 0.2519603954 1.4361269772 0.9566305631
H -0.0366840082 1.1395131971 -0.7748099278
H -0.5289425399 -0.061580049 0.4306041702
H 2.5327067092 1.2373937373 -1.5679190918
H 4.5235196495 -0.6730274746 -1.0022931027
H 4.6816856878 0.9228821392 -0.2575214635
H 4.4903261189 -2.3580698602 0.8720846955
H 3.3222190888 -0.0351100452 3.1074094051
H 3.0978109302 1.3487872189 1.9315881854
H 1.7742032549 -1.4820425342 1.7381564593

