# b3lyp 6-31G(2df,p) opt Freq 

 titel

0 1
C -1.7208049513 1.3468812849 -2.3265518695
C -0.8471951818 2.5959893038 -2.3463526424
C -1.1986343864 1.9320348638 -1.0562054129
O -2.0680896125 2.5551108999 -0.1094252821
C -1.2900623515 2.0281042586 0.9879630646
C -0.3121344342 1.3291709222 0.0281339785
C 1.2124887828 1.5262737893 0.0939851853
O 1.4416779047 0.1050790451 0.1683719186
C 0.0272648012 -0.1687918924 0.1206317728
H -2.7804805049 1.472947751 -2.5206524876
H -1.2977070878 0.4158967269 -2.6903652399
H 0.1669252672 2.5100548371 -2.7235526614
H -1.3321202979 3.543840262 -2.5534912705
H -0.8555919831 2.8262489206 1.6025655242
H -1.8815356241 1.3592827411 1.6254418429
H 1.6708973961 1.9742375453 -0.79691672
H 1.57811871 2.0525817392 0.9858032733
H -0.2491564698 -0.7717558824 -0.7537496397
H -0.3282713068 -0.6738693057 1.0286609158

