# b3lyp 6-31G(2df,p) opt Freq 

 titel

0 1
O 1.6735977061 0.5424293417 -0.2268573809
C 0.5039041298 0.1457793187 0.4783117555
C -0.4966909634 1.2610456664 0.6614584248
C -1.9790232598 0.9940471392 0.5612186698
O -2.8078282766 1.7004058075 1.438589683
C -3.578133927 2.7399385789 0.8444781405
C -2.7708535936 3.6380937791 -0.0586249778
C -1.6888681916 3.1780203061 -0.6842310373
C -1.2955489117 1.755612466 -0.5390832999
H 2.0852400098 1.2573929357 0.2689344642
H 0.062306339 -0.6560543265 -0.123868448
H 0.7592594237 -0.2899806098 1.4572224099
H -0.2398282239 2.0216156881 1.3950263301
H -2.3099130341 -0.0269890488 0.3752097379
H -4.435822532 2.3190310994 0.2912969454
H -3.990821605 3.3082319045 1.6843120916
H -3.1074433483 4.6638426329 -0.1760077159
H -1.0882059133 3.8179211679 -1.3245900788
H -1.1028927981 1.2224479631 -1.4667731543

