# b3lyp 6-31G(2df,p) opt Freq 

 titel

0 1
C 0.3696309476 -0.2366947363 -0.7151079736
C 1.2056788749 0.091646503 0.53547486
C 1.8368786235 1.4058121113 0.4723600447
C 2.3497345227 2.4952154643 0.4179703582
C 2.9561906014 3.8158341738 0.3024971675
C 4.1743532379 3.7902791721 -0.6548392027
O 4.7086662083 5.0780463012 -0.8758044374
C 1.9175387767 4.8105058058 -0.2282344011
O 1.5594544489 5.7924713818 0.3607159006
H -0.0824585108 -1.2281038993 -0.6195871076
H -0.430717125 0.4955928862 -0.8508202933
H 0.9926191625 -0.2269462085 -1.6135180725
H 0.5687335226 0.0392902817 1.4275820942
H 1.9792242479 -0.6749048509 0.6719238892
H 3.2742419985 4.1850727704 1.2861693008
H 4.918882657 3.084011604 -0.2618079524
H 3.8557627907 3.4201567989 -1.6343454484
H 5.0271038216 5.4260449478 -0.0362468118
H 1.5093322832 4.5362124828 -1.2263791245

