# b3lyp 6-31G(2df,p) opt Freq 

 titel

0 1
C 0.6361424988 -1.1004073623 -0.1130335896
C 0.644942809 0.3300651092 -0.6570849042
C 1.6659869978 1.2390391613 0.0202374555
C 1.7228351937 2.642251308 -0.5723165308
O 1.2680301148 1.3232143009 1.4213143967
C 2.2346910835 1.5830426633 2.3140682511
O 3.4004691126 1.7612511764 2.0566975147
C 1.6930069558 1.6196437755 3.6574127435
C 1.2981585811 1.6627105116 4.7912835671
H 0.4024854204 -1.1106879877 0.9549043203
H -0.1113469649 -1.7098860601 -0.6290632272
H 1.6108630227 -1.5818838829 -0.2490141498
H 0.8728016305 0.3228108157 -1.7296924763
H -0.3491347212 0.7815328618 -0.5516499907
H 2.6616675414 0.7854873683 -0.0064397726
H 2.4630887343 3.2510803618 -0.0489182028
H 2.0083414894 2.5892547597 -1.6273854734
H 0.7460782086 3.1310269662 -0.5030164081
H 0.9495159318 1.7011764832 5.7945140867

