# b3lyp 6-31G(2df,p) opt Freq 

 titel

0 1
O -0.2553291733 2.8666352301 -0.1917338392
C -1.1380709059 2.1306125918 0.6395401819
C -0.3756574778 0.9133205116 1.1740996657
C 0.2801121412 0.1479169867 0.0416772217
O 1.4435148962 -0.1584140505 0.0087576053
C -2.5654589911 1.9998972032 0.0221953631
C -3.1117929251 1.7840348319 1.4637987072
C -2.086412969 2.9480590335 1.5860313448
C -2.7362878372 3.5290307754 0.2917426066
H 0.5715359142 3.0024617811 0.2836413436
H 0.4103563136 1.228131121 1.8713643285
H -1.0311331353 0.2215592506 1.7130030671
H -0.4123352999 -0.1326241132 -0.7839720875
H -2.8407352766 1.4543088425 -0.8815195078
H -4.1559047131 2.0679306186 1.6088190697
H -2.8986279593 0.8418003623 1.9697912136
H -1.8048374662 3.4897594017 2.4910524139
H -3.7667192298 3.8753544986 0.3975722005
H -2.1318196055 4.2065757629 -0.3056966287

