# b3lyp 6-31G(2df,p) opt Freq 

 titel

0 1
C -0.1477729905 0.2038317974 -0.0607029339
C 1.3608244133 0.0456026304 0.0435436634
C 2.1984529974 1.3305447638 0.2301129266
O 1.8205845349 1.9262179435 1.4774111289
C 2.7662127387 0.8432820346 1.4968891388
C 1.9776543467 -0.4434901246 1.3881294737
C 1.3485031696 -1.2759018305 2.4730579527
C 2.4807903723 -1.8257255683 1.6335577154
O 2.2141599023 -2.7618894359 0.6294330689
H -0.5191785917 0.8503849635 0.7387553109
H -0.4296659189 0.6455279483 -1.0227942593
H -0.6484117813 -0.7668506889 0.0166737748
H 1.7544829866 -0.5605031143 -0.778265987
H 2.6186363278 1.9852774229 -0.5248944887
H 3.725536858 1.0274921518 1.9673259203
H 1.5389404898 -1.0245590423 3.5117326404
H 0.3566142599 -1.6690298563 2.2716206524
H 3.4559565152 -1.9319515205 2.1117299441
H 2.0341248899 -3.6089260743 1.0506652276

