# b3lyp 6-31G(2df,p) opt Freq 

 titel

0 1
O 1.5174906282 0.6391831962 0.0829730441
C 0.5598750155 -0.281149626 0.57987731
C -0.3632831583 0.3394888037 1.6362101945
C -1.4103677298 -0.6137871281 2.1336543138
C -1.2361690541 -1.8859187933 2.9740688573
C -2.7774486302 -1.8502657695 3.1168270428
O -3.2530521762 -2.1304570893 1.7683613687
C -2.7660519365 -0.8346948491 1.4247877593
C -2.7454896851 -0.3043198152 2.8170247342
H 2.0972116245 0.8829597884 0.8115898127
H -0.0294588411 -0.5970982711 -0.2870280899
H 1.0431153042 -1.1837044703 0.9861588216
H 0.2467492204 0.696427092 2.479670323
H -0.8381341202 1.2285040484 1.2024439384
H -0.8141139935 -2.7851980199 2.5133787262
H -0.7349757585 -1.6666885701 3.9214201135
H -3.3234693984 -2.3839156027 3.8915117698
H -3.0472523461 -0.3960457634 0.4760528987
H -3.1457302449 0.5791251693 3.2953861014

