# b3lyp 6-31G(2df,p) opt Freq 

 titel

0 1
C 1.3105902669 -0.8488655329 -1.2500352584
C 0.9607570129 -0.0027578115 -0.0459154282
C 1.691008683 -0.2385935371 1.2623383742
C 1.0064866881 0.1678540109 2.5701288311
O 1.7890654012 -0.1036550162 3.7296092241
C 0.8334858074 1.6654050541 2.4290031845
C 1.3572126574 2.1269884185 1.2912557613
C 1.940864617 1.0325112072 0.4617118468
O 3.0773129329 1.2761815538 -0.3062942436
H 0.7967225753 -1.8155868805 -1.2091873381
H 1.0155393578 -0.3495393867 -2.1786826535
H 2.3864204603 -1.0306830959 -1.302249237
H -0.0887091635 0.2753714132 0.0307103452
H 2.436469473 -1.0263998951 1.291457025
H 0.0212313346 -0.319101527 2.6628029555
H 1.7433122614 -1.0505578705 3.8980101457
H 0.3091418771 2.247694312 3.1770750396
H 1.3483499163 3.1573035405 0.9530423716
H 3.8021459012 1.4758931833 0.2965742441

