# b3lyp 6-31G(2df,p) opt Freq 

 titel

0 1
C 2.4555692068 2.1862548985 -0.9054373437
C 1.1519292347 2.550885064 -0.1843871869
O 0.8385138394 2.2724799403 1.2014059694
C 0.5366635197 1.2831485171 0.2209637383
C 1.5984508722 0.1959655429 0.0637303355
C 2.156034659 0.7030158627 -1.2785069806
C 0.9859451935 0.5008471536 -2.289170338
O -0.2990671889 1.0346002218 -1.9322428004
C -0.7151409496 0.9574927871 -0.5519915832
H 2.6009646885 2.83943289 -1.7707051063
H 3.3501251566 2.2547313592 -0.2773578486
H 0.541364948 3.346939315 -0.6000198532
H 2.3301223354 0.241995011 0.8736018104
H 1.1809993133 -0.8134602939 0.0135269861
H 3.0278931024 0.1608871219 -1.6640794039
H 1.2128627202 0.9659048468 -3.2542793774
H 0.9000168737 -0.5851207665 -2.4564386708
H -1.5074251191 1.7009156547 -0.4329355716
H -1.1188722659 -0.038766826 -0.3221926152

