# b3lyp 6-31G(2df,p) opt Freq 

 titel

0 1
C 0.8310164011 -0.066305134 0.8373783795
C -0.2499252161 0.4076941961 -0.1579120474
C 0.617618751 1.2775902261 -1.0929872774
C 1.7175412864 0.26361085 -1.4470890921
O 1.1728788804 -0.644342648 -2.4117795635
C 0.448198548 -1.5436973145 -1.5936269808
C -0.7608855244 -0.8219818825 -0.9575109334
O 1.374369778 -1.9132515847 -0.5891272906
C 1.8610142747 -0.6399318351 -0.1492498325
H 1.2328673517 0.7785805948 1.4077615676
H 0.4992366173 -0.835863122 1.5382995134
H -1.0769520748 0.9479337604 0.3096219421
H 0.1085951886 1.6242415789 -1.9953816777
H 1.0155394015 2.1472270604 -0.5581558781
H 2.6464620773 0.675510151 -1.8416884255
H 0.1808337476 -2.4261724458 -2.1784371563
H -1.4517535396 -0.5111326489 -1.7486386297
H -1.2916573486 -1.5193602673 -0.300431073
H 2.8754056996 -0.7662933947 0.2293086152

