# b3lyp 6-31G(2df,p) opt Freq 

 titel

0 1
C 1.3302959951 -0.0697723907 -0.199891034
O -0.0557327275 0.0984804696 0.0231050949
C -0.3390016354 0.6551175785 1.2646456982
C -0.4237686101 -0.2345076016 2.4820669166
C -1.6766405646 0.3358244181 1.8501414296
C -2.4749316197 1.4033436165 2.5799220327
O -3.2156314481 0.8712740714 3.6757916678
C -3.3413408498 2.1405121183 1.6522943441
C -4.078767292 2.7027047937 0.8873140705
H 1.7840164085 -0.737620754 0.5464116169
H 1.4447505003 -0.5098516047 -1.1931004517
H 1.8646976719 0.8920888331 -0.1734694923
H 0.05340184 1.6648339459 1.4050499037
H -0.2393563263 -1.2929741059 2.3371938914
H -0.1064299016 0.159379842 3.4420575032
H -2.2741408398 -0.3554750461 1.2625797619
H -1.7727875111 2.1067770822 3.044921339
H -3.9334592132 0.3426540139 3.3095793362
H -4.7218785268 3.2152155398 0.2151690012

