# b3lyp 6-31G(2df,p) opt Freq 

 titel

0 1
C -1.2327238383 -2.1377613187 -1.1861075348
C -0.9880050511 -1.1523193464 -0.0576471056
O -1.9099024306 -0.0339760397 -0.0397081279
C -0.8667458628 0.9774226616 -0.0770419247
C -0.9958638256 1.9645155616 -1.1962585551
C -1.7923967821 3.2322026157 -0.9946901993
C -0.2923944904 3.2969007851 -1.086091444
C 0.1708191141 -0.1552705803 -0.2067346087
O 1.346013186 -0.2272473025 -0.3981697623
H -0.4558809446 -2.9085500463 -1.1804665137
H -2.2049370868 -2.6230607858 -1.0606581323
H -1.2199344238 -1.633871046 -2.1564778244
H -0.9714864874 -1.668095082 0.9140261846
H -0.7885297907 1.5022074881 0.8878903441
H -1.0384609401 1.5163182444 -2.1843156358
H -2.378676957 3.596406144 -1.8304598499
H -2.253219032 3.3893318155 -0.0253805143
H 0.1585799478 3.7023986498 -1.9840963165
H 0.2672334456 3.5018683618 -0.1797319593

