# b3lyp 6-31G(2df,p) opt Freq 

 titel

0 1
C 2.7225809915 0.1219137185 4.1504642686
C 3.2467550147 0.2137697906 2.7285081925
O 2.8404684292 -0.9549555554 2.0291094236
C 3.2769548735 -1.0104875032 0.692286697
C 3.0627837385 -2.4389882534 0.1889402534
C 2.5182549646 -0.036001292 -0.2248012948
O 3.0398024149 0.4682884212 -1.1947136856
C 1.122941905 0.205307381 0.1073984884
C -0.0358891639 0.4186667676 0.3544303065
H 3.1117747875 -0.7721740283 4.6456810868
H 3.0288254336 1.0004958925 4.7258188243
H 1.6304806746 0.0674397286 4.1519609557
H 2.855259343 1.115861003 2.2335212612
H 4.346232726 0.2873054635 2.7196620391
H 4.340443175 -0.7391696195 0.6078069298
H 3.6209161138 -3.1336125592 0.8214579812
H 2.0023928759 -2.7029030882 0.2372287714
H 3.4082305114 -2.5357677488 -0.8433150088
H -1.0598547987 0.6077000617 0.5690413299

