# b3lyp 6-31G(2df,p) opt Freq 

 titel

0 1
C 4.4084312969 -1.1679394306 -0.1910339262
O 4.0958234241 -2.1195524175 0.8305796459
C 3.0372629114 -1.310816857 0.3218966096
C 1.9514421596 -2.0030944213 -0.4523881773
C 1.2853059314 -3.2080622269 0.1643689432
C 2.2203988312 -3.3796184995 -1.0081707005
C 1.1182836087 -1.0530698639 -1.265453521
C -0.1428366738 -0.4812179577 -0.7692884039
O -0.1380277561 -1.5289053081 -1.7436098263
H 5.0254040366 -0.3295215323 0.1278837128
H 4.6595016477 -1.5966971595 -1.1596911616
H 2.6851578495 -0.5550549816 1.0275123609
H 1.6379161399 -3.5270915812 1.1385932443
H 0.225197237 -3.336581582 -0.0200002579
H 3.1941989554 -3.8120528566 -0.8105364006
H 1.7813746628 -3.6225720204 -1.9691385229
H 1.6761079598 -0.4714946902 -2.0027790134
H -0.5041474528 -0.7694914712 0.2163691861
H -0.4816345593 0.4881858376 -1.1309252412

