# b3lyp 6-31G(2df,p) opt Freq 

 titel

0 1
O 0.5310829952 -0.0706692672 0.5532223124
C -0.72976834 0.5126788443 0.7837846841
C -1.5732343966 -0.1229153026 1.9381013597
C -2.7061859906 -0.4867073963 0.9374360047
C -3.7392696067 0.6392894339 0.690361399
C -2.7362215445 1.3421243368 -0.2683073752
O -2.0463747964 2.432189128 0.3472459925
C -0.7292815973 2.043266936 0.7101133505
C -1.8217315429 0.0878805375 -0.2265574601
H 1.088268296 0.1056591545 1.319482285
H -1.0663248462 -1.0115348925 2.3227159636
H -1.8441693182 0.5297367575 2.7737550547
H -3.0721762865 -1.5122770355 0.9700478744
H -4.6150446893 0.2677841642 0.1499825535
H -4.0700200529 1.2323976377 1.547206266
H -3.1332944971 1.6686368589 -1.2332380739
H 0.0045672324 2.3593312905 -0.0472999231
H -0.4783171719 2.5265595515 1.6626504743
H -1.5326255165 -0.4310952873 -1.1379449421

