# b3lyp 6-31G(2df,p) opt Freq 

 titel

0 1
O -0.7698432381 -0.0098975815 -0.0076684819
C -2.1056668345 0.312706011 0.1503848219
C -3.1902721251 -0.7235084719 0.2069723263
C -3.1962777365 0.2973651635 -0.9115719713
C -3.7510299005 1.6316453052 -0.385295202
C -2.6033757297 1.6597889445 0.6868162533
C -3.6816072101 2.7696472357 -1.3646859074
C -4.5820473754 3.9263779856 -1.2868299019
O -4.7800147007 2.9095566068 -2.2708817283
H -0.4808415297 -0.4999858969 0.7698320343
H -2.8712942827 -1.7150193916 -0.099118362
H -3.9579155863 -0.7084658657 0.9788093955
H -3.1531286823 0.0013347906 -1.9524338255
H -4.7667621076 1.567675855 0.019908507
H -1.8868894643 2.4610014148 0.485414108
H -2.9006247094 1.7033123288 1.7398457574
H -2.7050541006 2.9177668814 -1.8314497163
H -5.3348054882 3.9672243691 -0.5000768361
H -4.2598203584 4.8938967357 -1.669593641

