# b3lyp 6-31G(2df,p) opt Freq 

 titel

0 1
O 0.739182107 0.1077779662 0.9511296796
C -0.6507758964 0.3825258738 0.9461544098
C -1.2860504903 0.3622085859 2.3904487187
O -1.4703779114 1.7251377699 2.8627142278
C -0.8948461588 2.5768887715 1.8993395986
C -1.6579981413 3.5404900072 0.9277341057
C -0.5754109473 3.1161375087 -0.1402574423
C -1.0035504102 1.8063825753 0.585599046
C -2.4824457731 2.3143241706 0.473161608
H 1.1849650422 0.8286190821 1.4103569046
H -1.1012409938 -0.3850578014 0.3123333524
H -2.2634374791 -0.1322844874 2.3964716385
H -0.6138901954 -0.1758405985 3.0683727695
H 0.0948268196 2.933421908 2.2209060522
H -2.0128077044 4.5542547383 1.1172436079
H -0.8720882281 3.2272162344 -1.1847011785
H 0.4485585467 3.4620184141 0.0261019354
H -2.8962234009 2.34944978 -0.5376165271
H -3.1978799251 1.9177120412 1.1925503331

