# b3lyp 6-31G(2df,p) opt Freq 

 titel

0 1
C 1.4095993268 -1.1017856787 1.2172593968
C 1.1678158886 -0.2870851886 -0.0555697762
C 2.1096547976 -0.6831440464 -1.1964041923
O 1.9255173499 -2.0824215258 -1.5738157535
C 1.3324172711 -1.7299406673 -2.83987488
C 1.6379797664 -0.2430042228 -2.636852589
O 0.5062589392 0.5753017399 -2.7485927432
C 3.5049450669 -0.385043532 -0.900426586
C 4.6544749652 -0.1033965972 -0.6858352313
H 1.3079865452 -2.1702062353 1.0086688381
H 2.4137245501 -0.9276957715 1.615207879
H 0.6849171923 -0.8319750484 1.9908762843
H 0.1418192876 -0.4223384278 -0.4100345861
H 1.2953402641 0.7842897458 0.1423309567
H 1.8284811214 -2.2262953191 -3.680243278
H 0.2561951195 -1.9393671297 -2.8709330569
H 2.4725408573 0.1267521452 -3.2414342677
H 0.783374723 1.4955420582 -2.6982630811
H 5.6713181479 0.1302520716 -0.4866116033

