# b3lyp 6-31G(2df,p) opt Freq 

 titel

0 1
C 0.4146880741 -0.1673718641 0.1341981752
C -0.0853809157 0.2680016682 1.5317737723
O 0.3318663888 1.6491586996 1.5762397228
C -0.1922586748 2.1487050212 0.3335470315
O -1.2132114094 3.0856528298 0.5489339562
C -2.1029125167 2.7037248312 1.5989042942
C -2.6038199909 1.2582831981 1.4509971425
C -1.5203332625 0.3239699668 0.9218066522
C -0.690531561 0.8357064727 -0.3008246592
H 1.455715528 0.0657846313 -0.1001784287
H 0.1725738487 -1.1993680877 -0.128222617
H 0.1709388315 -0.2250830773 2.4681727706
H 0.5908041113 2.6718540828 -0.2216751914
H -1.5988238727 2.8311997887 2.5626307185
H -2.9333329392 3.412546665 1.5487657736
H -2.9924595149 0.9087221635 2.4149881498
H -3.4407646801 1.2279014273 0.7423031186
H -1.9043814583 -0.6842501754 0.7476426984
H -1.0930274165 0.9008843483 -1.31037016

