# b3lyp 6-31G(2df,p) opt Freq 

 titel

0 1
O -3.180125903 -1.4338080873 -0.9469409678
C -2.1164367374 -0.921743099 -0.2140346339
C -1.2962426409 -1.7456907007 0.829566303
C -0.8325711585 -0.3239328085 1.265743661
C -2.2671049448 0.1630983547 0.9007255121
C -0.0562922205 0.1142857889 0.0303308641
C 0.9267691448 1.194618396 -0.0222634797
O 1.3324075644 -0.1834907262 -0.0595701445
C -1.0086368112 -0.3192911616 -1.0979843318
H -3.8221556733 -1.8047844846 -0.3329193554
H -1.9352054258 -2.2207910213 1.5794336413
H -0.5416114336 -2.4469490963 0.4649936658
H -0.3803063981 -0.1334557461 2.2369692513
H -3.0024334122 -0.116018372 1.6606742162
H -2.4061343257 1.204731861 0.5977327124
H 1.0769431655 1.7486650247 -0.9483833344
H 1.1941157295 1.7338473277 0.8864070175
H -1.3762530657 0.5100499157 -1.7086093296
H -0.5459785233 -1.0630667951 -1.7517555476

