# b3lyp 6-31G(2df,p) opt Freq 

 titel

0 1
C 0.9969411423 -0.7552569963 -0.7764270875
C 1.1055073795 0.1474299482 0.4450564508
C 1.924327049 -0.3190287045 1.6988689383
O 1.1911107937 -0.5269955763 2.8787990322
C 2.7605464141 0.974483696 1.6377645128
C 3.4450918236 1.0981612259 0.3261137769
C 1.9652029908 1.4190701777 0.3693140969
C 1.4565337171 2.7661792059 0.1008280205
O 0.3150569706 3.0162451796 -0.2128061074
H 0.4551661056 -1.674263879 -0.529351586
H 0.456362144 -0.2507658791 -1.5833273535
H 1.9808199413 -1.0433694211 -1.1612836856
H 0.1025142309 0.4292963098 0.783678871
H 2.5128654224 -1.2313781373 1.5545920217
H 0.5988044019 0.223017125 3.004216819
H 3.0225819545 1.5825584486 2.4960425099
H 4.1001999159 1.956759159 0.2093404762
H 3.7737714447 0.2136120145 -0.2130810014
H 2.211953788 3.5776484535 0.2277338551

