# b3lyp 6-31G(2df,p) opt Freq 

 titel

0 1
C -1.2019921674 -3.8797770616 0.6290926653
C 0.052080926 -3.4095624344 1.2902099053
C 1.5331630089 -3.434308604 0.8950090725
C 1.9291415766 -4.1153091463 2.2030628658
C 0.6289964469 -3.487916516 2.7640026634
O 0.9053005684 -2.0585265185 2.758461924
C 0.8247550839 -2.1319042414 1.327790278
C 0.7885033941 -0.8486092309 0.5693539665
O 2.0183825331 -0.1436395156 0.6465656182
H -2.0932222719 -3.4681921287 1.1158956455
H -1.2231449636 -3.5716403812 -0.4217197147
H -1.2815074896 -4.9727558119 0.6512425922
H 1.9583239894 -3.5523381639 -0.0941244585
H 1.8561530236 -5.2037232915 2.1289272981
H 2.860134443 -3.824980238 2.6999461334
H 0.1353242095 -3.8306965666 3.6715432464
H 0.608871498 -1.0533844972 -0.4913143493
H -0.0464283532 -0.2319276109 0.937130438
H 2.2321958743 -0.0601965113 1.58243479

