# b3lyp 6-31G(2df,p) opt Freq 

 titel

0 1
C 1.8990211582 -1.0512444807 -0.7197590546
C 0.8721528209 -0.1137279729 -0.0595315575
C 1.369677189 1.2717379526 0.1470484789
C 1.6314580894 2.0117966023 1.2658345548
O 1.4490433841 1.5458214498 2.5297742256
C 1.7522251331 2.4475811306 3.5757219498
C 2.1071905699 3.2946397621 0.8291035089
C 2.1002392363 3.2360152395 -0.5290013195
O 1.6613333497 2.0301144072 -0.958114894
H 2.7958965608 -1.1460423283 -0.1001194392
H 1.4753783834 -2.0498220509 -0.8655984248
H 2.2045368328 -0.6653325279 -1.6965569784
H -0.0411009444 -0.0930459474 -0.6695489747
H 0.5843910056 -0.5022879121 0.9224223885
H 1.5503491729 1.9189910263 4.5090568689
H 2.8078390437 2.7502359092 3.5553994893
H 1.124210212 3.3474496811 3.5292092916
H 2.4070488502 4.1347113387 1.4336660299
H 2.3669393523 3.9428260608 -1.2972998935

