# b3lyp 6-31G(2df,p) opt Freq 

 titel

0 1
C -0.3628480358 1.077299412 -0.0838920074
O 0.1496131926 -0.256092267 0.1187139638
C 1.5080154097 0.1952842385 -0.0272449607
C 1.06036026 1.6784120308 -0.1140106407
C 1.4881419159 2.5262488024 -1.3300255289
C 2.7007948687 3.3669939061 -0.860485833
C 2.470728637 3.5182285242 0.6307506871
O 1.1270114486 3.8976129626 0.9643999489
C 1.4942446201 2.51436288 1.0713485513
H -0.9149473171 1.1652199722 -1.0293908006
H -1.0106990035 1.4030509707 0.7386201734
H 2.1289677303 -0.0787916371 0.8359612265
H 1.9791068772 -0.194562055 -0.9400647614
H 1.7121971876 1.9106360177 -2.2050066533
H 0.6648138831 3.1927842747 -1.6002866512
H 3.6468484283 2.8351810502 -1.0202566887
H 2.7727050197 4.3275245692 -1.3793329848
H 3.2421926292 3.9175291932 1.2842231425
H 1.4703493286 2.0988497445 2.0765515771

