# b3lyp 6-31G(2df,p) opt Freq 

 titel

0 1
C 0.8700474903 1.1936569382 0.1515247608
C 1.0510851551 -0.3180616298 -0.0025356348
C 1.6702892705 -1.0276479655 1.1839680433
C 2.4973860529 -2.0032033681 0.8115904086
C 2.5760510376 -2.1171487441 -0.6935570243
C 1.9972173192 -0.7519225876 -1.1733387131
O 3.0392570447 0.184420379 -1.4086612469
C 1.264371969 -0.8709508472 -2.5008482157
O 0.2459938092 -1.4955528528 -2.651353621
H 0.2091999175 1.4092990306 0.9970957143
H 1.8222029059 1.7010068316 0.3273241245
H 0.420524909 1.6326804371 -0.7442773143
H 0.0687516734 -0.7671026023 -0.2069859495
H 1.4127491748 -0.7741422261 2.2068695302
H 3.01846584 -2.6811086585 1.478159174
H 3.5873946421 -2.2584436734 -1.0890498339
H 1.9618228309 -2.9520332841 -1.054618086
H 3.5708270518 0.2378495409 -0.6067687131
H 1.7592864662 -0.3296782679 -3.3359852131

