# b3lyp 6-31G(2df,p) opt Freq 

 titel

0 1
C 0.1752813223 5.1720919171 0.8504564418
C -0.9114659067 4.1798468087 0.4884463861
O -1.9591421396 4.1150712603 1.0983243256
C -0.6257211332 3.2719342666 -0.663680166
C -1.8048031369 2.8355368443 -1.5231503849
C -1.1858191033 1.85371415 -0.5904834883
C -0.3526345719 0.6956988658 -1.1066365117
C 0.6725970877 0.2490419122 -0.0839505478
O 1.8546429784 0.1586876185 -0.2906992835
H -0.1361477082 5.7740143758 1.7045489354
H 1.1061302033 4.6435314818 1.0866590577
H 0.3906891225 5.8235914901 -0.0044687689
H 0.3312999425 3.3968955364 -1.1591672627
H -2.76569052 3.2527579198 -1.244209561
H -1.6258797793 2.7284245278 -2.5873992797
H -1.7502244636 1.6619907701 0.3181840079
H -1.013260639 -0.1587882519 -1.3153718937
H 0.1692418786 0.9530337648 -2.0329590078
H 0.2449843662 0.0073532119 0.9173933317

