# b3lyp 6-31G(2df,p) opt Freq 

 titel

0 1
C -3.2825648265 0.7468272243 -1.3914299376
C -2.5280343586 0.5563390017 -0.059726425
C -1.0952101585 0.9909550606 -0.1503367274
C -0.0726644914 0.2471743692 0.258163043
C 1.3666881214 0.6727130348 0.1771369986
C -0.3054289514 -1.1053153682 0.8597088771
O -1.6505998244 -1.5875864787 0.8542715988
C -2.7207436272 -0.8755261899 0.435566471
O -3.8034250126 -1.3964987158 0.4722627869
H -2.818517014 0.1586602521 -2.1891705386
H -4.3199141498 0.4276225062 -1.2821510069
H -3.2609576883 1.7994275316 -1.6892353917
H -3.0429020614 1.1783920901 0.6886703326
H -0.9148653041 1.9746141656 -0.5794236691
H 1.8393237121 0.6752406589 1.1676433012
H 1.9515651188 -0.0139352953 -0.44786618
H 1.4574142185 1.6767511188 -0.243682
H 0.2926137917 -1.8620846715 0.3336287177
H 0.0338792156 -1.1165051347 1.9056954595

