# b3lyp 6-31G(2df,p) opt Freq 

 titel

0 1
C -3.7689171637 0.7791608156 0.9752246091
C -2.6137241299 -0.0845869672 1.3991123708
C -2.6653474399 -1.4041321396 2.2155801373
C -1.1778546692 -1.1682477475 1.9174369481
O -0.0696750824 -1.9601492779 2.2004157214
C -1.446514553 -0.6184648907 0.4847305023
C -0.5824175456 0.6348464227 0.7478380947
O 0.8139693291 0.5275581101 0.6766221128
C -1.2895939643 0.3920799071 2.1008709419
H -4.3232620894 1.1473847455 1.8455716373
H -3.4302841649 1.6488107816 0.4024858025
H -4.4698198054 0.2177432462 0.3477916526
H -2.9877126353 -1.3195517723 3.2599083703
H -3.1373577999 -2.2649101646 1.7300051535
H 0.0199512278 -2.0322564525 3.157492484
H -1.561604977 -1.2205369446 -0.4184202984
H -0.8557958332 1.5452766979 0.206285646
H 1.0594007551 -0.2984932666 1.1132623387
H -1.2232804288 0.943919677 3.0412212053

