# b3lyp 6-31G(2df,p) opt Freq 

 titel

0 1
O 1.6805719433 0.3802667297 -0.0279499548
C 0.267594742 0.5446968603 0.1313522095
C -0.2698691933 0.9848370297 -1.1772968862
C -1.583388903 1.5213468768 -1.6872234735
C -1.685317189 0.4400699214 -2.7666572128
C -0.1522572066 0.3134482693 -2.6214004679
O 0.4259085655 -0.9068761907 -2.9137084167
C 0.4024322833 1.6643172415 -3.1570582889
C -0.2694936693 2.2888405602 -1.9341355991
H 2.0273162276 -0.0126305307 0.779167919
H -0.1960503119 -0.4075643253 0.4350245397
H 0.0357892882 1.2868768852 0.9122259481
H -2.3865406621 1.9627069804 -1.1106286297
H -2.1863593092 -0.4551435807 -2.3889008545
H -2.0813719557 0.7049424375 -3.7533894295
H 1.3308405141 -0.882593735 -2.5808794306
H 1.4921325919 1.7075306827 -3.0656011256
H 0.095748819 1.9771467297 -4.1619723138
H -0.1200856749 3.2801262179 -1.5258600327

