# b3lyp 6-31G(2df,p) opt Freq 

 titel

0 1
C 0.6980286817 1.3656829574 -0.0796625493
C 1.6063150313 0.1624036514 -0.1011358052
C 0.1086556779 -0.0133281035 0.0673874834
O -0.6333402685 -0.4358244976 -1.0521786099
C -0.4425122251 -1.7717295358 -1.4463611509
O -0.5168585102 -2.6895250998 -0.3968576119
C -1.6030551864 -2.4834798381 0.5002382346
C -1.2727838025 -1.4621852573 1.5622065096
C -0.4678779749 -0.416963735 1.3759592374
H 0.7049148973 2.0126226784 0.7908117212
H 0.5051790546 1.8648785433 -1.0216982402
H 2.0277191168 -0.1288637946 -1.0568612575
H 2.2427758943 -0.0357065361 0.7536343915
H -1.2258784232 -1.9420883531 -2.2003399634
H 0.5493686914 -1.9311858423 -1.8916205876
H -2.5178773412 -2.2124844387 -0.0506936751
H -1.7863325451 -3.454230711 0.9726704162
H -1.6966004835 -1.6392457354 2.5472702
H -0.2269498045 0.2297277077 2.216293137

