# b3lyp 6-31G(2df,p) opt Freq 

 titel

0 1
C 2.9112927309 -1.5176471265 1.9344152108
C 2.798623384 -0.0597077744 1.5515264052
C 2.4383943991 0.18943683 0.0833298839
C 1.1078997491 -0.2913024046 -0.2697108067
C 0.0074013518 -0.6913589935 -0.5406482097
O 3.8421132355 0.8060616296 2.0193536031
C 2.5013226142 1.0183463167 2.5107818817
C 2.3228066949 0.86089188 4.0001503256
O 2.9101640478 1.9511050859 4.6921482799
H 3.2092846711 -1.6441570882 2.9752792665
H 1.9574855465 -2.0274343058 1.771250874
H 3.6647019738 -2.0061913529 1.306525836
H 2.5191000966 1.2635269609 -0.1163250575
H 3.1905674783 -0.3015734869 -0.5485625968
H -0.9642341032 -1.0399223556 -0.7896542537
H 2.0352723515 1.9230212871 2.114936077
H 1.2557879966 0.8789192466 4.2475016115
H 2.7331526685 -0.0972660241 4.3446482745
H 3.839294953 1.9731308657 4.4360806048

