# b3lyp 6-31G(2df,p) opt Freq 

 titel

0 1
O 1.2877606188 1.5661096087 0.0080464856
C 0.7335200751 0.2608792482 -0.0955970009
C -0.2411293196 0.1456865415 -1.2365771898
C -1.4636515212 -0.3772389093 -1.1083878893
C -2.4412134078 -0.5052975004 -2.2497601394
C -2.252280717 0.5741319075 -3.3344694595
C -0.78792645 0.8888320469 -3.6133458026
O -0.2330307673 2.003864882 -2.9015494967
C 0.209154766 0.6746865447 -2.5562388828
H 0.5648213433 2.196765116 -0.0798457354
H 1.5947044347 -0.4013155887 -0.2564205361
H 0.2512335829 -0.0571189817 0.8418809694
H -1.7792087267 -0.7597539802 -0.1393952885
H -2.3377113526 -1.5070823877 -2.6928275207
H -3.4664346283 -0.4634370992 -1.8664189644
H -2.7504935423 0.2639363734 -4.2583488589
H -2.72971665 1.5048544897 -3.010489344
H -0.4623721425 0.8325220244 -4.6515271695
H 1.2472331647 0.4798987341 -2.8243445165

