# b3lyp 6-31G(2df,p) opt Freq 

 titel

0 1
C 1.0670708094 -4.1846588666 -3.9832762818
C 1.1837986593 -2.8229211498 -4.6918501792
C 0.8451529213 -1.6939426511 -3.8329471155
C 0.555660002 -0.7735426094 -3.1107912743
C 0.2220642636 0.3354128966 -2.2413616478
O -1.206244146 0.585714479 -2.1104281945
C -1.1011162064 0.69732783 -0.6762403508
C 0.347423659 0.1594752115 -0.7062812871
O 1.3684765391 0.9376222666 -0.1420484211
H 0.0468675756 -4.3502945497 -3.6269237836
H 1.3291502979 -4.9952812358 -4.6696684565
H 1.7379584277 -4.2328485712 -3.1212171244
H 2.2043592581 -2.6921639522 -5.0741329263
H 0.5301253797 -2.8096511105 -5.5735147085
H 0.7467793233 1.2490899009 -2.5552679412
H -1.151818493 1.7392083069 -0.3325515264
H -1.8599905247 0.0972960591 -0.1621712187
H 0.4210626878 -0.8944998541 -0.4174323502
H 1.5129368062 0.6509997899 0.7643486478

