# b3lyp 6-31G(2df,p) opt Freq 

 titel

0 1
C 1.3340904543 -0.581377747 1.1231754642
C 1.0003846593 0.0473810019 -0.2340020772
C 1.7126051376 -0.6326905289 -1.3860929451
C 1.8935847889 0.1166367285 -2.6734782836
C 2.5929687893 -0.7660202812 -3.7005621825
O 3.6485495497 -1.1085033922 -2.7600944481
C 3.1111300014 -0.2000165061 -1.7942613086
C 4.0474763883 0.6721334409 -1.0708138408
O 3.7341575342 1.557978396 -0.3077079625
H 1.1002238422 -1.6516799196 1.135005783
H 2.395595629 -0.4629527861 1.3578088463
H 0.7596166014 -0.104965008 1.9230627104
H -0.080209495 -0.0163948992 -0.4170020315
H 1.2635219354 1.1081570064 -0.2172616697
H 1.5618555187 -1.7101490728 -1.4567447944
H 1.4474659641 1.0860339512 -2.8528771177
H 2.0504730684 -1.6503295956 -4.0535082727
H 3.0029947652 -0.2140832798 -4.5533051947
H 5.1107859276 0.4411456516 -1.3011238947

