# b3lyp 6-31G(2df,p) opt Freq 

 titel

0 1
C 1.6055495965 -0.0377893373 0.0597355923
O 0.2026742981 0.1171296429 -0.0620893561
C -0.3926422513 0.7062370798 1.0566995272
C -1.9085555352 0.9588250241 0.8728778207
C -1.7035037395 2.4774861062 1.1093452952
C -1.4373227241 3.2981181187 -0.1841868668
C 0.0674208707 3.0203842631 -0.0090561945
O 1.0463334988 3.3305424482 -0.6249527494
C -0.15113458 2.2449536393 1.2927289374
H 1.865037599 -0.6374513256 0.9458119996
H 1.9479850518 -0.561366013 -0.8354154396
H 2.1141117392 0.9330702245 0.1208857777
H -0.1553369273 0.1356077744 1.9673900738
H -2.2750974888 0.6869497193 -0.1201197176
H -2.5266462682 0.4612645694 1.6229060779
H -2.3144367788 2.9562974125 1.8722107603
H -1.8917256768 2.9422173901 -1.113467679
H -1.6526884742 4.3674673222 -0.0806378108
H 0.4434637302 2.537665391 2.1589481417

