# b3lyp 6-31G(2df,p) opt Freq 

 titel

0 1
O 0.9177625564 1.0609399104 0.349256077
C 0.3841421053 -0.2150561485 0.6629568835
C -0.9313411893 -0.1172396227 1.3661534752
O -0.8532519802 0.5527063667 2.621616588
C -2.2388540604 0.4958165752 3.0061937219
C -2.5573946245 -1.0113254806 2.8828135307
C -2.0284208794 -1.1522555632 1.4592645653
C -2.2804948061 0.191045103 0.7603723778
C -2.9580788752 1.0988626472 1.7791866084
H 0.888607796 1.5732444549 1.1651064595
H 0.2569532315 -0.7487112798 -0.2840583984
H 1.0849097359 -0.7969446599 1.2828526807
H -2.3759633386 0.9747972931 3.973253518
H -1.9983767263 -1.6094343453 3.6075814145
H -3.6254493687 -1.2260952902 2.9788454307
H -1.9956902638 -2.0916695857 0.9238498445
H -2.4274074284 0.2734854545 -0.3078515486
H -2.7119752674 2.1546852719 1.636879693
H -4.0443282469 0.9807729289 1.8273256983

