# b3lyp 6-31G(2df,p) opt Freq 

 titel

0 1
C 1.4934131401 0.1671484307 -0.0725603623
O 0.0924656401 0.0275981116 0.0491346376
C -0.4201452589 0.5677828663 1.229122686
C -0.3384955798 -0.3017158367 2.5351327747
C -0.191583488 0.5124682047 3.8414418651
C -1.7353289499 0.7210567425 3.885320596
C -1.910306493 -0.2501154825 2.6680465247
C -1.9693578771 0.4365473662 1.3057076064
O -2.8417363052 0.6614450842 0.5203916797
H 2.0319341492 -0.3672528394 0.72370617
H 1.7757545902 -0.2593837479 -1.0376327132
H 1.7941667441 1.2256750701 -0.0448831569
H -0.0615859803 1.6005818356 1.3832830663
H 0.2105955098 -1.2348874342 2.4136780815
H 0.171333584 -0.0873110748 4.6795218633
H 0.4246399602 1.4146032928 3.7771149048
H -2.2156694627 0.3598192159 4.7961265392
H -2.0799541075 1.7425903368 3.7053240935
H -2.5600115452 -1.113305822 2.8145046236

