# b3lyp 6-31G(2df,p) opt Freq 

 titel

0 1
C 1.3145795109 1.0342967968 0.2725908688
C -0.026936682 0.3737135045 0.2565264381
C -1.1870043746 0.896274633 -0.1478862874
C -2.3501608926 -0.032887232 0.0736564435
O -3.2497621064 -0.0453632344 -1.0210753891
C -1.6408870638 -1.3905520684 0.3011172492
C -0.2150726264 -1.0373401617 0.7879816377
C -2.432949969 -2.3611305369 1.1362324604
O -3.6258478011 -2.273486928 1.3077264004
H 1.7133367334 1.0982265049 1.2932964626
H 2.0451170746 0.4589920147 -0.3102849767
H 1.269900033 2.0463229758 -0.1379098584
H -1.3267512323 1.8996650886 -0.5340795532
H -2.8958156174 0.2566896174 0.9869323391
H -4.0205759499 -0.5461673673 -0.7305782126
H -1.5541687092 -1.8532910917 -0.6936034232
H -0.1443414948 -1.0478334989 1.8858498816
H 0.5493673974 -1.7341757035 0.4246242176
H -1.8576348596 -3.203762393 1.5837213816

