# b3lyp 6-31G(2df,p) opt Freq 

 titel

0 1
C 1.4739929665 -0.0702995139 -0.0212861817
O 0.0727746089 -0.137426037 0.1055331719
C -0.4239969677 0.6702613315 1.1408605593
C -1.9579963448 0.568991046 1.144378826
C -2.5359018616 1.2853737359 2.3911454993
C -4.0336884787 1.1114431327 2.54045411
O -4.5751552769 0.8018144497 3.5706649644
C -2.5258879208 1.1020653631 -0.0928446306
C -2.9976225868 1.5757488923 -1.0917193292
H 1.9840713427 -0.4049085817 0.8959091965
H 1.7575807823 -0.7303460726 -0.8440490445
H 1.8136896663 0.9517772167 -0.250377926
H -0.0367150296 0.3357965377 2.1184340149
H -0.1207413367 1.7218611624 1.004221884
H -2.2000024887 -0.500123325 1.2104172258
H -2.0581126402 0.9211507273 3.3048408245
H -2.3337391355 2.361990885 2.3031589997
H -4.617744473 1.2998882404 1.6141094873
H -3.4102179157 1.9747196795 -1.9853123116

