# b3lyp 6-31G(2df,p) opt Freq 

 titel

0 1
C 1.5267926845 -0.3762921604 0.0055200128
O 0.1480812964 -0.0762765468 0.0065677415
C -0.2883755329 0.5860268768 1.1654478066
C -1.7825136121 0.9192833738 1.1554946183
C -1.5596834144 2.1871559854 0.2752077621
O -2.2821215126 3.0869047365 1.1694627961
C -1.5654887155 2.1723371171 2.052514881
C -0.2697092512 2.1378581375 1.1719787167
C 0.8552105714 3.1314556218 1.1898365506
H 1.8057087241 -0.9967243408 0.8714335666
H 1.7360824464 -0.9357211081 -0.909395103
H 2.1512615125 0.5288594568 0.016610032
H 0.1029868638 0.0939990946 2.0694170124
H -2.6448010462 0.2550025723 1.1467245665
H -1.6625734574 2.3209623524 -0.7997777625
H -1.6760735145 2.2875172839 3.1303380121
H 1.4923511219 2.999225382 2.0711215043
H 1.4863664983 3.0371164061 0.300076132
H 0.4490075873 4.1484925792 1.2111206839

