# b3lyp 6-31G(2df,p) opt Freq 

 titel

0 1
O -0.1217133129 -0.9564523114 0.6618097864
C 0.1647897042 -0.0659140287 -0.0959803542
C 0.4181240304 1.3748649464 0.3201655668
C -0.845022464 2.1730254748 0.0713897371
C -0.9914769578 2.9877058995 -0.9749526866
C -2.2493667785 3.7765434528 -1.217956648
O -3.1508307784 3.7542591467 -0.1309873955
C -3.2982713218 2.4585074055 0.4257747591
C -1.9855693599 1.9732828305 1.0430941678
H 0.2096167168 -0.2361865917 -1.1958711849
H 0.6850610855 1.3857387298 1.3819761738
H 1.2466970042 1.7789505677 -0.2709213263
H -0.1915240755 3.119156347 -1.7002799939
H -2.0083422224 4.8323326126 -1.391817375
H -2.7410536373 3.4099666107 -2.1393075576
H -4.0879593233 2.5368615324 1.1776777234
H -3.6328994243 1.7456241183 -0.3459332196
H -1.7796089041 2.5202822959 1.9732855908
H -2.0668500909 0.9147405111 1.3199758665

