# b3lyp 6-31G(2df,p) opt Freq 

 titel

0 1
C 0.9600999478 2.0553080259 1.0237263913
C 0.6780834221 0.6175374558 0.5926285367
C 1.395887307 -0.3920109478 1.4823724611
O 1.7430323364 -1.4901862272 1.131470935
C -0.8368126762 0.2984586856 0.6088369587
O -1.6319602728 1.089978766 1.0665549797
C -1.2397117928 -1.0053243236 0.0221219774
C -2.5411950587 -1.0318698114 -0.7739652149
C -2.4991997648 -1.6609775578 0.5733068118
H 0.6091444216 2.228947957 2.0444142207
H 2.0313787516 2.2729708988 0.9793028429
H 0.4333586143 2.7601883058 0.3774341327
H 1.0245454511 0.4179630598 -0.4287762921
H 1.5688679675 -0.0375579373 2.5235915235
H -0.4349974574 -1.6537053521 -0.3000523965
H -3.0538615405 -0.0813776705 -0.867039276
H -2.5628287377 -1.6653373354 -1.6530593928
H -2.9838393472 -1.1335984081 1.3866976211
H -2.4902699314 -2.7418134235 0.6506699697

