# b3lyp 6-31G(2df,p) opt Freq 

 titel

0 1
C 1.3759996674 0.2359668189 -0.1640845164
O -0.0161417861 0.4017581995 -0.001152384
C -0.3873170238 0.6635919113 1.347179705
C -1.9026002962 0.6941118292 1.4132131562
C -2.5742797571 1.8887964412 2.1006909081
C -2.5655584791 1.8152244152 0.6106231132
O -1.7409698145 2.6987571128 -0.0780783073
C -2.561439935 -0.5807579404 1.4606226903
C -3.1173697145 -1.6469533241 1.5050069677
H 1.7499083644 -0.6139207332 0.4260742588
H 1.5595748558 0.0401164843 -1.2229194612
H 1.9336036386 1.1368559047 0.1354335846
H 0.0106893932 -0.119366629 2.0087596154
H 0.0305328171 1.6280893686 1.6673745805
H -3.5022159821 1.6976591536 2.6256265378
H -1.9164302866 2.617287383 2.5612163303
H -3.4970417484 1.554617961 0.1109381641
H -1.1515356857 2.1557502255 -0.6197023191
H -3.6056853973 -2.588969042 1.5369954561

