# b3lyp 6-31G(2df,p) opt Freq 

 titel

0 1
O 1.0847182212 0.0087871525 -0.4576329579
C -0.076905087 -0.0052389953 -0.1293824232
C -0.8633296915 1.2894072874 0.1014490376
O -1.7654426411 1.2221269731 1.1888274868
C -2.6608004927 0.123751411 1.0941265295
C -1.9096108352 -1.188998567 1.1374572273
C -1.5714551805 -1.7714961789 2.4866304502
C -2.6176824839 -2.4279188819 1.6156719005
C -0.8893955126 -1.2871929555 0.0122320253
H -0.1607265012 2.1003953019 0.3017550621
H -1.3991265961 1.521209578 -0.8393427605
H -3.3475109932 0.2159115651 1.9401975876
H -3.2526735226 0.1971096815 0.1641071514
H -0.616497982 -2.2731989152 2.601268305
H -1.9005579927 -1.2374151221 3.3716060463
H -2.3704473883 -3.3705213622 1.1383864466
H -3.6583438043 -2.3422107833 1.9120501109
H -0.2046931032 -2.1312620744 0.1284269838
H -1.4146279531 -1.4244165147 -0.9465762695

