# b3lyp 6-31G(2df,p) opt Freq 

 titel

0 1
O 0.0661107985 0.0735619063 -0.0527724754
C -0.600189338 0.875698732 0.9194806318
C -1.1114962157 0.081942725 2.1550716623
C -2.6086493245 -0.1118520946 1.8782827749
O -3.3939297208 -0.4934039002 2.9751171397
C -2.8290241022 -0.8719199397 0.52448247
C -2.9585881988 0.4909344273 -0.1561613848
C -1.8709004179 1.448782478 0.30604316
C -3.0666496758 1.2006260119 1.1797763094
H 0.910637045 -0.1997281691 0.3192895869
H 0.0623018054 1.6919745274 1.2400256618
H -0.569123094 -0.8632740008 2.2760801445
H -0.9915686032 0.6710229338 3.071186324
H -3.1099203184 -1.3698872271 3.2563693374
H -2.037572247 -1.5443371438 0.181441474
H -3.7914666997 -1.3900124662 0.5510250546
H -3.5012343506 0.6913657021 -1.072233656
H -1.8075812592 2.3759739468 -0.2518335516
H -3.7662496329 1.9336420109 1.5574075266

