# b3lyp 6-31G(2df,p) opt Freq 

 titel

0 1
C -3.2132481067 0.7838384576 3.4408099699
C -2.3054231639 1.0491485145 2.2653737046
C -1.0193310372 1.8592573932 2.4493249208
C -0.93755921 0.4057091594 2.1031928554
O -0.3570054779 -0.4253553614 3.0651751432
C -0.7533617513 0.0425916863 0.6265607598
O 0.4048678374 0.5968210492 0.0146866497
C -2.0008230341 0.5966427117 -0.0259131312
C -2.8443905078 1.1144892139 0.8680564996
H -3.8583886528 -0.0836863695 3.2591944058
H -2.625115561 0.5831261052 4.3410695978
H -3.8636262232 1.641133909 3.6476308242
H -0.7458320444 2.5935493362 1.700070562
H -0.747849636 2.1019484366 3.4719110933
H -0.7868071319 -1.2870451821 3.0152277569
H -0.7229650503 -1.0602908211 0.5351318473
H 1.1645284415 0.3103695854 0.5336848878
H -2.1386461512 0.5702048227 -1.0998442369
H -3.8051680291 1.5639761332 0.6374855002

