# b3lyp 6-31G(2df,p) opt Freq 

 titel

0 1
C 16.2888688861 8.895698652 6.7177632335
C 16.5357546826 8.1820195847 8.0621436743
C 16.3993366761 9.1091891964 9.182666674
C 16.2861698689 9.8963250338 10.0835279225
C 15.6100294892 6.9566269475 8.2236548901
O 15.9212209355 6.0929515313 7.1355032075
C 15.8147277428 6.2198018702 9.5333053543
C 14.7622454642 5.3394871727 10.0657571442
O 15.020802049 6.6168932784 10.6455701219
H 16.4154373334 8.1923493242 5.8932137989
H 15.2734306547 9.3023431001 6.6820689475
H 16.9890781902 9.7253157685 6.5939443881
H 17.5621822332 7.7882940901 8.0570726707
H 16.1836391686 10.5757214912 10.8929523467
H 14.5624944813 7.2948210847 8.1844399082
H 15.3710152245 5.3069973891 7.2139566037
H 16.8525337041 5.9823771603 9.7735262295
H 13.8110129375 5.252666887 9.539349084
H 15.0334844684 4.4800147277 10.6766930304

