# b3lyp 6-31G(2df,p) opt Freq 

 titel

0 1
C 0.1196851688 0.6795594582 0.8240543339
C -0.3469446016 1.6040298966 -0.2617666525
C -0.8915889549 0.1798988118 -0.1720906843
C -0.1116626644 -0.2149689768 -1.4455901748
O -0.7986814769 -0.8165675455 -2.5135036167
C -1.5665229891 0.0603113499 -3.3250622296
C -0.7174449507 1.2405870787 -3.7528646459
O -0.3658326685 2.0082401514 -2.6151132526
C 0.3241413338 1.2941309473 -1.6022247884
H 1.1323209359 0.2790421683 0.8203873281
H -0.2612860042 0.9035266785 1.8150828923
H -0.8344938604 2.5496720172 -0.0593826299
H -1.8724900505 -0.1818537939 0.1104498619
H 0.7241127032 -0.8906637015 -1.2330132577
H -1.8940682115 -0.5325624833 -4.1843278312
H -2.4548969606 0.4261481177 -2.7877281529
H 0.1763958176 0.8792428228 -4.286663018
H -1.2727912281 1.9115184414 -4.4153663496
H 1.4044837021 1.4831309111 -1.692451652

