# b3lyp 6-31G(2df,p) opt Freq 

 titel

0 1
C 0.7613153483 -0.2070400397 -0.8778402148
C 0.921403789 0.4264778671 0.5132522663
C 1.6559276049 1.7556865246 0.4997929233
C 2.7210772506 1.7680024599 1.3045730626
C 2.8836917463 0.4328142865 1.9531225663
O 3.1133166134 -0.6395292911 1.0018857077
C 1.7723784576 -0.4109178202 1.4804773384
C 1.1909663979 -1.5732527021 2.2393853699
O 0.8828361641 -2.6587641769 1.3754070056
H 0.2346169806 -1.1611997505 -0.7997360633
H 0.1966018226 0.4508366999 -1.5458536525
H 1.7445740758 -0.3870746662 -1.3208571737
H -0.0785995795 0.5598958998 0.9514895143
H 1.3436926717 2.5726267131 -0.1425235734
H 3.4025924039 2.5950686976 1.4592909293
H 3.3777416653 0.3030894012 2.9118741375
H 1.8929822527 -1.8784645449 3.0292733953
H 0.2476725336 -1.2860543244 2.7159070494
H 1.705100261 -2.8957706536 0.9309187516

