# b3lyp 6-31G(2df,p) opt Freq 

 titel

0 1
C -1.201727505 -1.2381492747 -1.7663608799
C -1.0750901876 -0.3459148073 -0.5643771605
O -1.8628823507 0.865965499 -0.6662646757
C -2.3998877691 0.6923437754 0.6701518934
C -1.5591960859 -0.5725411226 0.8899616129
O -0.2478876415 -0.3041406024 1.4190308195
C 0.2799593187 -0.0942336757 0.0979254568
C 1.3085489642 0.9376678459 -0.1985499536
C 1.6525587091 -0.5453803759 -0.2789430318
H -0.6563111892 -2.1741838697 -1.6166231675
H -2.2518061493 -1.4654765383 -1.9692129002
H -0.7911214371 -0.738357729 -2.6513530746
H -2.1596882312 1.5259331873 1.3382795717
H -3.4852240487 0.5325312342 0.6420222088
H -2.0132483971 -1.4714624648 1.3090309836
H 1.2133553708 1.5070792407 -1.1171317845
H 1.7019359481 1.4941999554 0.6451548032
H 1.8053871825 -0.9935239025 -1.2555365158
H 2.2651159489 -0.9605381748 0.5143148243

