# b3lyp 6-31G(2df,p) opt Freq 

 titel

0 1
C 5.0516685694 2.4774247732 0.1899097122
C 4.8016430356 0.995958221 0.0015794088
O 4.2097120386 0.4035243267 1.205342291
C 3.0137977001 0.1170938086 0.4868624105
C 3.2732000661 -0.8578051246 -0.6298627844
C 2.090474894 -1.4003624324 -1.355632833
C 1.8594240699 -2.8414865757 -1.5116448467
O 2.339527012 -2.0568680749 -2.6052743083
C 3.5670838119 0.62262769 -0.8200711341
H 5.7728697558 2.6378314006 0.9967521738
H 5.4590456955 2.9141650416 -0.7286942037
H 4.1241506054 2.9984464779 0.4446403667
H 5.7275007858 0.4723822077 -0.2696600962
H 2.0648928718 0.2467141655 0.9960340482
H 4.1073202955 -1.5477262199 -0.5190373476
H 1.2169854165 -0.7446874802 -1.3734152685
H 2.5767647326 -3.5452896287 -1.0909907549
H 0.8439209038 -3.2221089885 -1.614948751
H 3.1205446397 1.217152462 -1.6065153828

