# b3lyp 6-31G(2df,p) opt Freq 

 titel

0 1
C 1.1159579866 1.2888667911 -0.0114915955
C -0.1201719802 0.4478071846 0.111551624
C -0.1367663145 -0.8279970066 0.5035725425
C -1.4246333972 -1.6025066743 0.6415410748
C -2.6195903728 -0.6798054427 0.3669198123
O -2.8052373748 0.2243773637 1.4581765192
C -2.2209775969 1.470399045 1.075488007
C -1.4564501356 1.0952744899 -0.2092403235
O -2.3548457905 0.1248234922 -0.7596595541
H 1.0591455974 2.1821588865 0.6249286644
H 2.0101267144 0.7295703516 0.2762945129
H 1.2524405776 1.6484512493 -1.0396823873
H 0.7920127597 -1.3463524498 0.7307632316
H -1.4425317651 -2.4553860182 -0.0514466454
H -1.5264273836 -2.016428545 1.652002674
H -3.5495709783 -1.229190914 0.1935138466
H -3.0044785487 2.2127332065 0.874767668
H -1.5719366715 1.8327586547 1.8786196671
H -1.3646346059 1.9163797356 -0.9233330684

