# b3lyp 6-31G(2df,p) opt Freq 

 titel

0 1
C 1.370576481 1.0834690634 0.3009775251
C 0.9013238724 -0.3348283415 -0.0544369977
C 1.57526341 -0.8715788724 -1.2814398304
O 3.0453352183 -0.9474428778 -1.1826211981
C 2.9660554048 -2.024336758 -2.1243376136
C 1.9615650187 -1.6295136368 -3.2093265915
C 1.5245655602 -2.3119204258 -1.9090085299
C 1.4106756789 -0.2880760672 -2.7212953471
O 2.0819567866 0.9016174487 -3.0173191498
H 0.8422040584 1.4544393575 1.1836827375
H 2.4422385465 1.0880431536 0.5189742435
H 1.1945156073 1.7759420642 -0.5264319538
H 1.0934499368 -1.0160298004 0.7829610754
H -0.1817036248 -0.3467010407 -0.2305320161
H 3.8282573639 -2.6609098527 -2.269298577
H 1.9792176918 -2.0381809664 -4.2111782807
H 0.9518141975 -3.2047369014 -1.7057642048
H 0.3578420856 -0.1633366796 -2.9867935317
H 2.9520811561 0.8093040431 -2.6049097093

