# b3lyp 6-31G(2df,p) opt Freq 

 titel

0 1
O -5.4202138385 2.5549199446 -2.046069136
C -4.0302570287 2.7009604866 -1.9092653156
C -3.0721152461 1.7914663558 -2.7271468385
C -2.1328281454 1.7668676849 -1.5054283424
C -3.3221720456 2.223745969 -0.6122645351
O -1.5435363069 0.505985673 -1.27985679
C -0.5160853081 0.4907050133 -0.3083812023
C -0.9774504987 0.6459152501 1.0750123724
C -1.3422061923 0.7645420015 2.2141349606
H -5.6403055623 1.6348283696 -1.865561043
H -3.8305172023 3.758815572 -2.1030420182
H -3.5090706241 0.796144226 -2.8631968682
H -2.685273432 2.1483891213 -3.6835944561
H -1.3529390802 2.5397382677 -1.5665595318
H -3.8239487684 1.3434509955 -0.1976215325
H -3.1415236064 2.9443525827 0.1867012383
H -0.0177055869 -0.4786842568 -0.4177345712
H 0.2333920081 1.2687463159 -0.5285022811
H -1.6660739151 0.8701252373 3.2201590307

