# b3lyp 6-31G(2df,p) opt Freq 

 titel

0 1
C -2.8307645684 -1.4255900664 -1.5831313692
C -1.6517083358 -0.602715292 -1.0803147224
C -1.8124966426 0.4675712506 0.0328094146
O -0.4921042868 1.0982368703 -0.0105030276
C 0.3447309547 -0.0014044707 -0.0402250127
O 1.5351849185 0.0649441784 -0.0818269347
C -0.6352512919 -1.1656332307 -0.0032193889
C -1.5727614475 -0.6007157827 1.1384238347
C -2.6808760026 -1.4652830442 1.7260315986
H -3.5108304776 -1.7780356098 -0.8100699149
H -3.4187464513 -0.8199916054 -2.2815770513
H -2.4698660986 -2.2991272896 -2.1362392958
H -1.1429507926 -0.1880884973 -1.956907313
H -2.5814639027 1.2385478464 0.0583586911
H -0.2124168557 -2.1674705799 -0.0151676493
H -1.0160832541 -0.1649980986 1.9747549288
H -2.2517556988 -2.1327927362 2.4806419015
H -3.4214860838 -0.8370978779 2.2336348258
H -3.2049956225 -2.0918677944 1.0070498746

