# b3lyp 6-31G(2df,p) opt Freq 

 titel

0 1
C 1.5461012634 0.1176571934 -0.1076706058
C 0.0943712766 0.0467763127 -0.0261293749
C -1.1058572986 -0.0130332136 0.041729797
C -2.558974608 -0.096878278 0.1104278688
C -3.1196851648 -1.4540275893 -0.3658440939
O -2.5741077403 -2.5448960649 0.3583184098
C -4.6600296743 -1.4644033755 -0.3090522215
C -5.2501868449 -2.7465446873 -0.8597533702
O -6.1798007964 -2.7894003559 -1.6250903159
H 1.9766234092 0.5380303914 0.8079520388
H 1.9830947004 -0.8764266358 -0.2527832844
H 1.8688794452 0.7469569494 -0.9443814479
H -2.9014209053 0.0771830239 1.1423804744
H -3.0139151494 0.7002771993 -0.4917676665
H -2.794640764 -1.6160730473 -1.3998534996
H -2.6527677997 -2.3521978225 1.299556653
H -4.9675668196 -1.3801655575 0.7450881018
H -5.0944169981 -0.6195055013 -0.851960042
H -4.7519404616 -3.670974911 -0.4990722509

