# b3lyp 6-31G(2df,p) opt Freq 

 titel

0 1
C -0.006827575 -0.1854994332 -0.1192117758
C 1.4777221533 -0.0453822886 0.050600636
C 2.3644725251 0.7114309651 -0.9306027753
C 2.3410812764 1.1253801221 0.5032238531
O 2.0126574168 2.429426021 0.8320170465
C 3.1524422691 0.200952424 1.4606309791
C 3.7735341438 -1.0033901411 0.7665602532
C 2.3035190126 -0.9772316609 1.008310661
O 1.7124623357 -2.0057881015 1.7210608935
H -0.51497473 -0.3656650335 0.8366749855
H -0.43199631 0.7278950858 -0.5465454514
H -0.26466178 -1.0187375255 -0.7833078944
H 3.2301818504 0.2798560091 -1.4218256849
H 1.7976515794 1.3853332121 -1.5682153005
H 1.588223538 2.4256778654 1.6976381232
H 3.4621233728 0.5083638024 2.4525030897
H 4.2280565035 -0.9526715942 -0.2167106596
H 4.2957957565 -1.661122293 1.4560791017
H 0.9896027316 -1.6410246854 2.2433134594

