# b3lyp 6-31G(2df,p) opt Freq 

 titel

0 1
C 1.5762776939 -0.3089259727 -3.1273542031
C 0.4893514213 0.1943293554 -2.2221451993
C -0.2678934603 1.4809887124 -2.4962530996
C -0.6866610642 2.3723918306 -1.3406561146
O -1.3639204407 1.5030804083 -0.4140422539
C -1.2086061355 0.1595866026 -0.8865872569
C -1.0373591763 0.1951447934 -2.4134533949
C 0.2904522476 -0.2410651535 -0.7596818861
O 1.0226473289 0.3585951488 0.2759332724
H 2.547023313 0.1137922105 -2.844832836
H 1.6606633807 -1.4002500258 -3.0719268225
H 1.3876276594 -0.0395186079 -4.1720572984
H -0.1001585608 1.9337524126 -3.4672671357
H 0.1634284406 2.8545223148 -0.842301018
H -1.3858519116 3.1521496128 -1.667065272
H -1.9678379693 -0.461209162 -0.4142534288
H -1.6669029538 -0.2345641269 -3.1803111058
H 0.4085548648 -1.32972242 -0.6921041423
H 0.4529476622 1.0603421767 0.6203509356

