# b3lyp 6-31G(2df,p) opt Freq 

 titel

0 1
C -0.0962548922 -0.1909447501 -0.0338401986
C 1.4130876583 -0.1386213376 0.0283647879
O 1.9926058371 -1.0420140085 0.938368656
C 2.2242667747 0.0437815641 -1.2459198315
C 2.1495685492 1.1291125953 -0.2154644712
C 1.7601194496 2.6141468096 -0.1655976568
C 3.2401754145 2.9903766253 -0.429124078
C 3.1852882588 1.8670768363 0.6371408077
O 2.0619529914 2.5941863146 1.2916197274
H -0.5345235395 0.1034124111 0.9271229137
H -0.486388298 0.4875207478 -0.7982114029
H -0.4327031246 -1.2062740143 -0.2665902735
H 1.7991420936 -0.7183128608 1.8258486287
H 3.1468067887 -0.5232579278 -1.3155279068
H 1.6865964512 0.1608375678 -2.18190544
H 0.8447260975 3.1126534769 -0.4844359059
H 3.6652587689 2.7500466702 -1.406296927
H 3.5396445831 3.9685972949 -0.0506332645
H 3.9720494978 1.467561575 1.2762911653

