# b3lyp 6-31G(2df,p) opt Freq 

 titel

0 1
O 1.2594922923 0.2787824577 0.1315218278
C 0.0691154352 0.2188168622 0.0888471571
C -1.0989298697 1.2100050299 0.1642968133
O -2.0230186834 0.1068547575 0.0867626227
C -0.9799323422 -0.9003159159 -0.0240296206
C -1.006311791 -1.9437423824 1.0711612457
C 0.0581966946 -3.0773342318 1.0184112227
C -1.0414661949 -4.0740706639 1.4760138532
C -2.1124997837 -3.0376567875 1.0387321211
H -1.181615956 1.778797928 1.0991358401
H -1.1769482247 1.8991824305 -0.6867935732
H -0.9965424173 -1.3789835751 -1.0151115554
H -0.9923673971 -1.444319755 2.0457184659
H 0.3801243557 -3.2740754873 -0.0092625402
H 0.9474608799 -2.961419688 1.6406416673
H -1.0631966031 -5.0563500628 0.9990461082
H -1.0332481921 -4.2164473398 2.5602730132
H -2.4601730954 -3.2194188754 0.0166890321
H -2.9834398073 -2.8910977811 1.6802865791

