# b3lyp 6-31G(2df,p) opt Freq 

 titel

0 1
C -3.1401331158 -2.5930537534 -1.644312186
C -2.271001993 -1.3802185706 -1.3820281141
O -0.8700061797 -1.7415522382 -1.2192189479
C -0.8460066854 -1.229844596 0.1357986194
C -2.3134698108 -0.755340685 0.0332531726
C -2.2928036233 0.7867320195 0.0965220055
C -0.8627936203 1.1989313996 -0.3071155064
C 0.0122116168 0.0440763863 0.1866285276
O 1.1502500924 0.1099617149 0.569599554
H -3.0523549247 -3.3202013153 -0.8310638764
H -4.1911257007 -2.2967549031 -1.7362024242
H -2.8392703188 -3.0822978108 -2.5757783743
H -2.3859241785 -0.6479150178 -2.193721173
H -0.5361538419 -1.9820236636 0.865867467
H -3.0423329503 -1.205290652 0.7083069963
H -3.0630791475 1.2329186508 -0.5396405177
H -2.4941694044 1.1121593486 1.1230577564
H -0.7599518436 1.2545848311 -1.3982875305
H -0.5273193505 2.1522785547 0.1038046919

