# b3lyp 6-31G(2df,p) opt Freq 

 titel

0 1
O 1.312938578 -0.1277426059 0.0164145347
C 0.1209825995 -0.0993404239 -0.0078833472
C -1.0176119321 -1.1262642673 -0.0365155452
O -1.9728471295 -0.0490500662 0.0278336693
C -0.958892088 0.9929564095 0.0180334446
C -0.9938584831 1.9172212673 1.2298582286
C -2.1879141717 2.8485894826 1.2312823417
C -3.5354602904 2.3547728365 1.6928693398
C -2.76665193 3.3432058027 2.5333354124
H -1.089272982 -1.7117332267 -0.9624741266
H -1.0703086651 -1.8036558571 0.8251713589
H -1.0019489056 1.5739086176 -0.9153950004
H -0.99468529 1.304827427 2.139804829
H -0.0578814567 2.4915510921 1.2331880198
H -2.1968586114 3.5573322137 0.4064028043
H -4.4179796995 2.7013111097 1.1669985368
H -3.5982740918 1.3281479947 2.0347588971
H -3.1210182471 4.3668835366 2.5815031869
H -2.3164661134 2.9877772972 3.4546570053

