# b3lyp 6-31G(2df,p) opt Freq 

 titel

0 1
C 0.1994479584 0.819183217 -1.1697594085
O 0.3589774984 -0.4065543766 -0.3906789548
C 0.4907212087 0.3918376056 0.8083429124
C 1.5535825871 0.123756135 1.8659741749
O 1.951597514 1.4052258774 2.3831776198
C 2.0929558642 2.4349885906 1.39955097
C 0.7092867376 2.8948807312 0.8087394702
C 0.8627459741 1.6128983766 -0.0372557454
C 2.3935246039 1.8355968461 0.0067557068
H 0.7247117789 0.765764044 -2.1282471127
H -0.8622121658 1.0475765377 -1.3381898723
H -0.4965367989 0.5167380954 1.2799125982
H 1.1901308411 -0.4443011314 2.7253439583
H 2.4034009483 -0.4176600784 1.4314694031
H 2.7514363577 3.1870288755 1.8360088656
H -0.1398230745 2.9485785767 1.4944081429
H 0.8119141803 3.8307841167 0.2517382104
H 3.0713850457 0.9843236814 -0.0732939015
H 2.6987153108 2.6127830295 -0.6989857572

