# b3lyp 6-31G(2df,p) opt Freq 

 titel

0 1
C 1.5080753018 0.2082923483 -0.2336284688
O 0.1232395272 0.0000363231 -0.0465754246
C -0.3578254353 0.4961578598 1.1612177141
C -0.1739110064 -0.3483830501 2.4769952439
C -1.6884855918 -0.2462535632 2.7179602751
C -2.439333992 0.1796050049 3.9645357648
C -2.6425987963 -1.1926799444 3.4074533802
C -1.8915291795 0.3613077921 1.3606378909
O -2.8491513261 0.6057229546 0.6839999552
H 2.1098969923 -0.3207452025 0.5199675617
H 1.7608267137 -0.1798246802 -1.2228413294
H 1.7624166717 1.2785739578 -0.1924022488
H -0.0497115525 1.5443049136 1.3183890896
H 0.1566425659 -1.3655565665 2.2502616795
H 0.4740793272 0.0886393292 3.2393489369
H -1.8548881343 0.2877614125 4.8723197094
H -3.2283833956 0.9128111185 3.834871149
H -2.2051470165 -2.0347854975 3.9329647998
H -3.5692503035 -1.4048344303 2.8844176015

