# b3lyp 6-31G(2df,p) opt Freq 

 titel

0 1
O 1.7246420412 0.1689922441 0.7544299419
C 0.7240689936 0.2494435302 0.0912702044
C 0.3276017627 1.4250791734 -0.7670975237
C -1.0516251525 2.005891092 -0.3550281336
C -1.5830089035 2.7191388533 -1.6074659962
C -0.8749234947 4.0337047582 -1.9916965701
O -0.0891152981 3.3717119713 -3.0060927495
C -0.7912945091 2.1232681683 -2.8039031768
C 0.114747166 1.0282100127 -2.2487551291
H -0.0179077959 -0.5872399025 0.0679219642
H 1.109837977 2.1838506811 -0.6872927295
H -1.728829735 1.1848749405 -0.0857536192
H -0.9802184407 2.6646645332 0.515399195
H -2.6716669933 2.7353169225 -1.6647117392
H -1.5300884206 4.800612272 -2.4238040325
H -0.2479987613 4.4959162027 -1.218549379
H -1.3421187157 1.8252623256 -3.7027141053
H -0.4052065103 0.0623968033 -2.3123752131
H 1.0507349101 0.9457540578 -2.8069858187

