# b3lyp 6-31G(2df,p) opt Freq 

 titel

0 1
O 1.3952360998 0.8244825471 0.1576214618
C 0.3695134264 -0.0804605403 0.5344955546
C -0.8941937123 0.6417396256 1.0203855035
C -1.986765107 -0.3077577097 1.4112801864
C -2.70126112 -1.2889640316 0.4333076025
C -3.7943381974 -1.3535802934 1.4964475465
C -3.0356114603 -1.2230972001 2.8286224741
O -1.6410698926 -1.1807713358 2.5404320853
C -3.3921804216 0.0041050491 2.0686164445
H 1.6933438012 1.27703305 0.9530363425
H 0.1451143432 -0.6637732443 -0.3645423251
H 0.7112504177 -0.7857297774 1.3047334204
H -0.6451653102 1.2675610707 1.8874911421
H -1.2555228566 1.3091260104 0.2296533495
H -3.048820514 -0.77529469 -0.4670238245
H -2.1559878557 -2.2015459457 0.1721234933
H -4.7863059057 -1.7809252366 1.4276709483
H -3.3683598638 -1.6199724974 3.7782945154
H -3.9387918409 0.9077588792 2.2993344789

