# b3lyp 6-31G(2df,p) opt Freq 

 titel

0 1
C 5.9429123476 0.7739928542 1.302407947
C 4.680680652 -0.0478658077 1.2351167814
O 3.9182989502 0.096632333 2.3956554301
C 4.6707866647 -1.3701257812 0.5272076887
C 3.9378935084 -0.1732134352 -0.0987276894
C 2.5088514338 -0.1305597161 -0.0723700107
C 1.3037724772 -0.0759305586 0.0055377372
C -0.1535378956 0.0149847138 0.0884214543
O -0.6412531846 1.3444294087 0.2051472329
H 6.5419865548 0.468858011 2.1665478296
H 6.5488642904 0.6422921314 0.4017700706
H 5.7033839845 1.8358352845 1.4137140057
H 2.9853576412 0.0713989277 2.1435466789
H 5.5683455989 -1.7124850158 0.0235516485
H 4.0498697916 -2.1524379933 0.9477967821
H 4.4096730413 0.2848891798 -0.9630108339
H -0.6049779309 -0.3860031513 -0.8260740382
H -0.5090236274 -0.6176808469 0.9177811208
H -0.1661122382 1.7649475819 0.9293661544

