# b3lyp 6-31G(2df,p) opt Freq 

 titel

0 1
C -0.9915087694 2.6296604878 1.0283087725
C -1.4038682923 1.3458775906 1.719397032
O -2.8205026382 1.2311709245 1.8147582193
C -0.7829906708 0.9810761946 3.1136860637
O -1.5552954532 1.2981723613 4.2341975224
C -0.6835286645 -0.4988637372 2.6528478353
C -0.8290150531 -0.0098247194 1.1762151565
C -1.6140785799 -0.7863271963 0.242681887
C -2.2591466786 -1.4406275555 -0.5328651501
H -1.3278802513 3.5020120645 1.6034532213
H 0.0968385572 2.6965985229 0.9396944168
H -1.4249200283 2.6862288135 0.0243174931
H -3.1775840875 2.1168047623 1.9373589749
H 0.2013837941 1.4367660969 3.2574164226
H -2.4619331441 1.0669263295 3.9890830583
H 0.2174823643 -1.0596865224 2.9067265822
H -1.5636789785 -1.0645211242 2.9660704215
H 0.1618863651 0.1864997821 0.7518216128
H -2.8361344811 -2.0162033952 -1.2131672821

