# b3lyp 6-31G(2df,p) opt Freq 

 titel

0 1
C 1.5676626607 -0.0911773153 -0.0662345693
O 0.1644391234 -0.0773922679 0.0343220201
C -0.3014248567 0.6315498741 1.1634433566
C -1.8142125797 0.5570462091 1.1784789047
C -2.5937279782 1.5406891719 2.0821031232
C -2.4951407823 2.7026600472 1.0395916366
O -3.9261105524 2.9809617395 1.0305298405
C -3.8270794488 1.5297579734 1.1254134113
C -2.6054845894 1.4120262931 0.1624562069
H 2.0362981865 -0.5689204168 0.8091413954
H 1.8270712095 -0.6626278276 -0.960816435
H 1.9822041863 0.9252994543 -0.1620055354
H 0.1137230774 0.194350083 2.0888902059
H 0.0390849045 1.6815208302 1.1251194732
H -2.1381873687 -0.4872965378 1.2430172357
H -2.6118330481 1.6359667807 3.1680753917
H -1.8055081525 3.5434451103 0.980524118
H -4.7414805507 0.9391399581 1.1728390932
H -2.6318163508 1.3594707906 -0.9249053833

