# b3lyp 6-31G(2df,p) opt Freq 

 titel

0 1
C -3.4323653715 2.4376985661 -1.0467249255
C -2.4755066864 2.3151399763 0.1324061347
O -3.0576848007 3.0784954867 1.1848045304
C -1.0411581679 2.7977311098 -0.1895732092
O -0.1237244536 1.963878716 0.5296008172
C -0.8423073443 0.989259534 1.2887749491
C -2.2042203953 0.8622654353 0.58004436
C -0.9661689107 1.3988517 2.6973708912
C -1.0660469171 1.7458040871 3.8454555431
H -3.0758980209 1.8636988746 -1.9063638694
H -4.4234592991 2.0728962406 -0.7638586251
H -3.5333776428 3.4861756445 -1.3425801198
H -2.5220320111 2.9699035412 1.9811056278
H -0.8125938481 2.7140798387 -1.2592440465
H -0.9195208337 3.8427932041 0.115417704
H -0.2680876933 0.0574341754 1.2463094606
H -2.0895581989 0.2081978875 -0.2894784078
H -2.9995733376 0.4765896992 1.2190226469
H -1.1417712771 2.042596373 4.8629183182

