# b3lyp 6-31G(2df,p) opt Freq 

 titel

0 1
C -2.4035103125 -2.3796098225 -0.6186347239
C -1.8442996387 -1.3061228585 0.3118993723
C -2.3748225679 0.1361225053 0.1332263918
O -3.3593625805 0.5394998722 1.0757209348
C -1.1490730007 0.99754621 0.303747455
C -0.0031070785 0.3041817939 0.3235861205
C 1.4061827086 0.7892762924 0.4097036384
C -0.3200918653 -1.1460710145 0.2041911312
O 0.4783712955 -2.0402164394 0.0368112322
H -1.8626720728 -3.3180043469 -0.4716450097
H -3.4673340121 -2.560150087 -0.4333961545
H -2.286921427 -2.0912901073 -1.668978234
H -2.0477291855 -1.5751089365 1.3570871704
H -2.7659139679 0.2636144384 -0.890831112
H -4.1776525999 0.0778980611 0.8673322453
H -1.2406632876 2.0764694974 0.3749933801
H 1.8888093439 0.4138282147 1.3188754861
H 1.9922619809 0.4013957955 -0.4303311749
H 1.4624329081 1.8803120518 0.4096284609

