# b3lyp 6-31G(2df,p) opt Freq 

 titel

0 1
C -5.1174995163 -1.1382645912 0.2338688071
C -4.1159198458 -0.007403403 0.1301380929
C -3.1433788492 0.0093896386 -1.0697219386
C -2.0384344035 -0.037417171 0.0033427096
C -0.8922287951 -1.0848568259 -0.0365271038
C 0.0963828674 0.0802827681 -0.1949808335
O 1.2449669037 0.1581381557 -0.5203940494
C -0.9948500354 1.1123796496 0.127102963
O -3.0058528543 -0.1621964877 1.0551417639
H -5.5652984871 -1.1619521619 1.2322587644
H -5.9215633925 -1.0042815303 -0.4981532009
H -4.6346684775 -2.1032634853 0.0507097558
H -4.6130458163 0.9574957133 0.2981599701
H -3.1981651824 -0.8823328778 -1.6986703999
H -3.1636272985 0.8991941619 -1.7010276688
H -0.7809096547 -1.5805129145 0.9345508098
H -0.9028514219 -1.8425725407 -0.8245544819
H -0.9229811779 1.4668087814 1.1614606969
H -1.0784485927 1.9735315807 -0.5411307865

