# b3lyp 6-31G(2df,p) opt Freq 

 titel

0 1
C -1.8976704329 0.8097850043 -1.596235254
C -1.7337674583 0.4546520231 -3.0958060091
C -1.7035630796 -1.0559543721 -2.6290101438
C -0.9469756041 -0.4094081829 -1.4471927018
O -0.5282287216 -0.8935858819 -0.2065437583
C 0.7093474505 -0.1988863646 0.0596449379
O 1.0028452349 0.6650933705 -1.0303267739
C 0.3379801839 0.0411006675 -2.1226072573
C -0.2379122594 0.8432386238 -3.3063964116
H -1.5451842752 1.7855996742 -1.2542356536
H -2.8947948824 0.5949234674 -1.2066701198
H -2.4535875088 0.7837124544 -3.8433874797
H -2.7038116592 -1.4149896017 -2.3806675074
H -1.1714493536 -1.7893506395 -3.2415183065
H 0.617825426 0.4130524849 0.9632543978
H 1.4950190631 -0.9583883476 0.189989117
H 0.9311789435 -0.8204807721 -2.4645732185
H -0.0849167892 1.9209535569 -3.2071425609
H 0.1768164925 0.5203651353 -4.2643891265

