# b3lyp 6-31G(2df,p) opt Freq 

 titel

0 1
C 4.2758179879 0.0583007929 -1.2188278354
C 3.3983601497 -0.9839460831 -0.5450291468
C 3.9303732216 -1.6402656601 0.7029783712
C 2.8216390475 -0.629327617 0.8250245814
C 1.4794447334 -1.0849738064 1.3176208488
O 1.2726374019 -2.1302315637 1.8782077045
C 2.6010007456 -1.7835062329 -1.5363167503
C 1.3604773467 -1.2718259619 -2.1370476813
O 1.3350415136 -2.309535458 -1.1527632127
H 4.8875150751 0.5919917595 -0.4858097978
H 4.9566533831 -0.4142372641 -1.9365325039
H 3.6762823764 0.7948595618 -1.7645975846
H 3.6281648294 -2.6612795748 0.9113922824
H 4.9276053427 -1.3757055858 1.0373933921
H 3.0603906491 0.3804731633 1.1539872207
H 0.6649243241 -0.3381093548 1.1822288036
H 3.1986324148 -2.4732774199 -2.1366761702
H 0.9635865439 -0.3126813189 -1.8077536213
H 1.0749461536 -1.5763537362 -3.1422377203

