# b3lyp 6-31G(2df,p) opt Freq 

 titel

0 1
C 1.4186737648 0.4675363628 1.2264142597
C 1.5567941526 0.6663041556 -0.2870139135
C 2.0159842219 -0.5852259316 -1.0382595968
O 3.2828186639 -1.0313185256 -0.6313409981
C 0.9206918244 -1.6670233957 -1.2311637898
O 0.7238592983 -1.2718960955 -2.6044701888
C 1.9044141447 -0.4283178588 -2.5905701139
C 2.9989035555 -0.9456583591 -3.392852569
C 3.8923877428 -1.3589901696 -4.0818170554
H 0.7222061896 -0.3432439266 1.4667728955
H 2.3807708493 0.2400188698 1.7004293376
H 1.0427708282 1.3770593851 1.7030058005
H 0.5938513613 0.9830096703 -0.7043944858
H 2.2742850922 1.4700491474 -0.4930038604
H 3.2890318645 -1.0992248982 0.3288866985
H 1.3152889367 -2.6871160706 -1.1487209504
H -0.0001552265 -1.5727250945 -0.6443550189
H 1.6538331945 0.5892440304 -2.9168911264
H 4.6862111211 -1.7298702656 -4.6818928647

