# b3lyp 6-31G(2df,p) opt Freq 

 titel

0 1
C -3.0324308029 0.3643310165 2.4412121765
C -1.9587911037 -0.6644797847 2.0985101071
O -1.4999919489 -1.3584662125 3.296385332
C -0.136942987 -0.9385324668 3.0929749458
C -0.5179361519 -0.0957959651 1.8597105444
C 0.1938352058 -0.3985437465 0.5490500336
O 1.5200750765 0.112225224 0.5423132541
C -2.4423262394 -1.6065613571 1.0899383636
C -2.86087643 -2.3715158108 0.262000756
H -2.660368562 1.0466711381 3.2101744033
H -3.3080854751 0.9406217395 1.5526311635
H -3.9266703131 -0.1385003678 2.819117965
H 0.2569441066 -0.3962278555 3.9596708618
H 0.5223617979 -1.7929788994 2.8797108569
H -0.4775040199 0.9801870497 2.0451176423
H 0.1745795646 -1.4782904163 0.3454329931
H -0.3234540432 0.0946400989 -0.2803385144
H 2.0460244146 -0.4186953645 1.1486850715
H -3.2257815689 -3.0538038097 -0.4658738661

