# b3lyp 6-31G(2df,p) opt Freq 

 titel

0 1
C -0.5981797062 -3.1268735862 0.6246082209
C -1.6974604584 -2.1536714801 0.1622343149
C -0.8572572295 -1.0774844973 0.9063739014
O 0.2085744314 -2.0415518577 1.1311863569
C -0.3990446383 0.1240805911 0.1603608183
C -0.6866571711 1.4005820643 0.4037607849
C -0.0322539134 2.2825158832 -0.6188678751
O 0.6712687036 1.3945935249 -1.4828794864
C 0.5049079693 0.0483363042 -1.0461432847
H -0.9000149598 -3.815877869 1.4241020901
H -0.0775632645 -3.6946707603 -0.1542531553
H -1.7467796943 -2.0091540347 -0.9181496578
H -2.7030884664 -2.321641327 0.5493052249
H -1.312647402 -0.7739288803 1.8586800788
H -1.2966652521 1.7800708699 1.2145278688
H -0.760959844 2.8712498151 -1.1993833292
H 0.6687662082 3.000530694 -0.1628340656
H 0.0759428522 -0.5547214694 -1.862489785
H 1.4782405354 -0.3957185448 -0.7932717307

