# b3lyp 6-31G(2df,p) opt Freq 

 titel

0 1
O 0.7014880685 0.4768676165 0.8242991024
C -0.6751477802 0.7202058116 0.8842614854
C -1.6914203587 -0.3320136999 0.3828429633
C -2.6807031629 0.2892314075 1.3977101594
O -3.2551743308 1.4995930204 0.8887223573
C -2.2457262192 2.505684228 1.0836592204
C -1.7829204141 2.2536854084 2.529856435
C -1.4731806702 0.787352614 2.2583540322
C -1.0041893767 2.0980057991 0.2666673923
H 0.8619652482 -0.4213524938 1.1320513835
H -1.9728127066 -0.333063468 -0.6734337552
H -1.4070130254 -1.3446159263 0.69498549
H -3.4728677793 -0.3285438686 1.8216003269
H -2.6804367845 3.4763283112 0.8456028355
H -0.9052426302 2.8417535659 2.811303235
H -2.5823182473 2.4106886349 3.2588954435
H -1.1313899922 0.1387169681 3.0635295117
H -1.1987774487 2.0414721782 -0.8070300572
H -0.1731554696 2.7887480428 0.4391522888

