# b3lyp 6-31G(2df,p) opt Freq 

 titel

0 1
C -4.133689558 -1.5317210271 -1.3729656427
C -2.7677211292 -0.858899491 -1.4364946181
C -2.7911961463 0.7039861365 -1.441620113
C -2.1842391064 0.7261448082 -0.0061866741
C -0.7725815846 1.2705431348 0.1578202025
C 0.1425333684 0.0826797276 -0.1470734964
O 1.3300558372 0.0829543496 -0.2843342668
O -0.5978858794 -1.0604046065 -0.2348447011
C -1.9994502255 -0.8197068891 -0.0894154998
H -4.7418544027 -1.1263425785 -0.5555797534
H -4.6885481743 -1.3761066096 -2.3038157947
H -4.0366954167 -2.6109346046 -1.213527907
H -2.1628942755 -1.3003228178 -2.232890554
H -2.14756522 1.1627695877 -2.1970283519
H -3.7866964927 1.1461378139 -1.5275691356
H -2.8752588926 1.0710813036 0.7627484779
H -0.5254491575 2.1003990497 -0.5086654898
H -0.5596676905 1.6018691799 1.179664787
H -2.3733076538 -1.4555186073 0.7173850212

