# b3lyp 6-31G(2df,p) opt Freq 

 titel

0 1
C 1.845618822 1.4588627224 -2.6232634408
C 0.6355302543 0.589638516 -2.3818179232
C -0.6364729454 0.8747462616 -3.1824457253
C -1.39009448 -0.473130235 -3.1835543691
O -0.4158666003 -1.488118076 -2.9063218438
C 0.6508682303 -0.8839878457 -2.253471525
C 0.3492092625 -0.0361746775 -0.9910652383
C 1.3668471009 -0.0643316701 0.0726057551
O 2.5645907217 -0.1518513248 -0.1022026051
H 2.7054023905 1.1075642564 -2.052041495
H 2.102917158 1.4525797627 -3.6885072587
H 1.6450855801 2.4967218094 -2.3347760027
H -1.2439967026 1.684796594 -2.7686201325
H -0.3429376338 1.163288271 -4.1975123554
H -2.1710192268 -0.4937860562 -2.4123225343
H -1.8582714173 -0.712007036 -4.1416786355
H 1.5530142905 -1.4836225736 -2.2343429816
H -0.6776491037 -0.0123605499 -0.6405890556
H 0.952249319 -0.0311328486 1.1045576366

