# b3lyp 6-31G(2df,p) opt Freq 

 titel

0 1
C -0.95422169 -0.9052673757 1.0243066478
C -1.276869804 0.247684251 2.0189377546
C -0.2918716839 1.3704153673 1.6506000909
O 1.0113350305 1.1170912645 2.1716855668
C 1.7841114096 0.1596373079 1.4538025533
C 1.324491224 0.0998914549 0.0045837544
O 1.0887634264 1.4782176025 -0.4032865234
C -0.2543589252 1.3175356832 0.0950108786
C -0.203061102 -0.2075864507 -0.1179822692
H -0.3515832091 -1.6898428342 1.4930549558
H -1.8647797891 -1.3883139036 0.6600873377
H -2.3044889768 0.599051932 1.8665618763
H -1.1788114329 -0.0334287004 3.0699598159
H -0.5810059319 2.3437688331 2.0543636858
H 2.82465296 0.4985248874 1.503902815
H 1.7285530782 -0.8344860089 1.9254327782
H 2.0271928411 -0.4258136666 -0.6476300283
H -0.9833215114 1.9631514356 -0.4006044354
H -0.4602426434 -0.5459100592 -1.1218303149

