# b3lyp 6-31G(2df,p) opt Freq 

 titel

0 1
O -1.1594997194 -0.6636565262 -0.0176335744
C -0.1930418852 0.0393286479 -0.7099226923
C -0.2064040829 0.2011728047 -2.2462759644
C 1.0529551606 0.9683418786 -1.7432066988
C 1.3391724358 -0.2540380813 -0.823545796
C 0.1420817632 1.5751939108 -0.627446576
C 0.7220771178 2.1906114891 0.6118721294
C -0.1089994321 3.0089166536 1.5094584006
O 0.8111077597 3.6236153415 0.6113236149
H -0.9298275931 -0.6643784041 0.9177830659
H -0.022901191 -0.7052864397 -2.8278707634
H -1.0145676152 0.8034557484 -2.6684224679
H 1.7736194884 1.5090887544 -2.3509336535
H 1.6095419417 -1.1833062694 -1.3313373427
H 1.962893992 -0.0961964264 0.0581931605
H -0.654178009 2.224814108 -1.0063108202
H 1.5956868011 1.7113408062 1.051961801
H -1.162674384 3.157125631 1.2741986771
H 0.1436089816 3.082628243 2.5668316904

