# b3lyp 6-31G(2df,p) opt Freq 

 titel

0 1
O 0.1400728272 1.422061779 -0.1224491258
C 0.0765507394 0.0090426875 -0.0204608945
C -1.3744576484 -0.5640082177 0.0189883294
C -1.2631154259 -1.8316745045 0.8830972212
C -2.2645705381 -2.1820204703 1.9893650822
O -1.4883789307 -2.8847559794 2.9665952064
C -0.1442090924 -2.3815201639 2.9713850205
C -0.0393803605 -1.5542311179 1.7272989182
C 0.6940296083 -0.5531868158 1.2518921274
H -0.2662105074 1.7860864183 0.6725095303
H 0.6104527937 -0.3433180591 -0.9129646107
H -2.0113963845 0.1756555373 0.5214268141
H -1.7897274057 -0.7349177931 -0.9768019962
H -1.10282196 -2.721314393 0.2581520505
H -2.7014287532 -1.2646803984 2.4181443387
H -3.0773877018 -2.8468684059 1.6859774822
H 0.0451521367 -1.7862783245 3.8764083039
H 0.5380406794 -3.2410621413 2.9877979425
H 1.6048421738 -0.1426243073 1.6733060198

