# b3lyp 6-31G(2df,p) opt Freq 

 titel

0 1
C 0.7612292017 1.7731513162 0.4514226244
C 0.7357954474 0.7712874569 -0.7136242882
C 1.5712656959 -0.4360591779 -1.0368391774
O 0.7708894038 -1.6412079296 -1.0409357394
C -0.6549750957 -1.5571250963 -1.0313867596
C -1.3025127065 -0.9614602594 0.2574502212
C -0.2054848955 -0.6518748781 1.287763161
C -0.1777313965 0.6290606844 0.4623096328
O -1.5671702165 0.4816339793 0.1302056951
H 1.5617545034 1.7375018264 1.1856664504
H 0.4167487505 2.7734470561 0.2127082076
H 0.2109334348 1.1870206737 -1.5695497447
H 2.053031924 -0.3411254184 -2.0183540326
H 2.3624182754 -0.5996238953 -0.29488794
H -1.0473885763 -1.0056959146 -1.8975143842
H -0.9698387066 -2.6008660632 -1.129833404
H -2.2134494274 -1.4918440298 0.5449221306
H -0.6145816657 -0.4714839012 2.2838979323
H 0.6707663701 -1.2960131191 1.3220149446

