# b3lyp 6-31G(2df,p) opt Freq 

 titel

0 1
C -0.3081768811 2.9711770004 -0.809546385
C 0.740403684 2.2948602316 0.0098650496
O 2.0905262305 2.7598696594 -0.0444482324
C 1.4574263021 2.6598883933 1.2329924859
C 1.47906516 1.1430547482 1.6917681708
C 1.475795259 0.6344572567 3.0943839957
O 2.1435251876 0.4008630392 0.6636702364
C 0.7717763868 0.7619521672 0.4626504677
C -0.225014477 -0.2972909798 0.1251833647
H -1.3109848853 2.7214813597 -0.4472885951
H -0.1822325592 4.0562393813 -0.7652676012
H -0.2443577698 2.6622933528 -1.8590889309
H 1.4106041523 3.5445680743 1.8582048521
H 1.242422057 -0.4334376562 3.1180635611
H 2.4564636885 0.7794765688 3.5617971187
H 0.7340979234 1.1677864462 3.6987692326
H -1.2481792002 0.0694084836 0.2586375837
H -0.1162094911 -0.6169287656 -0.9175104988
H -0.0838515872 -1.1737283411 0.7635561244

