# b3lyp 6-31G(2df,p) opt Freq 

 titel

0 1
C 1.3546394434 1.1837860481 -0.1051009934
C 1.0741441177 -0.323363231 0.0086476916
C 1.5267808797 -1.0973698522 -1.214573675
C 2.5050039163 -1.9691677829 -0.9483623356
C 2.8200923265 -2.0138398628 0.5036150059
C 1.648697511 -2.4648086356 1.381467081
O 1.9093527477 -2.8243929935 2.7118140951
C 1.8581911897 -0.9989329641 1.1395314376
O 2.190771159 -0.2047709248 2.2266150863
H 1.0530709248 1.7036555165 0.8070880512
H 2.4204361058 1.3703722513 -0.2662830072
H 0.8022723275 1.6096616066 -0.9488066931
H -0.0035953437 -0.4595501625 0.1739773042
H 1.0965348172 -0.9185489107 -2.1937392411
H 2.9904416453 -2.6072821214 -1.6787348085
H 3.8264507326 -2.1716655213 0.8783253411
H 0.8244393844 -2.999120841 0.907935729
H 2.4505904599 -3.6203659089 2.7189101939
H 2.246768025 -0.8005450899 2.986734127

