# b3lyp 6-31G(2df,p) opt Freq 

 titel

0 1
O 0.358274012 -0.2356635145 0.4939686495
C -0.7664731306 0.5455040897 0.2077849294
C -2.1796927706 -0.1059578654 0.6133744973
C -1.9264455011 0.4680517802 2.0339237082
C -1.3150333955 1.618343165 1.1937768876
O -1.0220515826 2.9009363037 1.7670290834
C -2.4073321331 3.2953682656 1.4756751792
C -2.4855842586 2.1752733552 0.402585946
C -3.2895398698 0.876704382 0.1234542177
H 0.3547131566 -0.4782171324 1.4254382176
H -0.6442054231 0.8744222178 -0.8272906455
H -2.3128221366 -1.1743138988 0.4473006368
H -2.7967139576 0.6797612776 2.6592407402
H -1.1900433673 -0.0825544216 2.6247362654
H -3.0466442663 3.1613469553 2.3563210466
H -2.4631082427 4.3288780981 1.125466668
H -2.1296150452 2.6098026708 -0.5359801995
H -4.2089711321 0.7523175486 0.703557922
H -3.5426806761 0.7734454431 -0.9347826398

