# b3lyp 6-31G(2df,p) opt Freq 

 titel

0 1
O 0.8198441247 0.0189612641 -1.0488745934
C -0.0426608646 0.0842395747 -0.2064264577
C -0.8819072045 1.3497557663 -0.0033283641
C -1.6867602324 1.3365982458 1.3048328568
C -2.5869754614 0.1049872863 1.3198667848
O -2.9016728585 -0.3919964393 2.6394163431
C -2.3728829737 -1.6980072879 2.3251721551
C -1.87833084 -1.2233200742 0.9414572233
C -0.3680471485 -1.0772055386 0.7307426591
H -0.2143041649 2.2133562707 -0.0738575807
H -1.5588053857 1.423037215 -0.8664153226
H -1.01145586 1.2864634774 2.1658172396
H -2.2706464724 2.2554779105 1.4138851872
H -3.5039136511 0.293168743 0.7442678901
H -1.5970124907 -2.0100793257 3.0355819268
H -3.1601160705 -2.4619652246 2.3004445607
H -2.3297704808 -1.7476338493 0.0966035737
H 0.1153696752 -0.849925053 1.6918927158
H 0.0987580397 -1.9853852113 0.3430836722

