# b3lyp 6-31G(2df,p) opt Freq 

 titel

0 1
C 4.370598618 -0.0551649064 -2.1557176343
C 3.4655398705 -0.0160427768 -0.977046672
C 3.6787285341 0.0161415588 0.3656728113
C 2.3869090994 0.0454309688 0.9964621167
C 2.1228040754 0.0887315583 2.4705689253
C 1.4776077539 0.0322159425 -0.022968443
C -0.0082534042 0.0099619696 -0.0702192029
O -0.5546087002 -1.2529301196 -0.4489275627
O 2.1294602257 -0.006052588 -1.2294882632
H 5.4116545581 -0.0639276204 -1.8257821355
H 4.1949616865 -0.948473466 -2.7657208562
H 4.2224366225 0.8158358945 -2.8042033639
H 4.6398290505 0.020349419 0.8578072111
H 2.5542775134 -0.7813658193 2.9789038157
H 2.5691016951 0.9786662183 2.9290543642
H 1.052578097 0.1046771933 2.6926118129
H -0.3955975595 0.3378442216 0.9054111716
H -0.3741882716 0.7167571053 -0.822105622
H -0.1418790845 -1.9191932834 0.1107268069

