# b3lyp 6-31G(2df,p) opt Freq 

 titel

0 1
O 0.4065655868 0.0363014749 0.6976082317
C -0.8562152014 0.6071799531 0.9008615766
C -0.9341572067 2.0000752305 1.5656250843
O -1.8930247147 1.528312265 2.5386951085
C -1.8032625735 0.1635147633 2.0591079292
C -2.9992388239 -0.3615725727 1.2506412413
C -3.1794563723 0.7484525833 0.1787401765
C -1.7727359036 0.2768253811 -0.2870812991
C -2.2385170577 -1.1560043419 0.1371998484
H 0.9157727021 0.1191095447 1.5107735755
H 0.0102220811 2.3036897003 2.0401953207
H -1.3167856593 2.83570698 0.9677728502
H -1.4311967437 -0.5218010556 2.8281839469
H -3.8434324577 -0.7836489094 1.7958842244
H -3.9483597097 0.489735792 -0.5518698948
H -3.3186052555 1.7741606473 0.522654336
H -1.381306293 0.4962858532 -1.2800610261
H -2.9201368874 -1.6113967536 -0.5836695529
H -1.4647186799 -1.8675744554 0.4350565128

