# b3lyp 6-31G(2df,p) opt Freq 

 titel

0 1
C 5.2312991232 0.5755409 -1.5365968776
C 3.7503171088 0.5870603829 -1.1838194863
C 3.3995808347 1.1868041088 0.1896288046
O 1.9947475029 0.9953928368 0.3933171265
C 2.8775208774 -0.0970909731 0.6816246647
C 3.1928177351 -0.7962375708 -0.6546312772
C 2.0377573317 -1.4242928721 -1.3792257251
C 1.8552972512 -2.8801434991 -1.4539783361
O 2.3587929135 -2.1508666418 -2.5731753915
H 5.8350170702 0.1756200668 -0.7137356583
H 5.4128923528 -0.0462292041 -2.4186386695
H 5.5931904395 1.5861890704 -1.7547558969
H 3.1593561413 1.0219849984 -1.9955983691
H 3.8702745614 2.0082158212 0.7185068597
H 2.8330254135 -0.516065424 1.6805658925
H 4.0107813096 -1.5162438425 -0.5524654294
H 1.1540947609 -0.7930263765 -1.4665108603
H 2.5723114663 -3.5380976151 -0.9633663763
H 0.8557408561 -3.2954648163 -1.5757344544

