# b3lyp 6-31G(2df,p) opt Freq 

 titel

0 1
O 0.4068661885 0.1348361408 0.6375561088
C -0.8158891921 0.7356445839 0.2672136174
C -2.0752026994 -0.1809971728 0.3485507532
C -2.290483138 -0.0407541504 -1.1781481924
C -3.0962831722 1.2113202037 -1.5968307902
C -3.1955057943 1.3996437252 -3.1186829138
O -1.9084895422 2.0559417322 -3.1793888814
C -1.7618178278 2.0149244118 -1.7475018411
C -0.9525553792 0.8013713666 -1.2723339292
H 0.4101622182 0.0290579377 1.5948610106
H -0.936519246 1.7120725553 0.762123756
H -1.7805918431 -1.1959968811 0.6283223885
H -2.8956800684 0.1449730704 0.9957062872
H -2.4847192324 -0.9557702112 -1.7405863493
H -3.9514774896 1.5061344898 -0.9874780178
H -3.2285035366 0.4853539461 -3.7251928606
H -3.9992814402 2.0726334985 -3.4448734666
H -1.541436379 2.9996839404 -1.3217453426
H -0.0666691563 0.522164353 -1.8416963969

