# b3lyp 6-31G(2df,p) opt Freq 

 titel

0 1
C 0.69663634 1.3276837323 -1.1419808298
C 0.2171231988 1.4018590203 0.3270217253
O 1.4329901689 1.5829586422 1.0589798397
C 2.2877531643 0.5543594002 0.4886900086
C 2.5920798743 -0.4991970001 1.5608688539
C 1.4236125235 -1.490133773 1.6694201342
O 0.1615343492 -0.8617481808 1.4662359736
C 0.0755195642 -0.1472628723 0.2645010929
C 1.3581146794 0.0231409168 -0.618295384
H -0.1001382654 1.1407715894 -1.8644265953
H 1.3521230403 2.1328417028 -1.4782463202
H -0.551119745 2.0767309942 0.6990315615
H 3.2010146146 1.0254969092 0.1111369676
H 3.5122610068 -1.0436300074 1.3176237044
H 2.7553671473 0.0253805737 2.5067587385
H 1.5532364548 -2.3019838092 0.9366178279
H 1.3737416141 -1.9489263218 2.6597765737
H -0.7981365757 -0.4741669486 -0.3081022437
H 1.7407897457 -0.7584322979 -1.2730599886

