# b3lyp 6-31G(2df,p) opt Freq 

 titel

0 1
O 4.2933192581 -1.9041613867 -0.5854183048
C 3.2437974525 -0.9446102992 -0.6375001755
C 3.7491602708 0.3598815212 -1.3230723726
C 4.1967607275 1.2072019913 -0.1559732772
C 3.7179589605 0.7470633104 1.000820082
C 2.869851693 -0.4877863183 0.8042805613
C 2.0824470762 -1.5785404757 -1.3727383663
C 1.9776895706 -3.0205868754 -1.6187369767
O 2.3448410513 -2.1162161015 -2.6661525211
H 5.0580437696 -1.4694713729 -0.1926529412
H 4.5360487321 0.1216107333 -2.0454007127
H 2.947789805 0.8590514836 -1.8848190148
H 4.8043833318 2.097558399 -0.2736407199
H 3.8756863164 1.202448122 1.9721255221
H 3.0748188943 -1.2931788692 1.5170003887
H 1.8014993024 -0.2447450291 0.894212321
H 1.1614642654 -0.9952933516 -1.3140302605
H 2.7756168411 -3.6715089315 -1.2738614487
H 0.9936231015 -3.4767253897 -1.7204084731

