# b3lyp 6-31G(2df,p) opt Freq 

 titel

0 1
C 0.2981045697 0.912887214 -1.1648241665
O 0.4119733122 -0.3822206682 -0.4829936766
C 1.0353689973 0.284834473 0.6110794913
C 0.0773336966 1.1020805294 1.5479746257
C 0.9510557557 2.3118404545 1.1280381712
C 2.2564393832 2.1764644197 1.9571853929
O 2.5647592973 0.8208027673 2.3120746701
C 2.2254052701 -0.220470389 1.3840372748
C 1.3017854112 1.5753807288 -0.182818048
H 0.6454819935 0.8384355133 -2.1986858261
H -0.7316095793 1.2874523571 -1.1532592372
H -0.9358795272 1.1331156785 1.1471367965
H 0.055704148 0.8417296602 2.6070226538
H 0.5568937515 3.3320480938 1.1480097182
H 3.0974523458 2.6318087074 1.4109319198
H 2.1543177485 2.6966829942 2.9152402497
H 3.062645945 -0.4452252305 0.7064536435
H 2.0165700583 -1.109453125 1.9902449639
H 2.2800045628 1.7740541215 -0.6266153069

