# b3lyp 6-31G(2df,p) opt Freq 

 titel

0 1
C 1.8243380027 1.4484625389 0.8035866767
C 1.5656539961 -0.0274262724 0.5375371764
C 2.4431516109 -1.0531204158 1.3507873828
C 2.7008808747 -1.7772530815 0.0439964101
O 3.7971913766 -2.5924285281 -0.327831917
C 2.9502673884 -3.3467589675 -1.2477414472
C 1.6822431361 -2.6100492641 -0.7523080588
O 1.2472765811 -1.4851032988 -1.539907839
C 2.1351396839 -0.6094071282 -0.801720505
H 1.5472953497 1.718977708 1.8281777703
H 2.8842239205 1.6947727177 0.6726903099
H 1.2473662041 2.0801914489 0.1197692841
H 0.4988590966 -0.2537338159 0.6144002249
H 3.3517622411 -0.5753171659 1.7328171723
H 1.9719368763 -1.6136215445 2.1622837614
H 3.1982505172 -3.1568895107 -2.2970130751
H 2.9993988877 -4.4194408618 -1.0323735159
H 0.8595331316 -3.2072316874 -0.3537944668
H 2.7042604247 0.0690463791 -1.441464884

