# b3lyp 6-31G(2df,p) opt Freq 

 titel

0 1
C 1.3077207337 -0.8356021167 -1.095104485
C 1.1904549757 -0.2104574056 0.307027531
C 1.7745798977 1.1604701721 0.3884279005
C 2.8198837863 1.6620777456 1.0642018963
C 2.7719043435 3.1326187748 0.6861364141
O 2.4804254573 3.0862074769 -0.760285302
C 1.2501974835 2.4179668691 -0.307005221
C 1.2399867419 3.4513453667 0.8860105087
O 0.8335723146 4.7397954883 0.5710504253
H 0.8507026027 -1.8295875164 -1.1145581286
H 0.8060999416 -0.2203821122 -1.8487579938
H 2.3563284786 -0.9331683565 -1.3907050092
H 0.1291104022 -0.1718989519 0.5897685252
H 1.6822452705 -0.8573066485 1.0421542922
H 3.5050225405 1.1818154634 1.7477994263
H 3.5700472652 3.8192728165 0.9647928177
H 0.4609827718 2.3627623843 -1.0566141746
H 0.7682879551 3.157950014 1.8258713978
H 1.2753471274 4.956838656 -0.262209891

