# b3lyp 6-31G(2df,p) opt Freq 

 titel

0 1
C -4.0405913492 0.93639036 1.3074496172
C -2.6651844665 0.3055630144 1.2141586066
O -1.6226299943 1.2923760104 1.4645469474
C -1.0944009338 1.1730629399 0.1262106758
C 0.0737840884 0.1649894769 0.1276383446
O 1.2613918766 0.2630848333 0.2160697341
C -0.8906209227 -1.0199761912 -0.0936010226
C -2.0793054752 -0.0104516139 -0.1874352664
C -2.9703960626 -0.1068042856 -1.4053393776
H -4.1997377056 1.3169643067 2.3209434886
H -4.144707106 1.7736862816 0.611578675
H -4.8222583767 0.1998519114 1.0921747862
H -2.586597543 -0.5280419969 1.9252470109
H -1.0075072881 2.1303326403 -0.3957297254
H -0.6740416181 -1.5412260911 -1.0323025663
H -0.9339922599 -1.7607952505 0.7103463052
H -3.559740804 -1.0310032942 -1.3886033505
H -3.6673607946 0.7330100408 -1.4737482228
H -2.3731314548 -0.1181185223 -2.3234864

