# b3lyp 6-31G(2df,p) opt Freq 

 titel

0 1
O 0.4080473028 0.7920291565 0.3553849422
C -0.618375859 0.0063979878 0.9463278218
C -1.8046034473 -0.149860486 0.00698472
C -3.0896869494 -0.7205612864 0.586164925
C -2.8663632726 0.7649997114 0.5593652767
O -2.3986895612 1.390870741 1.731114847
C -1.2595704807 0.6684603375 2.1685768182
C -1.3052284291 0.0090683078 3.5222790802
C -0.473632547 1.2578103512 3.2880726211
H 0.0392604881 1.6671031413 0.1888577964
H -0.1385777014 -0.94003736 1.2098697236
H -1.5922873177 -0.2498095689 -1.0503240723
H -3.8016405874 -1.1269425725 -0.1240833268
H -3.0563985734 -1.238143111 1.5383307739
H -3.4868158864 1.4247417193 -0.034421737
H -2.2225070036 0.1256361487 4.0886577702
H -0.7955934835 -0.9394462229 3.6596013788
H -0.8431558697 2.1865761822 3.7078999014
H 0.6061627286 1.171633423 3.2419364396

