# b3lyp 6-31G(2df,p) opt Freq 

 titel

0 1
O -1.3454823857 2.6815590004 0.6425292363
C -1.2117626475 1.4773378052 0.5580426873
C -1.5402093217 0.8131773014 -0.7882053352
O -1.5082787181 -0.5886959347 -0.8444484478
C -2.7283577438 -1.2109168025 -0.4877943283
C -3.1006165667 -1.0351596204 0.983221983
C -1.9841305165 -1.4490895077 1.9487291107
C -0.8713017749 -0.4735102401 2.2107351873
C -0.5799783785 0.7146189212 1.669935094
H -2.4968998912 1.2235681216 -1.1443155998
H -0.7645789339 1.1745068601 -1.4754177318
H -3.5449753485 -0.8429994267 -1.1303899998
H -2.5834183041 -2.2739025277 -0.7094949375
H -3.4042149161 -0.0005850315 1.1856543659
H -3.9880296984 -1.6509349289 1.1722594395
H -2.4272073117 -1.6755592951 2.9283424757
H -1.5413320848 -2.401018892 1.6184722978
H -0.2417594139 -0.7752006215 3.0483262917
H 0.2070666559 1.299718449 2.1410442208

