# b3lyp 6-31G(2df,p) opt Freq 

 titel

0 1
C -0.0491552073 -0.3069962949 0.0496084815
C 1.4336578828 -0.3469311228 -0.1692781941
O 1.7424380906 -0.185812124 -1.5566743411
C 1.1737005126 1.1566836079 -1.5305392207
C 2.2670641446 2.2285291286 -1.6233397773
O 1.9174063606 3.3792921879 -0.8723227718
C 1.8730168512 3.1047778441 0.5195480419
C 0.719955988 2.1513935337 0.8687508899
C 0.7175268549 0.988675892 -0.0816419159
H -0.7156906582 -0.6510662958 -0.7374580109
H -0.3750901094 -0.5323124222 1.0616056947
H 2.155786853 -0.856626976 0.4587723002
H 0.3990548296 1.2858884835 -2.2952917149
H 3.2068525592 1.7903374995 -1.2526059179
H 2.4219403664 2.5606478045 -2.6531421621
H 2.8334744121 2.6705200933 0.8434626864
H 1.7484085364 4.0689877109 1.0198827876
H 0.8020862086 1.8204521298 1.9109397996
H -0.2290016559 2.6962410798 0.7791131451

