# b3lyp 6-31G(2df,p) opt Freq 

 titel

0 1
O -0.0408090656 0.2215948219 0.3345392323
C -0.705281478 1.0341997139 1.2663868268
C -1.1428382807 2.3032354138 0.5577194117
O -1.8748427909 3.1938223297 1.378100133
C -2.8951925015 2.5700413488 2.1439864488
C -2.3071692692 1.4942137396 3.0513452656
C -0.9194784039 1.8889326913 3.6671998168
C -0.2366381568 0.9193306407 2.7019450972
C -1.6116158976 0.3694998766 2.2520727447
H 0.1210978847 -0.6398064254 0.7333718503
H -0.2737329249 2.8609715872 0.195211494
H -1.7382160579 1.9973287592 -0.3192016667
H -3.3519760062 3.376396169 2.7267709562
H -3.6705431174 2.1374497034 1.4886469597
H -3.0417559893 1.1474158973 3.7807251861
H -0.6362050403 2.9424651968 3.6148347212
H -0.8340792978 1.5400718581 4.6995957614
H 0.6775259536 0.3711450557 2.9072315027
H -1.9623364205 -0.6503133875 2.1337728781

