# b3lyp 6-31G(2df,p) opt Freq 

 titel

0 1
C 1.3962221537 0.7683421107 0.1230109489
C 0.048269401 0.1302394983 0.1857074915
C -0.2276751261 -1.1849722233 0.1952633837
C -1.67972293 -1.4211237837 0.2588401997
O -2.2601996993 -2.4846758086 0.2767075009
C -2.3671434496 -0.0400853978 0.2705226532
C -3.3318322752 0.0839110075 -0.9172494717
O -3.9823750476 1.3433196211 -0.9714963171
C -1.2082080329 0.9731057091 0.2484328313
H 1.5576523763 1.4168580916 0.9932225354
H 2.20007062 0.0296351886 0.0870463649
H 1.4762369057 1.4141669866 -0.7603747234
H 0.492327784 -1.9933769642 0.1600371473
H -2.9523136744 0.035307201 1.1955231364
H -2.7725116123 0.001506542 -1.8562530395
H -4.0450485675 -0.7503852479 -0.8848079388
H -4.5800857663 1.3989391686 -0.2188878962
H -1.2747593055 1.6534705681 -0.6096094605
H -1.191652014 1.6181096324 1.1358903039

