# b3lyp 6-31G(2df,p) opt Freq 

 titel

0 1
O 0.599791349 0.6716071275 0.5569764883
C -0.7768417183 0.7313997034 0.8306838125
C -1.2521492564 -0.1006505108 2.0245339975
C -0.312978751 0.4954209269 3.1416956525
C -0.3646471522 2.0537594269 2.8285071733
C -1.3773276051 1.9043021275 1.7117301707
O -2.312083292 2.7656364705 1.0573762573
C -3.2876443318 1.6659542652 1.1280269295
C -2.429326226 0.9026101017 2.1879510275
H 0.787723792 1.2654739612 -0.1763039203
H -1.370105751 0.5747800115 -0.0748308061
H -1.3398913089 -1.1873083967 1.996990349
H -0.6912742465 0.2717620599 4.1423854155
H 0.6988362147 0.1000744765 3.0504357062
H -0.7379924119 2.6421928168 3.6691557446
H 0.6087126381 2.4366204571 2.5150096451
H -4.2429764981 2.0283745814 1.5158653034
H -3.4444023886 1.1996193233 0.1505939334
H -2.835259886 1.0020134001 3.1955830101

