# b3lyp 6-31G(2df,p) opt Freq 

 titel

0 1
C 0.8420964991 2.8735407996 -3.6351468111
O 1.7807080511 3.5782756263 -2.8288092211
C 1.8468304256 2.1399249749 -2.8413185929
C 1.5418834442 1.4269490497 -1.5788099135
C 2.2377568006 0.3484162187 -1.2100090945
C 1.9256085621 -0.419451766 0.0445859082
C 0.563646283 0.0091003749 0.5961037443
O 0.4441580536 1.4208183804 0.6037056144
C 0.4332613902 1.9634632856 -0.6999410617
H -0.1924120179 2.9186794697 -3.2995307687
H 0.9816298813 2.9660936613 -4.711786677
H 2.7092928979 1.747044968 -3.3811998276
H 3.0635709813 0.000717401 -1.8273692342
H 1.9248420708 -1.4989640808 -0.1546334047
H 2.7099111114 -0.2466374471 0.7944872468
H -0.2418834413 -0.4380162262 -0.0104354221
H 0.4281541659 -0.317494963 1.6307166111
H -0.5469751914 1.7831493899 -1.1793540892
H 0.5455942724 3.0465398133 -0.5910093168

