# b3lyp 6-31G(2df,p) opt Freq 

 titel

0 1
C -0.8270003811 -2.0079423331 -4.064069102
O 0.576334393 -1.8489483373 -4.2783780493
C 0.0951704589 -1.8523643023 -2.9318435922
C 0.221482085 -0.5651227489 -2.1593792727
C -0.6674676411 -0.528175194 -0.885502995
C 0.0757145654 0.3965416068 0.0566907514
O 0.517254252 1.6125681797 -0.5641288665
C 1.462023938 0.5430693811 -0.4023889558
C 1.6640886246 -0.283716397 -1.6549278059
H -1.4441883151 -1.1645502489 -4.3719225308
H -1.2301634638 -2.9901719852 -4.3070915979
H 0.3632856188 -2.7540690959 -2.3745834522
H -0.0758992735 0.2557377575 -2.8161349048
H -1.6861476747 -0.1926447154 -1.1017819676
H -0.7403201456 -1.5219794645 -0.4230948032
H -0.2167019207 0.4847150733 1.1000955487
H 2.2890977481 0.7517777129 0.2716314523
H 2.2726355202 0.2172588765 -2.4125722407
H 2.1772493615 -1.2165707252 -1.3855172358

