# b3lyp 6-31G(2df,p) opt Freq 

 titel

0 1
C -3.434563889 1.4702372596 0.2171041609
C -2.4109227274 0.5833293958 -0.4979598546
O -2.6655519375 -0.7792537598 -0.1005211606
C -1.7839362262 -1.5767902918 0.537786307
O -2.1174244737 -2.6908519565 0.8396935737
C -0.3965569149 -1.0422667832 0.8537465522
C -0.0668461474 0.3261047735 0.3294641829
C 1.3396263176 0.8083560301 0.5422827335
C -1.0034495774 1.0424034818 -0.28438088
H -3.2477415457 1.4767306731 1.2948433718
H -3.3692036317 2.4981614103 -0.1525234936
H -4.4456326049 1.096975773 0.0361430494
H -2.6331239282 0.6022592317 -1.5743862718
H -0.2882949394 -1.0774294055 1.9466104696
H 0.3160992981 -1.7896969946 0.482050349
H 1.5925609114 0.8259308034 1.6100840979
H 2.0623490846 0.1359214241 0.0628111004
H 1.4873009799 1.8135140647 0.1395004205
H -0.782425678 2.0358698204 -0.6664448383

