# b3lyp 6-31G(2df,p) opt Freq 

 titel

0 1
O 3.4712297142 0.400711324 -3.9331137325
C 2.6264341239 1.0741593009 -3.0546085924
C 1.1923937517 1.160461138 -3.4656551178
C 1.5679151861 0.3709915701 -2.2205191987
C 1.4378675321 1.0826127773 -0.8773838028
C 2.1614416262 2.4500973725 -1.1024023076
C 3.1944541473 2.2175756465 -2.2257833389
C 2.1390154156 0.2821476392 0.1996906842
O 1.6210135298 -0.1328144565 1.2036806835
H 4.1854910448 0.0052303606 -3.4201484344
H 0.6491361307 2.0956567638 -3.3759079406
H 0.9236952215 0.5639112581 -4.3299053393
H 1.4535310047 -0.7066727073 -2.2641050977
H 0.4008048893 1.2216903671 -0.5570808521
H 1.4211644876 3.1932961754 -1.4098323327
H 2.6192983708 2.8303923081 -0.1847302297
H 3.3835816648 3.1207719437 -2.8146922011
H 4.1595029646 1.898682466 -1.8089392257
H 3.2215537744 0.0924118424 -0.0038099537

