# b3lyp 6-31G(2df,p) opt Freq 

 titel

0 1
O 0.7487207085 0.1122375228 -5.8368421862
C 0.7459547499 -0.6121959645 -4.6149575926
C 0.7090503917 0.2429658094 -3.4289509576
C 0.6256773415 0.9803032758 -2.478567735
C 0.6084454978 1.8752908495 -1.3147686588
O 1.3846068903 3.0486454893 -1.5508723454
C 1.0348459216 1.1404456969 -0.0546970894
C 0.6306334464 1.6883408775 1.286736664
C 0.0058980492 0.4148864099 0.7743079419
H 0.0247791177 0.7459923736 -5.7971550462
H -0.09466917 -1.3235879049 -4.5703057795
H 1.6634164085 -1.2112711661 -4.6226975463
H -0.4121127269 2.250106359 -1.1621166712
H 2.2524481021 2.7630579936 -1.8573536431
H 2.0157549835 0.6782436872 -0.1281484622
H 1.3433318956 1.6245949545 2.1011524475
H 0.022577536 2.5867510444 1.2993154558
H 0.2886036438 -0.5258762357 1.2326174459
H -1.0272778869 0.452228528 0.4441300783

