# b3lyp 6-31G(2df,p) opt Freq 

 titel

0 1
O -1.7168259075 -0.7571665091 -0.0490444642
C -0.8904690817 -0.5593128967 1.0458122126
C -0.3221794168 -1.7162172973 1.9365599466
C -0.0954723648 -0.5408164034 2.9290356139
C -1.4152493087 0.0727246221 2.358764838
C 0.998367228 0.2827948873 2.2071291487
C 0.369583405 0.2662184426 0.8077449323
C 0.5046631191 1.2571816416 -0.2549322152
O 1.1156473992 -0.0463199853 -0.3692301909
H -1.13838457 -0.9820057826 -0.7906109622
H -1.1115360381 -2.3988907267 2.2565384953
H 0.5506207301 -2.2685648562 1.577165136
H 0.0310671763 -0.7128705105 3.995859221
H -2.3077264679 -0.4341074144 2.7308759527
H -1.5462914631 1.1582845405 2.3919673751
H 1.1104684143 1.2934925927 2.6104669705
H 1.9762966925 -0.2072242266 2.2144677175
H -0.3265479191 1.4384343727 -0.9339251256
H 1.2047570831 2.0831502993 -0.139040562

