# b3lyp 6-31G(2df,p) opt Freq 

 titel

0 1
C 3.6960989855 1.3462096498 -3.374644259
C 2.6911353886 1.8159398097 -2.3620888974
C 2.4910163066 3.2666454894 -2.0078092907
C 2.8760211221 2.3037322792 -0.9196597221
C 1.6124564683 1.5388528026 -0.4673522761
C 1.8773993652 0.4846169889 0.575817133
O 2.0057641026 -0.6949300541 0.3576238897
C 1.4630706553 1.0150216714 -1.9365431465
O 0.2888601722 1.3367152604 -2.6477627138
H 4.0075490855 0.3139454905 -3.1795570835
H 3.277392421 1.3839786097 -4.3870128028
H 4.5921720666 1.9753022848 -3.3642702461
H 3.2835238017 3.9281705393 -2.3444705028
H 1.4993595913 3.709860699 -2.0234051394
H 3.7908583492 2.3952331402 -0.3460292439
H 0.8090494592 2.1973833747 -0.1123300867
H 1.9702198546 0.8795439993 1.6139386713
H 1.6680282404 -0.061478067 -1.9523455841
H -0.3902544559 0.6948224122 -2.4179404189

