# b3lyp 6-31G(2df,p) opt Freq 

 titel

0 1
C 0.7221532908 -0.2778817065 -0.9772339793
C 0.9196995031 0.3855960611 0.3777839028
C 1.874073762 1.6213597159 0.4685436319
C 2.6899622742 0.9202535946 1.5734310821
O 3.8172745187 0.1837307871 1.0756120243
C 3.0561089243 -1.0415418126 1.0290922771
C 1.7521799354 -0.347984427 1.4702917234
C 1.0364784375 -0.8974239637 2.6588782207
O -0.1442663644 -0.7680294216 2.8728911158
H 0.1624168106 -1.2148083506 -0.8839031777
H 0.1568329848 0.3816904478 -1.6440915212
H 1.6752545258 -0.4979320882 -1.4695284128
H -0.0543172708 0.6176636316 0.816004591
H 2.4766496579 1.816819221 -0.4220330058
H 1.3855439293 2.5473827971 0.7812408009
H 2.9097002633 1.4550041628 2.5012969036
H 3.0592474365 -1.5033012504 0.0359730513
H 3.4313911771 -1.7696820324 1.7617334518
H 1.6918660839 -1.4335984962 3.3847199001

