# b3lyp 6-31G(2df,p) opt Freq 

 titel

0 1
C -1.453971841 -3.641973204 0.5552995973
C 0.0286280008 -3.5415065005 0.6756671227
O 0.8507531646 -4.4021692033 -0.1186984467
C 1.9751111347 -3.5614298908 0.2692794697
C 2.1756783185 -3.896828105 1.7678415316
C 0.817940665 -3.222326681 1.9629790451
C 0.9915123165 -2.3961808826 0.6739406567
C 0.9109742234 -0.9340193654 0.3990510653
O 1.9757541875 -0.1950452326 0.987534517
H -1.9410062518 -2.887433681 1.1800404682
H -1.7745517794 -3.4943827951 -0.4805673432
H -1.7986942049 -4.6281603877 0.8839714136
H 2.7826434863 -3.5461825036 -0.4593416628
H 2.2851792476 -4.9571875221 2.0153179414
H 2.9852983672 -3.3097035239 2.2090024942
H 0.3242318469 -2.9307664636 2.8827871226
H 0.9816109238 -0.7385915326 -0.676645987
H -0.0708054948 -0.5575405338 0.7313957083
H 1.9608770892 -0.3808906514 1.9324979058

