# b3lyp 6-31G(2df,p) opt Freq 

 titel

0 1
C 0.7660295092 2.6798921473 -1.2209717693
C 1.8352834371 2.28576366 -2.2480596645
C 2.4521785873 3.5262498984 -2.8964082625
O 1.238726611 1.5560066901 -3.3235031627
C 2.922696849 1.411442214 -1.5544709375
C 3.869910098 0.7791295909 -2.5606392166
O 4.8732966125 1.3319256428 -2.9572459195
C 3.5001939214 -0.54528964 -3.0367479144
C 3.2072483021 -1.655920324 -3.3983485528
H 1.1967279578 3.2541642322 -0.394561782
H -0.0047732056 3.2880899283 -1.702540963
H 0.2857964037 1.79039387 -0.7964788652
H 2.8797500835 4.1874687978 -2.1376351017
H 3.2428734297 3.2505359801 -3.5966084105
H 1.6776631981 4.0725729264 -3.4414694958
H 0.8421532024 0.7535984484 -2.966479607
H 3.5153705416 2.031845082 -0.875982222
H 2.4320126622 0.6248754779 -0.9697988843
H 2.9642115092 -2.6330207026 -3.7395008987

