# b3lyp 6-31G(2df,p) opt Freq 

 titel

0 1
C 0.7746254671 1.1924589717 0.5423003444
C 1.1737582408 -0.2631396271 0.685964103
O 2.4166604213 -0.3474155032 1.3887514693
C 2.4575327743 -1.6502623817 1.9138905122
O 1.13060457 -1.9889652798 2.2790157093
C 0.2356463156 -1.1320943504 1.55203768
C -0.7781959093 -1.9533151109 0.7704483534
C 3.00377378 -2.6231318211 0.9460687802
C 3.4662792203 -3.4158537732 0.1703572348
H 0.6898836559 1.6652706162 1.5250828943
H 1.5185061924 1.7389278507 -0.0432082696
H -0.18906903 1.2725124064 0.0294934903
H 1.2866841954 -0.7277663006 -0.3059304133
H 3.0798250196 -1.6304134611 2.8154138597
H -0.280005014 -0.4969199486 2.2859335635
H -1.3675392128 -2.5784095015 1.4463439724
H -1.4668981637 -1.2962632096 0.2276493211
H -0.2724420267 -2.6043242134 0.0515609346
H 3.8759254938 -4.1180592228 -0.5134783597

