# b3lyp 6-31G(2df,p) opt Freq 

 titel

0 1
O -0.560711835 0.9497037885 0.4896210141
C -1.7891724884 0.2965914134 0.5293893754
C -3.0035366883 1.0018800424 1.1283456919
C -2.3042692793 -0.0874472859 1.8793135202
O -1.4528520117 0.2235260094 2.9947189977
C -1.7311982573 -1.0693155084 3.6018443695
C -2.7240580188 -1.3998202728 2.4907283877
C -4.0987487573 -1.9791176781 2.612383852
C -3.0260393173 -2.7077172583 1.8314708299
H -0.1917866192 0.8796781185 1.3823132507
H -1.9513047023 -0.3679378815 -0.3164192595
H -2.8559993944 2.0144019797 1.4904600914
H -3.9823635988 0.7953205522 0.7050778222
H -0.833031892 -1.697072494 3.6415997596
H -2.1467143144 -0.9530673107 4.6087338928
H -4.3989614589 -2.3836886833 3.573867951
H -4.9012973702 -1.5016429559 2.0591238528
H -2.5976247435 -3.6071446159 2.262379049
H -3.1025620529 -2.7272811291 0.7488369917

