# b3lyp 6-31G(2df,p) opt Freq 

 titel

0 1
C -0.0302710479 0.7887048773 -0.5967701503
O 0.1368964772 0.6566466085 0.791548635
C 1.5445709333 0.6629400396 0.9697549992
C 2.0149679723 1.7208857411 -0.0457226156
C 3.4483589564 1.4884168386 -0.5822516276
C 4.2726623773 2.5014896479 0.1728314307
C 3.5110960598 3.3996776461 0.7973808683
C 2.0433381793 3.1502572868 0.5643587383
O 1.0253031973 1.6029700678 -1.0764153143
H 0.0126569095 -0.1960860284 -1.0958594963
H -0.9983966759 1.2636840399 -0.7895800351
H 1.7659850742 0.914969998 2.0080643916
H 1.9746354472 -0.323937291 0.7341645119
H 3.7831963467 0.4543037733 -0.436656091
H 3.470984947 1.6741565811 -1.6638854276
H 5.3567952762 2.4957891256 0.161526374
H 3.8799412338 4.2385106813 1.3771404288
H 1.4263034223 3.2241393358 1.4673329293
H 1.625491904 3.8613766305 -0.1599052893

