# b3lyp 6-31G(2df,p) opt Freq 

 titel

0 1
C -0.7468992868 0.1668130958 2.2878048584
C -0.2454107379 -0.7947184327 1.2366528149
C -1.1837440458 -1.7165888185 0.3650062176
C 0.0811205331 -1.8046446012 -0.5628237925
C 1.0147577819 -2.5749651779 0.3873151057
O 2.0821746018 -1.8099010156 0.9997590758
C 0.7872736343 -1.8698819724 1.6474984281
C 0.2943271408 -0.3079563444 -0.1561082251
O 1.4920241339 0.3766839825 -0.3136779299
H -1.1404567425 -0.3583967259 3.1658322796
H 0.0622558791 0.8234877712 2.6253594559
H -1.5463747694 0.8012007943 1.8917906541
H -1.5253664627 -2.6483472084 0.8220513254
H -2.0264315713 -1.1842649791 -0.083201186
H 0.0258257065 -2.1227957706 -1.6027748588
H 1.2055851038 -3.6378140526 0.2885221444
H 0.7830163368 -2.3241811394 2.6331396147
H -0.4762635335 0.3032410968 -0.6343255822
H 2.164842858 -0.177338092 0.1065741299

