# b3lyp 6-31G(2df,p) opt Freq 

 titel

0 1
O -1.5068346604 -1.1776717344 0.2138739326
C -0.9001724081 -0.1737788396 0.9537487839
C -0.0069100983 -0.4271390653 2.2218256199
C 0.5913303407 0.959423288 1.8274593434
C -0.6088078465 1.9061822839 2.0509750058
C -1.7380555608 1.0497466862 1.38538808
C 0.3487594161 0.509868337 0.3781642699
C 0.7060270474 1.0056634593 -0.9436990824
O 1.3083815851 -0.1842305829 -0.3831611025
H -2.3384730311 -1.4134527811 0.6381516855
H -0.5027896344 -0.508208975 3.1937165097
H 0.6918646299 -1.2492916229 2.063230012
H 1.5760934152 1.2780733804 2.1628549281
H -0.7929455207 2.0889476208 3.1131277058
H -0.4748632449 2.8735475777 1.5594471256
H -2.5305212591 0.7711996734 2.088610876
H -2.2023162557 1.5433068069 0.526941611
H 0.0415962061 0.8260605578 -1.7874922449
H 1.3778263093 1.8565388498 -1.0496768295

