# b3lyp 6-31G(2df,p) opt Freq 

 titel

0 1
C -1.5013191197 -1.5206652736 2.1672667631
C -1.6118249837 -0.0500288835 1.8517455333
C -2.9208694317 0.6603936982 1.8981552489
C -2.8145603202 1.9145370933 2.3491284445
C -1.3958869288 2.2630912444 2.745072934
C -0.6160848557 1.0172498942 2.3344918677
O 0.5637619152 0.6919690125 3.0145822883
C -0.6024124759 0.6053655422 0.8885014263
O 0.4956621933 -0.1282361256 0.4590626206
H -1.7046510989 -1.7337338414 3.2236282018
H -2.2227444793 -2.0945124338 1.5751853825
H -0.5059048301 -1.8952923285 1.9172675728
H -3.8414376466 0.1906088597 1.5673318113
H -3.6318395282 2.6211714016 2.4334247876
H -1.0227254601 3.1647540605 2.2443192466
H -1.3028056806 2.4482620563 3.8258409393
H 0.3408092114 0.2005426271 3.812335515
H -0.9927878032 1.280807113 0.1303190437
H 1.1395460428 -0.0961651866 1.1809510528

