# b3lyp 6-31G(2df,p) opt Freq 

 titel

0 1
C -2.3660779771 4.2577368427 1.2357251962
C -1.2033824449 3.2881584975 1.284909613
C -0.1931971004 3.2044602751 0.1938328956
C -1.1186795101 2.0067356656 0.4368522106
C -0.5344594471 0.7519673156 1.0815426766
C 0.4189799433 0.0436643372 0.1370789597
O 1.6116927992 -0.0071187705 0.3056081632
C -2.1615942819 1.7602390979 -0.5862763731
O -2.5643526637 0.6614411777 -0.8916294014
H -3.2381332834 3.8683266958 1.7709793497
H -2.0771501849 5.2012601933 1.7108499711
H -2.6741348271 4.4917083747 0.2137258334
H -0.8170741817 3.1273112592 2.2880408978
H -0.3673133015 3.7891932018 -0.7046881554
H 0.8530637229 3.0524932642 0.4353539019
H 0.0195327925 1.0062895141 1.9886810239
H -1.3558877225 0.0711525843 1.3327917591
H -0.0601835952 -0.4141244209 -0.753425564
H -2.5614709365 2.6686392747 -1.0857427981

