# b3lyp 6-31G(2df,p) opt Freq 

 titel

0 1
O 1.8277958442 -1.918719227 -1.4265331822
C 0.5136247981 -1.4538370759 -1.7203517389
C 0.3565475868 -1.1438437977 -3.1967105294
C -0.8631601476 -0.3791907234 -3.6490761724
C 0.4209329961 0.362090775 -3.3828174963
C 0.5732337294 1.0080322183 -2.0132468728
C 0.1949177171 -0.0982117558 -1.0050304634
C 0.9094825197 -0.0203193274 0.3262889486
O 1.731886965 0.8107579893 0.6164019832
H 2.4570227508 -1.3049855381 -1.8229730855
H -0.1453537169 -2.254922931 -1.3720165019
H 0.8271429574 -1.8352212425 -3.887059373
H -1.1566729696 -0.5099699463 -4.6847838188
H -1.7017907899 -0.256579946 -2.9706233743
H 0.9448026622 0.8004784345 -4.2248146045
H 1.6088495358 1.3198208855 -1.8410810668
H -0.047422745 1.9005725434 -1.8877439698
H -0.8798873989 -0.0773682761 -0.7817729852
H 0.6169703651 -0.8120007887 1.0504856534

