# b3lyp 6-31G(2df,p) opt Freq 

 titel

0 1
O 1.0966161214 1.0370484461 -0.5361783722
C -0.0036088441 0.2608307781 -0.041542945
C -0.9910668669 0.1324824206 -1.1658714909
C -2.4606471786 0.4148653798 -0.9066991564
C -1.641948209 1.4113492615 -1.6838677303
O -1.3874578085 2.6499101358 -1.0994749982
C -1.6731975952 1.2663428931 -3.1713108082
C -1.1469447492 0.1031160984 -3.5593386977
C -0.6290755597 -0.7110308269 -2.3897042553
H 1.7719671615 1.0746343641 0.1484210854
H 0.3430287812 -0.7286006537 0.2940086515
H -0.4715532094 0.7629326844 0.8157995808
H -3.2108800571 -0.1663305969 -1.4327579846
H -2.7223069405 0.6982292204 0.1078721608
H -0.4275144543 2.7619276795 -1.1129928542
H -2.1002263618 2.028043859 -3.8133012449
H -1.1062209753 -0.2591551832 -4.5804723311
H -1.082080977 -1.7106788796 -2.3553585129
H 0.4569706724 -0.8578121904 -2.4564969565

