# b3lyp 6-31G(2df,p) opt Freq 

 titel

0 1
C 3.0982026942 -0.6386122417 -0.7527090861
C 2.4577215436 -0.420731942 0.5761102862
O 2.3584478552 -1.5044540486 1.5157544796
C 2.9738509732 -0.2778187568 1.9490797739
C 1.8359103808 0.6646613718 2.3521659392
C 1.254900445 0.4906459788 0.9116560017
C -0.1924998422 0.1002270297 0.5709196155
C -0.1862926266 1.3829157353 -0.2827100861
O 1.1620842193 1.7009463336 0.1360453908
H 4.0549930043 -1.1555179352 -0.6415957374
H 2.4566035034 -1.2465024725 -1.4011908945
H 3.2642003446 0.3231740184 -1.2463563234
H 3.9864062612 -0.3430786281 2.3310364287
H 1.2173306186 0.3385220453 3.1922639958
H 2.157049994 1.6997404599 2.4951736886
H -0.3067701826 -0.8418428326 0.0322165893
H -0.8783895448 0.1120809677 1.4193939174
H -0.2490763449 1.2344773299 -1.3672348802
H -0.8953680363 2.164810107 0.0113490711

