# b3lyp 6-31G(2df,p) opt Freq 

 titel

0 1
C 0.5628999537 -0.3260964067 -1.0904974955
C 0.7271828919 0.276807674 0.2977822934
C 1.5807627807 1.5530830104 0.3725467813
O 1.73204657 1.8804139403 1.7607259314
C 2.6124246602 0.8977095547 1.1938653651
C 4.0860886518 1.0889718738 1.3408730691
C 1.8240347556 -0.4423955135 1.1877300578
C 1.3920576099 -0.9622332691 2.5312976764
O 1.4906651084 -2.1129584159 2.88155604
H 0.1282827418 -1.3286885093 -1.0324596152
H -0.0975318697 0.2923796619 -1.7078249624
H 1.5256718169 -0.4067644539 -1.6071961746
H -0.2432301555 0.3913702663 0.791169255
H 1.6479125013 2.3703608861 -0.3378948135
H 4.4123334615 0.8375829411 2.3562087217
H 4.6322163035 0.4461328235 0.6435000751
H 4.3533619883 2.1307194208 1.1447832615
H 2.3325683596 -1.2353364648 0.6339918979
H 0.9575088203 -0.1887044496 3.2000299855

