# b3lyp 6-31G(2df,p) opt Freq 

 titel

0 1
C 2.8799445049 2.1221228672 1.4489872332
C 3.2313185919 0.6406361419 1.3060542882
C 2.6848751684 -0.0149886424 0.0149885095
O 3.1939816253 0.6561101863 -1.1461089899
C 3.2000082872 -1.463452722 -0.1039244766
C 2.6323348469 -2.2112430381 -1.2958713402
O 2.3969928673 -3.3921924887 -1.2931355539
C 1.2130637967 0.0059839382 0.0070432596
C 0.0111556701 0.0395492625 -0.007317431
H 3.2900554657 2.5252049156 2.3790206652
H 3.3002490834 2.7081940752 0.6253832185
H 1.7964027851 2.2749507768 1.4649500524
H 4.3199699989 0.5154795252 1.2908120098
H 2.8505905337 0.0782617918 2.1658913592
H 2.6727355865 1.4540379359 -1.2823651105
H 4.2888634829 -1.4053541428 -0.2368937299
H 2.996695077 -2.0353208152 0.8042064119
H 2.4680346334 -1.5861960993 -2.1979013449
H -1.0511792053 0.056012262 -0.0248964507

