# b3lyp 6-31G(2df,p) opt Freq 

 titel

0 1
C -0.126397434 1.2936451472 0.1264550051
O -0.0864205732 -0.091770065 -0.3449981138
C 1.3420725702 -0.1834733304 -0.0787883142
C 2.3838809505 -0.1083171656 -1.2093674553
C 1.7927920728 1.2707108776 -1.5966566545
C 1.3781191896 1.3581419771 -0.0777442939
O 2.2992141636 2.0018683067 0.7323067324
C 3.6211610049 1.574131887 0.3325591177
C 3.679905967 0.1917151088 -0.3969866234
H -0.7672027286 1.9253802041 -0.4969752186
H -0.4416250957 1.3473552693 1.1766576168
H 1.5492047471 -0.8119154256 0.7931951847
H 2.5170248845 -0.8987906774 -1.9527761124
H 2.4747529682 2.0328971678 -1.9773468375
H 0.92171956 1.1947715511 -2.2463873948
H 4.040948273 2.34370047 -0.3260914889
H 4.2274331141 1.5551089243 1.241775887
H 4.5458460823 0.212841095 -1.0666777912
H 3.8539222137 -0.6161124421 0.3230844948

