# b3lyp 6-31G(2df,p) opt Freq 

 titel

0 1
C 0.0121881036 0.0891506452 0.0894642283
C 1.5202592169 0.0351836078 0.1142360574
O 2.0555919576 -0.711404872 -1.0655922594
C 2.9770528659 -1.3155972966 -0.1606945451
C 3.558159737 -2.5913737926 0.4742496687
C 3.6422511707 -1.3489958936 1.5438442993
O 4.210210208 -1.3782131343 2.7958654725
C 4.1898139545 -0.4997000811 0.4029107613
C 2.1665739901 -1.0205733578 1.0884212391
H -0.3573755994 0.6240454816 0.9709513202
H -0.3354927766 0.6139247739 -0.8055702752
H -0.4132362472 -0.9183187987 0.0831501161
H 1.955800001 1.0380805492 0.1309103225
H 2.8483897762 -3.3863503438 0.713063753
H 4.5211427217 -2.9776092165 0.1283433695
H 3.6858814701 -1.9588455465 3.3581869415
H 4.065997998 0.5794309468 0.4964017386
H 5.1780217832 -0.7647483869 0.0226039467
H 1.4301198785 -1.7889343139 1.3424510849

