# b3lyp 6-31G(2df,p) opt Freq 

 titel

0 1
C 1.8355395595 -2.3059353668 -0.6193262945
C 0.817203086 -1.3911620947 -1.2377437104
C -0.1767811128 -1.7861051663 -2.3341345448
C -1.4250373556 -0.9264334002 -2.155835165
C -0.6740841073 0.3058461634 -1.6219053964
O 0.3635283696 0.5213346923 -2.6013633954
C 0.9219640032 -0.7875097272 -2.6197310127
C 0.1407772223 -0.2695346434 -0.438634389
O 1.0504558509 0.6471166458 0.1257655582
H 1.3756190169 -2.9845793849 0.1084057466
H 2.3354331653 -2.9214483358 -1.374342718
H 2.5993754986 -1.7219712345 -0.0957190823
H -0.1909252274 -2.774303841 -2.7752314761
H -1.9432218097 -0.7233753362 -3.0973047032
H -2.13793931 -1.3261738145 -1.4291228094
H -1.2212864151 1.2303779139 -1.4520356081
H 1.7408881121 -0.9201840029 -3.3127416692
H -0.4937824193 -0.6341148939 0.3741264999
H 1.4751779829 1.088637687 -0.6215603403

