# b3lyp 6-31G(2df,p) opt Freq 

 titel

0 1
C 0.2228617453 2.8361462263 -1.1824738429
C -1.0558976175 2.3784083101 -0.5055975632
C -2.3362517036 2.7587290635 -1.2246140898
C -1.0864704401 2.3127859077 0.9971067087
C -1.0359454656 1.0343116138 0.1974729727
C -1.9833878661 -0.1562035648 0.1353269431
O -0.8210688917 -1.0515891726 0.1312735797
C 0.0580838779 0.0095967117 0.201471367
O 1.2476144419 -0.0292440813 0.2444168272
H 1.1074560728 2.4650575163 -0.6599847455
H 0.2691670918 2.4723565223 -2.2148982549
H 0.2670647417 3.9307073626 -1.211832612
H -3.2248377836 2.4048757444 -0.6925480595
H -2.4139372222 3.8480190813 -1.3142134431
H -2.3596093915 2.3407944066 -2.2372143773
H -0.1894763155 2.5755803917 1.5487447066
H -2.018153222 2.5374377781 1.507091275
H -2.6053601386 -0.3370879104 1.0153315333
H -2.5652738834 -0.2768396473 -0.7815112752

