# b3lyp 6-31G(2df,p) opt Freq 

 titel

0 1
O 0.4096907331 0.6557713715 0.1107080652
C -0.8200748786 0.9631142893 0.6618946899
C -1.2737184831 0.8763868462 2.1438294675
C -2.5211672291 1.2825978099 1.3142484865
O -3.8268384987 1.4514905951 1.7353007209
C -2.1307297339 0.2621663386 0.2098221412
C -2.5503938542 0.8114681364 -1.1535507019
C -2.1939496294 2.3155047195 -0.9607693187
C -1.6534889299 2.2768854716 0.4674729624
H 1.066395002 1.261091677 0.4712371242
H -1.2867191528 -0.1183607088 2.5970998175
H -0.8691889125 1.6280646198 2.8305932855
H -3.8544123538 2.1838383657 2.3602485549
H -2.2502722955 -0.8022952392 0.4194466208
H -1.9891456034 0.3476650111 -1.9695966744
H -3.6152627417 0.653113537 -1.3459728902
H -1.4420856066 2.6636191025 -1.6756275912
H -3.0669897682 2.9688676658 -1.0524999176
H -1.3005734238 3.2002388211 0.9355104177

