# b3lyp 6-31G(2df,p) opt Freq 

 titel

0 1
C -0.0347462492 1.9678346541 -0.9969592993
C 0.4220919115 1.3660768188 0.3069300232
C 0.4186554231 0.5313356542 -0.9540191837
C -0.6671395868 -0.5088595817 -0.7034214347
C -0.1048258363 -1.7340478004 0.028057866
O 0.6113057739 -1.3441740259 1.193789034
C -0.0994074848 -0.4215347234 2.0107345921
C -0.6620260216 0.7318038553 1.1707255336
O -1.5609363576 0.1481892576 0.2117892808
H -1.0903946235 2.1765784994 -1.1322693147
H 0.6381906553 2.6759731304 -1.4675836219
H 1.3442791237 1.6918915364 0.7721803769
H 1.3382578572 0.2280048561 -1.4391614516
H -1.2504860973 -0.8009182133 -1.5822907043
H -0.9438936019 -2.3983289766 0.2884210262
H 0.6040524045 -2.29149121 -0.5930755119
H -0.9377756269 -0.9185768465 2.5237461625
H 0.6132284678 -0.0692564251 2.7638009005
H -1.2413035509 1.4282298705 1.7850785063

