# b3lyp 6-31G(2df,p) opt Freq 

 titel

0 1
C 0.0295687409 0.0913708075 0.0921884886
C 1.5419663327 0.0419612525 0.0623304111
C 2.2194782928 -0.9456054782 -0.8522920979
O 3.5292098691 -0.67856383 -1.3064399077
C 4.4474126149 -0.8549354084 -0.2572260346
C 4.4939235031 0.1636785508 0.8689574531
C 3.7161219236 -1.1286225013 1.0229955752
O 4.1716754109 -2.1153104451 1.8959443405
C 2.2451851477 -1.1756660446 0.6384970754
H -0.3390629687 0.4315003493 1.0661212606
H -0.3581684757 0.7731118313 -0.672449314
H -0.4023068486 -0.8977110129 -0.0950460566
H 2.0300256093 1.0038485172 0.182802356
H 1.6372297972 -1.5297747402 -1.5582951934
H 5.3547245084 -1.3713878754 -0.5504238289
H 5.4349553947 0.2046497648 1.4088049527
H 3.9857057274 1.1145267256 0.764460944
H 4.0267036849 -1.8039614456 2.7961865187
H 1.6635495052 -1.9556054372 1.1162278271

