# b3lyp 6-31G(2df,p) opt Freq 

 titel

0 1
C 0.8184450583 1.3151733435 -0.064785361
C 1.613821261 0.0346527016 -0.1199577778
C 0.1068898366 -0.0016915053 -0.0305523696
C -0.7467430337 -0.5345714639 -1.169643458
O -1.2702645318 -1.7650752897 -0.6798592641
C -1.5739181746 -1.5762955308 0.6937289803
C -0.6084733864 -0.49930945 1.2043986075
C -0.1028916232 -0.4319451994 2.5760490163
O -1.1436537751 0.4487944013 2.1364155117
H 0.8247263872 1.895263073 0.8521348803
H 0.7398101024 1.9117632398 -0.9679877116
H 2.0684902313 -0.2476857074 -1.0643179654
H 2.1873776761 -0.2546357202 0.7541481673
H -1.5636239731 0.1669786485 -1.4098913458
H -0.1872621253 -0.7452081059 -2.0849300504
H -2.6046551544 -1.2163323466 0.8374370236
H -1.4646805495 -2.5395780148 1.1999186749
H -0.4014345083 -1.189987725 3.3001902269
H 0.8544496526 0.0452126415 2.7866229548

