# b3lyp 6-31G(2df,p) opt Freq 

 titel

0 1
O 0.4060842081 0.2183124147 0.5035524423
C -0.6143419451 0.8027270665 1.3239023583
C -1.0763836697 2.1702147115 0.7986771556
C -2.0448383968 2.0184398237 -0.3795418866
C -3.2486057112 1.1863766336 0.0186994334
C -4.4520943526 1.1756498594 -0.829825446
O -4.444938307 1.9219198627 0.3819821569
C -2.9567880034 0.0276637962 0.8986821524
C -1.7726001804 -0.150342185 1.4898140119
H -0.0285843774 -0.1851741066 -0.2549328007
H -0.125915493 0.9459281732 2.2945463308
H -1.576010882 2.7096870165 1.6122815116
H -0.1952632754 2.7491975997 0.5079141581
H -2.3869576915 2.9913708479 -0.7427538443
H -1.5312791945 1.5238121982 -1.2152000492
H -4.4570183239 1.765251459 -1.7469560469
H -5.1021000985 0.3006255796 -0.8416103519
H -3.7693626388 -0.6764329816 1.0584615488
H -1.594515697 -1.0315115194 2.1005766954

