# b3lyp 6-31G(2df,p) opt Freq 

 titel

0 1
C 1.8647606908 2.6190379236 1.2719024274
C 0.4055667869 2.6277582247 0.7997802463
C -0.4554658473 3.5468080352 1.6758480347
C -0.1725933449 1.1980866836 0.7870649019
O 0.6705777148 0.3952576767 -0.0895904848
C 0.8383735125 -0.8941114141 0.2482416483
O 0.3772545537 -1.4495421784 1.2054005054
C -1.5491129726 1.1308611408 0.3049913326
C -2.679326087 1.086332503 -0.0996142334
H 1.9416240962 2.2497111522 2.3015969624
H 2.4898614272 1.9886927886 0.6360004545
H 2.2736929807 3.6336733635 1.2530928513
H 0.3699726507 2.9924477333 -0.2342514589
H -0.4595175076 3.2057704464 2.717830846
H -0.0534150879 4.5641238742 1.6624768116
H -1.4904038129 3.5832221071 1.3276831144
H -0.1169022895 0.7605428407 1.7898068403
H 1.4871618999 -1.3653035554 -0.5063168192
H -3.6810722838 1.0350793143 -0.4491108809

