# b3lyp 6-31G(2df,p) opt Freq 

 titel

0 1
C 6.8582516699 0.3050255738 2.3600185688
C 6.0599227179 -0.0011522006 1.105608789
O 6.5939437113 -0.2923121147 0.0597521766
C 4.5438527285 0.0793583807 1.2353311369
C 3.8137132623 -0.2564800835 -0.0748041643
C 2.3641464859 -0.1643871876 0.0493974412
C 1.1668331671 -0.0967632096 0.1697623311
C -0.2833798725 0.0387625343 0.2995757701
O -0.8456332124 1.0057915223 -0.5781162465
H 6.5928256248 -0.3943485167 3.1608637133
H 7.9251921264 0.2306629416 2.1472645884
H 6.6235721442 1.3103755826 2.7271259126
H 4.2232751047 -0.5942892339 2.040411189
H 4.2750452354 1.0861922194 1.5801678546
H 4.1674329322 0.4155592479 -0.8648116624
H 4.1036567902 -1.2615983116 -0.4010816234
H -0.7758773489 -0.9080640853 0.0508237223
H -0.5361548584 0.2590560247 1.3496504573
H -0.3304219486 1.8133886464 -0.4818048645

