# b3lyp 6-31G(2df,p) opt Freq 

 titel

0 1
C -1.0666850666 -0.7984855136 -2.5770179003
C -1.5376645254 -0.1076836746 -1.3103270161
O -2.2860127449 0.8400062942 -1.3236768941
C -1.0108189062 -0.6913471524 0.0120730237
O -0.9883150021 0.2667042905 1.053870966
C -2.2422036736 0.2404990686 1.746237003
C -2.7375679083 -1.1881759645 1.6237506988
C -1.7226931786 -2.2642317826 1.9133434427
C -1.9435761496 -1.8019425245 0.495361057
H -1.1338388731 -1.8880940037 -2.4862627895
H -1.6516172685 -0.4549978811 -3.4309245838
H -0.0093615181 -0.56057326 -2.7457975874
H 0.0221609684 -1.0353724376 -0.130439838
H -2.0417865607 0.5579187131 2.7751765161
H -2.9533066297 0.9359338823 1.2851711326
H -3.7946331172 -1.3894183446 1.7471818068
H -0.7990154189 -1.9768961266 2.4062416334
H -2.0933626358 -3.2488007481 2.1759425006
H -2.3969070011 -2.4689244149 -0.2282116014

