# b3lyp 6-31G(2df,p) opt Freq 

 titel

0 1
C 1.5281521464 -0.0204341146 0.071901681
C 0.073805694 -0.0269339004 0.028074205
C -1.1305044033 -0.0339912186 -0.0025489475
C -2.5813214255 -0.0396671758 -0.0467433424
C -3.2586852719 -0.5770400688 -1.3390871558
C -3.8271759717 -1.6802098818 -0.4277884396
C -3.3184882023 -3.0974953862 -0.6355433138
O -3.5520548038 -3.877307028 0.5190845038
O -3.1889623618 -1.1032916611 0.7449383711
H 1.9041600073 -0.839059609 0.6952665652
H 1.9573130952 -0.1422910336 -0.9286456317
H 1.9111047703 0.9175192938 0.4883517362
H -2.9705797533 0.9324782169 0.2802604493
H -3.9926993974 0.0981655209 -1.7789109656
H -2.5649250642 -0.9193584107 -2.1081124404
H -4.9166729327 -1.6841861827 -0.3041129739
H -3.8488168743 -3.5763874382 -1.4669246638
H -2.2465382039 -3.0621541461 -0.8906942104
H -3.1779528373 -3.372278896 1.2522908134

