# b3lyp 6-31G(2df,p) opt Freq 

 titel

0 1
C 2.5050827524 -0.7857741837 0.0669695657
C 2.7536068486 -0.7152047313 -1.4974167987
C 1.2214582531 -0.5898142261 -1.677800166
C 1.2870173031 0.0701991228 -0.3097930478
O 0.2534169914 0.8284012836 0.2920329856
C 1.4484289082 1.505586187 -0.1617737795
C 1.7462266673 2.2543220857 -1.435178411
C 3.1945642756 1.7784880033 -1.7593196925
O 3.4479007625 0.3961009393 -2.0474634243
H 2.290699035 -1.8211959869 0.3490390136
H 3.2478610791 -0.3548324101 0.7402293647
H 3.2518168998 -1.5835318663 -1.9306386869
H 0.8587215977 -0.0416407417 -2.5467822492
H 0.7270557929 -1.5645638112 -1.6219269443
H 2.0572069825 1.8392530887 0.6806323356
H 1.0463851619 2.027634207 -2.2409759507
H 1.7731052054 3.3426347511 -1.3092624831
H 3.5666260874 2.3064229544 -2.6427732197
H 3.8294937064 2.0821307743 -0.9121714912

