# b3lyp 6-31G(2df,p) opt Freq 

 titel

0 1
C 1.4881525986 -0.0061673147 -0.0318528453
O 0.0824937287 0.1544287809 0.0029734673
C -0.370107895 0.7139816538 1.1918291069
C -1.7868224376 0.3931138969 1.5191619787
C -2.2318202065 1.187423797 2.7567629156
C -1.0978794358 0.4922916647 3.5425748698
C -1.0813172055 0.0821109246 4.9446147831
O -0.2327375955 1.1368773127 4.4671330014
C -0.6390200928 -0.2614098613 2.3234231076
H 1.8408062721 -0.6789891 0.7623761629
H 1.7372051546 -0.4355758983 -1.0047664534
H 2.0063239712 0.9581201348 0.0762056048
H 0.0414237396 1.7031190325 1.4126240983
H -2.4344008041 -0.0736167488 0.7894091448
H -2.1615984186 2.2771880143 2.6821851171
H -3.22593248 0.9147550445 3.119066233
H -1.8876884663 0.392537017 5.6089849713
H -0.5670618341 -0.8328660502 5.2382999987
H -0.2607114929 -1.2753892104 2.2814453775

