# b3lyp 6-31G(2df,p) opt Freq 

 titel

0 1
O 0.499760146 0.7134927776 1.0826921154
C -0.7572860921 1.032819059 0.5320255694
C -1.6637796336 -0.159657857 0.1359099351
O -2.6930283992 0.2558971788 1.0498918769
C -1.9011364614 1.363847233 1.5396903493
C -2.632650793 2.6914859365 1.3832423732
C -2.7140240617 3.121782259 -0.0591984273
C -1.7535624641 2.8377552631 -0.9373795916
C -0.5107040882 2.0736143174 -0.5588847793
H 0.3771284856 0.0230760164 1.7433419972
H -2.0183915091 -0.1789500166 -0.9016903487
H -1.2422208559 -1.1424371735 0.3920858084
H -1.6012513241 1.2029215727 2.5856530117
H -3.6319576812 2.5881551444 1.8209768568
H -2.1137404878 3.4569742422 1.9793575346
H -3.5825316644 3.6968445141 -0.3670960742
H -1.833182935 3.1835105724 -1.9639935712
H -0.0714474126 1.5776437489 -1.4317549749
H 0.2592942017 2.7629222715 -0.1854271408

