# b3lyp 6-31G(2df,p) opt Freq 

 titel

0 1
C 1.0138519416 -0.3382552997 -0.9508765276
C 0.7899400568 0.2039460433 0.4624320416
C 1.6695129994 -0.5007803977 1.4894755312
O 1.4590666361 0.154473681 2.7968570648
C 2.6771627096 0.8847087112 2.5964974699
C 3.0741295225 0.1338139564 1.3703827877
C 2.6388073087 1.5853668429 1.254320111
C 1.2391078837 1.6941562287 0.6322542849
O 0.344868527 2.459220312 1.4202531069
H 0.7514673368 -1.3993470402 -1.0195629871
H 0.4010831056 0.2064727575 -1.6756309626
H 2.0614955349 -0.2322865604 -1.2548650453
H -0.267948174 0.1251780996 0.7330896999
H 1.5748393051 -1.5846506546 1.5745820353
H 3.2199428768 1.2183920603 3.4723751015
H 4.0051454583 -0.3096135774 1.0482766696
H 3.3829464053 2.3534148137 1.0780671055
H 1.2797546315 2.1997399157 -0.3371506302
H 0.278720114 1.9912985677 2.2627732428

