# b3lyp 6-31G(2df,p) opt Freq 

 titel

0 1
C -0.2046607033 -0.138424566 -0.1401532116
C 1.3068792768 0.0297321242 0.056214519
O 1.7707540191 -0.6703331896 1.2064773365
C 1.7608541627 0.0740420492 2.4166496849
C 2.6890120779 1.2841255829 2.3286543029
C 2.3923228941 2.0435237676 1.0644854435
C 1.7293785518 1.4835847309 0.0544670836
C 2.0783784364 -0.611424781 -1.1104735211
O 1.6851319533 -0.6544619297 -2.2451711285
H -0.757538667 0.3867147077 0.6429414896
H -0.5016536566 0.2620441857 -1.1121533408
H -0.465013476 -1.199708401 -0.1096578669
H 0.7404448935 0.407919296 2.6572086752
H 2.077920969 -0.6248312308 3.1950994273
H 2.5453270417 1.9278808323 3.2052484073
H 3.7389720801 0.9626144531 2.3491324473
H 2.7045206335 3.0824292485 1.0011984625
H 1.4807348991 2.0404062982 -0.8441739085
H 3.065977084 -1.0121552582 -0.7966806621

