# b3lyp 6-31G(2df,p) opt Freq 

 titel

0 1
C 1.2019943891 -0.0363866738 -0.4898061344
C 0.9480102823 1.399450849 0.0234945224
O -0.4451745641 1.0191499065 0.2652019483
C -0.2593501998 0.2006892034 -0.9346364813
C -0.1357888674 1.2715966885 -2.0405890797
C -1.3831107824 2.1381760771 -2.2873058646
O -0.9533222857 3.4904193694 -2.1864397144
C 0.0333323933 3.5445778911 -1.1631926533
C 0.8351335779 2.235632635 -1.270066572
H 1.9706677497 -0.2037921149 -1.2489784692
H 1.2740546324 -0.7592378425 0.3237696578
H 1.4467480229 1.8266393404 0.8936586283
H -0.9943199803 -0.5970454077 -1.0435148134
H 0.2848560056 0.8744503325 -2.9666991875
H -1.8166978854 2.0062027464 -3.2821836277
H -2.1531807164 1.9193472382 -1.532515458
H 0.6351597647 4.4406912723 -1.3363413164
H -0.4398091487 3.6205609293 -0.1727550425
H 1.7976188923 2.3765023797 -1.7661750026

