# b3lyp 6-31G(2df,p) opt Freq 

 titel

0 1
O -4.926573065 -0.213174944 2.3358185248
C -3.646503727 0.2710033203 2.0407575287
C -2.9177878555 1.0246291395 3.1142526774
C -2.4751939442 -0.4042718051 2.6988167448
C -1.116120354 0.1521759669 2.224920551
C -0.9644317196 0.6257094922 0.7404705378
O 0.3175318112 0.4952130252 0.1689705082
C -1.3869287176 2.072266554 1.1760072192
C -1.5574384168 1.5861122335 2.6469559689
H -4.9450491705 -0.4930086355 3.2573473781
H -3.6284361335 0.5840198495 1.00205405
H -3.4540363248 1.3558979148 3.9976666437
H -2.618098426 -1.3533707215 3.2051942468
H -0.2378764041 -0.3307290605 2.657278658
H -1.6413723236 0.1363256204 0.0360809973
H 0.9546349187 0.911022179 0.7599705394
H -0.5578795016 2.7763523235 1.0532565939
H -2.2672185846 2.496991744 0.686559322
H -1.0176831315 2.1371040836 3.4176632801

