# b3lyp 6-31G(2df,p) opt Freq 

 titel

0 1
O -0.7901737427 0.6386574653 0.4705160235
C -2.0257981145 0.0482905791 0.2222536664
C -2.2903322963 -1.3906645195 0.6376289225
C -3.7892857074 -1.5286235614 0.3039615544
C -4.4044718312 -0.1934002012 0.7822945729
C -3.3485124174 0.8010299252 0.3259638582
C -2.7426044546 0.4582858436 -1.0268983325
C -3.4161195984 -0.6031107817 -1.8776731752
O -3.9635971003 -1.6728539014 -1.1028251587
H -0.6670989056 0.6824624813 1.4258396469
H -1.6884363463 -2.1255448401 0.0953515473
H -2.1099440439 -1.5200625359 1.7135400127
H -4.2566629151 -2.4105645878 0.7452856505
H -5.3923669799 -0.0418794323 0.3360287982
H -4.517348874 -0.1784749849 1.8732085256
H -3.3717594704 1.838025878 0.6400490138
H -2.2930171534 1.2796363614 -1.5753238101
H -4.228352063 -0.1522725232 -2.4660186835
H -2.6974085853 -1.0293011542 -2.5919218828

