# b3lyp 6-31G(2df,p) opt Freq 

 titel

0 1
C 0.9190472102 -1.9662597445 1.4465803823
C 2.3512978349 -1.9662059768 0.9494011574
C 2.6661889192 -2.4273614541 -0.4611039763
C 3.0178753961 -3.3331327697 0.6757317637
C 4.4357922328 -3.6216004384 1.0312845722
C 4.94673132 -4.9990509394 1.0246060211
O 4.6384760954 -4.3440261013 2.2543955997
C 3.2162683638 -0.8859180066 1.4999459603
O 4.3014544451 -0.5690534492 1.0697211662
H 0.8765303659 -2.0513787847 2.5380344837
H 0.3972173865 -1.0463433113 1.15984049
H 0.3596364465 -2.8067545294 1.0268240367
H 1.829259617 -2.6911988807 -1.098146026
H 3.4812648596 -1.9050292283 -0.951035884
H 2.3504399757 -4.170656048 0.8614200872
H 5.1389758679 -2.8086767114 0.8679909161
H 4.2819563401 -5.8181538766 0.7507898921
H 6.0044382085 -5.1811122395 0.8385950743
H 2.7824814648 -0.35960912 2.3798371333

