# b3lyp 6-31G(2df,p) opt Freq 

 titel

0 1
C -2.7674500803 2.0749110688 1.7854460022
C -2.3503890749 1.328600937 0.5611092777
C -2.922553645 1.2406091527 -0.8273084183
C -3.0005303319 -0.2906126053 -0.8001392709
C -1.9057542792 -0.2052717735 0.2742301071
O -1.7166104641 -1.2173955252 1.1841695367
C -0.6630192923 0.3618143135 -0.460882568
O 0.4486355257 0.4412867586 0.4238697932
C -1.450896939 1.6496635687 -0.6222950518
H -3.6537114065 1.6212629467 2.2434200857
H -1.9781626444 2.0874633815 2.5467745498
H -3.0124952387 3.1160790696 1.5472070999
H -3.6155906732 1.9296147906 -1.2928888307
H -3.9532535329 -0.628911469 -0.3834939733
H -2.768516692 -0.8600872734 -1.7080005405
H -0.7950725447 -1.1388884829 1.474030901
H -0.3082072354 -0.1794088285 -1.345051899
H 0.2901051586 1.1835390539 1.0191081557
H -1.0835207699 2.6145930862 -0.9513191167

