# b3lyp 6-31G(2df,p) opt Freq 

 titel

0 1
C 0.1519109884 1.5063782756 0.1012119706
C 0.0315054304 -0.0034618096 -0.0149010215
O 0.3504100905 -0.453504043 -1.326153445
C -1.2801051098 -0.7109238557 0.5313443054
C -0.3679408906 -1.8706033203 1.080740943
O -0.412615783 -2.3207267355 2.4212618469
C 0.7960387445 -1.8824744089 3.0703452114
C 1.3731940119 -0.8004428075 2.1681611327
C 0.7456962863 -0.8793581786 1.0018129632
H 1.1570741454 1.8289212661 -0.1864573062
H -0.5662086042 1.9993836815 -0.5657496844
H -0.0501744357 1.8432691218 1.1212046983
H -0.2736524373 -0.0405098551 -1.9334890071
H -1.7414042746 -0.1511263996 1.3472623599
H -2.0207692554 -0.974666297 -0.2289391338
H -0.3384395474 -2.718196369 0.3861000737
H 0.5425235043 -1.4843159483 4.0620178035
H 1.4724602989 -2.7388828701 3.2236278801
H 2.0560588074 -0.0386001467 2.5223159294

