# b3lyp 6-31G(2df,p) opt Freq 

 titel

0 1
C -0.5439973443 2.2961419782 1.0636866179
C -0.8888145136 1.1839473169 0.075414322
C -2.359145355 0.6880813208 0.1110178427
C -2.3145844012 -0.8016424006 -0.2300323805
C -1.5598205882 -1.1845334907 -1.4741237029
C -0.8678589324 -1.2787869846 -0.1298591538
O -0.4523634529 -2.5039459308 0.3518736037
C -0.0845471045 -0.0957415878 0.3164154706
O 0.9714106766 -0.1981612971 0.902864975
H -0.7896550422 1.997264258 2.0876917471
H 0.5253598536 2.5193722933 1.0317084918
H -1.0994660888 3.2097773426 0.8325105139
H -0.6414898865 1.5278106649 -0.9389785232
H -2.7596486768 0.8212351708 1.1225487884
H -3.0045212607 1.2514953222 -0.5717190595
H -3.1187923876 -1.4489357166 0.1000496191
H -1.7934603212 -2.1552681166 -1.8978548336
H -1.2689055954 -0.4305443635 -2.1995019308
H 0.366308351 -2.3150260894 0.8364591821

