# b3lyp 6-31G(2df,p) opt Freq 

 titel

0 1
C -2.1582387963 -2.4843908395 -1.9202663526
C -1.868181857 -1.2073497954 -1.165061525
C -0.6537921302 -1.2526497677 -0.2490986162
C -0.0585822973 0.0959018473 0.1586505951
O 1.0834331897 0.173570161 0.5471108731
C -0.9735836361 1.3020127929 0.0567533846
C -1.6519134268 1.3824334931 -1.3222334102
C -2.3507504958 0.087936751 -1.6737474862
O -3.0308341294 -0.573379173 -0.5970770111
H -2.2781975231 -3.3229682648 -1.2253423622
H -3.0801513819 -2.3866310588 -2.4986923937
H -1.3383406383 -2.730182124 -2.6033922815
H -0.9333007896 -1.7798877531 0.6741682545
H 0.1508477288 -1.8404450724 -0.7013587193
H -1.754260856 1.1926596273 0.8187366416
H -0.392984097 2.1995368136 0.2780287892
H -2.3744339136 2.2065183897 -1.3322174819
H -0.9125841089 1.6057678477 -2.1022831519
H -2.9042191013 0.0913810753 -2.6142027261

