# b3lyp 6-31G(2df,p) opt Freq 

 titel

0 1
O 0.6501946638 0.2494860617 0.8894283003
C -0.7355265278 0.3434943177 0.7494895495
C -1.6012824081 0.5282312795 2.0215087559
C -3.0074704438 0.656572364 1.3371386281
C -2.9502104346 -0.4894316084 0.2269678267
C -1.5866965861 -1.0077973843 0.6373951863
C -0.6956863198 -2.239118097 0.7445438193
O -0.4000045278 -1.8597385741 2.1386821063
C -1.5991245086 -1.0077186082 2.1734999115
H 0.8148977906 -0.4085580789 1.581262862
H -0.9143838435 1.0574912677 -0.0595387362
H -1.3736409351 1.2527538928 2.8056658355
H -3.8264853265 0.4898054319 2.0417564467
H -3.1344287034 1.6508003479 0.9021033485
H -3.7547414135 -1.2183239996 0.3537971172
H -3.0046383289 -0.0876531222 -0.7883255516
H -1.209926483 -3.2068539548 0.7111019026
H 0.213747169 -2.2627670426 0.1379748928
H -2.3805343427 -1.4829333333 2.7753235885

