# b3lyp 6-31G(2df,p) opt Freq 

 titel

0 1
C -0.0666716083 0.0408484733 -0.0917013159
C 1.4065768031 -0.1129559567 0.1199540813
C 2.3006964354 -1.3653339993 0.1113840355
C 3.1913603754 -0.0977478133 0.0934098954
C 4.6147260472 0.0343480176 0.5537260771
O 4.4559862189 -0.0911866579 1.9839245452
C 3.0670919697 0.06745729 2.4186624877
C 2.347896296 0.5671339636 1.1780983765
O 2.3172480443 0.4741020081 -0.9485865656
H -0.6120803806 -0.4244118106 0.7353375416
H -0.3401667757 1.0989074331 -0.137014641
H -0.3726081828 -0.4403967222 -1.0253435332
H 2.3106483019 -2.00698663 0.9940658637
H 2.2916593844 -1.9292125866 -0.8218360235
H 5.2898754001 -0.7593357942 0.2204118471
H 5.0397581178 1.0113729663 0.286297841
H 2.7090389283 -0.8933488404 2.8045674103
H 3.0590288718 0.7915384298 3.2384342766
H 2.3383049832 1.6555975095 1.0894146903

