# b3lyp 6-31G(2df,p) opt Freq 

 titel

0 1
O -0.1239089857 1.4156764843 0.0393446288
C 0.030258222 -0.0087818364 0.010968065
C -1.403976851 -0.5333162603 -0.1571826749
O -1.5086455189 -1.8298585448 -0.7071186894
C -0.841862394 -2.8650901433 0.0162886572
C -1.2147984766 -2.9182060448 1.4707566534
C -0.6069677012 -2.1935519042 2.4189292377
C 0.5255237581 -1.2823631152 2.2368865657
C 0.8097551778 -0.43958691 1.2335645824
H 0.6970922485 1.8041981163 0.3578382792
H 0.6011124505 -0.2989179503 -0.888049308
H -1.9392489163 -0.4445174021 0.7962018195
H -1.8945503953 0.1252277284 -0.8784418516
H -1.1307028641 -3.7887334713 -0.4925650753
H 0.2481951244 -2.7533618842 -0.0797765493
H -2.0433427248 -3.5625944552 1.7519746621
H -0.9264393973 -2.3236607103 3.4518229341
H 1.2424559688 -1.3045996425 3.0576990513
H 1.7581431654 0.0964320361 1.3181942419

