# b3lyp 6-31G(2df,p) opt Freq 

 titel

0 1
C 0.6658873873 0.7617748113 -1.9806140654
C 1.9551374995 0.382808264 -1.3104150688
C 3.1798090637 -0.2546101248 -2.0238910198
C 3.6203950256 -0.4842421977 -0.5515810991
C 2.0977188463 -0.7284843048 -0.2332284587
C 3.7362374948 0.9766008696 -0.0688370484
O 2.5381657042 1.527426846 -0.6446430585
C 4.6581185808 -1.4673398721 -0.1325884307
O 5.3048083049 -2.1483332989 -0.8898508171
H -0.0470436635 1.1522344201 -1.2479995834
H 0.8410970733 1.5375939798 -2.732151796
H 0.2203859288 -0.1061600557 -2.4741046798
H 2.9543774761 -1.1886216173 -2.5395090075
H 3.7908616775 0.4015208846 -2.6472957414
H 1.7577903062 -1.7099137608 -0.5675899665
H 1.7358107928 -0.500649875 0.7720683385
H 3.7222062254 1.0795165586 1.0230383271
H 4.6209731017 1.4867377354 -0.4667550867
H 4.7945818247 -1.5528705322 0.9714500022

