# b3lyp 6-31G(2df,p) opt Freq 

 titel

0 1
C 1.4533848799 0.2375530781 -0.157471256
O 0.1274323873 -0.1586873914 0.1134891289
C -0.4862327287 0.5075458499 1.2020982312
C -1.9919065683 0.4342153951 0.9900423039
C -0.0527801399 -0.1572093211 2.5377663849
C -0.5171309453 0.5515308181 3.7170288867
C -0.909037514 1.1797839483 4.6726318098
C -1.3665314343 1.8854139086 5.8403855668
O -1.7021494295 3.0480812579 5.853957554
H 2.1488676058 -0.0109289874 0.6585087118
H 1.771310963 -0.3009356971 -1.0533593712
H 1.5211576314 1.3191251615 -0.3488653903
H -0.1662029524 1.5609682298 1.2246183141
H -2.5227062702 0.9142137972 1.8163147767
H -2.2647815484 0.9339784059 0.0575717173
H -2.3126934577 -0.610497128 0.9250432275
H -0.4149950949 -1.1928266916 2.5483668512
H 1.0421929297 -0.2119213949 2.5762455944
H -1.3912400438 1.2677620311 6.7615632383

