# b3lyp 6-31G(2df,p) opt Freq 

 titel

0 1
C -3.0973955536 -0.0557696844 1.1015132149
C -2.0846768757 0.1684201047 -0.010944457
C -0.9782517813 1.2506821047 0.1992417504
C 0.0226676973 0.2460132351 -0.3866455777
O 1.0921914947 0.3456951807 -0.9122676007
C -0.9751524514 -0.9208877409 -0.2219831988
C -1.1103775005 -1.9240048799 -1.3322341669
C -1.7698118272 -3.2234859899 -1.1301499186
O -0.3498017023 -3.127034697 -1.2195451406
H -3.7337347615 -0.9219469099 0.8909496588
H -2.5949056204 -0.2339002102 2.0592171919
H -3.7508434955 0.8143316538 1.2243404319
H -2.6000854148 0.3513790475 -0.9603459199
H -1.0711179748 2.2105358511 -0.3138238396
H -0.7774590364 1.4366746261 1.260912633
H -0.7700419927 -1.4466434015 0.719183771
H -1.1208588773 -1.5032416615 -2.3389427081
H -2.1608065295 -3.4808951798 -0.1461833915
H -2.261844337 -3.7159241585 -1.9677659825

