# b3lyp 6-31G(2df,p) opt Freq 

 titel

0 1
C -2.6872173318 0.1887529462 3.8569254094
C -3.0383526909 0.0452168223 2.4052697904
C -4.3573648615 -0.5328461647 1.8014728832
C -4.5845042566 0.7821408621 1.0247591302
C -3.1099597068 1.1814523811 1.2931264385
C -2.1035180759 0.3679877418 0.4335397071
O -0.7733666823 0.8408542982 0.5156552748
C -2.367032154 -0.871706294 1.3305618706
O -3.625762219 -1.5003710521 1.0154892639
H -2.7376963541 -0.7772271549 4.3721211276
H -1.6721348881 0.5818232691 3.9908485816
H -3.3724414843 0.8762334096 4.3661737344
H -5.1827395644 -0.9925240663 2.3497444766
H -4.9203263073 0.6940168296 -0.0120867541
H -5.2684589171 1.4384437285 1.5734315957
H -2.869936587 2.2341039817 1.4531778069
H -2.3256962944 0.2487790003 -0.6299514169
H -0.5727201416 1.0348916689 1.4380883603
H -1.552616213 -1.5861955074 1.4800944595

