# b3lyp 6-31G(2df,p) opt Freq 

 titel

0 1
O 1.319818154 -0.2200808285 0.1374490005
C 0.1302889121 -0.1220421965 0.0166562587
O -0.6541061873 -1.2316944786 -0.0891530761
C -2.0685933716 -0.9476400153 -0.2289702714
C -2.2730504666 -0.126273463 -1.5066401344
C -1.4462907714 1.1819576342 -1.3837649621
C -0.6821858596 1.1604063226 -0.0387474085
C -1.705201229 1.1261873411 1.1212814006
C -2.5335563186 -0.1824713516 1.0149008589
H -2.5460270166 -1.9265533931 -0.3001109674
H -1.9458263354 -0.7196254608 -2.3646725401
H -3.3398085691 0.0773543073 -1.6416828267
H -0.7416399548 1.2776131126 -2.2140337748
H -2.0911135702 2.0662634216 -1.4090393011
H 0.0001139185 2.0061356427 0.0506028685
H -1.1856216299 1.1820889326 2.0814585173
H -2.3456575736 2.0113960461 1.0530487873
H -2.3857544368 -0.8145412546 1.8946772282
H -3.6063397639 0.0197642811 0.9380262726

