# b3lyp 6-31G(2df,p) opt Freq 

 titel

0 1
C 0.6822017702 0.7012968087 -0.0064594119
C 0.8636679855 -0.7956929364 0.2138789235
C 1.5417751823 -1.5362554345 -0.9950136181
O 1.1417575689 -2.8947644048 -1.0918862173
C 1.5636543255 -3.5375285962 0.1160191075
C 2.5583538646 -2.5770786197 0.7567610927
C 2.894631071 -1.4980804254 -0.2434329408
C 2.1313397928 -1.1359034171 1.0104485739
O 2.6183053501 -0.4053608391 2.079316703
H 0.4525712306 1.2130244324 0.9331177794
H 1.5958280494 1.1533638109 -0.4081773264
H -0.1338054728 0.8950997033 -0.7101819428
H -0.0750692466 -1.2542483267 0.5495403268
H 1.4458733843 -1.0704734191 -1.9752710412
H 0.6956148988 -3.7411966747 0.7586385345
H 2.0295222119 -4.4966772657 -0.1399985121
H 3.3465875036 -2.9533053512 1.3983518612
H 3.8822430184 -1.2420162519 -0.6001909766
H 2.1938060815 -0.7232253029 2.8840430247

