# b3lyp 6-31G(2df,p) opt Freq 

 titel

0 1
C 2.8881328332 -2.5651192099 2.2862810061
C 2.1909148361 -1.3927061508 1.5760268541
O 2.3430989595 -1.4978576299 0.1666979356
C 1.2193261029 -1.3186739486 -0.6609890412
O 1.0868287974 -2.3519866348 -1.6004068494
C 0.3453446181 -3.5021339959 -1.1858815345
C 0.7929765488 -4.001437594 0.1097216474
C 1.3061504671 -4.0887209589 1.1949843571
C 2.0161829715 -3.8417290425 2.4414516502
H 3.789966166 -2.8021122674 1.7138708051
H 3.2096496982 -2.2434615803 3.2832273981
H 1.1267110138 -1.3531176029 1.8501792033
H 2.6474075221 -0.4490976707 1.9065961115
H 0.3075117029 -1.2117993884 -0.0509837307
H 1.3660843687 -0.4153401354 -1.2656901603
H -0.7287572757 -3.2597363375 -1.1466466735
H 0.4827396758 -4.23723402 -1.9849776864
H 1.2968538048 -3.6987176381 3.258536126
H 2.6466888687 -4.6898354938 2.7322446415

