# b3lyp 6-31G(2df,p) opt Freq 

 titel

0 1
C -1.0424122774 0.8501086202 -1.070058476
C -1.0258108898 -0.2659206674 -0.0241190322
O -2.0750929079 -1.1515528195 -0.3907616151
C -2.0369063429 -2.4044197878 0.2655511529
C -0.7922938263 -3.190547445 -0.1534851534
C 0.4113475332 -2.3087759144 -0.0317892901
C 0.313914718 -0.9752512201 0.0646540078
C 1.5389446026 -0.1773143163 0.3191799929
O 2.6656447595 -0.620469085 0.3191479113
H -0.3445467063 1.6515934379 -0.8143905668
H -0.7755900208 0.4499168375 -2.0520529852
H -2.04811002 1.2742412839 -1.1282695512
H -1.2554291897 0.174796202 0.9648108411
H -2.0411545825 -2.2706354873 1.3595781021
H -2.9566062794 -2.9248463908 -0.0145365362
H -0.6722260187 -4.0873933897 0.4670170483
H -0.8988706302 -3.5449403321 -1.1881400013
H 1.4009988549 -2.7555071147 0.0192093034
H 1.3640007135 0.8994110985 0.5370677678

