# b3lyp 6-31G(2df,p) opt Freq 

 titel

0 1
C 1.274103387 -0.315400351 1.2143166317
C 0.890077525 0.2992103425 -0.1419513935
C 1.715038436 1.498143947 -0.5047116999
C 1.2827729111 2.7780616713 -0.6278105672
O 2.3315477976 3.6118202085 -0.9613464694
C 3.4279788366 2.8253464336 -1.0439081191
O 4.5952590831 3.395848858 -1.3590788424
C 4.5915141147 4.8017813123 -1.5958672015
C 3.1317028649 1.5253948491 -0.7774198772
H 0.6568304462 -1.191975559 1.4350928195
H 2.3222006005 -0.6304562228 1.2228928833
H 1.1401783329 0.4104174561 2.0223152867
H 0.9927161881 -0.4653991545 -0.9229498615
H -0.1685305912 0.5825935334 -0.128447581
H 0.3242440421 3.2579195981 -0.5284866356
H 4.2633957403 5.3527036369 -0.7084826227
H 5.6231322938 5.0629181768 -1.8335381148
H 3.939218096 5.0610252456 -2.4361422201
H 3.8249956453 0.7006952483 -0.7794716752

