# b3lyp 6-31G(2df,p) opt Freq 

 titel

0 1
C -0.7550662858 -3.4145787873 0.8693608035
C -1.4236316596 -2.2887853919 1.6264781441
O -1.6871612388 -2.5999355051 2.9669996025
C -2.3791860823 -1.3390484852 0.9512454694
C -1.0093919858 -0.8387139526 1.4215655584
C 0.039757224 -0.4748068995 0.3742633775
O 1.3598892727 -0.6817871557 0.8349947875
C -0.9390123055 0.0160770052 2.5770972092
C -0.7863281391 0.7784309148 3.4959373487
H 0.2061003353 -3.6623253129 1.3274331071
H -1.3917825852 -4.3073812066 0.8995029483
H -0.5867822396 -3.1714847604 -0.1814853188
H -2.3737191079 -3.2761935322 2.9821061973
H -2.5308788188 -1.4155875551 -0.1210232127
H -3.2402589307 -1.0106292503 1.521066063
H -0.0748812574 -1.0974618748 -0.5165624406
H -0.1235959674 0.5700956102 0.0683977714
H 1.4506355787 -0.1881665735 1.6590303613
H -0.6856536268 1.4312424728 4.3272259625

