# b3lyp 6-31G(2df,p) opt Freq 

 titel

0 1
C 0.7307881083 -0.6329634721 1.3111452632
C 1.5448415561 -0.0913637982 0.1643152016
C 1.5196117431 1.4353561975 -0.0780509749
C 2.8783887592 1.6174009255 -0.7933652676
C 2.8896025511 0.7744621423 -2.0905973283
C 2.6542558718 -0.6202311414 -1.4835876153
O 1.2696503568 -0.7677983366 -1.0964044745
C 3.0785047125 -0.3691635656 -0.0039048937
O 3.7623016889 0.8598459898 0.0576484639
H 0.8484551662 -1.7176559257 1.3881927362
H 1.0474305192 -0.1767435977 2.2544539891
H -0.333319541 -0.4163430962 1.1680470146
H 0.6529537028 1.7258709099 -0.6757768287
H 1.5185646204 1.9922253953 0.8636785172
H 3.2448589825 2.63973532 -0.8787859041
H 2.1089411233 1.0369450231 -2.8075623972
H 3.8695586945 0.8438708342 -2.5719779809
H 3.0212657594 -1.4696035652 -2.0613616366
H 3.5687971149 -1.142477179 0.5823817062

