# b3lyp 6-31G(2df,p) opt Freq 

 titel

0 1
C 0.0002871041 -0.0703803414 -0.0306017963
C 1.5103703738 -0.008520155 -0.0284176154
O 2.1071824893 -0.5339999902 1.1332514598
C 2.2870002829 -0.1426937972 -1.3225430421
C 2.2376263768 1.1736587995 -0.5869676008
C 1.6431374161 2.5430668699 -1.0076532787
C 2.8436815136 3.1964253304 -0.2954894272
O 4.0361645329 2.695090846 -0.9054823612
C 3.3905610815 1.8858488306 0.0926801461
H -0.4072931067 0.4437181706 0.8461183762
H -0.4175990772 0.3909050799 -0.9297290819
H -0.3437397917 -1.1114976507 -0.0007317156
H 2.0019024843 -1.4917665571 1.1118868577
H 3.2214020371 -0.6936720992 -1.2910750046
H 1.732512527 -0.2326429912 -2.2518760899
H 1.5747005978 2.7469032583 -2.0793618869
H 0.6854478577 2.7584904249 -0.5252849833
H 2.899108967 4.1608591557 0.1954663006
H 3.9742631937 1.5709707862 0.9476586135

