# b3lyp 6-31G(2df,p) opt Freq 

 titel

0 1
C 1.5005070137 -0.8056179199 -1.0124078333
C 1.3726865677 -0.0784101205 0.3082056336
C 2.1766141639 1.1672166527 0.5114902412
O 1.8112229563 1.8173319712 1.7358098703
C 2.2745493992 0.6779281942 2.4945179867
C 3.3470807405 0.924086128 3.5706396885
O 2.5456666012 0.2527783516 4.5648677405
C 1.4214220113 0.1593132398 3.6634364992
C 2.5874341792 -0.0982998899 1.2250874456
H 1.3157489194 -1.8783621591 -0.8936268994
H 0.7850135612 -0.4184564947 -1.7450592663
H 2.5051051966 -0.6891908857 -1.4336945689
H 0.3849920918 -0.1015876297 0.7659398904
H 2.6406149043 1.7634306166 -0.2656478073
H 4.3205117725 0.4408602346 3.4245950092
H 3.4902462304 1.9893830291 3.792217391
H 1.0354333473 -0.8632891735 3.5798288802
H 0.6075010096 0.8418004266 3.9396724374
H 3.4313090139 -0.7595286514 1.0773128013

