# b3lyp 6-31G(2df,p) opt Freq 

 titel

0 1
C 0.9245363629 0.1966364269 -3.2929926493
C 0.0565927479 0.4500377742 -2.0915505023
O -0.6481994071 -0.7802607539 -1.6459322098
C -1.8612128564 -0.02465089 -1.5795223382
C -1.6779069946 1.2246365982 -0.7428858657
C -0.4418407541 1.2791558913 0.1436586867
C 0.7494891823 0.9613693183 -0.8155025394
O 1.668021006 0.0141703343 -0.3146011929
C -1.2849440681 1.2026130614 -2.2108613914
H 1.7555619107 -0.4583684752 -3.0159133686
H 0.3528545029 -0.2740450387 -4.0965963219
H 1.3415017786 1.1397806715 -3.662817533
H -2.7960090028 -0.5543515783 -1.7211508491
H -2.582910771 1.7519104715 -0.461038291
H -0.3332684952 2.2644515432 0.6054937297
H -0.4680658336 0.541667164 0.9519325878
H 1.3308030977 1.8645531762 -1.0319524577
H 1.1715350565 -0.8141903894 -0.2584597622
H -1.6262930726 1.8509082845 -3.0057169919

