# b3lyp 6-31G(2df,p) opt Freq 

 titel

0 1
C 1.4183925618 -0.1534800149 -0.0739991866
O 0.022073924 0.0421462498 0.0391914158
C -0.380227405 0.7532584758 1.1513509584
C -0.0386494938 2.2426972085 1.265141383
C -0.7828698663 2.5941298166 2.5855082503
C -1.3818799205 1.2343513449 2.9332814183
C -1.8380396929 0.5057585425 1.6378401168
O -1.4737364028 -0.7987216774 2.2050313689
C -0.3786027082 0.0996360047 2.5881894109
H 1.8274522486 -0.6657318919 0.8081288366
H 1.57865147 -0.7825143106 -0.9520623131
H 1.9606925707 0.7921602079 -0.2140911958
H 1.0387281627 2.4193031735 1.3318701153
H -0.4108441613 2.7996492733 0.400061535
H -0.1068818471 2.956493813 3.365714803
H -1.5533106542 3.3571910283 2.4408717559
H -1.995257502 1.1075283516 3.8231858541
H -2.7706374138 0.5810206839 1.0775261264
H 0.4382239804 -0.3113882296 3.1829447068

