# b3lyp 6-31G(2df,p) opt Freq 

 titel

0 1
C 1.4311259832 1.2319931031 0.0612519958
C 1.1371323046 -0.2740365009 0.1127914483
C 1.488921813 -0.9658543728 -1.1647968632
O 2.8808898936 -1.2099876555 -1.457082129
C 1.9509894779 -2.3110103911 -1.5053701502
C 1.1891393239 -2.280330266 -2.8602838935
C 1.5921310285 -1.0867481824 -3.7054821528
O 0.9129578676 -0.9430757486 -4.920389914
C 0.7046326954 -0.8701454549 -2.5183244709
H 1.15651798 1.7155346279 1.0030739684
H 2.4952273101 1.4107029746 -0.1181727012
H 0.8689702956 1.7174477104 -0.7431115783
H 1.7029729659 -0.7426776977 0.9255348116
H 0.0730582414 -0.4419305468 0.3220401377
H 2.1776151334 -3.1771786989 -0.8936340834
H 0.6120627014 -3.0991489631 -3.2681712223
H 2.6186294576 -0.7333852781 -3.6947817953
H 1.3623651668 -1.4903648058 -5.5727956642
H -0.2928500001 -0.4648219235 -2.6247756134

