# b3lyp 6-31G(2df,p) opt Freq 

 titel

0 1
C -2.0121082371 -2.9194946752 1.6285242025
C -3.0624443458 -1.905831381 1.264053076
C -1.6499361235 -1.45850147 1.5428562581
C -0.7967850672 -0.9826818122 0.4077866357
O -1.0132220565 0.4040766305 0.1554942723
C 0.2256141113 0.9707158583 -0.180931349
C 1.0408026624 0.3140109214 -1.2805887792
C 1.2660528218 -0.0337259136 0.1800227014
O 0.5876213198 -1.1413829774 0.7108709821
H -2.0444209481 -3.3734436002 2.6120136257
H -1.6459466271 -3.5778717711 0.8477511727
H -3.4084647169 -1.8769015889 0.2361545017
H -3.8229541197 -1.657010405 1.9948600719
H -1.4615202195 -0.9294789544 2.4711648783
H -1.0305537293 -1.5540216672 -0.5082586386
H 0.2686828065 2.0335707161 0.0194792487
H 0.5713582143 -0.408720743 -1.9385848774
H 1.7993917295 0.9302665896 -1.7523609739
H 2.1993020349 0.1697470132 0.6892623212

