# b3lyp 6-31G(2df,p) opt Freq 

 titel

0 1
C -3.4353206296 -1.5654283809 0.6473163403
C -2.1062203066 -0.8423678469 0.8514294463
C -2.1875000934 0.6972239889 0.7246358347
C -0.7371429711 1.1485086664 0.5053872562
C -0.0942915453 0.0097018266 -0.2837127425
O 0.9331412628 0.0466884887 -0.9076672413
C -1.0079183141 -1.2332629572 -0.1484280798
C -0.2005011788 -2.4698996892 0.1898905247
O -0.4383119416 -3.1946622264 1.1220735132
H -4.1820811857 -1.2236519675 1.3715146228
H -3.8359250011 -1.3796216622 -0.3565669871
H -3.3135936652 -2.6447687846 0.7734932396
H -1.7299865218 -1.0901432538 1.8521167361
H -2.7973762473 0.9632497304 -0.1481052531
H -2.6543864538 1.1592563705 1.5981666892
H -0.6088622641 2.1022332243 -0.0111784767
H -0.1988677968 1.2226868317 1.4604301974
H -1.4183418334 -1.3977846358 -1.1582018204
H 0.6558897869 -2.653970083 -0.4912567896

