# b3lyp 6-31G(2df,p) opt Freq 

 titel

0 1
C 1.27854976 0.8562451471 -0.2232160137
C -0.0008601493 0.1290236614 0.0413925276
C -0.1802544991 -1.1837061804 0.2143373067
C -1.6279905049 -1.5726476503 0.4348436253
C -2.3318761761 -0.1945644901 0.5772542609
C -1.3235586738 0.8716643379 0.0767280395
O -1.6431696561 1.4345218501 -1.1965020148
C -2.1357468324 -2.3587917977 -0.7639421876
O -2.4202919472 -3.5261248927 -0.7655012636
H 1.5099468651 1.550163441 0.594859471
H 2.122821921 0.1722207984 -0.3399480068
H 1.1894838209 1.4642127739 -1.1303794718
H 0.6074786697 -1.9294537619 0.1816110673
H -1.758145676 -2.2105230069 1.3145821095
H -3.268840663 -0.1229556115 0.0166440013
H -2.5730994806 -0.0260656318 1.6298944344
H -1.2952022614 1.7405454213 0.7431507853
H -1.5706650824 0.7315844177 -1.8528617005
H -2.2128108944 -1.7441345456 -1.69585852

