# b3lyp 6-31G(2df,p) opt Freq 

 titel

0 1
O 0.4471044623 0.6120135637 0.3846741975
C -0.9074806916 0.7288574017 0.7715870656
C -1.1648675996 0.1471357275 2.1869061933
C -2.6723873961 -0.0025994733 2.4986071376
C -2.7118138513 1.5191043091 2.7795994186
C -2.7537220735 2.3257765361 1.4620029785
C -1.2880814831 2.2094992448 1.0029286889
O -0.559696196 2.4861884355 2.2171510074
C -1.1568239141 1.4783845517 3.0196924784
H 0.9432106519 1.1834070478 0.9850118346
H -1.502010691 0.2406015971 -0.0052101483
H -0.4787204243 -0.6671092043 2.4191373607
H -3.3197044298 -0.3842120917 1.7025909902
H -2.8415393772 -0.5935104114 3.4030794008
H -3.3771065635 1.8965614933 3.5558876764
H -3.47008273 1.9270588843 0.7379726518
H -2.9926470537 3.3763109375 1.6468769668
H -0.9628400795 2.8887797732 0.2152240874
H -0.75910432 1.4931371074 4.0318431137

