# b3lyp 6-31G(2df,p) opt Freq 

 titel

0 1
O 0.2130931948 -1.144174886 0.2896070101
C 0.3179109439 0.0357829668 0.0772158233
C -0.2493897412 0.7592933846 -1.1220666675
C -1.1872301165 1.9101178323 -0.7070670368
C -1.6708672346 2.720087474 -1.8919960817
C -2.1564707435 4.1306610157 -1.6087698874
C -2.5900742097 4.7848920955 -2.9157770698
O -1.3272257056 4.4406937272 -3.5535724506
C -0.8460093407 3.8959652515 -2.3248463186
H 0.8621536747 0.6985308472 0.7926651713
H 0.5942026027 1.1758831443 -1.6906523253
H -0.7630344839 0.0338241128 -1.7592543876
H -2.0464753536 1.4994587172 -0.1623768501
H -0.6657334248 2.5709768344 -0.0011571193
H -2.1680332421 2.1513723058 -2.6770987818
H -2.3639661758 4.4923056404 -0.6103647207
H -3.4523817435 4.3566977663 -3.4405622912
H -2.6983430396 5.8731742916 -2.8489340329
H 0.1889561791 4.0769793486 -2.0541058032

