# b3lyp 6-31G(2df,p) opt Freq 

 titel

0 1
C -3.2717512568 -3.0360048662 1.0355685464
C -3.1205606275 -1.5699400415 1.3521390313
O -1.9871834711 -1.1788901407 2.1438975546
C -2.0747463309 -0.7118527436 0.7871289665
C -2.235577808 0.7972153252 0.606112246
C -0.8128002237 1.2862112591 0.2909568029
C -0.1373382242 0.1047993408 -0.4156606999
O 0.8724803742 0.15274558 -1.0663567461
C -0.9745104297 -1.1600073721 -0.1603520297
H -3.620122673 -3.5815553625 1.918546259
H -4.0120260634 -3.1796695984 0.2408393556
H -2.325207368 -3.4757909672 0.7140506763
H -4.0466788814 -1.0746874258 1.6551014826
H -2.9024066113 0.9977075698 -0.2413912428
H -2.6739065236 1.252274339 1.4963089791
H -0.7499020658 2.1930692804 -0.3137393894
H -0.2512449489 1.4706364952 1.2160787979
H -1.3731429909 -1.5067311652 -1.1220082254
H -0.354341906 -1.9599390663 0.248986285

