# b3lyp 6-31G(2df,p) opt Freq 

 titel

0 1
C -0.2709660724 -3.0655138508 0.1978711146
C -1.0055165507 -2.1044223662 -0.6775552185
C -2.4966723384 -2.0842327246 -1.0632330298
C -2.38622121 -0.5311466257 -1.252437433
C -0.8988464642 -0.6391849777 -0.8724695632
O -0.3029157908 -1.5461709956 -1.8067697753
C -0.0372693929 0.3921813549 -0.2420586839
C 1.2438136411 0.8004606302 -0.8392732125
O 1.2048442283 -0.050121905 0.3082447559
H -0.1837393199 -4.0425295708 -0.2916397072
H 0.7299371706 -2.6848540611 0.4085788481
H -0.8029727483 -3.2108724378 1.1436600465
H -2.7499367688 -2.6713309524 -1.9492015542
H -3.1600592286 -2.3608653717 -0.2400696508
H -2.5779019643 -0.1398994671 -2.2542529044
H -2.9812069473 0.0238397246 -0.5225182381
H -0.5744500522 1.1112269707 0.3778136968
H 1.5626763762 0.3167429053 -1.7592746307
H 1.6260913325 1.8046719109 -0.6628715503

