# b3lyp 6-31G(2df,p) opt Freq 

 titel

0 1
C 0.3202714686 0.5138248142 -0.0049252528
C 1.0183421359 -0.7705991249 -0.3992316385
C 1.3282579971 -1.8016616471 0.7069843132
C 2.8123790678 -1.6133392878 0.2935286115
C 3.4188094631 -2.7751619931 -0.5073755152
O 4.4985469269 -2.3291892903 -1.2902397853
O 2.4376885578 -0.5644177782 -0.6549891975
C 3.7167031144 -1.120553828 1.3222353186
C 4.4440525345 -0.7333603745 2.1971602087
H 0.7903662221 0.9524136342 0.880191355
H 0.3726965566 1.2425619558 -0.819807851
H -0.7357440867 0.3216656826 0.2149430603
H 0.5374457811 -1.2107482034 -1.2824455114
H 1.1034290355 -1.4579065848 1.7167152217
H 0.9329683934 -2.8087318764 0.5626775199
H 3.7946319516 -3.5503535904 0.1678780895
H 2.6195342321 -3.2151894956 -1.1267275543
H 4.1772199546 -1.5461965055 -1.7564505906
H 5.0983829735 -0.3870347069 2.9587699981

