# b3lyp 6-31G(2df,p) opt Freq 

 titel

0 1
C 1.6148273235 0.0367005065 -0.1094235209
C 0.1629072771 0.064403331 -0.0136403316
C -1.0384114633 0.0749384502 0.07101237
C -2.4696462286 0.1043370989 0.1454725417
C -3.1868774597 0.0720246882 1.5010309189
C -3.2548134588 -1.1146672662 0.5690451763
O -2.5132951208 -2.2482040176 0.8943010691
C -4.5522993423 -1.4500589453 -0.128466335
O -5.317647346 -2.3535363223 0.6679019477
H 2.081225763 0.6683365796 0.6552347464
H 2.0010083469 -0.9805506455 0.0202272648
H 1.9554059959 0.3965528881 -1.0868897006
H -2.9518124472 0.7162115314 -0.6139924139
H -2.5518703405 -0.038217756 2.371497348
H -4.0503414451 0.7181490166 1.6261137942
H -3.1580995394 -2.8882583869 1.2243860104
H -5.1174083832 -0.5389157239 -0.369947466
H -4.3465914058 -1.9860634262 -1.0603490594
H -5.5966729561 -1.8769939407 1.4580064201

