# b3lyp 6-31G(2df,p) opt Freq 

 titel

0 1
C 0.4585494644 0.8642280792 -0.9268044924
C 0.918961407 -0.2967158202 -0.0829554853
C 2.339359579 -0.7895800792 -0.3092671311
C 3.2757687713 0.4302068659 -0.0780267758
O 4.2908459487 0.185497415 0.8901640082
C 3.7098480813 0.5048017725 2.1299777619
O 2.8860985615 1.6285551512 1.9185063677
C 2.4105881464 1.5596012854 0.5736909585
C 0.9673260997 1.1117622536 0.4718969722
H 1.0709541633 1.1755890845 -1.7695999537
H -0.6067035898 0.9764646996 -1.095507805
H 0.1743828489 -1.0055935365 0.2618439175
H 2.6006628574 -1.5664534319 0.4167879036
H 2.4836034966 -1.2209770632 -1.3051840683
H 3.7825793367 0.7459919607 -0.9912822675
H 3.1179285773 -0.3437482863 2.5194681849
H 4.5021509758 0.7614479155 2.8394054758
H 2.5768944397 2.5436492253 0.1225159414
H 0.2800842248 1.4615055291 1.2328830274

