# b3lyp 6-31G(2df,p) opt Freq 

 titel

0 1
C -1.388435951 -1.5905359687 2.5641825337
C -1.9757868502 -0.3913302316 1.8713407396
C -3.3739494297 0.2438829766 2.0708808154
C -2.7307936925 1.130042257 0.9883739058
C -2.0132581408 -0.0935905947 0.3239561907
C -0.658024403 0.6262181597 0.3285289137
O 0.4729469875 -0.215581996 0.3483615556
C -1.3067333737 1.0319918404 1.6524359734
O -0.7031821013 1.8618882897 2.576523748
H -1.3016548352 -1.4150263969 3.643261975
H -2.0217787278 -2.4743249562 2.4255858182
H -0.3943541664 -1.8108683383 2.1693648765
H -4.2321200738 -0.3625045399 1.7624391141
H -3.5795700786 0.7089409723 3.0429342457
H -3.1404634408 1.9893285742 0.4572281328
H -2.4400608082 -0.7401865407 -0.4396908901
H -0.547590399 1.4349881946 -0.4098305471
H 1.2218194781 0.3067160857 0.6540193054
H -1.2731352737 1.9397333027 3.3501445637

