# b3lyp 6-31G(2df,p) opt Freq 

 titel

0 1
C 1.4372527762 -0.0977697196 -0.1271550925
O 0.0527734143 -0.0142860421 0.1301744265
C -0.3632121402 0.7305296386 1.2660564051
C 0.1446414703 0.1218385813 2.5852622884
C 0.0066737044 2.2205309692 1.1587334496
C -1.9055029867 0.6358881085 1.276798918
O -2.5543412936 1.1848388497 2.1416436622
C -2.5511763593 -0.1263152967 0.2266802339
C -3.1646367954 -0.7391776023 -0.6082211463
H 1.9884453591 -0.5883855754 0.6866070504
H 1.5437425876 -0.7040215569 -1.0299103478
H 1.8912084094 0.8848901794 -0.314257374
H -0.0524932996 -0.9540050106 2.6093776193
H 1.2189499325 0.2838384086 2.706984982
H -0.371721649 0.5922610874 3.4246137038
H -0.5166191974 2.7812532837 1.9360081051
H 1.0815982687 2.3709316002 1.2896008518
H -0.2862593604 2.6164441157 0.1818421319
H -3.6958014309 -1.2832407386 -1.3508004376

