# b3lyp 6-31G(2df,p) opt Freq 

 titel

0 1
C -1.157467718 -2.0729257522 1.2058768839
C -1.0113353514 -1.0607759394 0.0796918697
C 0.0878587656 0.0126646635 0.1790544935
O 1.226876083 -0.0046128925 0.5448334048
C -0.8805796966 1.1232112976 -0.2646674619
C -2.0397058843 0.1102340652 -0.0597015287
C -3.3001675511 0.03705205 -0.9387852521
C -4.0638335113 0.272458675 0.3781120086
O -2.829501843 0.3571996533 1.1238159208
H -0.2292240935 -2.6391788157 1.3237937669
H -1.3800653539 -1.5684328745 2.1487904338
H -1.9668124631 -2.7811598692 1.0023067515
H -0.9069522962 -1.563967532 -0.8923425736
H -0.9168500118 2.0162692765 0.363875507
H -0.7296287709 1.4193677816 -1.3083708913
H -3.3909280902 0.8332862169 -1.6801196447
H -3.4747536569 -0.925673269 -1.4235482565
H -4.6393903373 1.2028273635 0.441206062
H -4.6902044391 -0.5591997087 0.720866196

