# b3lyp 6-31G(2df,p) opt Freq 

 titel

0 1
C -0.6222616969 -2.1808957761 1.2096705262
C -0.7715344775 -1.1321253309 0.1050661316
C 0.0724102523 0.1295771064 0.3836268158
O 1.1839175877 0.1225869764 0.8415375637
C -0.719460832 1.3851753197 -0.0155513678
C -2.133481585 0.8824537718 -0.1642247327
O -2.6031964926 0.2100607531 1.0149418542
C -2.1780944028 -0.5917572879 -0.1054938476
C -3.2386361475 -1.4312200235 -0.7621634407
H -1.0851117309 -3.1303080559 0.9258700598
H 0.4377617229 -2.3544926188 1.4099670423
H -1.0931613246 -1.8263042899 2.1308200126
H -0.4035467914 -1.5480199923 -0.845767458
H -0.6052260509 2.1654505048 0.7418276332
H -0.3251443471 1.7796555933 -0.9609999756
H -2.881752663 1.4603371696 -0.7013965615
H -3.4472186278 -2.32819618 -0.1695121844
H -4.168840359 -0.8657556757 -0.8595939177
H -2.9174947037 -1.7542740541 -1.7581436432

