# b3lyp 6-31G(2df,p) opt Freq 

 titel

0 1
C 1.1614547584 -0.2524602707 1.0114381204
C 0.9840100714 0.1473094364 -0.4557771157
C 1.5741490191 -0.8689978752 -1.4238857154
O 2.9888050908 -1.0238396615 -1.1720717539
C 3.6321093722 -1.137160828 -2.415141905
C 3.4424807505 -0.0040912991 -3.4121855431
O 2.3065085852 0.7717732627 -3.0332426707
C 1.534576711 -0.4667822332 -2.8965787682
C 2.664956176 -1.2912002206 -3.5536989532
H 0.6688177951 -1.2075340838 1.2268418316
H 2.2215588778 -0.3598176912 1.2546991297
H 0.7313603497 0.502074822 1.6768420757
H -0.0836058674 0.2560275371 -0.6884084919
H 1.4589234107 1.112829198 -0.6530747415
H 1.0791163233 -1.8481065326 -1.2975113574
H 4.5696102733 -1.6794212744 -2.382935642
H 4.2108528622 0.4678249998 -4.013971476
H 0.5509632639 -0.3980813857 -3.362566489
H 2.603825087 -2.06402847 -4.3071137844

