# b3lyp 6-31G(2df,p) opt Freq 

 titel

0 1
C -4.3232543033 2.4365959989 0.3134139239
C -3.2874912357 1.4984891972 0.871099186
O -3.1833910786 1.5677794377 2.3299067418
C -3.4188813357 0.1411962012 2.459289267
C -3.4036216389 -0.0436267741 0.9301294911
C -2.0445229428 -0.1553943062 0.2089577107
C -0.9454453222 0.5801082241 0.9084824328
O 0.3013833426 0.3792649534 0.303594727
C -1.9430182597 1.3846108267 0.1182149249
H -5.290613748 2.2822718798 0.8000148339
H -4.0184407217 3.4759683595 0.4812732194
H -4.4406707215 2.2872824731 -0.7648203652
H -2.6367420789 -0.362078372 3.0386383013
H -4.3930942143 -0.0566742554 2.9233513651
H -4.2289255251 -0.5770172312 0.4599199954
H -1.7928482521 -0.8919650885 -0.543600062
H -0.9215053229 0.6709614395 1.9919344154
H 0.813588064 1.1871521253 0.4143035701
H -1.6246934451 2.006311551 -0.7114062088

