# b3lyp 6-31G(2df,p) opt Freq 

 titel

0 1
C -3.9471053123 0.4300698423 1.4692364276
C -2.4286023648 0.430224798 1.3835848417
O -1.937457394 -0.9224124112 1.2915542182
C -1.2636467757 -0.9632716455 0.0128994092
O -2.0363321932 -0.1131135647 -0.8000627151
C -1.8634084567 1.038597949 0.0517122892
C -0.3519724449 1.0892796516 0.2131663622
C 0.0476809621 -0.1854736121 0.1891170092
C 1.374864735 -0.8132328394 0.4361452219
H -4.279434059 -0.1775765672 2.3155653301
H -4.3256595318 1.4487241816 1.6087688972
H -4.3738803549 0.0123975117 0.5538603644
H -1.9828674372 0.914126211 2.2602100835
H -1.2417162629 -1.9881066628 -0.3548988687
H -2.3859376673 1.9077933541 -0.3429476482
H 0.2256401628 1.9743678568 0.4433811449
H 1.3362666044 -1.4615752553 1.3205779896
H 1.6829168007 -1.4460438325 -0.405531149
H 2.1515904097 -0.0615644854 0.5999224321

