# b3lyp 6-31G(2df,p) opt Freq 

 titel

0 1
O 0.306864159 -0.0321099893 0.0368604127
C -0.8112929663 0.4704450036 0.7439003844
C -2.099868877 0.1153498923 0.0130662346
C -3.2092717311 1.0324555239 0.6010298154
C -2.4099139525 2.1165505342 1.3612914615
C -1.0256070637 2.0073502441 0.6777995303
C -1.2098068452 2.2150581741 -0.8454489684
C -2.2372903919 1.1144144453 -1.1768113007
O -3.5513694035 1.5269825549 -0.7154444265
H 1.1041116456 0.2846080304 0.4732154556
H -0.8138480818 0.1077152153 1.7831288214
H -2.3305406369 -0.931730437 -0.1662817067
H -4.0729769085 0.6221062919 1.128247082
H -2.883236631 3.0958775002 1.2545003115
H -2.3383593623 1.8813635605 2.4298767726
H -0.2403820044 2.6145171408 1.1349672341
H -1.5935720539 3.2025159346 -1.112969846
H -0.2671869908 2.0387930693 -1.3700624833
H -2.2519650539 0.7690244807 -2.2115210644

