# b3lyp 6-31G(2df,p) opt Freq 

 titel

0 1
C -0.1606922713 1.6770036356 -0.2535667833
C 0.0630258169 0.1836894279 -0.059650082
C -1.1965311193 -0.5742299904 0.5265201973
C -0.5105374301 -0.538430278 1.9506669511
O -0.8697341077 0.5841020076 2.7349036946
C 0.7663425182 -0.3131293362 1.1705004424
C 1.8619399188 -0.9860607639 0.8428994005
C 2.043514904 -0.8615890439 -0.6621074812
O 0.7912786466 -0.3582829412 -1.158442697
H 0.7941268092 2.1896729628 -0.4034207888
H -0.7841327298 1.8477082001 -1.1375559995
H -0.6575371628 2.1060648751 0.6195461069
H -2.1620176503 -0.063259436 0.4563329785
H -1.2666681949 -1.5899211415 0.1336310385
H -0.5559155072 -1.4633344657 2.5381490474
H -1.7864651497 0.4682088399 3.0062691817
H 2.4514284739 -1.6553339303 1.4573390006
H 2.8683466256 -0.1941983064 -0.9597369837
H 2.23795151 -1.8417027355 -1.118088304

