# b3lyp 6-31G(2df,p) opt Freq 

 titel

0 1
C -0.4280842723 1.9807680048 1.3713434837
C -0.7744531729 1.3129142235 0.0279530943
C -2.2232964411 0.8133916674 -0.0557718857
C -2.8053722978 0.6503655157 -1.4734912076
O -2.5613436911 -0.7723616325 -1.4665826075
C -2.1739053915 -0.7494808495 -0.0734327066
C -0.7357148953 -1.1922842476 0.1257887551
C 0.1069903924 0.0587245521 -0.1523429511
O 1.2768974754 0.0758361748 -0.4298757861
H -0.6437116817 1.3163457132 2.2156713615
H 0.6336296266 2.2387360081 1.4054402008
H -1.0139856471 2.8946896506 1.5084958134
H -0.5368749479 2.0132033105 -0.7798928571
H -2.8813038179 1.2860640424 0.6744449397
H -3.8756732469 0.8786069687 -1.5580504236
H -2.2678384063 1.1558715509 -2.2853200925
H -2.8986521474 -1.2819124737 0.5515048986
H -0.5528982382 -1.5038205381 1.163054982
H -0.4487403891 -2.0199100213 -0.5265016613

