# b3lyp 6-31G(2df,p) opt Freq 

 titel

0 1
C 0.3040580855 3.7902362008 -0.2021320147
C -1.1069181756 3.2158155197 -0.1136426979
C -1.4125105378 2.102405038 -1.1623448811
C -1.1549946275 1.0433369992 -0.0649898797
C -1.2950787774 2.1483876852 1.0080184255
O -1.9667478666 -0.1476470452 0.0041802077
C -0.8416819347 -1.0498752608 -0.037693714
C 0.0932730419 0.1625482828 -0.113943535
O 1.2714094609 0.3478691572 -0.1816227194
H 0.5197762897 4.4315133244 0.6593102731
H 1.0551703341 2.9931649398 -0.2259400769
H 0.4241368366 4.3941538034 -1.1080698651
H -1.8410427429 4.024772054 -0.0910567638
H -2.4653480706 2.0749962942 -1.4555367975
H -0.7854970341 2.0590008034 -2.056870366
H -2.3100694446 2.1358116148 1.413983347
H -0.5751312146 2.1413819236 1.8307203453
H -0.7460607528 -1.6623749342 0.8673637777
H -0.8428828793 -1.7000909503 -0.9212424452

