# b3lyp 6-31G(2df,p) opt Freq 

 titel

0 1
C 0.0017319027 2.5532451555 -0.0143860376
C -0.8668526071 1.2966117715 -0.004362864
C -1.8584141084 1.219133987 -1.1882669957
C -2.7399741158 -0.0331959287 -1.1267249249
C -1.8955635567 -1.3211929563 -1.1400025562
C -0.8279953118 -1.3052598101 -0.06038845
O -0.5827112056 -2.2314374888 0.6707885868
C -0.0304550084 0.0223167315 0.0543299541
O 1.1689250517 0.0018751423 0.1789472349
H 0.6911139244 2.5592614352 0.8326009014
H 0.6049914864 2.6004432711 -0.9261610187
H -0.6213512832 3.4511367243 0.0334784543
H -1.4738308721 1.2812065663 0.9170977104
H -2.4807286026 2.1203580015 -1.1879676855
H -1.2942997201 1.2308787848 -2.130922888
H -3.3505703484 -0.0074687078 -0.2151429708
H -3.4383853508 -0.046981711 -1.9694386508
H -2.498028759 -2.2262771285 -1.026986888
H -1.3702769553 -1.3908316497 -2.1047916117

