# b3lyp 6-31G(2df,p) opt Freq 

 titel

0 1
C -0.5094324483 2.2407165575 1.2008089795
C -0.848832946 1.1835711494 0.1540173384
C -2.2996333404 0.6426454606 0.1804990892
C -2.2041521212 -0.804448586 -0.2968846186
C -3.3730916479 -1.73978821 -0.1638660084
O -1.4314003867 -0.9080655032 -1.4959490087
C -0.7886874955 -1.2369729807 -0.2460623259
C 0.0174556624 -0.0820805057 0.2845747545
O 1.1066838321 -0.1534980794 0.795369686
H -0.7322881626 1.880603468 2.2106887457
H 0.5560408616 2.4809268975 1.1647566796
H -1.0806841897 3.1585507633 1.0331024314
H -0.6445123308 1.5831961277 -0.8473158436
H -2.6933529226 0.6609604838 1.2041013778
H -2.9846020716 1.2243234743 -0.444702828
H -3.6699058918 -1.8435738145 0.8846886858
H -4.2346154212 -1.3546154226 -0.7204572485
H -3.1245828764 -2.7272104625 -0.5600216777
H -0.4565854734 -2.2627357176 -0.1200391084

