# b3lyp 6-31G(2df,p) opt Freq 

 titel

0 1
O -0.9605202188 0.1276557176 0.9617610278
C -2.0575398305 0.7131165827 0.2740214701
C -2.6248997878 -0.286431874 -0.7420276341
C -4.0458730416 0.2346489908 -1.0152559191
C -4.5486653331 0.7769014102 0.3351610358
C -4.887081527 -0.3064047547 1.3699531122
O -4.9645815709 0.3228615673 2.6519581947
C -3.6699920162 -0.0261571298 2.1487579872
C -3.2438255004 1.0880174673 1.1815646272
H -0.5764271378 0.7957122423 1.5383055804
H -1.7291481155 1.6180602898 -0.2620994138
H -2.0096749495 -0.3589661806 -1.6420611023
H -2.6473677079 -1.2787750075 -0.279515549
H -4.0117928861 1.0541332575 -1.7422012668
H -4.7074668083 -0.5314041396 -1.4329344975
H -5.3024234216 1.5614171869 0.2402440304
H -5.4457612899 -1.2262856495 1.2322897351
H -3.0501142182 -0.6734543715 2.7561365487
H -3.1480778689 2.0754572948 1.640803563

