# b3lyp 6-31G(2df,p) opt Freq 

 titel

0 1
C -2.4068889244 3.5250424113 2.7707712878
C -2.172082588 2.2649477552 1.9744313801
O -1.0287089122 1.4778628274 2.4160485913
C -0.9703718784 2.1179411073 1.1360712041
C -0.9920567504 1.2109065881 -0.0744806996
O 0.3102530654 0.7321021453 -0.38876004
C -1.9948127698 0.0513437053 0.0836902419
C -3.2985257843 0.469143856 0.7115037109
C -3.3746572567 1.4738762168 1.5840937943
H -2.9179275677 3.2942383103 3.7119148284
H -1.4598726133 4.0154524593 3.0068025024
H -3.036039888 4.2252385129 2.2106101453
H -0.2635098017 2.9468435774 1.0731157404
H -1.2811547689 1.8239619658 -0.937587892
H 0.634580117 0.2643380806 0.389778913
H -2.1561128415 -0.4175425973 -0.8913913492
H -1.5266837217 -0.7132586688 0.7195279799
H -4.1866919312 -0.105273371 0.4633869254
H -4.3194954842 1.7445623182 2.0463367257

