# b3lyp 6-31G(2df,p) opt Freq 

 titel

0 1
C 0.7462567105 2.6992653374 1.2432403811
C -0.5497565592 2.5274059989 0.4842792906
C -0.57626406 2.3995467179 -1.0057498389
C -0.9480247264 1.1983432772 -0.168826862
C -2.346198418 0.6167015418 -0.0613478377
O -2.1859905891 -0.6202426012 0.6380522033
C -0.9344068528 -1.1708079838 0.275232691
C -0.0395165475 0.0139116359 -0.1002998005
O 1.1489018306 -0.0270301328 -0.3118969381
H 0.6401168457 2.3806165459 2.285576721
H 1.5497378971 2.1162726375 0.7890344749
H 1.042721777 3.7538302016 1.2448734092
H -1.4025182023 3.0442072766 0.9205977222
H -1.3727900633 2.8801624618 -1.565287484
H 0.3772119888 2.3338733561 -1.5218680613
H -3.0435351947 1.2338394095 0.5118805715
H -2.7801536074 0.4388786422 -1.059705917
H -0.5253214645 -1.7403447282 1.1145722914
H -1.0125197245 -1.8464474644 -0.5940106568

