# b3lyp 6-31G(2df,p) opt Freq 

 titel

0 1
C 0.9909971538 -0.5127375673 1.4364829109
C 1.3048529294 0.0694420104 0.0513411423
C 2.2817555176 -0.7884549644 -0.7345645691
O 1.713558367 -2.0342161271 -1.0975082936
C 3.785318383 -0.9534456926 -0.5354110506
C 4.6129275481 0.3569137836 -0.3839309671
O 3.7499300346 1.5035480574 -0.3576725966
C 4.0582247616 0.8958333485 -1.6217270367
C 3.2101191243 -0.3911250649 -1.8491416797
H 0.5271623052 -1.5046174695 1.3763378103
H 1.8993467744 -0.5995171636 2.042151931
H 0.2897713152 0.1310106344 1.975209226
H 0.3840863134 0.1244044778 -0.542474364
H 1.6973647467 1.0769943947 0.1576909088
H 1.5319491513 -2.5169499138 -0.2840589272
H 4.2115615797 -1.9372645358 -0.3870740807
H 5.5876119975 0.4577219388 0.0787222974
H 4.4793061734 1.5323846532 -2.3905680738
H 3.1561019438 -0.8963861399 -2.8045021875

