# b3lyp 6-31G(2df,p) opt Freq 

 titel

0 1
C 1.1051057908 -2.0639571433 -0.3025886273
C -0.0347753526 -1.086531249 -0.217145099
C 0.0294048599 0.19580572 0.1526126287
C 1.2590562522 0.9366653428 0.5970377729
C -1.2350754152 1.0234432423 0.1010852132
C -2.5235919749 0.2465550765 0.306309341
O -3.5224253786 0.7339730376 0.7609433608
O -2.5186192485 -1.0575390495 -0.0447300003
C -1.3642976034 -1.658432175 -0.6425794081
H 0.9859842859 -2.8726976238 0.4297650301
H 1.1331781733 -2.541294635 -1.2909494165
H 2.0771620452 -1.5991061293 -0.1356244169
H 1.1273317109 1.3244654343 1.6152022918
H 2.1604834363 0.3227036575 0.586773109
H 1.4378934826 1.8092429077 -0.0446826825
H -1.2313463455 1.8203464446 0.8495963912
H -1.3133226252 1.5334752909 -0.8719085884
H -1.4289266192 -2.716852804 -0.3698646747
H -1.4741676341 -1.6071963251 -1.7372364652

