# b3lyp 6-31G(2df,p) opt Freq 

 titel

0 1
C -1.1621021596 -3.3296020251 -1.4823722088
C -1.233932132 -1.8341953987 -1.2743619405
C -2.3089815495 -1.2148512996 -0.4460643192
C -2.8070404732 0.1650902133 -0.8300870257
O -1.7613435001 0.9498156594 -1.3800519194
C -0.7311997986 1.2249507869 -0.4502265354
C -0.1532665369 0.0010080938 0.2690414129
O 0.8167966694 0.1223846013 0.984910206
C -0.8912144715 -1.2771056704 0.1139410607
H -1.5246194261 -3.8711302323 -0.6025192851
H -1.7760817154 -3.6329484956 -2.3374629072
H -0.1345346693 -3.6543535661 -1.6755018679
H -0.8928710941 -1.2319780884 -2.1104360351
H -3.0436756002 -1.8682364206 0.0167318612
H -3.5740859672 0.1014473907 -1.6086717756
H -3.2515925883 0.6710932645 0.0436791097
H 0.0693059192 1.7303511128 -0.9967196288
H -1.0804053021 1.9153732947 0.3371601347
H -0.6527507647 -2.0132515807 0.8742113336

