# b3lyp 6-31G(2df,p) opt Freq 

 titel

0 1
O 0.9784687066 1.0838164048 0.4160873043
C 0.4208425546 -0.2082144195 0.5989754105
C -0.9179325077 -0.1185174887 1.2694180485
O -0.8718901613 0.4046132074 2.6094540508
C -2.2487766449 -0.0800418443 2.6904584123
C -2.9682270845 0.9412389631 1.7891838876
C -2.2073096915 0.4950123012 0.5233113782
C -2.7198112827 -0.9607783697 0.358262301
C -1.9279212725 -1.2268424656 1.6492904073
H 0.9694534672 1.5106051817 1.2806139394
H 0.3196285664 -0.6536309944 -0.3960912555
H 1.0858820209 -0.8539023917 1.19322194
H -2.5889914958 -0.2636131443 3.7082786237
H -4.0495750847 0.8011433721 1.7049256122
H -2.7519085568 1.9588203092 2.1197988468
H -2.1190026448 1.1822176341 -0.3150858419
H -3.802079435 -1.1176815517 0.3493346274
H -2.2676941758 -1.4816806181 -0.4902967155
H -1.6440578877 -2.2073530658 2.0285283628

