# b3lyp 6-31G(2df,p) opt Freq 

 titel

0 1
O 1.0697652873 0.7614776587 0.5790276814
C 0.1724898358 -0.329076262 0.6109368347
C -1.2852580144 0.154823754 0.5875627338
O -1.3635439877 0.93112452 -0.61759095
C -2.27854593 -0.9957927619 0.6204432027
C -2.9966094264 -1.0086019877 1.7450877676
C -2.6769867478 0.1651680265 2.614376459
C -3.0276982046 1.506121507 1.9956301579
C -1.6307904653 0.946892636 1.8530792763
H 0.7511796029 1.3252532565 -0.1377530575
H 0.3307141945 -1.0095658068 -0.2406451952
H 0.3615624865 -0.8865173179 1.5327195663
H -2.1307967107 1.5079554503 -0.5427614661
H -2.3677441087 -1.6873481443 -0.2092492386
H -3.7606037603 -1.7353797032 1.9990324097
H -2.6610053756 0.0673772514 3.6935573813
H -3.7096890585 1.4989697734 1.1497435577
H -3.1425121503 2.3574973027 2.6584419005
H -0.8196104668 1.4610447573 2.3522495387

