# b3lyp 6-31G(2df,p) opt Freq 

 titel

0 1
C 2.2219370302 1.6611513212 0.0019426246
C 1.5743460207 0.2916102466 0.1869424045
C 2.2292276143 -0.5901769423 1.2486389011
C 3.2910810323 -1.3672315464 0.4851228792
O 3.2376741044 -0.9829487745 -0.8769155304
C 1.8246230478 -0.7095178821 -0.976417114
C 1.1795711443 -2.00813592 -0.4506338647
C 1.9838036061 -2.0376840629 0.8480065983
O 1.8478424506 -3.0170154143 1.8188461966
H 2.1459268674 2.2588620391 0.9161310645
H 3.2803849511 1.5544033474 -0.2497925758
H 1.7338549641 2.2215313713 -0.8029799272
H 0.4978024293 0.3968520673 0.3623469879
H 2.3586275409 -0.3012873702 2.2829877797
H 4.2679070464 -1.6386225196 0.8594330203
H 1.585727651 -0.3858168221 -1.9878726849
H 0.1019673557 -1.9159808558 -0.2916791218
H 1.3851980356 -2.8670917307 -1.097682742
H 2.2248058379 -3.8348576119 1.4748010042

