# b3lyp 6-31G(2df,p) opt Freq 

 titel

0 1
C 3.9838374558 -0.1418915786 -1.6949607531
C 2.7985914678 -1.0361086579 -1.3175610946
C 1.5674594089 -0.2593857473 -0.8185539148
C 0.5031397566 -1.2110057344 -0.2596816688
O -0.658729536 -0.5922096187 0.2910119182
C -0.7422571703 -1.0971673173 -1.0413294231
C -0.5220442473 -0.0397210084 -2.1094842445
O -0.2743923667 1.2648958362 -1.5857344517
C 0.852819847 0.4740486921 -1.960710433
H 4.3125418869 0.4551412503 -0.8375731432
H 4.8348111435 -0.7420189385 -2.030764605
H 3.7331332144 0.5531634518 -2.5027088664
H 2.5120676991 -1.6585012253 -2.1758425317
H 3.1121076584 -1.7332946288 -0.5307823664
H 1.8736984621 0.4544747529 -0.0440529251
H 0.8183652319 -2.1279923613 0.2365103126
H -1.4394066654 -1.913464434 -1.2067968144
H -1.0589655466 -0.087890568 -3.0525006507
H 1.43182778 0.8669297952 -2.7940040142

