# b3lyp 6-31G(2df,p) opt Freq 

 titel

0 1
C 2.308925855 0.8100065115 -3.3862910098
C 2.8752838818 0.5323441856 -2.0084087856
C 2.1644573414 -0.4326950829 -1.0646420643
C 1.6129314344 0.3579549234 0.1274547846
O 0.3888926107 -0.1799875001 0.6839175859
C -0.3649192617 0.9877784628 0.2854219292
C 0.8846012097 1.6526251609 -0.3058699278
O 0.8154214771 1.8277641156 -1.7090666923
C 2.0946856572 1.7978390569 -2.2823690089
H 2.9964354675 1.0788997391 -4.1806735807
H 1.4463720498 0.2331565657 -3.7022251893
H 3.9498697327 0.6242888419 -1.8879757424
H 1.3186824628 -0.9120449911 -1.5649878484
H 2.8349487885 -1.2296124785 -0.7324858882
H 2.3709532108 0.4921351081 0.9089220385
H -1.1355341747 0.7581878042 -0.4592947242
H -0.8194699339 1.4948254403 1.1441880092
H 1.2161337684 2.5753579215 0.1864917012
H 2.6014754328 2.7617267352 -2.3136355468

