# b3lyp 6-31G(2df,p) opt Freq 

 titel

0 1
C -2.5141992335 3.2467734488 -2.5952645289
C -1.4474552171 3.2191846805 -1.5462663783
C 0.0029624439 3.7783210111 -1.5797529803
C -0.3394519725 3.3628285835 -0.1332090466
O -1.6625753922 4.0036634938 -0.2982845795
C -0.9770324706 2.0374371837 -0.635666235
C -0.1626511303 0.8549907171 -1.1604076229
C 0.3702458718 0.0105479311 -0.0212923089
O 1.5306729029 -0.2571914728 0.1516962994
H -2.2293757956 2.6160767656 -3.4435624846
H -3.4614202526 2.8780066951 -2.1901151148
H -2.6660971459 4.2668715906 -2.9603623152
H 0.7723585575 3.2302700276 -2.1266776129
H 0.0657148573 4.8557114238 -1.7373290094
H 0.2013322835 3.5636112609 0.7912570599
H -1.7829966777 1.7078808679 0.0275060142
H -0.8291187764 0.214321293 -1.757011672
H 0.6783897635 1.150305309 -1.790642436
H -0.413795666 -0.3567618003 0.6819849119

