# b3lyp 6-31G(2df,p) opt Freq 

 titel

0 1
C -4.5814781906 1.9258031598 -1.4891953802
C -3.2886068903 2.4486718453 -0.878768907
C -2.448994315 1.5593726023 0.096356575
C -1.1353026113 1.9599805709 -0.6486803137
C -0.1021704754 0.9010144913 -1.0363606061
C 0.7605270255 0.5048159248 0.1399998979
O 0.8751512909 -0.6130743786 0.5699011279
C -2.038253292 2.5054206839 -1.7724074564
O -1.8546449015 2.7194167241 -2.9356661391
H -5.3703362021 1.8477798976 -0.7347371002
H -4.9308052427 2.5949721867 -2.2809286234
H -4.4346231621 0.9348663111 -1.9305647145
H -3.4475244105 3.4415012764 -0.4378793341
H -2.5051831311 1.8085971252 1.1564991828
H -2.6743017008 0.4968957807 -0.0313024963
H -0.6444490185 2.8024587245 -0.1427197159
H -0.579361722 0.0066970653 -1.4468614497
H 0.5491600698 1.3287118974 -1.8117804636
H 1.3002885699 1.3601791513 0.6131778866

