# b3lyp 6-31G(2df,p) opt Freq 

 titel

0 1
C 0.3458955419 -0.4815249962 0.4309529808
C 0.8387320381 0.6713945372 -0.4211996557
O 2.1520474233 1.1336202951 0.0039780217
C 2.7419786756 0.8072109908 -1.2640919499
C 2.7383910999 2.0089794024 -2.2310693647
C 3.2632440274 1.670888442 -3.6359617257
O 1.9706865831 1.181505572 -4.0638828682
C 1.3663879626 1.5172171888 -2.8013229222
C 1.3664378169 0.32372838 -1.8289311905
H 0.2529620011 -0.1665522275 1.4749450926
H -0.6364672319 -0.8206381243 0.0839421463
H 1.0421684976 -1.3246462182 0.3869465382
H 0.1127482869 1.4969153349 -0.3985995394
H 3.6566536466 0.2149828891 -1.1656103495
H 2.9444924604 2.9906976994 -1.8081415821
H 3.5759635098 2.5392248702 -4.2287371646
H 4.0430153786 0.9002782762 -3.6972724652
H 0.4538482125 2.1102517371 -2.9148685905
H 1.1480119196 -0.6620461591 -2.2382167812

