# b3lyp 6-31G(2df,p) opt Freq 

 titel

0 1
C -0.9592120258 3.7539548581 0.9857703294
C -2.0855782578 2.8870365448 0.4919426626
O -2.1741123411 2.6133916061 -0.8826173663
C -0.9000960092 2.1447786159 -1.3140238273
C -0.2045903408 1.5149998939 -0.0886395616
C 1.3340888005 1.3751783695 -0.1630096653
O 1.2577320859 -0.0625918121 -0.1147863332
C -0.177244163 -0.0331254313 -0.0004146501
C -0.860177643 2.235710567 1.0700300029
H -0.3471027845 4.2917691111 0.2697285541
H -1.1169462187 4.2815073194 1.920221823
H -3.0580246308 2.9002314566 0.9687345664
H -1.0576538155 1.4394396782 -2.1350563636
H -0.2930691321 2.9777617769 -1.7003676039
H 1.7987090855 1.7312537557 -1.0929228378
H 1.8839620887 1.791356368 0.6906110267
H -0.6699640556 -0.5669244993 -0.8232829074
H -0.5229617093 -0.4539884208 0.9530860882
H -0.8559488132 1.7599583823 2.0438469131

