# b3lyp 6-31G(2df,p) opt Freq 

 titel

0 1
C 0.0058885013 -0.2899447022 -0.2209170877
C 1.4939923438 -0.0819888885 -0.0855504684
C 2.3285443479 -1.1536584107 0.6108406174
O 3.6557939746 -0.5997982975 0.5051869508
C 3.4101220705 0.6172266982 -0.179343942
C 2.1371464767 1.2570645975 0.4602946021
C 1.7221760221 2.2972800351 -0.5695235077
O 1.9094009924 1.550081747 -1.7947246833
C 2.3952613084 0.305656092 -1.3125161983
H -0.4917443568 -0.2766728018 0.7553176866
H -0.4428968256 0.488223702 -0.8447152008
H -0.2124493535 -1.2555305352 -0.6910434538
H 2.0622485972 -1.2970388837 1.6662438951
H 2.2834947924 -2.1268077541 0.1047396963
H 4.335598933 1.1669595976 -0.3441906692
H 2.1031273112 1.5204639407 1.5177538749
H 0.6775266055 2.6191253715 -0.4825264948
H 2.3628037956 3.1876996449 -0.571390966
H 2.6079633335 -0.373515163 -2.1376052613

