# b3lyp 6-31G(2df,p) opt Freq 

 titel

0 1
C -3.4742364671 2.313048923 2.57044671
C -3.1734256471 1.2139634249 1.5749134978
C -1.9408260506 0.3927017139 1.7908808156
O -1.8844720413 -0.7089828167 0.8752481403
C -1.8177643384 0.2106722614 -0.2481395697
C -1.9658557055 1.417530321 0.6767479602
C -0.4895530467 0.1692582016 -1.0045692268
C 0.4888987035 -0.9216768609 -0.641442318
O -0.2821329806 1.0026890408 -1.8559396894
H -4.060687073 1.9312509267 3.4124468554
H -2.5519609257 2.7445391345 2.9746569084
H -4.0408094738 3.1255427964 2.1039175762
H -4.0390055205 0.7005046369 1.1592981213
H -1.3847965128 0.3129333957 2.7184874552
H -2.6295199403 0.0419869389 -0.9686746133
H -1.4589120654 2.3647242177 0.5537303779
H 0.8050977452 -0.8073192228 0.4006256937
H 0.005128686 -1.9021168778 -0.7025986767
H 1.3528693841 -0.875841845 -1.305208668

