# b3lyp 6-31G(2df,p) opt Freq 

 titel

0 1
C -3.8166799892 2.6854586699 3.5716215913
C -2.7655075818 2.0317069563 2.7165096529
C -2.988905693 0.62196975 2.1613284102
C -1.6001218218 0.0380192403 1.8922661839
C -0.6870744982 0.6741492916 0.894203942
O 0.259190151 -0.1952202218 0.3423971766
C -0.5510871009 1.0464230587 2.359149367
C -1.3104244983 2.2652655897 2.816621824
O -2.0918037279 2.8994146333 1.7840096071
H -4.0347333846 2.0786298248 4.4567809674
H -3.4839796711 3.6744851335 3.8964630357
H -4.7508906078 2.8102276975 3.0125802024
H -3.5049457982 0.0158353652 2.9144508938
H -3.626520994 0.6456382939 1.2704907351
H -1.43765412 -1.0208562235 2.0585877952
H -1.0868358971 1.431861661 0.2254892067
H 1.0409996416 0.3223159495 0.1227361823
H 0.3367666428 0.7383281814 2.8979316618
H -0.8694342715 2.9459401286 3.5406942147

