# b3lyp 6-31G(2df,p) opt Freq 

 titel

0 1
C 1.8145047138 -2.171044351 -1.7810063919
C 2.0059141726 -0.9465004238 -0.8682141227
C 3.45099447 -0.8068674611 -0.3368672419
C 3.344059732 -0.8398587264 1.1944281364
O 4.2651411318 -0.7887801876 1.9764761803
C 1.9030367294 -0.9306101173 1.5147780451
C 1.158998208 -0.9766113845 0.3988921485
C -0.3450790397 -1.0073330218 0.3695599921
O -0.8797425202 -2.1837304175 -0.2301546103
H 2.1061832972 -3.0891505368 -1.2581923921
H 0.7749365982 -2.2788235848 -2.0936099223
H 2.4459049246 -2.0778606958 -2.6701735464
H 1.7200706778 -0.0555964888 -1.4446817786
H 4.1057778403 -1.6156419576 -0.6757878569
H 3.9272704039 0.1307691445 -0.6397886566
H 1.5343157033 -0.9348626024 2.5340175896
H -0.738179022 -0.8653274587 1.3862879839
H -0.7167234445 -0.1781631624 -0.2446242637
H -0.5779288368 -2.9372774062 0.2882896675

