# b3lyp 6-31G(2df,p) opt Freq 

 titel

0 1
C -0.2317030501 -1.4226087436 -0.2870112
C 1.1646615664 -0.8595629177 -0.3348509462
C 1.7508876402 -0.2177809668 -1.5679999824
C 2.3407813431 -1.5071357548 -1.0532097548
C 3.457739858 -1.3838049768 -0.0156071736
C 3.1023503558 -2.3419430174 1.1467513445
O 1.989950183 -1.6618212947 1.760089469
C 1.8435812538 -0.4657983778 0.9847383303
O 3.1649825406 -0.125500351 0.6176562211
H -0.3081870563 -2.192359781 0.4869962482
H -0.9687835755 -0.6427767774 -0.0608480785
H -0.511417564 -1.8700462387 -1.2456694139
H 1.1530010925 -0.2981044155 -2.4699806451
H 2.3244204226 0.6973804895 -1.4783711144
H 2.2317612238 -2.4321221911 -1.6073721956
H 4.4906688596 -1.4009140085 -0.3616844955
H 2.799764011 -3.3370535388 0.8037545659
H 3.9173039267 -2.4357823806 1.8729993454
H 1.3892181489 0.3128710228 1.5979068257

