# b3lyp 6-31G(2df,p) opt Freq 

 titel

0 1
O 0.9789346138 -0.8425075219 1.566127335
C 0.631481048 0.5311925512 1.5519640576
C -0.8331430876 0.7629074808 1.1568476829
C -1.1891365563 2.2224006269 1.0780823631
C -2.5432139637 2.8779721299 0.6186931475
C -1.6548957891 4.1208424626 0.9625737348
C -1.1978459782 3.3102678218 2.2209718343
C -0.5454837544 3.3452249033 0.2396138637
O 0.3419151715 3.506378215 -0.5412887674
H 0.4670871736 -1.2701610314 2.2601282544
H 0.8390165363 1.0075577196 2.5234774331
H 1.2879606643 1.0015708764 0.8136592198
H -1.0082651186 0.2900378478 0.1833347818
H -1.4923023161 0.2571184125 1.8768145645
H -2.8446526741 2.7388513379 -0.421549126
H -3.374986458 2.7157270213 1.309202845
H -1.9252626561 5.1721612337 0.9081129816
H -0.244396408 3.5798320162 2.67928474
H -1.9820563773 3.1630792367 2.9683046943

