# b3lyp 6-31G(2df,p) opt Freq 

 titel

0 1
O -1.7996343473 -0.2468654047 0.2094278681
C -0.86756065 -0.5525363894 -0.7791686622
C -0.8429245837 -1.9404002955 -1.3790435069
C -1.2874277331 -0.7540595475 -2.2109898987
C -0.2424100491 -0.107837239 -3.1159736088
C 1.0027763701 0.085770894 -2.2149892707
C 0.4293102714 0.2148945276 -0.8073831952
C 0.6435951203 1.3763238287 0.0612800647
O 1.3008667934 0.124662084 0.3221328584
H -1.4981464187 -0.6626054434 1.0255714708
H 0.1010859332 -2.4337470319 -1.5866898872
H -1.6335912301 -2.5982635473 -1.0356772966
H -2.3354984313 -0.6933361122 -2.4800545616
H -0.0206455459 -0.7055352422 -4.0060769175
H -0.6145211187 0.8633316601 -3.4609485769
H 1.6591192892 -0.7899616949 -2.2547974966
H 1.6056229598 0.9499038031 -2.5023475289
H 1.2960514672 2.1819643517 -0.2739619818
H -0.1240216968 1.6579316289 0.7782966377

