# b3lyp 6-31G(2df,p) opt Freq 

 titel

0 1
C -0.5285615376 5.2543282716 0.3947589289
C -0.1411857486 4.1697415685 -0.6108514313
O -0.2175440983 2.8760095677 0.0085589685
C -1.0864855455 2.0083844916 -0.7220335052
C -0.3153383113 0.7549013266 -1.1905662517
C 0.2734192726 -0.0185163619 -0.0297926275
O 0.0806175568 -1.1906861816 0.1735251064
C -1.6048782537 2.8546726161 -1.8539577649
C -1.0578101876 4.0624322204 -1.8007352356
H 0.1186839973 5.1983329406 1.2743034532
H -0.418094703 6.2487424528 -0.0505432965
H -1.5664487644 5.1268229903 0.7155456595
H 0.8999711143 4.3426527716 -0.9297271056
H -1.903171939 1.6825830393 -0.057699318
H -0.9677881091 0.0875906107 -1.761876071
H 0.5075285454 1.0867503444 -1.8374603364
H 0.9137141335 0.5881498365 0.6451076489
H -2.3119898081 2.4858895342 -2.5860345791
H -1.2283683138 4.8846625407 -2.4843034327

