# b3lyp 6-31G(2df,p) opt Freq 

 titel

0 1
O 1.5933085859 0.6340185278 0.3295988782
C 0.5695080709 -0.2672993767 0.7009138308
C -0.3547897812 0.3542307002 1.7408149919
O -0.8770118485 1.5986950547 1.2093661101
C -2.2767099772 1.3945350698 1.2736447612
C -2.6468296544 -0.0577179708 0.8542337254
C -3.8151991924 -0.0302211681 1.8648332957
C -2.6582177172 0.6798648655 2.6022479589
C -1.6570728438 -0.3829725868 2.0306018148
H 1.1448942032 1.4596818353 0.1092261071
H -0.0232426839 -0.5862716519 -0.1717091875
H 1.0589344813 -1.1557327837 1.1156048639
H 0.2182763723 0.5789401904 2.6500786023
H -2.8169972212 2.264473413 0.9020613345
H -2.6339584051 -0.4785479842 -0.1513994624
H -4.6830655037 0.5810989343 1.6007508244
H -4.1269880007 -0.9956616205 2.2700624083
H -2.6502779926 1.1067963831 3.6057205885
H -1.6209866518 -1.3857233112 2.4570806038

