# b3lyp 6-31G(2df,p) opt Freq 

 titel

0 1
C 1.376862214 0.022298015 -0.2511175416
O -0.0070721198 -0.0341045186 0.004012489
C -0.3728970693 0.623504663 1.198230015
C -1.8751502314 0.5058458307 1.3483295231
C -2.5176291263 -0.8616422309 1.7803817445
C -3.765815641 -0.0102038115 2.1999074732
C -2.5597697654 0.8475323193 2.7180643778
C -2.0013204927 -0.5108421009 3.1857844386
O -1.4760263326 -1.0139339973 4.1293401777
H 1.95992781 -0.4599504546 0.549050189
H 1.558102177 -0.50784261 -1.1891011425
H 1.730819904 1.0604086569 -0.3545814362
H 0.1478675508 0.1778514589 2.0625122437
H -0.0804396284 1.6877345153 1.1584485779
H -2.3890911003 0.9520933774 0.4921193003
H -2.4982936268 -1.8046538259 1.2403972539
H -4.3084236664 0.4358088284 1.3635051303
H -4.4405100559 -0.4334350722 2.945616813
H -2.5920799795 1.8064473671 3.2311272934

