# b3lyp 6-31G(2df,p) opt Freq 

 titel

0 1
O 0.3751146034 0.1574204301 0.7511086168
C -0.9455692162 0.5520228312 0.5943065493
C -1.2625852781 2.0557750713 0.3698794423
C -2.3726464031 2.0060907317 1.4602108536
C -2.1270557612 0.4943844666 1.6815330856
C -2.9341214646 -0.3894673433 0.7106721106
C -2.5996696226 -1.8872978351 0.8062106577
O -1.4984199858 -1.7595351601 -0.12058148
C -1.7642029766 -0.365581574 -0.3290843583
H 0.8219151993 0.7953516329 1.3173489715
H -0.4168382891 2.6972937428 0.6372765306
H -1.5764573322 2.3257337811 -0.6435652547
H -2.1366675858 2.6145006142 2.3366051922
H -3.3799060168 2.2715089527 1.1270785868
H -2.0175264318 0.1346500795 2.7065733121
H -3.9648055925 -0.1079874281 0.493268792
H -2.2781796155 -2.2499625145 1.7908076833
H -3.3735013903 -2.5593310668 0.413066919
H -1.8288337906 -0.1060555722 -1.3910509105

