# b3lyp 6-31G(2df,p) opt Freq 

 titel

0 1
C -0.8442337489 -1.152563013 -1.6036199232
C -1.6555864359 0.0198782027 -1.1189426689
C -1.5064643611 1.4624381971 -1.5055637525
C -0.0571901099 1.9005488513 -1.1701819238
C 0.4002290887 1.3787664705 0.2004458799
O 0.4806499137 -0.0551158776 0.2515363338
C -0.6916233277 -0.6405268227 -0.1847313174
C -1.9155842696 -1.0071066602 0.6509283403
O -2.7959298475 -0.4500540466 -0.3737743147
H -1.3458330536 -2.0938653612 -1.8077248943
H 0.002164055 -0.9212877872 -2.2413379028
H -1.746530968 1.6648670174 -2.5549323024
H -2.2106185481 2.0367802064 -0.8927476307
H 0.6402400477 1.5353789095 -1.9335812004
H 0.0108701516 2.9934625772 -1.1753768242
H 1.4075556977 1.7326106388 0.4337986597
H -0.2795101236 1.7451311301 0.9860364457
H -2.1173218566 -2.0666511705 0.8449462209
H -1.9914745037 -0.4357634621 1.5836150149

