# b3lyp 6-31G(2df,p) opt Freq 

 titel

0 1
O -1.2392800386 -0.4402316249 1.2114422003
C -1.0739940999 0.2359570297 -0.0318602429
C -2.2204346671 1.2370904511 -0.1955319794
C -1.960147228 2.5306194356 0.5833048777
C -0.6879402549 3.2198849064 0.0687827843
C 0.4457711675 2.2487912096 -0.0711992691
C 0.2815996044 0.9172661237 -0.0891979371
C 1.4633097692 0.0462306219 -0.0783772998
O 1.4147837371 -1.154395165 0.1073160364
H -0.532279781 -1.0975830292 1.2484908269
H -1.1164669644 -0.495699693 -0.8532651906
H -2.3411577549 1.466413999 -1.2619037255
H -3.1414001134 0.7521963579 0.1402330932
H -2.814346274 3.2100007174 0.5052863883
H -1.8349687964 2.2860183111 1.6439623578
H -0.8734373208 3.6934739886 -0.908264087
H -0.3850987263 4.0385093294 0.7329976841
H 1.455398727 2.6550684496 -0.1346000108
H 2.4383287347 0.5604968609 -0.2279559768

