# b3lyp 6-31G(2df,p) opt Freq 

 titel

0 1
C -0.4754497958 -0.5457661515 1.1418689788
C -0.3270444178 0.7192208378 0.3243871733
O -1.2655635772 1.402361388 -0.0120922937
C 1.1030503331 1.0715614494 -0.1039410432
C 1.3828177123 0.4494759296 -1.4798872031
O 2.1064597783 -0.5173191877 -1.5919418168
C 0.706133689 1.0919834624 -2.6370921883
C 1.5143534647 1.2157055984 -3.9265142963
C 0.4104204462 0.2215096546 -3.8492798624
H -0.0200780878 -0.4014048133 2.1288419033
H -1.5295444453 -0.7984511466 1.2602795013
H 0.0665583197 -1.3691189953 0.6633283975
H 1.173752573 2.1602559886 -0.1716776973
H 1.8402689893 0.6770232435 0.5971465224
H 0.0057926413 1.8830085411 -2.4000884752
H 1.373242209 2.1198766426 -4.5071226852
H 2.5305004646 0.8409977379 -3.8812565672
H -0.5147633142 0.420320799 -4.377257355
H 0.6848704775 -0.8225531585 -3.7529980129

