# b3lyp 6-31G(2df,p) opt Freq 

 titel

0 1
O 0.1137988073 -0.0759406656 -0.1493438108
C -0.8928991154 0.2880610187 0.7745601984
C -2.2340861215 -0.3486243257 0.3379387002
C -2.6374617314 1.0210631797 -0.3056945299
C -3.9907004029 1.6067920084 -0.0760313237
C -4.1604067743 2.6183319408 0.7728851905
C -3.0195932321 3.1569189588 1.5951828724
O -1.9474744439 2.2383836615 1.7277606258
C -1.4957493066 1.6943614543 0.5052153045
H 0.8891027032 0.4672940304 0.0284647039
H -0.5816460845 0.1270561232 1.8143340626
H -2.1369768238 -1.2064657001 -0.3291267802
H -2.8657184907 -0.6085034691 1.1891476204
H -2.3947011791 1.0137709773 -1.3729422317
H -4.8310928763 1.2002675976 -0.6337770616
H -5.1304566044 3.0870867912 0.9134256992
H -2.6610017056 4.1147503204 1.1756982315
H -3.3543295807 3.3680900262 2.6171333926
H -0.8526945174 2.4065674122 -0.0351995742

