# b3lyp 6-31G(2df,p) opt Freq 

 titel

0 1
C -2.1356603583 -2.6246590205 -0.6361189529
C -1.7589607353 -1.4334002805 0.2504538512
C -0.2788571775 -1.1407604493 0.3895165983
C 0.0401067066 0.1503829639 0.2378615618
C 1.3919456026 0.7815653018 0.2864153765
C -1.2059336841 0.9879916076 0.0385431123
O -1.110025977 1.9670248898 -0.9687955319
C -2.2413971953 -0.0905850675 -0.305382721
O -3.1869490729 0.1111447058 -1.0252651533
H -1.803661923 -3.5640179488 -0.1844487172
H -3.2188840495 -2.6690060148 -0.774503308
H -1.6720611326 -2.53648718 -1.6231451152
H -2.2230787166 -1.5727060079 1.2405887962
H 0.4403960075 -1.9281976969 0.5925872867
H 1.4677974704 1.4899293071 1.1212665928
H 2.181663952 0.0335173965 0.3953732769
H 1.5724651764 1.3573230686 -0.6277775402
H -1.4947534263 1.4602798508 0.9979231462
H -1.9440013873 1.9201813044 -1.4585166193

