# b3lyp 6-31G(2df,p) opt Freq 

 titel

0 1
C 0.3441939496 0.2942887806 0.1871747901
C 1.4962710158 -0.5994442533 -0.1958859026
C 1.5769993755 -1.2590166898 -1.5506381626
C 2.5561889379 -0.1734226591 -1.1755576757
O 3.8636726847 -0.5790135725 -0.8661938138
C 4.1901491197 -0.3504456934 0.4785387186
C 4.4325924747 -1.56839525 1.330522513
C 3.1417018366 -0.8017568215 1.4573622984
O 2.0075778683 -1.3779281768 0.8672624684
H 0.6392263182 1.0010067226 0.9706216955
H -0.0058592772 0.8704608624 -0.6746873446
H -0.4943896083 -0.3009063774 0.5631044766
H 1.9700505111 -2.2686419465 -1.5740833975
H 0.8119641402 -1.0333659488 -2.2858550782
H 2.4880246432 0.8013037221 -1.6561823472
H 4.7578689157 0.5598951163 0.6602615068
H 4.3742041081 -2.525650283 0.8257939617
H 5.1551867925 -1.5010943404 2.136310882
H 2.9458276836 -0.2236422214 2.3580092212

