# b3lyp 6-31G(2df,p) opt Freq 

 titel

0 1
C 0.0400098889 -0.8527014272 2.6838614971
C -0.383992827 -0.878398141 1.2431178279
C -1.0997089817 -2.0093165557 0.4370710464
C -0.9268544541 -0.8705059045 -0.6128050136
C 0.5231412078 -0.7076931374 -0.0361625192
O 1.2598243189 0.4568487595 -0.2377191472
C -1.3579617734 0.0708206056 0.5171150691
C -2.546471352 0.8286676574 0.8722591479
O -1.3023218159 1.4878387776 0.5146240424
H 0.7435765606 -1.66284506 2.9016608848
H 0.537053078 0.0948640214 2.9169703312
H -0.8168817143 -0.9608357105 3.3579179731
H -0.5120931842 -2.9133848895 0.2603029432
H -2.1234306009 -2.2446907902 0.7343082306
H -1.2441762434 -0.8661857929 -1.654430616
H 1.1938303976 -1.5485197578 -0.2351340038
H 0.6864559641 1.2185685885 -0.088290297
H -3.352153209 0.9579007131 0.1515774856
H -2.8353718697 0.9437132038 1.9157073175

