# b3lyp 6-31G(2df,p) opt Freq 

 titel

0 1
O 0.9023009495 0.0254909645 -0.8937483394
C -0.0903114302 0.0308227617 -0.2184769879
C -0.907103301 -1.231690415 0.0443312308
C -1.8528756641 -1.1537873172 1.2256471828
C -1.4350396403 -1.7572100775 2.5464076816
C -2.5200159347 -2.4073187677 1.71702479
C -2.5881368953 0.1685695842 1.2262782182
C -1.5645837383 1.295018251 1.2795596877
O -0.5574676737 1.2127252672 0.2551671561
H -1.4781926033 -1.4030753002 -0.8796038395
H -0.1995576652 -2.0603253817 0.1250898001
H -0.4712572673 -2.2518234729 2.604548165
H -1.7279694211 -1.2506048927 3.4604310011
H -2.2875135624 -3.3409486583 1.2149970364
H -3.5435512841 -2.3369019938 2.0706059235
H -3.2029042725 0.2634181715 0.3216586215
H -3.2578207679 0.2579571381 2.0883612029
H -2.0301060769 2.2742078573 1.1417799017
H -1.0550253111 1.2938811315 2.2513284075

