# b3lyp 6-31G(2df,p) opt Freq 

 titel

0 1
C 1.1481530768 1.2614976692 0.1770586315
C 0.6532177863 -0.1889526393 0.0782065712
C 1.2763901235 -0.9242767218 -1.0646613926
O 2.658520437 -1.2999163348 -0.9991114503
C 1.6927613971 -2.3130140988 -1.2988648199
C 1.650635168 -3.5666141083 -0.4913387397
C 1.3220227288 -2.1609306339 -2.8365202513
O 2.066741884 -1.0752146622 -3.3835850131
C 0.9095161855 -0.7786094882 -2.6049047157
H 0.6756905639 1.7781485521 1.0173838187
H 2.2317837002 1.2877060946 0.321506903
H 0.9186612596 1.8219159027 -0.735121748
H 0.8774308941 -0.7254006518 1.0069319483
H -0.4376002583 -0.2065338051 -0.0440525661
H 1.7194427785 -3.3413197886 0.5761926286
H 0.7199449348 -4.1143345279 -0.6741080791
H 2.4857176451 -4.2252829478 -0.7559157187
H 0.9421836692 -2.9215325587 -3.5083264306
H 0.122479786 -0.1815574012 -3.0499345663

