# b3lyp 6-31G(2df,p) opt Freq 

 titel

0 1
C 1.2257365085 -1.0792575951 -1.0511612581
C 1.5940187407 0.0437365765 -0.0945517136
C 1.7276944691 -0.2469887449 1.4088969981
O 2.6821709265 -1.090370438 1.9334571656
C 0.1693405721 -0.2404595633 1.6712450684
C 0.3079527599 0.7734640949 2.827848039
C 1.385538666 1.234848343 1.82426143
C 0.4849100421 0.8629166877 0.5848550847
O -0.3981195725 1.6606799458 -0.1089050949
H 0.4111517485 -1.6955294716 -0.6573097001
H 0.9036431173 -0.6763748807 -2.0166080711
H 2.0845675777 -1.7341014437 -1.2293523894
H 2.4094372168 0.6597732414 -0.4945846906
H 2.5711899313 -1.1332600221 2.8900979387
H -0.5162200965 -1.0821731046 1.5714567583
H -0.536042708 1.4509756269 2.9995999886
H 0.6574752843 0.385007625 3.7910665933
H 2.0899086013 2.0660517306 1.8815342451
H -1.0112083848 2.0661003022 0.5148577881

