# b3lyp 6-31G(2df,p) opt Freq 

 titel

0 1
C 0.1074336725 0.1595555249 0.254782994
C 1.4694638914 -0.3461858729 -0.1948834049
O 1.6363255275 0.0081576182 -1.5849335822
C 3.0103580581 0.262936019 -1.8983121026
C 3.6287851656 0.644930353 -0.5809278094
C 4.8359353062 0.203134225 0.2726111625
C 3.8188133843 -0.2084428332 1.3993902461
C 2.6806716081 0.2625818948 0.4698084903
O 2.9006820639 1.6375417459 0.1462330782
H -0.0919480195 -0.1471907421 1.2862843419
H 0.0813421117 1.2501013332 0.1956956728
H -0.6791251432 -0.2474813481 -0.3857992616
H 1.5279424105 -1.4413148433 -0.0744684081
H 3.5135379344 -0.6335688981 -2.2947801834
H 3.0253365628 1.0406817597 -2.6680818957
H 5.3657243261 -0.6544793998 -0.1475749251
H 5.5516034333 0.9931366999 0.5077061569
H 3.805803426 -1.2859382649 1.5776121125
H 3.8875691403 0.3169892691 2.3538479879

