# b3lyp 6-31G(2df,p) opt Freq 

 titel

0 1
C 2.5216727452 0.4403698959 -2.4088981839
C 3.0815176831 0.9158197122 -1.0763184568
C 2.9213236765 2.4124615848 -0.713221856
O 4.3329898097 2.5411635949 -0.4494960083
C 4.5938896842 1.2394160176 -1.0162306438
C 2.6776329472 0.0014869635 0.1033386048
O 3.2084306106 -1.3129672608 -0.0455561747
C 1.227197524 -0.0164969154 0.3144465707
C 0.0333221879 -0.053193916 0.4543474952
H 2.8966831104 -0.5591236995 -2.6549205929
H 1.4278519855 0.4004571352 -2.3885183398
H 2.822852557 1.111727833 -3.2183058831
H 2.5993653463 3.0440063836 -1.5525562469
H 2.3095100554 2.6484052112 0.165431871
H 5.0751782977 1.3115418931 -2.0010733351
H 5.2065703768 0.6104239594 -0.3617192976
H 3.1581864112 0.4001830787 1.0055055624
H 2.6152578802 -1.8068329614 -0.6212982652
H -1.018862299 -0.0834966201 0.5981357099

