# b3lyp 6-31G(2df,p) opt Freq 

 titel

0 1
C 1.386665269 1.3005621884 -0.096917016
C 1.1552940739 -0.2005647069 0.0353208584
C 1.7732507336 -1.0564325898 -1.1006770468
O 3.185446598 -0.701159373 -1.0107897368
C 3.1548330932 -1.4727551597 0.1945195035
C 2.0456928646 -2.407989523 -0.3361020964
C 1.3494722019 -2.3678847289 1.0302972583
O 1.9631605193 -3.3379772323 1.8579313867
C 1.957638702 -0.9426075631 1.1301586961
H 1.0452783478 1.8264497569 0.8008129346
H 2.4461188195 1.5173820245 -0.2462007161
H 0.8325452041 1.7076109833 -0.9504121102
H 0.0833779512 -0.4056056624 0.1412054343
H 1.3702080922 -0.9975572641 -2.1114082955
H 4.1201810827 -1.7485150518 0.609642394
H 2.2260736226 -3.3199981156 -0.9012067759
H 0.2536544042 -2.4398646932 1.073919149
H 1.7248095369 -3.1410918326 2.7694246824
H 2.1174812932 -0.4522241367 2.0904002864

