# b3lyp 6-31G(2df,p) opt Freq 

 titel

0 1
O 1.7465463954 2.6176737695 1.7187720678
C 0.6312654148 1.795227235 1.9094185916
C 0.4321020233 0.912637419 3.1717527753
C -0.3344544356 0.0149742144 2.1871927844
C -1.3527377815 0.8991504139 1.3358675679
C -0.5605141638 0.5124770547 0.0518468295
C 0.6159122711 0.4705250614 1.0315185814
O 1.8590658982 -0.0753717218 0.7677548256
C -0.7942277445 2.3097053949 1.635540558
H 1.947245355 3.0737952918 2.5419662445
H 1.3629144925 0.4287011983 3.4791568239
H -0.0774179264 1.3518023837 4.0355709737
H -0.5944177193 -1.0235153204 2.3803388249
H -2.4271369933 0.7421060267 1.4036644062
H -0.8019599782 -0.4931542274 -0.3041477971
H -0.5588419334 1.2181706263 -0.7856430483
H 2.4946025404 0.651772639 0.8183901864
H -0.8530645825 2.9786197531 0.7727828538
H -1.2444206222 2.8036987381 2.5023100306

