# b3lyp 6-31G(2df,p) opt Freq 

 titel

0 1
C -1.0014396802 -1.9916400982 1.2884892057
C -0.8545796751 -1.0384897583 0.1096025382
C 0.2265600743 0.0793985856 0.1013593939
O 1.4245288566 0.0542741398 0.1262904961
C -0.7882356043 1.160221452 -0.1415187102
C -1.8506026355 1.0790512413 0.9501016439
C -1.8962064885 0.0737606834 -0.1527576815
C -3.0499136956 -0.0645058233 -1.1017178078
O -4.0254302731 -0.9841203427 -0.6271397215
H -0.0918486613 -2.5879999942 1.4077740035
H -1.1737214552 -1.4590375509 2.2287799816
H -1.8413672879 -2.6741531137 1.1273536877
H -0.7009217754 -1.6146870172 -0.8129227891
H -0.6687047016 2.0520027075 -0.7448062927
H -1.5726005172 0.8029664385 1.9625368318
H -2.5828970917 1.8801718525 0.8991859095
H -3.490221023 0.9249655314 -1.3046244155
H -2.7085411482 -0.4733249463 -2.059005989
H -4.3433787071 -0.6571412972 0.2211587054

