# b3lyp 6-31G(2df,p) opt Freq 

 titel

0 1
C -0.2607383481 -0.8470812707 1.9805874555
C 1.1460082272 -0.2645348926 1.9758555246
O 1.7031716181 -0.5896745506 0.6925200688
C 3.1108842086 -0.4935127164 0.5552343593
C 3.7274294726 0.7491610784 1.1801506117
O 4.9500361915 0.5211853831 1.8921807579
C 3.7755961549 0.8515394504 2.6485993327
C 3.1602506248 -0.2303011578 3.4706857193
C 1.9755396346 -0.7524608644 3.1540756662
H -0.7937183733 -0.5548293193 2.8906479732
H -0.8210245014 -0.4858820287 1.1148933592
H -0.2206774016 -1.9398556847 1.9332203941
H 1.0723381252 0.8312814388 2.0459110977
H 3.6166917281 -1.3586046072 1.0017411946
H 3.2959151753 -0.5145177013 -0.5233450672
H 3.7108488826 1.6672547332 0.5938451179
H 3.8270769365 1.8423299371 3.1037627594
H 3.7204390559 -0.585250996 4.3323577328
H 1.5591089786 -1.5598115213 3.7521192522

