# b3lyp 6-31G(2df,p) opt Freq 

 titel

0 1
C 0.3990574126 -0.2584508525 3.6643884023
C 0.7958632983 -0.3865226825 2.2140002237
O -0.098631241 -0.9803261173 1.3264835685
C -0.6917581026 -0.1730867581 0.3106154892
C -1.9602844161 0.5574850496 0.8298543002
C -1.0465271176 1.7680416931 1.164673482
C -0.047084904 1.2239243841 0.109879265
O -0.5930226439 1.724759104 2.5166654458
C 0.5459955544 0.9806275752 2.8155203791
H -0.6200590673 -0.5465550291 3.8958598509
H 1.1309659646 -0.4647192016 4.4372331386
H 1.8363408419 -0.6285701295 1.9985048338
H -0.7971745546 -0.8194400308 -0.5640885375
H -2.6656210795 0.7830735871 0.0241401951
H -2.4843887844 0.0932924979 1.6671748131
H -1.453409167 2.7711604727 1.0157036166
H -0.2994035016 1.6132844635 -0.8798814047
H 1.0236769073 1.3464817168 0.2761135995
H 1.4294691706 1.5976326474 2.977994839

