# b3lyp 6-31G(2df,p) opt Freq 

 titel

0 1
C -2.5946209575 -0.624796456 0.1703854758
C -1.1370175592 -0.3179578894 0.0449699859
C -0.1036205551 -1.1559252606 0.0885588153
C 1.1829573467 -0.4060107455 -0.0814930275
O 0.7911045478 0.9596603122 -0.2275969938
C -0.6143395738 1.0810898072 -0.1615864118
C -1.1564196562 2.1987974486 0.7723082059
O -1.9582213175 2.7443382346 -0.2937324634
C -1.275571427 1.9399613192 -1.2755143131
H -3.0435350886 -0.0976769938 1.0202790244
H -3.1496026679 -0.3066768814 -0.7197722516
H -2.7613464812 -1.6956663025 0.3093653339
H -0.1520403749 -2.2292499065 0.2255313929
H 1.8546948613 -0.5074509438 0.7847287365
H 1.7497229667 -0.7256564221 -0.9695082822
H -1.7599733802 1.9022653691 1.6375268142
H -0.3596093268 2.882907111 1.0918212742
H -1.9695828521 1.4467876364 -1.9654080881
H -0.5303997642 2.5118946133 -1.8435081375

