# b3lyp 6-31G(2df,p) opt Freq 

 titel

0 1
O 0.2753426121 0.2986435139 0.4813465725
C -0.9953963759 0.1797072241 1.0707486187
C -2.0962930417 0.8554189565 0.2103900106
O -1.5776571424 2.153900168 -0.1852837164
C -2.0498947829 2.685427282 1.089957448
C -0.9918694583 2.4283614185 2.1776644283
C -1.183157221 0.913313636 2.4323815345
C -2.7145403824 0.8257428557 2.5993271556
C -3.0432655526 1.4913880155 1.2596404837
H 0.2527566614 1.1374960673 -0.0023072096
H -1.1999275042 -0.8896872661 1.1988118028
H -2.4581756654 0.2773424235 -0.6417265323
H -2.4028400232 3.7132673116 0.9913537563
H 0.0101419479 2.6971040128 1.8334923723
H -1.2094991676 3.0046468904 3.08399852
H -0.5760406078 0.5032125707 3.2400629941
H -3.0849418159 -0.2024620179 2.6648730733
H -3.0903361817 1.383870004 3.4623296413
H -4.0807560985 1.6551394734 0.9767459265

