# b3lyp 6-31G(2df,p) opt Freq 

 titel

0 1
C 2.7750805007 -0.3538376365 -1.7392847475
C 1.7661922153 -0.0881642453 -0.637025421
C 1.3256886674 -1.3449645655 0.0958758428
C 1.8759016338 1.185091849 0.2014017301
C 2.9465236987 2.1931617956 -0.0047652355
O 3.3050436576 2.622578152 -1.0763536173
C 0.7856780152 1.0415928873 -0.8727194341
C -0.6337595898 0.9888379718 -0.4446790245
O -1.5437284867 1.4521513692 -1.0861777925
H 3.6526650498 -0.872466892 -1.3370538909
H 2.326903777 -1.0011672177 -2.5006906135
H 3.1094097258 0.5676137765 -2.2161867355
H 0.6554979325 -1.1406634624 0.933637138
H 0.8112410585 -2.0278970756 -0.5889834532
H 2.2014963325 -1.8702801504 0.4911675951
H 1.553396075 1.0823689833 1.2340635002
H 3.4260400109 2.5449349062 0.9346998268
H 0.9568871029 1.634680153 -1.7654556657
H -0.8199325572 0.4927470714 0.5342001283

