# b3lyp 6-31G(2df,p) opt Freq 

 titel

0 1
C 3.2379540987 -2.2816892746 0.041399801
C 2.1387330927 -2.0824911955 1.0682012926
C 0.9853654363 -1.2257399803 0.5402989916
O 0.3060433052 -1.8959715985 -0.5008262766
C 2.568210248 -1.7714697697 2.5194379757
C 1.8316958396 -3.086371147 2.886437901
O 1.570279907 -3.3709350902 1.4858340474
C 2.5988352917 -4.1246784738 3.5517139694
C 3.2387589099 -4.9727463614 4.1138721085
H 3.9691085117 -3.0113701129 0.3980335556
H 2.8087254749 -2.6375597376 -0.8988367086
H 3.7517404327 -1.3334308734 -0.1520499036
H 0.3035601229 -0.9815384757 1.3715206978
H 1.3616371991 -0.2821704528 0.1292177432
H 0.0968831249 -2.7712443847 -0.1486481299
H 3.6441005745 -1.808438751 2.6897893984
H 2.1543750872 -0.8633994584 2.9615147636
H 0.8907655651 -2.9215462753 3.4269953211
H 3.800857678 -5.7266344773 4.6077338118

