# b3lyp 6-31G(2df,p) opt Freq 

 titel

0 1
C -0.0483348129 0.4415840747 0.0089727488
C 1.4157660843 0.137460994 0.0184430457
O 1.8491204683 -1.2832191423 0.0669964291
C 3.0984397878 -0.502523308 0.0392994164
C 2.5070162976 0.4663528724 1.0894987905
C 3.0345957771 1.8951267724 1.1401515358
O 2.7722205213 2.591918174 -0.0668708438
C 3.032990944 1.8138582761 -1.2235396582
C 2.5055411633 0.3919644054 -1.0741595922
H -0.5287746538 0.0514913059 0.9114620021
H -0.2003227003 1.5244760934 -0.0287117979
H -0.5301108205 -0.0104728391 -0.8633914091
H 4.0396517148 -1.0532622263 0.0575930436
H 2.3376877898 0.0154479444 2.0698339678
H 2.5362388818 2.4667066678 1.9296206376
H 4.1152891898 1.8919078833 1.3671961079
H 2.5335456458 2.3298931714 -2.0497279258
H 4.1133766569 1.7949951328 -1.4512883963
H 2.3349078048 -0.1252001524 -2.020979972

