# b3lyp 6-31G(2df,p) opt Freq 

 titel

0 1
C 5.8457539811 -1.2365652707 1.3495051626
C 4.6660128699 -0.2922564089 1.3535331476
C 4.7235782209 1.0257241134 0.6290679816
O 5.8403821606 1.3533887733 -0.1424111283
C 3.8592021704 -0.0828341442 0.06551902
C 2.430958914 0.0060745172 0.0963393631
C 1.2259067108 0.0631352589 0.1243747465
C -0.2284328743 0.1992886095 0.1430396442
O -0.7346548526 1.072785997 -0.8593039133
H 6.5091603781 -1.0384060566 2.1994064463
H 5.5180668459 -2.2784023489 1.4218761224
H 6.4313603467 -1.1245143448 0.4335742679
H 4.0691414303 -0.2925252239 2.2610442067
H 4.2004272329 1.8722891467 1.0717531882
H 6.5461828572 1.6266502614 0.4539381466
H 4.2894958664 -0.5570916457 -0.8128622871
H -0.7040145891 -0.7705967252 -0.0426602499
H -0.5486928334 0.5191926783 1.1483301418
H -0.2056007856 1.8766634934 -0.829692507

