# b3lyp 6-31G(2df,p) opt Freq 

 titel

0 1
C 0.2406481727 2.1553139843 1.5979484571
C 1.0266905527 1.5481804271 0.479821526
C 1.2606205708 0.2579602026 0.1728174354
C 0.7804016601 -0.9619431053 0.9037386872
O 1.8295834804 -1.8918025001 1.1567060089
C 2.1190288124 0.0938194453 -1.0658330381
C 2.4031492483 1.5298417796 -1.5359883261
C 1.6993734219 2.4276929613 -0.5128221123
O 1.6954404511 3.6384311514 -0.5022849834
H 0.0155087747 1.4425828118 2.3948229224
H 0.7904502922 3.0022742491 2.019920141
H -0.7090737453 2.5603251767 1.2292870953
H 0.2542921671 -0.6881175911 1.8281636086
H 0.063569901 -1.504923545 0.2742825471
H 2.4536814578 -1.4689186579 1.755969377
H 3.0278716488 -0.4686997364 -0.829093564
H 1.5907186804 -0.5030247888 -1.8201501085
H 3.4686490129 1.7754812174 -1.5660772235
H 2.00549537 1.739690698 -2.5335202

