# b3lyp 6-31G(2df,p) opt Freq 

 titel

0 1
C 1.5317498262 -0.1713459162 0.1878325782
O 0.1958433348 -0.3958588122 0.6550750363
C -0.4801948794 0.7112145802 1.0298443667
O -0.0181895075 1.8223607926 0.9676252277
C -1.8613398444 0.3330680907 1.5478525564
C -2.7893772311 1.5521422576 1.7721863115
C -3.4898237842 1.3128954205 3.1358633019
C -2.6591537446 0.2264192314 3.771412223
C -1.7879328555 -0.3121117063 2.9226080888
H 2.1422758702 0.2897169752 0.9685178278
H 1.9246960672 -1.1541703247 -0.073082682
H 1.52932479 0.4842719883 -0.686589393
H -2.2739610058 -0.3874536931 0.8288648643
H -2.1662693871 2.448337124 1.8133894586
H -3.4990479885 1.683631162 0.9523948342
H -3.5356416415 2.2222314411 3.7458941265
H -4.5289373447 0.977976253 3.011242269
H -2.7997895478 -0.0922982736 4.7986927745
H -1.1075115462 -1.1284564306 3.1332668096

