# b3lyp 6-31G(2df,p) opt Freq 

 titel

0 1
C 0.0252252065 0.302988918 0.2104410306
C 1.4919600599 0.0254413655 0.2058690484
O 2.2575136425 0.3141730477 -0.9701472579
C 2.6938653559 0.8794152738 0.281197503
C 3.4999892921 -0.2017077161 1.0376896577
C 4.288504135 -1.2240685274 0.1652291629
C 3.0342009423 -2.1552095761 0.1179778231
C 2.2451618067 -1.1184351466 0.9725304726
O 1.6516097309 -1.5173950035 2.1742645818
H -0.3654934101 0.2405682131 1.2305303652
H -0.1787960531 1.3012928031 -0.1858662887
H -0.5144728119 -0.42328557 -0.4092167141
H 2.8030051872 1.9587874871 0.3085030165
H 3.9042646315 0.1005591634 2.0030892884
H 4.6087286392 -0.840505549 -0.8039881445
H 5.1452864599 -1.663534645 0.6796779074
H 2.6329609074 -2.3626825582 -0.8756916896
H 3.1706410804 -3.0924040297 0.6636243234
H 0.9200178579 -2.1101764999 1.966577444

