# b3lyp 6-31G(2df,p) opt Freq 

 titel

0 1
C 0.1176998665 0.4176275587 0.1194032076
C 0.9854473001 -0.8082924805 0.0117512064
O 2.2085825528 -0.8060306328 0.7701942693
C 2.2956316883 -0.8149165235 -0.6461870045
C 2.9759453591 -1.92906294 -1.4636861032
C 3.7069741126 -0.8261471754 -2.2698208858
O 4.9813047448 -0.4763722505 -1.6984022374
C 4.4030069705 0.6216796402 -0.9500780418
C 2.9865603373 0.2907003651 -1.4520763618
H -0.4063857717 0.4328739025 1.0806509306
H 0.7152489121 1.3296818783 0.0437339691
H -0.6375486263 0.4250541322 -0.6742687849
H 0.452359896 -1.7608812545 0.0553061519
H 3.647265143 -2.5824816775 -0.9022471305
H 2.2777565183 -2.5344897865 -2.0499576557
H 3.7351309375 -0.8982276852 -3.3592350826
H 4.5637913581 0.5289045758 0.1295461755
H 4.7940967896 1.5852909808 -1.2982707654
H 2.3807817414 1.0934759228 -1.8706494667

