# b3lyp 6-31G(2df,p) opt Freq 

 titel

0 1
C 2.7803125024 -0.4219187839 1.379178747
C 1.7164347914 0.6273976366 1.7476418878
C 1.8018726842 1.878142891 0.9468081576
C 0.9860774314 2.4998908715 0.0585741662
C 1.643281985 3.7049176642 -0.3696083676
C 2.8273211953 3.7168005378 0.2964274081
O 3.8416456939 4.5878663837 0.244051199
C 4.8267519524 4.4996889823 1.2706469236
O 2.9555518499 2.6310686203 1.0976903875
H 2.680920766 -1.3136475449 2.0058579425
H 2.6827908254 -0.7243056015 0.3321398413
H 3.7874349872 -0.0189150085 1.5192680448
H 0.7140358923 0.2118224955 1.6003269744
H 1.8000932373 0.8626883407 2.8176610146
H 0.0154805577 2.1478060378 -0.2563763095
H 1.2924132159 4.4507685746 -1.0624489628
H 4.3772100867 4.6167807993 2.2629176266
H 5.3574408034 3.5433503363 1.2312482826
H 5.5240330523 5.3167108071 1.0822595562

