# b3lyp 6-31G(2df,p) opt Freq 

 titel

0 1
C 0.0385265944 -1.6527567099 1.3253171666
C 0.871999947 -2.3670135798 0.2830640502
C 0.1306641882 -3.6276895314 -0.1970715302
C -1.078869764 -2.7359588262 -0.6609951295
C -0.3229636618 -1.5182821095 -0.1251013618
O -0.1791646753 -0.2927174653 -0.7637478201
C 1.111815895 -0.2026036404 -1.3526367394
O 2.1493823607 -0.4787793449 -0.4520334792
C 2.2344200912 -1.8748103349 -0.1201324108
H -0.5827274886 -2.2274422778 2.0082899953
H 0.4862563476 -0.7590640111 1.7446986372
H 0.6254244771 -4.1234883385 -1.0360539703
H -0.0802217436 -4.374584456 0.5744017619
H -1.175067817 -2.7189099239 -1.7489212388
H -2.0611831215 -2.9370185286 -0.2223863081
H 1.1745554806 -0.8849897116 -2.2196393
H 1.2285800379 0.8337132823 -1.6734322311
H 2.592427308 -2.4400822748 -0.9963715433
H 2.994361274 -1.9425617578 0.6640261812

