# b3lyp 6-31G(2df,p) opt Freq 

 titel

0 1
O 0.3107712137 0.6242534935 0.1464554548
C -1.0251599585 0.951701255 0.4254863298
C -1.2557790686 1.8669189589 1.6410308627
C -2.7458646932 2.2902418122 1.4793911722
C -3.0458873273 1.9420067786 0.0157170734
C -3.1221435507 0.4321004579 -0.3907785736
C -2.0457861578 -0.232315974 0.4892676811
O -2.3459288484 0.7344284571 -1.5887251382
C -1.7181339261 1.7255728751 -0.7434963834
H 0.6576019697 0.1086453021 0.8818391405
H -1.0492513002 1.3605352427 2.5899957795
H -0.5888507087 2.7340659005 1.577332274
H -3.4073594068 1.756443094 2.1696395117
H -2.8843822953 3.3576183624 1.671216748
H -3.7841107078 2.5518797594 -0.503023224
H -4.0569840629 -0.094361095 -0.5865672694
H -2.3696952267 -0.4782527176 1.5049504384
H -1.6547985025 -1.1252546769 -0.0026615774
H -1.1414060317 2.4865225541 -1.2682893703

