# b3lyp 6-31G(2df,p) opt Freq 

 titel

0 1
O 1.4584526233 0.9942414533 -0.1605999289
C 0.1637073265 0.5539471607 0.2179740166
C -0.8059661545 0.9700028908 -0.8916433841
C -2.2280273438 0.628007709 -0.5728541325
C -3.0073623988 -0.2907619899 -1.1565023704
C -4.3989394509 -0.3521826272 -0.5606828943
C -4.3280977701 0.6638456333 0.5736763474
O -3.3724597792 0.3507863647 1.5893459429
C -2.991097898 1.2785166811 0.5447442922
H 2.0785204615 0.7258197362 0.5234919743
H 0.1268046215 -0.5390431888 0.3429128979
H -0.1489452664 1.0013675551 1.1746527404
H -0.6978003529 2.0534741184 -1.0362675859
H -0.4969092107 0.4929498673 -1.8272039257
H -2.6871893574 -0.9565260232 -1.9512130953
H -5.1714123748 -0.075678462 -1.2902538132
H -4.6530581059 -1.3535780969 -0.192163897
H -5.2189467404 1.1830223342 0.9168208867
H -2.7739581991 2.2880533441 0.8836653289

