# b3lyp 6-31G(2df,p) opt Freq 

 titel

0 1
O -1.9298758236 0.0102227327 2.2918802383
C -2.6927136216 -0.0497470396 1.1095988729
C -2.3601452658 1.0437167081 0.0678990754
C -2.7464204946 -0.000838719 -1.0192822155
C -2.3373102445 -1.0951948769 0.0076819496
C -0.823398741 -1.3141247049 -0.0261765581
C -0.0343241699 0.0021234039 -0.0442182577
O 1.1698055876 0.0144364085 -0.1257345009
C -0.8498458935 1.2969523935 0.0430595573
H -2.2038272294 -0.703659958 2.8760563774
H -3.7694634792 -0.0654415217 1.3252041433
H -2.9236935875 1.9782238673 0.1154149392
H -3.8184701763 -0.0063242513 -1.2294382083
H -2.1963682286 0.0314871727 -1.9640888692
H -2.8846995756 -2.0415332369 -0.0001460352
H -0.4808450543 -1.8804758986 0.8471155841
H -0.5260395015 -1.8930002528 -0.9082915942
H -0.5220297065 1.8245633784 0.9449135908
H -0.5703027841 1.9264108744 -0.8097954892

