# b3lyp 6-31G(2df,p) opt Freq 

 titel

0 1
C 1.6698395884 -1.6666446239 -1.0338476358
C 0.2126778764 -1.9817818004 -0.6460784212
O -0.7277066034 -1.5233818869 -1.6442919585
C -0.9759513273 -0.2849988658 -0.9189096213
C -0.7112909804 0.9636705706 -1.7448520988
C 0.744986067 1.0154977089 -2.206638998
O 1.6572806939 0.910111863 -1.1201181919
C 1.5270397529 -0.2592194009 -0.3484028356
C 0.0917424071 -0.6413147234 0.1298568318
H 2.4041190865 -2.29372405 -0.5199847373
H 1.8755912166 -1.6859425438 -2.105766914
H -0.042035664 -2.9700630652 -0.2567724442
H -1.9991121256 -0.283685496 -0.5217592043
H -1.3780033799 0.9854892912 -2.6148724934
H -0.9398247103 1.841992647 -1.1280030364
H 0.9226715364 0.2178557776 -2.9408345309
H 0.9698698997 1.9712752724 -2.686864446
H 2.2298864571 -0.1312093279 0.4773317457
H -0.1501151413 -0.5299156164 1.1852787501

