# b3lyp 6-31G(2df,p) opt Freq 

 titel

0 1
C 2.533976126 -0.2694306541 -2.5465772266
C 3.0447128017 -0.7908639701 -1.2199912112
O 3.7291329264 -1.7886716458 -1.1558452318
C 2.6757742764 0.0058502985 0.0650189941
C 3.1273253378 1.4799602642 -0.0853197567
C 3.4027457845 -0.6199853324 1.2892151245
O 3.0558750076 -1.9559114495 1.5381870058
C 1.2246570991 -0.0643800199 0.2336967019
C 0.0297474075 -0.1111964073 0.3595485798
H 2.6089425015 -1.0573546081 -3.2968338054
H 1.5044978414 0.0860876367 -2.4622628441
H 3.1519154435 0.5768026214 -2.867953011
H 2.9108304308 2.0240915718 0.8379585384
H 4.2044910681 1.5341909127 -0.2736554508
H 2.6017535738 1.9815423775 -0.8999404983
H 4.4851979914 -0.4985750752 1.1283560408
H 3.128180143 -0.0455228204 2.1794460215
H 3.3870525671 -2.4529109573 0.7791434204
H -1.0231341876 -0.1652037126 0.4888788288

