# b3lyp 6-31G(2df,p) opt Freq 

 titel

0 1
O 1.0335922051 -0.5593124382 0.3696786908
C 0.1416074317 -0.1772161169 -0.3453352087
C 0.0331148835 1.2100138444 -0.9161523538
C -0.9984106626 2.1547437259 -0.2346011395
O 0.0191033614 3.1293645204 0.0328855442
C 1.0736579476 2.2604622591 -0.4730574262
C 1.9243622592 2.9073194528 -1.5186018824
C 3.1604967071 3.6695235976 -1.1095556413
C 3.2975520986 2.3364016985 -1.7940937499
H -0.6987420075 -0.8561570105 -0.6194475366
H -0.1107103438 1.1431678892 -1.9993472013
H -1.7932093018 2.5438461543 -0.8808104309
H -1.4475269547 1.7575299043 0.6856218402
H 1.697687835 1.889407756 0.3500850158
H 1.372433996 3.2950139172 -2.370748549
H 3.4105605218 4.5649785333 -1.6668398207
H 3.3904141306 3.7246743712 -0.0508537906
H 3.6408497051 2.3132550388 -2.8219937041
H 3.6176534477 1.4879416825 -1.1982792261

