# b3lyp 6-31G(2df,p) opt Freq 

 titel

0 1
O 3.5620356141 1.6261527437 -3.2647651428
C 2.3364140757 1.7291641884 -2.5891527989
C 1.6578820352 0.4494643708 -2.0314487224
C 1.3134806394 1.2104462101 -0.7247122948
C 1.633409001 0.529268838 0.5791681695
O 2.282087193 -0.4819784332 0.6831555142
C 2.3118961025 2.319102436 -1.1670054507
C 2.4251485591 3.7480714656 -0.7429521928
C 3.5435254959 2.7781749912 -0.4362500702
H 4.147551426 1.0787850187 -2.7293856342
H 1.6767310477 2.2835619686 -3.2645619603
H 0.8291479787 0.0264267762 -2.6014567836
H 2.3880024169 -0.3370419431 -1.8185358215
H 0.2885046533 1.5958620773 -0.6907172124
H 1.2504963383 1.0502212141 1.486933627
H 2.5910438592 4.4912077858 -1.5170265931
H 1.8081996549 4.0918807189 0.0815654436
H 4.4541411375 2.8607304793 -1.0211736934
H 3.6970166714 2.4696660636 0.5922629767

