# b3lyp 6-31G(2df,p) opt Freq 

 titel

0 1
O -0.2329079889 -1.7440243185 1.1635415719
C 0.4707067447 -0.7953995702 1.9418357875
C 0.325325406 0.6644380917 1.490139966
O 0.6633719788 1.5575077895 2.2320564709
C -0.2118563779 0.9074458974 0.0902981883
C -0.2055730654 2.380408022 -0.3111621288
C -0.7702669193 2.5975488601 -1.7287744686
C -0.7734779344 3.9991841771 -2.1300371231
C -0.7661333684 5.1608847331 -2.4382174467
H -1.1584010612 -1.7233150634 1.4246278571
H 0.2258335438 -0.845554759 3.0109570451
H 1.5352297458 -1.0466117096 1.8503464412
H 0.3695399266 0.288833965 -0.6072655914
H -1.2253304703 0.4843982712 0.0394187988
H -0.7874533507 2.9626446154 0.4091400665
H 0.814190197 2.7734944779 -0.2592767539
H -0.1853391307 2.0134974086 -2.4520896831
H -1.7937520134 2.20203113 -1.7823551468
H -0.7628526621 6.1848423218 -2.7184754711

