# b3lyp 6-31G(2df,p) opt Freq 

 titel

0 1
C -0.0950532812 -0.1375686617 0.0801482483
C 1.4409463554 -0.1045625571 -0.0110755843
C 1.9941449596 1.2415650336 -0.0644408164
C 2.4526184325 2.3586556852 -0.1084469596
C 3.0099949908 3.6969072652 -0.1598537115
O 4.2077075142 3.888948294 -0.196443413
C 1.99781254 4.8308671622 -0.1906131232
C 1.2421216969 4.8967863675 -1.5322370478
O 0.3127068579 5.9631806134 -1.5725453008
H -0.4427230345 0.3779406491 0.979269357
H -0.547141382 0.3503422904 -0.7874409939
H -0.4492501886 -1.1714903001 0.1171530666
H 1.8788641011 -0.6298566364 0.8474819741
H 1.7756499435 -0.6564434483 -0.8989165247
H 1.269340941 4.6791893456 0.6168939397
H 2.5293456827 5.7697493043 -0.0196536445
H 1.9525551571 5.0884823225 -2.3423882294
H 0.7609631159 3.9290445978 -1.7364635049
H -0.3791751324 5.7791816428 -0.9290980616

