# b3lyp 6-31G(2df,p) opt Freq 

 titel

0 1
C 0.1961017976 0.1371887141 -0.328366807
C 1.0877710193 -0.1959761721 0.8478082893
O 2.4982108714 -0.0193856493 0.552516245
C 2.7279803317 0.6638952158 1.8219480204
C 3.3542499553 -0.2332711754 2.8433371662
C 2.6283752219 -0.7963382309 3.806697836
C 1.1558690496 -0.5580133818 3.9758107803
O 0.6534579573 0.5708278552 3.278593873
C 1.206315826 0.8186710847 2.0169492071
H 0.3933854879 -0.5379608848 -1.1669698806
H -0.8575584351 0.0335461182 -0.0470240041
H 0.3701622113 1.1632672766 -0.6669867016
H 0.8938985318 -1.2192637083 1.2016301195
H 3.3108969851 1.5774899841 1.6618535868
H 4.4153343649 -0.445193735 2.744487327
H 3.0781284415 -1.4868685994 4.5162187833
H 0.6042799608 -1.4687852181 3.6823323525
H 0.9181090076 -0.3829269011 5.0317953423
H 0.840300984 1.8053650875 1.7231296748

