# b3lyp 6-31G(2df,p) opt Freq 

 titel

0 1
O 0.6021650368 -1.0093400342 0.5882750544
C 0.219180539 -0.0112161802 0.0315849979
C -0.6071010998 1.0605125699 0.6836477314
C -1.7932641019 1.5373640221 -0.1983052928
C -2.834246333 2.272653171 0.6531516908
C -2.2118831047 3.5886164899 1.1873950082
C -0.674698665 3.5004118874 1.3712389108
C -0.1077417503 2.4956387119 0.3621616975
O -0.9200697517 2.506709361 -0.8477418299
H 0.4613978042 0.1868633072 -1.0367827978
H -0.8081243185 0.80471899 1.7256259988
H -2.2240154963 0.8312493824 -0.9136558257
H -3.7208359101 2.5026419347 0.0538182857
H -3.1623233405 1.6126206065 1.4645047212
H -2.4116422805 4.3704463247 0.45140242
H -2.6979794861 3.9008733456 2.1153721593
H -0.2289872246 4.4878560063 1.2149256369
H -0.3980356748 3.1841909087 2.3836778673
H 0.9541449376 2.638112365 0.143151596

