# b3lyp 6-31G(2df,p) opt Freq 

 titel

0 1
O -1.7617424038 1.3820251525 2.0312849019
C -1.3063709151 2.0317813267 0.8981941016
C -1.3825241919 3.5241624163 0.7262985542
C -2.1370850398 2.622509813 -0.2280017512
C -1.1599899529 2.0464072369 -1.2608152207
C -0.324062559 1.4159634568 -0.1064754867
C 1.2033086369 1.520020292 0.0635821768
O 1.3244679515 0.0955072257 0.2500474044
C -0.0756678138 -0.102691239 -0.0419243927
H -1.1885018169 1.6138932086 2.7705454178
H -2.0050257771 4.0185977024 1.4654221088
H -0.5295102216 4.1079171498 0.3847495203
H -3.2130809561 2.679597904 -0.3302682918
H -1.6036506634 1.2822723269 -1.9048709257
H -0.6412704946 2.7790888364 -1.8889434594
H 1.7466134234 1.8652255206 -0.8272440797
H 1.557903323 2.0859492263 0.935678838
H -0.2257516802 -0.6349573091 -0.9913430666
H -0.5960523286 -0.6331153269 0.7632431808

