# b3lyp 6-31G(2df,p) opt Freq 

 titel

0 1
C 0.1396562054 -0.041492171 -0.3272619146
C 1.5738526218 -0.2082138757 0.1488482238
C 2.2097720777 -1.54245108 -0.3186341112
C 3.4156881526 -1.8828512827 0.5804423033
O 2.8851157729 -1.9442485366 1.9120338279
C 2.709977674 -0.5790511865 2.2270943501
O 1.5483964294 -0.0825678804 1.5831805252
C 3.9773199412 0.0636131356 1.6655212181
C 4.3842596561 -0.7083942985 0.6627332855
H -0.4922332962 -0.8425700539 0.0675474347
H -0.265487583 0.9151246666 0.0140083514
H 0.0953953004 -0.0675080597 -1.4210084788
H 2.1822649925 0.6126377505 -0.2559848626
H 1.4865769956 -2.3596661337 -0.2274194548
H 2.4912914332 -1.4546084443 -1.3743445711
H 3.8701426019 -2.845435471 0.3347682875
H 2.5315788547 -0.4718037941 3.2978112511
H 4.361483728 1.0255951579 1.9759668446
H 5.187137232 -0.5271503324 -0.03977359

