# b3lyp 6-31G(2df,p) opt Freq 

 titel

0 1
C 1.5416426381 0.0658634853 -0.0118794306
C 0.0862451617 0.0559996359 0.017488193
C -1.1181273453 0.0520566939 0.0442576675
C -2.5645846662 0.0271907832 0.0667107435
C -3.3282133419 -0.0414768573 -1.2862650377
O -4.0612052253 -1.2101778525 -0.8688534256
C -3.2849310202 -1.3236854177 0.3502458189
C -4.2086390239 -1.4075531722 1.550625895
O -5.0741882689 -2.5183880279 1.4312067929
H 1.9485317216 0.8398720753 0.6480914929
H 1.9519387743 -0.8965851519 0.3131859844
H 1.917252261 0.2607220586 -1.0224729995
H -2.9551637966 0.8234353985 0.7093559316
H -3.9879881425 0.8025542288 -1.5134479728
H -2.6839646841 -0.248174757 -2.1481532007
H -2.6219867005 -2.1962448365 0.3095014032
H -3.6270981555 -1.5443953907 2.4692706213
H -4.7719280808 -0.4637446489 1.6412761693
H -5.494757035 -2.4357376368 0.5664339636

