# b3lyp 6-31G(2df,p) opt Freq 

 titel

0 1
C -0.042591846 0.096055473 0.2286509649
C 1.446850904 0.0132466242 -0.0573111797
O 2.1566748755 -0.6380829762 1.0359472675
C 3.1788373963 0.3185383105 1.3426549614
C 2.405867507 1.6706067228 1.3893354867
C 2.2404467114 1.3341340371 -0.1251968978
C 3.6944627318 0.7718380071 -0.0515904923
C 4.0646144229 -0.1545337696 2.4540072035
O 5.0586769046 0.4342361875 2.7982655764
H -0.2590590558 0.7235939545 1.0971311824
H -0.5708777452 0.5075554057 -0.6380762483
H -0.4413479912 -0.9033232919 0.4257031393
H 1.6061327277 -0.577361456 -0.9695539321
H 1.5238299055 1.7099794688 2.0304699881
H 3.0625758181 2.5218835931 1.5675419568
H 1.9278983609 2.0710200245 -0.864143948
H 3.9809959515 -0.0212397643 -0.7463665081
H 4.4616641651 1.5428739156 0.0129678169
H 3.7290588457 -1.0918907764 2.9480787523

