# b3lyp 6-31G(2df,p) opt Freq 

 titel

0 1
C -2.2480135519 -2.4925970609 -2.2874824057
C -1.4060342575 -1.2426627392 -2.4535538859
O -1.3273610578 -0.6489684299 -3.5041428845
C -0.6728478365 -0.7343869342 -1.2106606592
C -1.5720860199 0.1774665173 -0.3914016882
C -1.0271450855 1.3704521658 0.3106404895
C -1.8906605079 1.5729314113 -0.9305877842
C -3.2698719333 2.0757600116 -0.7314172476
O -3.9422024035 1.8361019289 0.2460554109
H -2.9213075786 -2.3962149662 -1.42840096
H -2.823826151 -2.6826140466 -3.1937509502
H -1.5961923304 -3.3501945357 -2.0817763227
H -0.3381613162 -1.570966243 -0.5859469253
H 0.2070122252 -0.1809521033 -1.5506694886
H -2.4198150877 -0.297819233 0.0943247467
H -1.4871276681 1.6557938343 1.2499739973
H 0.0293786136 1.5947444471 0.2131589246
H -1.399953847 1.8628661084 -1.8526420982
H -3.6704821659 2.7013799274 -1.5581454486

