# b3lyp 6-31G(2df,p) opt Freq 

 titel

0 1
C 0.9696094508 -0.143666368 -2.3298366158
C 2.0191212804 0.7800679419 -1.6723825769
C 3.3030019215 -0.061152456 -1.4936453207
C 3.0182190165 -1.3287169503 -0.657788732
O 1.7835472252 -1.9805443063 -0.9639971114
C 0.6763888212 -1.0972992305 -1.1586105082
C 0.5663071371 -0.1382617597 0.0283757096
O -0.0292508836 1.1275490506 -0.2858075741
C 1.3998656925 1.0277512797 -0.2966590386
H 0.0746021206 0.4052811048 -2.6230442017
H 1.3628400187 -0.6872529449 -3.1913092449
H 2.2165240815 1.6956700371 -2.236393919
H 3.6794508145 -0.3351509442 -2.4852425042
H 4.0965875261 0.508740839 -0.9952218863
H 3.7928703851 -2.0816607127 -0.8293067104
H 3.0478093922 -1.0729124734 0.4105434483
H -0.1931207496 -1.7412804181 -1.3063098145
H 0.4106828904 -0.5079359197 1.0376400803
H 1.9175583789 1.6126460307 0.4594239404

