# b3lyp 6-31G(2df,p) opt Freq 

 titel

0 1
O -0.7860993809 -1.4005439886 0.0221376805
C -0.1689708972 -0.1232325508 -0.0335653367
C -0.5172245155 0.7508164416 1.1475700322
C 0.3753899549 1.9146229936 1.5186339381
C 0.3068126683 0.7092113912 2.4078250776
C -0.2345348295 0.6594216589 3.8497900363
C 0.8958073422 -0.3385975396 4.1693089942
O 1.2077330691 -0.9516118605 5.1466188708
C 1.4647197329 -0.2575204111 2.7372503874
H -0.535230627 -1.8124781308 0.8550451691
H 0.927008229 -0.207722359 -0.1204501568
H -0.5289027405 0.3338565156 -0.9616798912
H -1.5861836455 0.8973352886 1.2857969941
H 1.2800534712 2.0622486343 0.9352624567
H -0.092185255 2.8341198127 1.8555001495
H -0.1632291107 1.5916258168 4.4207107583
H -1.2420298841 0.250374364 3.9807244811
H 2.4712681894 0.1722223839 2.6955672844
H 1.4863074091 -1.2172488707 2.2088678243

