# b3lyp 6-31G(2df,p) opt Freq 

 titel

0 1
C -2.1609382033 1.6053209689 0.1705271875
C -0.9860065369 1.9639283305 -0.7379982479
C -0.1649050073 0.7335619653 -1.1581024807
C 0.4437962274 0.0005745068 0.0139515195
O 0.3003224176 -1.1720636987 0.2501024723
C -1.4140454258 2.912792596 -1.9290642107
C -0.5807875511 4.0265265191 -1.2881894187
O 0.769597917 3.551027526 -1.1968038229
C -0.1581949261 3.1538425604 -0.1837987755
H -1.8246934484 1.100556356 1.0830718017
H -2.715416906 2.5012601402 0.4692474129
H -2.8564746138 0.9324300443 -0.3417884106
H -0.7755051453 0.0301997563 -1.7327998668
H 0.6592542929 1.0835417437 -1.7932892133
H 1.0707059431 0.6405115503 0.6793971632
H -1.0973837751 2.6174550148 -2.9325115563
H -2.4882859958 3.1128073257 -1.9277050364
H -0.7216830378 5.1003437346 -1.3254839255
H 0.0977226045 3.3808763198 0.8457766682

