# b3lyp 6-31G(2df,p) opt Freq 

 titel

0 1
C -0.6967687055 1.2875102369 -2.8983022682
C 0.1538738776 0.2245300674 -2.2723107986
C 1.3798748618 -0.4074578426 -2.9388775321
O 2.2624298123 -0.8821384107 -1.9130881561
C 1.0537672591 -1.3827335605 -1.234301713
C 1.2982407665 -2.5518176227 -0.3354818932
C 0.2316396953 -1.2808969444 -2.5687586262
C 0.4019662558 -0.0431384799 -0.782273042
O 1.1947996269 0.8318349324 -0.0337848052
H -1.731323942 1.2340129009 -2.5411496797
H -0.3105892629 2.2835310186 -2.6557585305
H -0.7179171328 1.1944614325 -3.9896247457
H 1.7947193042 -0.106581066 -3.89204631
H 1.9590045148 -2.2561105067 0.4862353079
H 0.35572628 -2.9056235113 0.0934582309
H 1.768531928 -3.3751223412 -0.8801225438
H -0.4072841911 -1.9596692181 -3.1156809813
H -0.5359314067 -0.2064715757 -0.2432992868
H 2.0729883286 0.7755101812 -0.4369409765

