# b3lyp 6-31G(2df,p) opt Freq 

 titel

0 1
C 1.2825766728 -0.2419763943 -0.0149943724
O -0.1194873366 -0.1161889101 0.1285343787
C -0.5317755242 0.6016184553 1.2295521931
C -0.1568745332 0.3273967034 2.6991280507
C -0.832652571 1.7033129429 2.9466983002
C -2.311744207 1.3837948725 2.6400794103
C -2.0301604238 1.106458287 1.1533397338
O -1.5838907893 2.4207234431 0.7013857104
C -0.4071839597 2.1377046871 1.4581241597
H 1.7280124687 -0.824614741 0.8029862056
H 1.4581837682 -0.7656426788 -0.9569238047
H 1.7747753181 0.7398254676 -0.0562805735
H -0.5712677993 -0.5457173177 3.2112106352
H 0.9267004994 0.3644033442 2.8442471636
H -0.5840605622 2.3075600981 3.8153812601
H -2.6819331433 0.5249564415 3.2061100225
H -2.9974235337 2.2260451737 2.7501487308
H -2.7705723958 0.6407859376 0.5055332604
H 0.446094842 2.7916243079 1.2863507256

