# b3lyp 6-31G(2df,p) opt Freq 

 titel

0 1
O -2.0889525825 -2.9415920132 -1.1146593833
C -1.1987803666 -1.8506109784 -1.3207432674
C -1.9063154705 -0.8703779327 -2.2661509647
C -2.8596566486 -0.0755854843 -1.3498945746
C -2.0781630859 0.1142957986 -0.0389572182
C -0.9462497808 1.1915095916 -0.0665863994
C 0.0863982737 0.0553567442 -0.1052289136
O 1.2807952618 0.0151460347 -0.1848234834
C -1.0007450878 -1.0314936754 -0.0253201253
H -1.6788838571 -3.5497609777 -0.4914603434
H -0.2381991867 -2.2012012057 -1.7218077015
H -1.1606427251 -0.2108154053 -2.7249372743
H -2.4195870667 -1.4020435784 -3.0701709618
H -3.1815536173 0.8731383888 -1.7902223218
H -3.7557287443 -0.6729989041 -1.1576662936
H -2.7246913243 0.1824637357 0.8358318986
H -0.9260495289 1.8666844224 -0.9284663631
H -0.8668825765 1.7984399356 0.8410343318
H -0.919577206 -1.6700537165 0.8590124388

