# b3lyp 6-31G(2df,p) opt Freq 

 titel

0 1
O 0.7703611561 1.1750809699 0.6521590048
C -0.5416551642 0.7349387968 0.7857208433
C -0.8853225856 -0.2896623164 1.8982781766
C -2.3412994327 0.2161932112 1.8058784135
C -1.6095663211 1.5775636349 1.5863105436
C -0.8898943198 1.6971831824 2.9138458657
C -0.0787949919 2.8578692461 3.3911397512
C -1.3529967618 2.4428219113 4.1203698536
O -0.3582386645 0.3689122102 3.0743584947
H 1.1483929553 1.1843714616 1.5409177843
H -0.909245039 0.4450737286 -0.200080947
H -0.5810153738 -1.3347525496 1.9004297227
H -2.8675456388 -0.1417403745 0.919485819
H -2.9561046278 0.1119975973 2.7005729864
H -2.0941480485 2.4660983182 1.1859319953
H 0.8616511598 2.63815057 3.8858433892
H -0.0836087863 3.773504741 2.8092633705
H -1.2330525364 1.9504481205 5.0789445004
H -2.2304016189 3.0763895907 4.0387185422

