# b3lyp 6-31G(2df,p) opt Freq 

 titel

0 1
O 0.2735703105 3.3974131887 0.5199739942
C -0.1140187365 2.0391838256 0.6774793729
C 0.0900486812 1.5411150471 2.0899353607
C 1.5474152013 1.4337090801 2.6188584475
C 1.2956904807 -0.0379126911 3.0590641468
C -0.1695016816 0.0374093885 2.5203336542
C -1.1527689853 0.553757283 3.5710480462
O -1.8560489729 0.0206134445 4.3793760905
C -0.9285615073 2.0266650119 3.1687644101
H -0.2931661923 3.9325554598 1.0854240757
H -1.1604914329 1.8799078556 0.3674031335
H 0.5181111742 1.4733495685 -0.0161465071
H 2.2939559058 1.530689214 1.827196481
H 1.8094051355 2.1348859627 3.415125963
H 1.9000535327 -0.7659595822 2.5149312076
H 1.386254184 -0.2536494852 4.126238389
H -0.5100222425 -0.7609386524 1.8586656616
H -1.8468332112 2.4551533088 2.7474446918
H -0.5655119735 2.6942546921 3.955703711

