# b3lyp 6-31G(2df,p) opt Freq 

 titel

0 1
C -1.8340589979 1.7408621315 -2.6027323506
C -1.2424876057 2.2182466671 -1.2719998121
O 0.1690334928 2.3129246844 -1.4932626819
C -1.5771174907 1.3101916318 -0.0813897427
C -1.0683942742 -0.1361706395 -0.2440816528
C -1.2447436634 -0.9250483786 0.9685859972
C -1.3995686279 -1.5532399042 1.9815253557
C -1.7559614066 3.64358462 -1.0286494333
O -2.5541163745 3.9686651366 -0.1902851291
H -1.3554746834 0.8083049471 -2.9116812423
H -2.9118592296 1.5809753381 -2.5143174072
H -1.6508782008 2.4813248904 -3.3871530886
H 0.5875581577 2.5719405264 -0.663982537
H -1.1366117793 1.7455651443 0.8237269277
H -2.657698215 1.3189305669 0.0849013644
H -1.5913563245 -0.6288169053 -1.0725174687
H -0.0083685523 -0.1137451142 -0.5238031525
H -1.5322492882 -2.1188813602 2.8700960845
H -1.2884976166 4.3822356272 -1.7200896807

