# b3lyp 6-31G(2df,p) opt Freq 

 titel

0 1
C 1.3161261101 -0.1320197648 -0.0712961343
O -0.0857483351 -0.0175147903 0.0764395524
C -0.4583480848 0.6351960453 1.2488458635
C -0.5179025375 -0.1467818457 2.5454828511
C -1.7783187319 0.2580609626 1.8256694599
C -2.9214486701 1.2180170537 2.2458171792
C -3.8892046833 0.2532867627 1.5324846352
O -3.7501812564 -1.030129268 2.1485380175
C -2.7893163992 -0.6483923233 1.1503520236
H 1.7657108863 -0.7016820016 0.7542410159
H 1.4986935781 -0.6562895143 -1.0121425746
H 1.799294405 0.8557454341 -0.1141874861
H -0.1491148846 1.6819515225 1.3000003655
H -0.2422037239 -1.1957391583 2.5067710071
H -0.261723982 0.3611558562 3.469825606
H -3.0992159968 1.3376569671 3.3176210355
H -2.8502702672 2.1982757799 1.7662620092
H -4.8283307866 0.4734147453 1.0390294407
H -2.6548169903 -1.3017927331 0.2982367729

