# b3lyp 6-31G(2df,p) opt Freq 

 titel

0 1
O -0.9905149882 -0.066714551 2.4918348592
C 0.4108156715 0.0018133366 2.4207841496
C 1.2008014563 -0.8698956523 3.3680198162
C 1.0647301782 0.6186430949 3.621716922
C 0.963389859 0.2877177398 1.0558909105
C 0.2612109667 -0.1327803717 -0.185583779
C 0.2846714212 1.3475767211 0.1810884097
C 1.1648758999 2.2419657636 -0.6004132378
O 2.1950215426 1.890400679 -1.1310718994
H -1.2599569206 -0.9389615899 2.1838994642
H 0.6324622807 -1.5351071677 4.00890025
H 2.1593450037 -1.2583479761 3.0413073501
H 0.4043407523 0.9285954806 4.422828781
H 1.9310455161 1.2524307192 3.467303416
H 2.0474161406 0.3064333726 0.9949203456
H 0.8685300484 -0.4164924605 -1.0374467681
H -0.7024348359 -0.6225749121 -0.1049009276
H -0.6333110633 1.7724757416 0.5693640987
H 0.8225441208 3.2979878923 -0.671864331

