# b3lyp 6-31G(2df,p) opt Freq 

 titel

0 1
C 1.5367748666 0.0030397281 0.0867396381
C 0.0815077128 0.0071689122 0.05007846
C -1.1227979933 0.0065853923 0.0101048872
C -2.5599785591 0.0218351837 -0.04812999
C -3.1813094282 0.5602186581 -1.3402693892
O -3.0712077007 -0.3526992944 -2.4113165679
C -3.3450056211 0.2421741778 1.2503673026
C -3.3058464128 -1.1173412463 0.6167779488
O -4.4169862815 -1.6021821633 -0.087216322
H 1.9261639965 0.7902902794 0.7422675598
H 1.924583183 -0.9544634696 0.4524060314
H 1.9558568016 0.1674110338 -0.9122012003
H -4.2292584439 0.828520116 -1.1496024179
H -2.6510358703 1.4668785749 -1.6454401609
H -3.593756052 -1.1228986911 -2.158236972
H -2.7847792787 0.4026447179 2.1638213649
H -4.2655993695 0.8099701226 1.1626813624
H -2.7004543513 -1.8842574535 1.0956681514
H -5.1192249883 -1.8023811688 0.5401621238

