# b3lyp 6-31G(2df,p) opt Freq 

 titel

0 1
O 2.3650788895 7.0464411949 -0.3537727915
C 1.7810264292 6.2192488438 0.6499265657
C 0.9610274625 6.9975903612 1.5850999675
C 0.3042923239 7.6563919903 2.347144672
C 0.9654006168 5.1541547937 -0.0751659609
C 1.7387852977 4.1304744998 -0.9501917652
C 0.7808748985 3.0366706992 -0.4386907187
O 1.4101701806 1.8062551417 -0.1691438046
C 0.4005175963 3.9671287268 0.7492340544
H 2.7692951414 7.8026633921 0.0842215817
H 2.5714562162 5.710109505 1.2277111022
H -0.2786722601 8.2335870326 3.0217807431
H 0.1802354788 5.6544373846 -0.6484691728
H 1.8026677146 4.307481937 -2.024503623
H 2.7434771405 3.9511532596 -0.554648157
H -0.0718365707 2.9068178835 -1.1207846
H 0.7402022967 1.1793109139 0.1215493347
H -0.6418335227 4.0117876915 1.0719348044
H 1.0376320501 3.7417560989 1.610713488

