# b3lyp 6-31G(2df,p) opt Freq 

 titel

0 1
C -1.1649101406 -0.1782248955 -1.7333360372
C -0.7015669088 1.022882655 -0.8650323965
C 0.7174832137 1.3208619922 -1.3663465795
O 1.4098627145 0.070793943 -1.4971305227
C 0.9307471608 -0.8681261352 -0.5307937443
C 0.792552009 -0.1422905052 0.8234172604
C -0.644057919 0.3517997714 0.5796201762
O -1.2744639613 -0.9259448501 0.3993450011
C -0.5889306906 -1.2639229123 -0.8187138822
H -2.2495263394 -0.2864747139 -1.7848738186
H -0.7471473569 -0.1490004811 -2.7408043421
H -1.345831803 1.9018916928 -0.9041775055
H 0.6981984939 1.7739376263 -2.3628812629
H 1.2641044397 2.0036384121 -0.7003452494
H 1.6178090458 -1.7133862038 -0.555313694
H 0.7953997494 -0.8191819373 1.6794657128
H 1.5699206672 0.6117988997 0.9569131154
H -1.1343981245 0.9043724594 1.3802643277
H -0.7742829497 -2.3059282173 -1.0768549188

