# b3lyp 6-31G(2df,p) opt Freq 

 titel

0 1
C 1.6834737693 1.106780347 0.6520745951
C 1.0709072856 -0.2352532172 0.2381438769
C 1.6712699253 -0.800087772 -1.0505530781
C 1.1943140221 -0.2107692691 -2.3926040258
O 1.8051844656 -0.9991092901 -3.4073251936
C 0.554453658 -1.4775962767 -2.850973131
C -0.5729990083 -1.8021565025 -3.77132324
C 0.9541000999 -2.1086982514 -1.5168215803
O 0.6427647057 -3.1152067431 -0.9506369577
H 1.2340620798 1.4724818906 1.580308567
H 2.7622284048 1.0132410148 0.8161001227
H 1.5314649393 1.8739226343 -0.1147396565
H 1.2166953372 -0.9761798684 1.0320510208
H -0.0154756049 -0.1286184807 0.1204010138
H 2.761757586 -0.8662188125 -0.9870660349
H 0.904764269 0.8052228999 -2.6347613042
H -1.5073826074 -1.902652519 -3.2111060806
H -0.6909178788 -1.0187646979 -4.5244593478
H -0.3863432183 -2.7499482361 -4.2862391958

