# b3lyp 6-31G(2df,p) opt Freq 

 titel

0 1
C -0.0164124232 0.0794805934 0.3011800949
C 1.1788258011 -0.00648288 0.2165864688
C 2.6283906008 -0.0965488957 0.0989748218
C 3.0913046987 -1.0228437247 -1.0317430509
C 4.6068473733 -0.9640849573 -1.2408291125
O 5.0191061063 -1.9036820326 -2.2180560096
C 4.6244653446 -3.2207993658 -1.8648065186
C 3.1150118839 -3.2860990863 -1.6660185727
O 2.7069108812 -2.3457172319 -0.6843090236
H -1.0726813156 0.148438118 0.3818997501
H 3.0471259202 0.9035171784 -0.0725277188
H 3.0573013989 -0.4638464825 1.039503024
H 2.597762597 -0.7328507721 -1.9737862416
H 4.9137321478 0.0210194071 -1.6054530317
H 5.1137068674 -1.1596602624 -0.2800722843
H 4.9448867102 -3.8761794314 -2.6802707051
H 5.1316764594 -3.5346968243 -0.9376237478
H 2.6073765367 -3.0832379412 -2.6228010226
H 2.8056981012 -4.2722692887 -1.3068452897

