# b3lyp 6-31G(2df,p) opt Freq 

 titel

0 1
C -0.2155750074 -0.0262787584 0.0100103048
C 1.3037203758 -0.0036840179 0.0683106956
C 1.9748573839 -0.5362722658 1.3466421849
O 1.4953660331 0.2636881845 2.4292556136
C 2.5845367646 0.7724292097 1.6498911632
C 2.0016850771 1.3798249283 0.3734588883
C 2.9311624056 2.0391262201 -0.6654050091
C 2.0022560982 3.2583889446 -0.5025468872
O 1.1961166332 2.562631193 0.4722157671
H -0.6345813632 0.3694679862 0.9374088805
H -0.5811125329 0.5915689882 -0.8157259374
H -0.5875163876 -1.0458403525 -0.1371836488
H 1.7473687749 -0.4479370673 -0.8299691314
H 2.3263631053 -1.5348733608 1.5785615447
H 3.4948142909 1.0346565946 2.1790987479
H 3.961805512 2.1883314747 -0.3359796999
H 2.9344465533 1.5718608939 -1.6518439486
H 2.464817948 4.1582277137 -0.0811856628
H 1.4207024952 3.5384479312 -1.3886230552

