# b3lyp 6-31G(2df,p) opt Freq 

 titel

0 1
C 1.2087350543 1.1540695655 -0.0822209418
C 0.9684296086 -0.3400903886 0.0946670473
C 1.6543264064 -1.2087258321 -0.9609323626
C 1.9711958382 -2.5396604159 -0.2162049846
O 1.4506621928 -2.4240978115 1.10234727
C 1.9240399416 -1.0416257164 1.1129361711
C 2.2404316364 -0.5162741928 2.4772942927
C 2.8992886475 -1.3779836803 -0.1227444909
O 4.2064726338 -1.1224467355 -0.4372948556
H 0.8695297821 1.7171223486 0.7941551142
H 2.2721495606 1.3684888347 -0.2365980489
H 0.6648223181 1.5375080727 -0.9516849025
H -0.0896934553 -0.5527529099 0.2878937902
H 1.5765055999 -1.166035107 -2.0403128383
H 2.0235840299 -3.5104324444 -0.690895372
H 2.9996012717 -1.1335118155 2.9668435339
H 2.610590836 0.511333084 2.4214401693
H 1.341283267 -0.5250434624 3.1036771403
H 4.7675445304 -1.7089652531 0.0838834284

