# b3lyp 6-31G(2df,p) opt Freq 

 titel

0 1
C 0.9578466535 -0.8592435348 -0.0234078068
C 1.0290478435 0.1714849845 1.1354511928
C -0.4285124238 0.0581688531 1.6537748504
O -1.1836532136 0.0053897138 0.4012950901
C -0.1172374876 0.162081803 -0.521097656
C -0.2981689917 0.5083322671 -1.9724177623
C 1.0481771492 1.2623616975 -2.2348499824
O 1.7010933951 1.5122494735 -0.9635184046
C 0.7699911371 1.2737004993 0.0640359303
H 1.8604941132 -0.8845731665 -0.6297666345
H 0.5973149487 -1.8646684118 0.2043692874
H 1.8190919843 0.2017111837 1.8852340726
H -0.6044234885 -0.8545504377 2.232225949
H -0.7573521356 0.9249642378 2.2385255095
H -0.4229577748 -0.3495522034 -2.6373116255
H -1.1593142469 1.1720463548 -2.0966856444
H 1.7377041683 0.6673361847 -2.8420227731
H 0.8786470669 2.2155639179 -2.7495292412
H 0.2905069128 2.1993798436 0.4098984287

