# b3lyp 6-31G(2df,p) opt Freq 

 titel

0 1
C 2.3604548327 2.9770840311 2.8571428684
C 1.3574243617 2.1052323067 2.121377476
O 0.2348848482 1.9460030733 2.5577763589
C 1.8032989735 1.4516521357 0.8460725007
C 0.9400001673 0.6553111256 0.2028442563
C 1.2891214184 -0.0818966833 -1.0513237015
O 2.6622917186 -0.0344615395 -1.3786616765
C 3.2159753539 1.2572786475 -1.1975440156
C 3.1877457852 1.6727676489 0.2764579806
H 1.9258213817 3.2992077261 3.8035471675
H 3.2960382904 2.4377244322 3.0407983909
H 2.6148565507 3.8596599896 2.2588863104
H -0.0624651054 0.5324926379 0.6033445707
H 1.0324646927 -1.1435731725 -0.948283015
H 0.6721265345 0.3078969559 -1.8837764861
H 4.2402630561 1.206682714 -1.5761146912
H 2.6656361333 1.997948935 -1.8012922112
H 3.9350309204 1.0964703617 0.8380923371
H 3.4844547461 2.7251632142 0.3570761397

