# b3lyp 6-31G(2df,p) opt Freq 

 titel

0 1
C -2.5138894715 -2.7010320671 -1.3554442001
C -1.930555717 -1.3146224338 -1.1205538762
C -2.7362013266 -0.4233108627 -0.1439453895
C -2.4026581493 1.0621577879 -0.3027101416
C -0.8922543711 1.2884468795 -0.0158496569
C -0.0587407642 0.0129106525 -0.1643446939
O 1.117849253 -0.0012462683 -0.4302814551
C -0.894783791 -1.2446233946 0.0345283844
O -1.9602755198 -0.9520154696 0.9765610278
H -2.8022001399 -3.1626535584 -0.4064477461
H -3.4029368191 -2.6448803748 -1.9928633898
H -1.7877703878 -3.3546984837 -1.8489837532
H -1.6326841829 -0.8443182257 -2.0634348605
H -3.8066852122 -0.6205119139 -0.0330726082
H -2.6641367163 1.385946906 -1.3165430196
H -3.0064683433 1.6579377475 0.3879508253
H -0.4509627519 2.0742055116 -0.6325158385
H -0.766567182 1.5986718062 1.027994422
H -0.299137007 -2.1224604086 0.2937336097

