# b3lyp 6-31G(2df,p) opt Freq 

 titel

0 1
O -5.2771498881 0.6410816193 -1.8707868142
C -4.6234523746 0.1053193494 -0.7579314766
C -3.162335028 -0.2511073548 -0.8737249701
C -3.6178637998 0.9572302396 -0.0243143504
C -3.072898572 0.5325556489 1.3510716929
C -3.4011379143 -0.9816292049 1.4437144219
C -2.4621690964 -1.0873026055 0.2123513909
C -1.6311672028 0.0348643448 0.9470011128
O -0.7472866148 0.8574628459 0.2508801566
H -4.6649000581 1.2106154376 -2.3484658952
H -5.3213827284 -0.5303101877 -0.228011934
H -2.6912919941 -0.1438596812 -1.8467363706
H -3.494259415 1.9865033004 -0.3490968801
H -3.2394183356 1.2110794371 2.1872419637
H -2.9537673733 -1.435981388 2.3299860576
H -4.4346393372 -1.3125437757 1.3601600624
H -2.0162029842 -2.0332942702 -0.0934537259
H -1.0783928486 -0.3585948689 1.8032175312
H -1.2209274848 1.2131480339 -0.5096688529

