# b3lyp 6-31G(2df,p) opt Freq 

 titel

0 1
C 0.826144575 0.0182639108 -1.0783703152
O 0.0464394387 -0.0166966578 0.1129415742
C 1.4419388284 0.3300106515 0.2268008611
C 2.2666620936 -0.7383939612 0.9297266776
O 3.6057976021 -0.8610242483 0.4879914851
C 4.3324224223 0.3376757583 0.2741035297
C 4.1130193719 1.4550417394 1.3037731807
C 2.8190628531 2.2166727692 1.1392256388
C 1.6828488987 1.7404348299 0.6280281073
H 1.0256047455 -0.9468542231 -1.5431872208
H 0.5923200284 0.8291830508 -1.7667215351
H 2.2315493218 -0.5416084135 2.0121562502
H 1.798172556 -1.7100513289 0.752824604
H 5.3841024502 0.0339544938 0.2835473391
H 4.1127423431 0.7405506758 -0.7270822234
H 4.2094723928 1.0473490488 2.3200919191
H 4.9442078995 2.1626397068 1.1954022491
H 2.844190977 3.262391029 1.4362831436
H 0.822454842 2.3935321187 0.5073486149

