# b3lyp 6-31G(2df,p) opt Freq 

 titel

0 1
O 0.3656747269 0.1668654069 -1.5480015841
C -0.2704395034 0.0207931338 -0.5298598129
C -0.7053406681 1.2344958548 0.2987886323
O -1.4249248451 0.9076836156 1.4701360682
C -2.5159756786 0.0404437827 1.1845570487
C -2.0244562427 -1.3610865723 0.8396047403
C -1.2765672073 -2.091238674 1.9919260363
C 0.0781334 -1.7867974212 1.3035945739
C -0.6877611791 -1.3224685436 0.014122219
H 0.1831777838 1.7946041881 0.6057932653
H -1.2946927381 1.8904764793 -0.3642532795
H -3.1419065444 0.0253820299 2.0827003349
H -3.1186934592 0.4559021054 0.3592476951
H -2.8339616654 -1.9303256195 0.374047211
H -1.4140445042 -1.6691814653 2.9906487468
H -1.5056470431 -3.1587902063 2.0327363565
H 0.624254542 -0.9731833049 1.7848542833
H 0.7607115848 -2.6250952747 1.1535847052
H -0.6353677089 -2.0586337847 -0.7888635201

