# b3lyp 6-31G(2df,p) opt Freq 

 titel

0 1
C 0.0398955723 0.2421570126 0.0933541174
C 1.5384428949 0.0518677032 0.0606101116
C 2.1510385598 -0.5726615792 1.3050807088
C 3.651451516 -0.8635312283 1.1760778881
C 4.4275780752 0.3026390681 0.6026802817
O 4.0214803905 1.6229234352 0.9794393704
C 3.7962690427 1.1908058599 -0.3778688066
C 2.3732340649 0.9360452463 -0.7658866288
O 2.0629807847 -0.4053747679 -1.1978048243
H -0.2524457766 0.8792061083 0.9347805917
H -0.3136259308 0.7014481503 -0.8329598929
H -0.4652869168 -0.7228569643 0.2111184276
H 1.9791171324 0.1169518792 2.1387614146
H 1.6161557967 -1.4993061832 1.545641243
H 4.0595941215 -1.1351936649 2.1562915302
H 3.8125368025 -1.721440113 0.5138194507
H 5.5087752623 0.1706607808 0.5487694256
H 4.416685219 1.7026549092 -1.1123630987
H 1.8874343288 1.7122144077 -1.35713364

