# b3lyp 6-31G(2df,p) opt Freq 

 titel

0 1
C -0.3317399849 1.2417622233 0.8032050781
C -0.0512353935 0.0016204259 -0.0366337031
C -1.3323208817 -0.8569417921 -0.3148110739
C -1.2047763975 -1.8241115133 0.8074032144
C -1.8638604153 -2.1599181591 1.908798422
C -0.8800743912 -2.6975788824 2.9187656399
O 0.4130761361 -2.4819847111 2.3410110691
C 0.2616515831 -2.0891738938 0.9978524012
O 0.8825216742 -0.8582591437 0.6588913001
H 0.6101493987 1.7081219255 1.1040654062
H -0.9148192647 1.9736517398 0.2334865336
H -0.8871254032 0.9783247765 1.7089298169
H 0.4259456213 0.2958023476 -0.9783477393
H -2.2454219321 -0.2592374286 -0.2937534092
H -1.2579640273 -1.3443970776 -1.293581631
H -2.9093635349 -1.9905856912 2.1340610308
H -0.9535600193 -2.1586089322 3.8738711605
H -1.0085988172 -3.7686067563 3.1379232748
H 0.7029940497 -2.8726384772 0.360513699

