# b3lyp 6-31G(2df,p) opt Freq 

 titel

0 1
C -0.4085780621 -1.3789689833 3.6715297362
C -1.254129669 -1.2948245589 2.4355470499
C -2.4438179106 -0.324242436 2.2785717123
O -2.6643806555 -0.0900282933 0.8878237253
C -2.4024504768 -1.5147034622 0.7029328834
C -2.6848728548 -1.7944507526 2.223539767
C -0.8814317743 -1.6560972516 0.9849725755
C 0.0988510843 -0.8035679545 0.1909018309
O 1.4380102919 -0.944098599 0.657912592
H 0.0632474838 -2.3630825949 3.7670304052
H 0.3888169927 -0.6257263094 3.6730402568
H -1.0092072739 -1.2106510735 4.572512809
H -2.7195448689 0.4404112846 2.9934865828
H -2.8930608179 -1.9350426064 -0.1724651138
H -3.3193140248 -2.479220415 2.7691945897
H -0.590680458 -2.7116489278 0.9406271354
H 0.1135725269 -1.1347083899 -0.8542573594
H -0.2274056194 0.2438189314 0.1993099036
H 1.5021522762 -0.4905057379 1.5033069282

