# b3lyp 6-31G(2df,p) opt Freq 

 titel

0 1
C 0.5651867605 -1.4269802349 1.3558738849
C 1.6779206664 -2.3527296174 0.8642104979
C 1.1011728292 -3.6186960313 0.2170009304
O 2.4405494269 -2.6835221514 2.0177130487
C 2.5811507052 -1.5753500723 -0.1440677513
C 3.7685672183 -2.3216908846 -0.5260149975
C 4.7466750206 -2.983018406 -0.7890335798
C 5.9199989805 -3.7406539817 -1.1376412064
O 6.2948479151 -4.7292436702 -0.5487597892
H -0.0686704521 -1.9560621077 2.0721349274
H 0.9906106829 -0.554288544 1.8594302159
H -0.0591330546 -1.0854952732 0.5249725782
H 0.5108817213 -4.1706345716 0.9530617694
H 0.4567867926 -3.3758108145 -0.6343955949
H 1.9018815953 -4.2734875155 -0.1421734965
H 3.1580977056 -3.2669056906 1.7417900473
H 2.0079165192 -1.3041404241 -1.039257075
H 2.89632835 -0.6375341171 0.32957529
H 6.4745902571 -3.3432302218 -2.0117602395

