# b3lyp 6-31G(2df,p) opt Freq 

 titel

0 1
C -0.3697519482 1.2400469166 0.0314615161
O 0.0929397269 -0.1271753705 0.2098451712
C 1.2657599959 0.1867706382 -0.5740777905
C 2.6254028915 -0.3763445113 -0.2126552203
O 3.5622134941 0.1459546644 -1.1467701775
C 3.8545243372 1.5420547346 -1.0550721821
C 2.865675062 2.5125480677 -1.6969051143
C 1.5846773051 2.6150187013 -1.3335760391
C 1.0724436275 1.680191734 -0.2872453921
H -1.061414318 1.3175906898 -0.8198149859
H -0.8466191086 1.63502546 0.9327102371
H 1.0805864519 -0.0345736977 -1.6360737608
H 2.89771999 -0.1105989186 0.821357774
H 2.6686840994 -1.4652690916 -0.3125160676
H 3.9938361628 1.8145007636 0.0056347628
H 4.8262283986 1.6505975342 -1.5442652788
H 3.2683907123 3.1706866848 -2.4620626687
H 0.9239589951 3.3395444591 -1.8015636208
H 1.5620883843 1.9003094012 0.6714541373

