# b3lyp 6-31G(2df,p) opt Freq 

 titel

0 1
O 1.1232976414 -0.7268495258 0.4572293802
C 0.0067441284 -0.3608907374 0.235141649
C -1.3310948095 -1.0852254756 0.0211539168
C -2.0362744619 0.3132421292 0.0568578461
C -0.6508286772 1.0233024676 0.0987694702
C -3.0182027926 0.6264181628 -1.0784772781
C -4.3627640858 0.1113633057 -0.5213397136
O -4.1949870128 -0.0379093062 0.8932781683
C -2.9470614125 0.5202252043 1.2678705169
H -1.3740665182 -1.5885791908 -0.9512128771
H -1.6126745465 -1.8069096376 0.793230218
H -0.3706494846 1.5287553104 -0.8317524944
H -0.4710049704 1.7126181423 0.9301354882
H -3.0588732449 1.70816834 -1.2455939071
H -2.7445050452 0.1549070371 -2.0258716477
H -5.1855747558 0.8067065815 -0.7309999973
H -4.6355524672 -0.8672186912 -0.9334223035
H -3.0397348288 1.5969184223 1.493507125
H -2.6037894058 0.0113030015 2.1745567601

