# b3lyp 6-31G(2df,p) opt Freq 

 titel

0 1
C 0.0035039662 0.5302443363 0.3354929454
C 1.3176739816 0.1838943981 -0.3015391987
C 2.1915595543 1.1424548727 -1.1138955647
C 3.4688665503 0.4016533726 -0.5943722198
O 4.2089317181 -0.3063996352 -1.5813893562
C 3.6563410546 -1.5708290701 -1.8634845158
O 2.2473257897 -1.5507123528 -1.9098068701
C 1.7136896487 -1.2245670047 -0.6469670741
C 2.5811134851 -0.4647841227 0.3138839026
H 0.0863411007 1.4281091792 0.9583800486
H -0.7606228431 0.7241231717 -0.4267274256
H -0.361750133 -0.2834783826 0.9708048015
H 2.052361357 1.1421665493 -2.1976943032
H 2.1425635506 2.1672016021 -0.7354695917
H 4.175667687 1.0537444796 -0.0802891768
H 4.0123287503 -1.8661337027 -2.8527970596
H 3.9853396983 -2.3018836333 -1.1065762651
H 1.0844500952 -2.0106296714 -0.2361628474
H 2.7978605284 -0.7954811561 1.3226253606

