# b3lyp 6-31G(2df,p) opt Freq 

 titel

0 1
C 2.213814591 1.1949940734 0.5736055153
C 1.4770604946 -0.0795139183 0.1661740116
C 0.0760360455 -0.142373193 0.7714139175
O 1.3550258769 -0.1007090705 -1.295131735
C 2.0464603816 -1.2596475214 -1.6606113987
C 3.3222459339 -1.4678049756 -0.7885376632
O 3.1614073706 -2.9221172219 -0.8537158011
C 1.8011739308 -2.419599853 -0.647811947
C 2.2945965234 -1.3544056624 0.3804165533
H 2.3349540738 1.2435780405 1.6607448379
H 3.2048728862 1.239422104 0.1138531247
H 1.6503906612 2.0756999299 0.2516086186
H 0.1242601891 -0.1376275626 1.8652853067
H -0.5125168685 0.7220642473 0.4502913668
H -0.4487809405 -1.0473173612 0.4533054547
H 2.0537194261 -1.4301144744 -2.7351885167
H 4.3269858421 -1.0567505289 -0.8809452939
H 0.9910413361 -3.1441650745 -0.5723223096
H 2.5784725062 -1.6593575675 1.3862846481

