# b3lyp 6-31G(2df,p) opt Freq 

 titel

0 1
O -0.5156852039 -1.5402180655 -0.3191138495
C -0.3359361501 -0.3716674266 -0.0887588344
C -1.3739910152 0.530444325 0.5551779861
O -1.0365959688 1.8939552634 0.325797755
C -0.9329590247 2.593556135 1.5703153565
C -1.7436560244 1.7679706294 2.5709322986
C -1.4671185911 0.3552002628 2.0795954501
C -2.0338703223 -0.8796252596 2.7087571723
C -0.5623197418 -0.5732288195 2.8605349389
H 0.622670144 0.1447131908 -0.3196754809
H -2.3451839234 0.3138730258 0.087172378
H 0.120608516 2.6615744962 1.8789892319
H -1.314189607 3.6077405429 1.4208273115
H -1.438438163 1.9299103595 3.6076448475
H -2.8103804497 2.0058403052 2.4833300019
H -2.6814424696 -0.764259666 3.5718008808
H -2.3009158883 -1.697060879 2.046984615
H -0.2068047878 -0.2242495235 3.8244969076
H 0.1365910213 -1.2088783262 2.3296191631

