# b3lyp 6-31G(2df,p) opt Freq 

 titel

0 1
O 1.3764834867 0.7201434674 -0.1368040144
C 0.3282491502 -0.1105646685 0.3442471872
C -0.759758009 0.6746641968 1.0745683811
C -1.9295881432 -0.2059593546 1.6083431799
C -3.1824598269 0.6295729144 1.3457588701
C -3.4063902327 1.0745563747 -0.0867025785
O -2.2092889799 0.9231854937 -0.8507658345
C -1.4861139962 1.6821783957 0.1814033486
C -2.8103338133 2.0321288727 0.8938841338
H 1.8371692941 1.0845891157 0.6256453301
H -0.1106471664 -0.5831046425 -0.5395742701
H 0.7177898917 -0.9104935381 0.9930370089
H -0.3031063166 1.2263713608 1.9103442823
H -1.9706574909 -1.1642315129 1.078848301
H -1.8163700293 -0.4271553992 2.6733075201
H -4.0682902782 0.4979495228 1.9574849766
H -4.3532777417 1.049326531 -0.6133292102
H -0.8739406515 2.4680047179 -0.2603313002
H -3.1421604669 2.975743372 1.3030004281

