# b3lyp 6-31G(2df,p) opt Freq 

 titel

0 1
O 1.1654428169 3.0346949703 0.6216720944
C -0.2098886703 3.1820654674 0.5954479951
C -0.9638541836 4.3025960991 -0.1235332085
C -2.0680236109 4.2330231017 0.9871219995
C -1.2732851334 3.1384256057 1.7057064011
C -1.0704709092 1.9671068383 0.7588091098
C -0.4194193446 0.7180913573 1.3284116201
C 0.3016285245 -0.0795160839 0.2581582208
O 0.1278233863 -1.2528215188 0.0479888353
H 1.5553011628 3.84458219 0.9693356632
H -0.4217495341 5.2526762454 -0.0944301448
H -1.264847926 4.1040297065 -1.1573826631
H -2.1486729427 5.1610768321 1.5568908671
H -3.0672890058 3.9428570213 0.6471463765
H -1.1773835395 3.0085563119 2.7772765816
H -1.8437505727 1.7674175972 0.0151196314
H 0.3333019544 1.0100752384 2.0720834083
H -1.1530189351 0.0682418923 1.8148387572
H 1.0273931228 0.5153796479 -0.338647845

