# b3lyp 6-31G(2df,p) opt Freq 

 titel

0 1
C 4.1693094989 -1.7318067016 -1.1015265628
C 2.6928094337 -2.0785122353 -1.134224044
O 2.1336052452 -2.5885171119 -0.1892546108
C 1.9724525437 -1.7841089638 -2.4427778181
C 0.4161126985 -1.8496737312 -2.3503795979
C 0.4243542494 -3.0569029468 -3.2899663773
O -0.4605963975 -4.1117715084 -3.2344672658
C 1.0958160529 -2.7364365322 -4.5805792571
C 1.9582089498 -3.0241489557 -3.3673893943
H 4.6314678182 -2.1329650335 -0.1988611972
H 4.6791443012 -2.1167749395 -1.9914063913
H 4.2886682233 -0.6417913878 -1.1170985588
H 2.3925650922 -0.8865348414 -2.9108352443
H 0.1249432694 -2.1173593878 -1.3316214991
H -0.1442839917 -0.9699730881 -2.6817493041
H -0.4752554805 -4.4403907606 -2.327963096
H 1.0640383717 -3.5472366454 -5.3016330483
H 1.0546786513 -1.7390714472 -5.0147669766
H 2.6875997503 -3.8254311418 -3.3586612961

