# b3lyp 6-31G(2df,p) opt Freq 

 titel

0 1
O 1.6955327446 2.3164902762 -3.8804739655
C 1.1072351105 1.8997680311 -2.6539677589
C 0.93097887 3.1714553353 -1.8205135105
O 0.7840500545 2.877583369 -0.4402042344
C 1.644019442 1.8675123663 0.0121964869
C 1.4359859726 0.4139993444 -0.5104759514
C 2.903426183 0.1452357567 -0.088169661
C 2.9470659558 1.5293224454 -0.7856480072
C 1.9909658859 0.9315279561 -1.8747832784
H 1.7623461514 1.547588058 -4.4552515575
H 0.1291603047 1.4262395276 -2.8389030335
H 1.8222843178 3.7934288598 -1.9905772686
H 0.0511806861 3.7442115927 -2.1218250425
H 1.7394386416 1.9853592904 1.0945312217
H 0.565751077 -0.2257231082 -0.3550775241
H 3.1136686821 0.1247855932 0.9851193332
H 3.4114159741 -0.6689164205 -0.6104399087
H 3.8217355284 2.1609460701 -0.9433134452
H 2.4328730979 0.1657058264 -2.5243032243

