# b3lyp 6-31G(2df,p) opt Freq 

 titel

0 1
C -0.932347425 1.3359256786 0.7396650862
C 0.0936328458 1.5025449877 1.8523225951
C 1.4692294442 1.2120137264 1.2464592034
C 1.2324087117 0.7103309093 -0.1737093841
C -0.2743743731 0.3555750696 -0.2487692262
O -0.5203592099 -1.0181549523 0.0662817981
C -0.5258218037 -1.3447965209 1.4288957272
O 0.6665146399 -1.0310118847 2.0972879676
C 0.924256792 0.3282392097 2.3307481431
H -1.9211346336 1.0009729023 1.0655937603
H -1.0689293031 2.3029807302 0.2412197029
H -0.0508709335 2.3130412919 2.5589753548
H 2.3356564302 1.8328147378 1.4466955064
H 1.4575451797 1.5075373599 -0.8912493027
H 1.8403680674 -0.160708759 -0.4335319024
H -0.6610804034 0.4709003682 -1.2636760952
H -1.3738548076 -0.8736264878 1.9474015587
H -0.6249735554 -2.431582203 1.4721379399
H 1.3590948574 0.4529408063 3.318073557

