# b3lyp 6-31G(2df,p) opt Freq 

 titel

0 1
O -2.3125687681 -0.1439715245 -0.9722109015
C -2.1932785285 0.0653002738 0.403014545
C -1.4975278322 -0.9931874801 1.2445493578
C -0.8137150159 0.3336076764 0.9369597306
O 0.1870850734 0.3100187143 -0.0616565901
C -0.6637164034 1.3959202084 1.9647385607
C -1.6225971887 2.3002993377 2.1660861462
C -2.9197246317 2.2937784131 1.3874864412
C -3.3468927202 0.8671688831 0.9948426375
H -1.4142147021 -0.0887590492 -1.328265805
H -1.8394044381 -1.1766669706 2.2581158134
H -1.1244434136 -1.8625474903 0.7107460366
H 0.8785162559 -0.3010817806 0.2124947048
H 0.2649932452 1.4224555755 2.5307610714
H -1.481038778 3.0837172606 2.9063141972
H -3.7125293921 2.7724711686 1.9722315969
H -2.7992787264 2.909854333 0.4847524113
H -3.7362327601 0.3575660892 1.8824908745
H -4.1527755955 0.8924050616 0.2561975914

