# b3lyp 6-31G(2df,p) opt Freq 

 titel

0 1
C -2.6104745169 -1.7975390031 1.9424211962
C -2.0994863518 -0.4165977253 1.6357591656
O -2.7269680384 0.2662718092 0.5399817474
C -2.8379277991 0.83857226 1.8705470099
C -1.8293459867 1.9050457239 2.1372095912
C -0.596238387 1.3993715654 2.0526876788
C -0.6012223302 -0.0882807733 1.7580842499
C 0.202124093 -0.4566209531 0.4989123362
O 1.5690142117 -0.0875183024 0.5950153398
H -2.3403553664 -2.0965333185 2.9608011543
H -3.6981154587 -1.8328628757 1.8427723764
H -2.185154547 -2.5352063632 1.2522227935
H -3.8497949528 0.8733991124 2.2641244373
H -2.0858730183 2.9396610577 2.3285824095
H 0.3286947615 1.9587648694 2.1225413974
H -0.1757103905 -0.6487004894 2.6058454073
H 0.09299614 -1.5321072174 0.2891008973
H -0.2054079727 0.090369165 -0.3544647699
H 1.9779376403 -0.6376691515 1.270656882

