# b3lyp 6-31G(2df,p) opt Freq 

 titel

0 1
C -0.1094909513 -0.3232587848 0.0929670476
C 1.3410951182 0.0570407149 0.0453935491
C 2.0166518126 0.7947367254 1.2208383104
C 3.2984763142 1.1119315751 0.4172116638
O 4.4722679545 1.4633867457 1.0696983756
C 2.7597550775 2.0562419667 -0.6775501716
C 2.0331221752 0.7976880878 -1.1817406478
C 3.1594799681 -0.0988880425 -0.6429734412
O 2.2622896584 -1.0796208755 -0.1149481842
H -0.3099640651 -0.9648565144 0.9575640425
H -0.735293432 0.5709171608 0.1770962779
H -0.3969548802 -0.8663629074 -0.8118345365
H 1.5033833572 1.6975167111 1.562589567
H 2.1696222499 0.1089806975 2.0592303874
H 4.641319855 0.8146054131 1.7614779695
H 2.1845859414 2.9291636242 -0.3567575402
H 3.5424615464 2.3603600708 -1.3784280841
H 1.5832949324 0.6890904098 -2.1663575289
H 4.0324034977 -0.4700169781 -1.1782824263

