# b3lyp 6-31G(2df,p) opt Freq 

 titel

0 1
C -0.1555832394 -0.1653738712 -0.1903553928
C 1.365286867 -0.0839268109 -0.124924756
C 1.964049585 -0.9948021899 0.9462305518
C 2.1024146023 -0.2233569501 -1.4850732302
O 1.6683540027 0.8432009731 -2.3337833223
C 2.7073777927 1.1144275462 -1.3763819892
C 1.9927390526 1.3491484408 -0.0568562934
C 1.5453015633 2.5891655574 0.569282044
O 2.6493407228 1.829410883 1.0994195566
H -0.6056883551 0.1673847573 0.7515869804
H -0.5398787202 0.4625909193 -0.9978027029
H -0.4851898099 -1.19567217 -0.3663566725
H 1.66064928 -2.0338605981 0.7787451208
H 3.0575072679 -0.9516166759 0.9466999228
H 1.6235200111 -0.6944153699 1.9411843855
H 2.4740496655 -1.1249096841 -1.9599377988
H 3.6475164096 1.5142609265 -1.7377449752
H 1.8086586835 3.5491665848 0.1280721317
H 0.6489346086 2.5900738517 1.1874611697

