# b3lyp 6-31G(2df,p) opt Freq 

 titel

0 1
C 2.5876883383 -0.2266031654 -0.0666357661
C 1.1856360065 0.166372379 0.5043199251
C 0.5902695431 -0.0834647436 -0.8757541184
O -0.6940380424 -0.6192444928 -0.9939015
C -1.0737636819 -0.3846973873 -2.334512799
O -0.5034322627 0.8480858398 -2.7272994369
C 0.6995031699 0.9982688325 -1.9905169245
C 1.9673533891 0.2965904894 -2.5675294716
C 1.9392234239 -0.7203496039 -1.3986027732
H 3.2727186504 0.6154713478 -0.1975386156
H 3.1044562617 -1.0008075855 0.5029025482
H 0.8201024597 -0.5694610943 1.22528173
H 1.0609058729 1.1666214493 0.9288315284
H -0.7117890217 -1.2043562883 -2.9797918197
H -2.1629842155 -0.3122636213 -2.3941009201
H 0.7965617745 2.0496761567 -1.7082224715
H 1.7659460321 -0.1490169411 -3.5452772005
H 2.8618789555 0.9213550736 -2.6454912976
H 2.0596366866 -1.7794626644 -1.627213197

