# b3lyp 6-31G(2df,p) opt Freq 

 titel

0 1
C -3.8386290074 -1.39441774 1.496043143
C -3.3724253905 -0.1034089015 0.8611310574
C -3.363254973 0.0678058746 -0.6429843797
O -3.6505076628 1.3104157694 -1.2142360569
C -2.0699352869 -0.0262341713 0.0997296158
C -0.9884890929 -1.110982966 -0.0593284557
C 0.0531690492 0.0289213258 -0.0242254888
O 1.244898284 0.0584708667 -0.1134269925
C -1.030952309 1.1059066023 0.1699071484
H -3.3711021751 -1.5516488667 2.4744827268
H -4.9243668026 -1.3958015115 1.6427027773
H -3.5876529651 -2.2573591502 0.8705971353
H -3.6201030444 0.8036238866 1.4095452761
H -3.6592211348 -0.7957521763 -1.2429759514
H -4.5957831085 1.4719465519 -1.1270201489
H -0.8863852024 -1.8114705537 0.776932692
H -0.9999969514 -1.6844271538 -0.992032497
H -0.9558769621 1.6373851607 1.1246484525
H -1.0873236045 1.8446378632 -0.6352564235

