# b3lyp 6-31G(2df,p) opt Freq 

 titel

0 1
C 0.0872618071 0.2966557651 0.1354915506
C 1.5772963173 0.0822529564 0.0431866854
O 2.0724996971 -0.2835978665 -1.2669766771
C 2.4385694752 0.991695227 -0.7232388094
C 3.8870182439 1.214961455 -0.3430728923
C 4.5448726988 -0.028102962 0.2693264712
C 3.6715881611 -0.7058278292 1.3027006641
O 2.889889682 0.1227781318 2.1718725856
C 2.2121635117 -0.671792209 1.1779910141
H -0.1631346088 0.8570403826 1.0426933581
H -0.2792802715 0.8498294458 -0.7325005076
H -0.4398195218 -0.6631994761 0.1771688415
H 1.9548783759 1.8352863787 -1.2192601599
H 4.4546162595 1.5389549477 -1.2228507482
H 3.9120580731 2.0434191828 0.3738496938
H 4.7522153948 -0.7656777755 -0.5142152345
H 5.5083803956 0.2425171486 0.7156242647
H 4.117294452 -1.567962925 1.8005242454
H 1.6238042971 -1.4898073381 1.5945781345

