# b3lyp 6-31G(2df,p) opt Freq 

 titel

0 1
C 0.8712836213 2.8843512737 2.4384639009
C -0.5279763436 2.3972954591 2.2291640153
O -1.5483954022 3.0524992515 3.0024513244
C -2.3901747353 1.9374165928 2.5959629688
C -2.6159887688 2.2734898066 1.1048759571
C -1.1263736856 2.1122078244 0.7518124939
C -0.9219892161 0.6053849575 1.0236573763
O 0.4102932198 0.2194389724 0.7379640417
C -1.1345681288 0.9920880685 2.5007735798
H 1.1437324272 2.8355231102 3.4973516993
H 1.5657836709 2.2719406968 1.8600018945
H 0.962779061 3.9259524233 2.1109728345
H -3.2365895457 1.7579238157 3.2572785773
H -3.2613047928 1.5742946224 0.5647899287
H -3.0015025002 3.2889261976 0.9994638109
H -0.7273899508 2.5749954911 -0.1488106692
H -1.6411525484 -0.078647204 0.5522233426
H 0.5820732329 -0.6155625585 1.18525064
H -0.8751198347 0.3641936189 3.3534859831

