# b3lyp 6-31G(2df,p) opt Freq 

 titel

0 1
C 0.9728217598 -0.6947595293 -0.7436050784
C 0.8922891802 0.115062463 0.5308999651
C 1.7468964833 1.3164530908 0.705438887
C 1.3631272734 2.0886004129 1.973393478
C 1.5893870995 0.7994110317 2.8320323337
O 2.5530642314 0.900600012 3.85388683
C 2.0312306899 0.0468120911 1.5585369052
C 3.1621654138 -0.8868776095 1.4837178331
O 3.7357460083 -1.2289585889 0.470649359
H 0.6271059011 -1.7198692701 -0.5778119994
H 0.3341266889 -0.2451318794 -1.5113099752
H 1.9970765347 -0.7469268886 -1.1150354765
H -0.1031152186 0.1510027503 0.9760824449
H 2.3689702327 1.6821049298 -0.1035090834
H 2.0942039816 2.8543909706 2.247700986
H 0.3647817212 2.5377913386 1.9864745555
H 0.6964981158 0.3955137635 3.3194392417
H 3.3434833032 1.3147594742 3.4883417917
H 3.4871943 -1.2705461627 2.4753326323

