# b3lyp 6-31G(2df,p) opt Freq 

 titel

0 1
C -1.2694839515 0.9904326735 2.2451203901
C -0.9148740564 -0.0833795547 1.2566749427
O -0.5651550717 -1.3755165933 1.8003602213
C -1.7179496541 -1.2757413915 0.9591734265
C -1.4325792915 -1.6630033655 -0.4745762199
O -0.2593235474 -0.9368813629 -0.8337207155
C -0.1403719942 0.197754275 -0.0020150102
C 1.1568240363 0.9320174247 -0.0756915102
C -0.1011718776 1.5585970883 -0.6530363177
H -1.8138137793 0.5536559439 3.0851948381
H -0.3682972733 1.4710639052 2.6417808601
H -1.8930524995 1.7633001779 1.7864997988
H -2.6806477148 -1.4884539597 1.4175681976
H -1.2184055173 -2.7282918008 -0.6070839331
H -2.2910751545 -1.3925736058 -1.1105018203
H 1.5705707364 1.3448575084 0.8380220227
H 1.8904440219 0.5431475388 -0.7723920015
H -0.5362613769 2.4122100875 -0.144572414
H -0.1978500846 1.570138951 -1.7326821254

