# b3lyp 6-31G(2df,p) opt Freq 

 titel

0 1
C 1.4527842388 0.0782870266 -0.0123392477
O 0.0292912706 0.0153695581 0.0092625366
C -0.5261877948 0.5829601923 1.1597276603
C -0.2730437311 -0.0594485255 2.5250361499
C -1.5838307707 0.1653473058 3.2523642734
C -2.5110883402 0.7242491386 2.4688081427
C -1.9804672838 1.0333811799 1.1143830969
C -0.8416148558 2.0562422427 1.0677212498
O -0.5525718889 2.6957240697 -0.1341973884
H 1.8923756461 -0.5083426638 0.8044017511
H 1.7723940979 -0.3497096549 -0.9650446827
H 1.8100931279 1.1134842808 0.0617745672
H -0.0506621574 -1.1306147504 2.4123385963
H 0.5779896987 0.3876656088 3.0533532084
H -1.7218993058 -0.1100792611 4.2913786842
H -3.5223118702 0.9705374765 2.7718273133
H -2.5825912364 0.9224825765 0.218656862
H -0.7023999524 2.7123721258 1.9219969377
H -0.3669956925 1.9962035435 -0.7752711311

