# b3lyp 6-31G(2df,p) opt Freq 

 titel

0 1
O 0.0549416808 0.3484473599 -0.0676146503
C -1.0817939094 0.8815626552 0.5605193292
C -1.0003102788 2.3648901595 0.8696239237
C -2.2580563885 2.9526574873 1.5407370598
C -2.8904882752 2.0076545449 2.576306055
C -3.0565351981 0.6169887643 1.974052078
O -3.5271841347 0.6942391167 0.5838132525
C -2.3088572408 0.1150898995 0.1322632608
C -1.7587759072 -0.0720239673 1.5269061996
H 0.7775478977 0.3529682321 0.5707933816
H -0.1327900797 2.4998172757 1.5343492495
H -0.7701587782 2.9151435925 -0.0496621086
H -2.0096144256 3.9118128434 2.0064624079
H -3.0073329325 3.1534460558 0.7715356616
H -2.2695918006 1.9205002617 3.4779699605
H -3.8605351875 2.4062297723 2.8935110192
H -3.7258590988 -0.0247286294 2.5552359273
H -2.3283482615 -0.5266105298 -0.7408145837
H -1.2656595214 -0.9129865744 1.9968825962

