# b3lyp 6-31G(2df,p) opt Freq 

 titel

0 1
O 0.457477915 0.6905373484 -0.6191555015
C -0.3531084745 0.4064350667 0.4811973878
C -1.7211392321 -0.1349738831 0.2364931032
C -1.7580220864 -1.1018111234 -0.9637941941
C -0.6675904115 -1.9826587236 -0.2785356815
C -0.6351648736 -1.0079755039 0.9168058357
C -1.1187866294 -1.216476758 2.3316831899
O -2.1182345217 -0.2041337548 2.5433233431
C -2.7669731538 0.1055973391 1.2976642721
H 1.371215675 0.5243434144 -0.3644305214
H -0.2924885619 1.1240911896 1.2998796291
H -2.7201197861 -1.6111688824 -1.0530291922
H -1.4965108058 -0.6606036871 -1.9272494653
H -1.0348713689 -2.9713093632 0.0057869657
H 0.2751519162 -2.100630919 -0.8185802855
H -1.5419845334 -2.2285364525 2.4392168077
H -0.3726070631 -1.0712075626 3.1203839017
H -3.6355798562 -0.54969554 1.1236734514
H -3.124755728 1.1361837154 1.391011524

