# b3lyp 6-31G(2df,p) opt Freq 

 titel

0 1
O 1.1851128269 0.3778232068 0.7155947299
C 0.0422162677 0.1898004157 0.4078121481
O -0.816291978 1.2104296555 0.1345393003
C -2.10356236 0.6962128791 -0.2508401213
C -2.1442324754 -0.7459550106 0.2745682839
C -0.6680016441 -1.1442185676 0.2336035516
C -0.2031092802 -1.9646245452 -1.0227998741
C -0.1476167216 -3.236495072 -0.1369483976
C -0.1868269981 -2.3238073131 1.116845489
H -2.8660362448 1.3468541411 0.1820292963
H -2.1840617289 0.740647629 -1.3434761529
H -2.5081049634 -0.7584374741 1.3080455584
H -2.7965681192 -1.3886867219 -0.3214319412
H -0.881377008 -1.9657634237 -1.880064858
H 0.7891300604 -1.649358721 -1.3539031134
H -1.0488879308 -3.8476919649 -0.2342942007
H 0.7232037418 -3.8839898869 -0.2559561033
H -0.844743439 -2.6157327822 1.9394622746
H 0.8106415748 -2.1132083941 1.5108139104

