# b3lyp 6-31G(2df,p) opt Freq 

 titel

0 1
C 1.3004112759 -2.5783126803 -1.5775604369
C 0.4053746287 -1.5652377506 -0.9067808754
C -0.236446764 -1.7959260726 0.4918821367
C -1.267693237 -0.7538558719 0.0305625896
C -0.5156231759 0.4799000687 -0.6061621513
O -1.0648202745 0.1686472693 -1.9227899688
C -1.0654867136 -1.1814617558 -1.4342974377
C 0.902347475 -0.0969344424 -0.764551599
O 1.7172238569 0.1846424781 0.3546495333
H 2.2416071965 -2.7072560562 -1.0272822812
H 0.8236169989 -3.5627927358 -1.6332750751
H 1.5530370164 -2.2694046051 -2.5982826564
H -0.6976102983 -2.785229159 0.5714702787
H 0.3798191619 -1.5917411416 1.3678009172
H -2.2406888922 -0.5843439186 0.4869107093
H -0.6436070551 1.5143280341 -0.2917142082
H -1.652039168 -1.8989030365 -2.0079965769
H 1.3521779908 0.2795078193 -1.6919012076
H 2.5589619374 -0.2670394531 0.2372281996

