# b3lyp 6-31G(2df,p) opt Freq 

 titel

0 1
C 1.0199951409 1.0963055612 0.1583583289
C 0.9146792044 -0.413265985 0.0825308785
C 1.833391642 -1.244729502 0.9075671475
C 1.4336019356 -2.7315935533 0.8564349731
O 2.3849802749 -3.6223267482 1.3924192142
C 1.5518597195 -2.7092484847 -0.6925975627
C 1.9714649871 -1.2372801824 -0.6463571452
C 3.0548245721 -0.6710129616 -1.4544411785
O 3.6175504543 -1.2718996133 -2.3421012073
H 0.381932589 1.4752380259 0.9633793117
H 2.0411944264 1.4272655864 0.3672179159
H 0.6973744355 1.5681310086 -0.7750569074
H -0.1060949353 -0.7740824967 -0.0491584583
H 2.5171166307 -0.8056184358 1.6265025218
H 0.4288648072 -2.9355403379 1.2555620389
H 2.348990662 -3.5589761059 2.3526319647
H 2.370966803 -3.3535707241 -1.0137596176
H 0.6509832964 -2.9433580428 -1.2664457473
H 3.3516115844 0.3692647116 -1.195418101

