# b3lyp 6-31G(2df,p) opt Freq 

 titel

0 1
C 1.9663208731 1.68166879 0.0006771528
C 1.3194923926 0.2938766333 0.112903217
C 1.9011465727 -0.6897726259 -0.8489877921
C 3.1328579205 -1.5172939119 -0.749482092
C 1.7729069033 -2.1885756757 -1.0364332464
C 1.1804628191 -3.3025290039 -0.2259597392
C 1.4156244685 -1.8210895373 -2.4544233077
O 1.012281813 -2.363308035 -3.4321058033
O 1.6428092954 -0.4625767865 -2.2760830925
H 1.5061431791 2.3802320026 0.705040679
H 3.0380876363 1.6353141353 0.2172744741
H 1.843277277 2.0838298831 -1.0087228619
H 1.4474636685 -0.1032702473 1.1268172554
H 0.2407114427 0.3676989984 -0.0676351808
H 3.8952512316 -1.4543455253 -1.5195568436
H 3.5034598004 -1.7124564377 0.2535980737
H 1.4235928209 -3.1873472263 0.8347700069
H 0.0911051148 -3.3306595797 -0.325091955
H 1.5709782506 -4.2716546803 -0.5532151645

