# b3lyp 6-31G(2df,p) opt Freq 

 titel

0 1
C 1.4498044103 0.0173960722 -0.2646501869
O 0.0796352631 -0.0871495169 0.0599464916
C -0.2859708302 0.6811652834 1.1777935424
C 0.0028938999 0.0365318868 2.5680565718
O -0.5397250964 1.0307183822 3.4466042871
C -1.9188160682 0.8885579705 3.0434040242
C -2.2393372378 -0.5538256096 3.4948919764
C -1.2593745905 -0.9053252635 2.3648062537
C -1.7342914061 0.3655185293 1.563821246
H 2.0988560532 -0.3629773556 0.5375978669
H 1.6144958151 -0.5813690028 -1.1635645262
H 1.7364743011 1.0594388317 -0.4732968583
H 0.0279757254 1.7298113576 1.0712648965
H 0.9823977286 -0.3012420703 2.9025973765
H -2.497566938 1.7671119709 3.323087905
H -2.0048409179 -0.8100555111 4.531120848
H -3.2568180093 -0.859455697 3.2359562005
H -1.124217923 -1.8903793872 1.9280681305
H -2.5709398294 0.3843665293 0.8689518544

