# b3lyp 6-31G(2df,p) opt Freq 

 titel

0 1
O 0.6523885491 0.961833185 0.4299871657
C -0.5638530367 1.0671719694 1.1203876405
C -1.8869169335 1.3035648742 0.3307477192
C -2.5549210362 0.3303405942 1.3061649045
C -1.1943836571 -0.2034159521 1.7691550672
C -3.8348524742 -0.4626275496 1.2368846755
C -4.9429096972 0.4282714863 0.6819593017
O -4.6467443792 1.4753680232 1.6481646236
C -3.6587592232 0.6436118558 2.2604988392
H 0.5481780114 0.2970604398 -0.2592227055
H -0.4110393449 1.8497065355 1.8681456918
H -2.2838688852 2.3194625736 0.2827966212
H -1.8178946396 0.8965984652 -0.6860291221
H -1.0331196023 -0.3667671396 2.8383402738
H -0.8981513528 -1.1104807015 1.2275448113
H -3.8754285 -1.5381414516 1.3520109775
H -4.8461740585 0.7773421539 -0.3530276853
H -5.951024837 0.0327402113 0.8480519348
H -3.5831012928 0.6518724869 3.3429327353

