# b3lyp 6-31G(2df,p) opt Freq 

 titel

0 1
C -0.8460394728 2.0733296935 1.2452664669
C -1.0475962279 1.1977948737 0.0097353258
C -2.2861478536 0.2769331318 0.045117278
C -2.052494677 -0.7397157918 -1.0896114758
C -0.9624342139 -1.1883930624 -0.0778270387
C -0.3794700685 -2.5609652365 0.0446706351
O -1.8656164767 -0.7498359584 1.0069353238
C -0.0266256182 0.0373036712 -0.0878352979
O 1.172559443 0.0743935751 -0.1157582024
H -0.984209084 1.48154607 2.1541869284
H 0.1670570106 2.4853745007 1.2553758499
H -1.5558654715 2.9064099418 1.2595694291
H -1.0025602387 1.8046421077 -0.9025434069
H -3.2595523683 0.7142553139 0.2652541692
H -2.8510939255 -1.4801711746 -1.1590469865
H -1.7510658565 -0.3788751608 -2.0770505872
H 0.2226487895 -2.6353925043 0.9549658021
H -1.1629097802 -3.3223648979 0.0750425089
H 0.2780935201 -2.7597952427 -0.8070150018

