# b3lyp 6-31G(2df,p) opt Freq 

 titel

0 1
O -0.4136790265 -0.5132318752 -2.3951400452
C -0.9869555388 -0.2295631759 -1.1623151946
C -2.3697814202 0.3408645291 -1.1435617199
C -2.1134775184 -1.0236302344 -0.5298771832
C -1.8055441947 -1.052548528 0.9522724441
O -0.8524695784 -0.0027029123 1.1690721722
C -0.0992630526 0.1658377288 -0.0080928917
C 1.3743667795 -0.1598157817 0.0050874703
C 0.8861005291 1.2817910809 -0.0222624312
H 0.1281341275 -1.3041891899 -2.2951825787
H -2.5827752572 1.1833747402 -0.4932432703
H -2.8878478105 0.3422670312 -2.0956935513
H -2.5194291726 -1.9042681411 -1.0131649531
H -2.6610986993 -0.8403768364 1.6017449778
H -1.3861995043 -2.0301091143 1.237430498
H 1.7806307477 -0.5309806475 0.9391590618
H 1.8454621167 -0.5509889785 -0.8908726767
H 0.9879114375 1.8634347379 0.886925709
H 1.0031457656 1.8405740172 -0.9444555874

