# b3lyp 6-31G(2df,p) opt Freq 

 titel

0 1
C 1.398834805 -5.5074353137 0.8990392198
C 2.0503668319 -4.2621235928 1.4654673607
O 2.6116449706 -4.3088983123 2.545832919
C 1.9206497366 -3.0259677594 0.6006311057
C 1.8022183328 -1.5543039795 1.1458840857
C 2.1275499319 -1.1105585386 -0.310773107
C 3.1531878023 -2.236051182 0.0052561969
C 3.3535049678 -1.4977168807 1.3825055344
O 3.9895148789 -2.0435358445 2.4741615898
H 1.5926157845 -6.3610548925 1.5486841199
H 0.3176593009 -5.3528251973 0.8035923437
H 1.7767979209 -5.70789792 -0.1099902731
H 1.1758959786 -3.2467494425 -0.171080886
H 1.0064788692 -1.1774544456 1.7902159256
H 1.3747191663 -1.3406220645 -1.0665183195
H 2.5299542599 -0.1031862213 -0.4360924719
H 3.9104033388 -2.6499393824 -0.6623742566
H 3.7654996245 -0.4916664901 1.2566193585
H 3.5594143986 -2.8874188503 2.7081372444

