# b3lyp 6-31G(2df,p) opt Freq 

 titel

0 1
C -0.5895755365 2.1329582122 1.274477713
C -0.7928940024 1.2825601433 0.0122934967
C -2.1828449811 0.7013001503 -0.1345600494
O -2.3580377264 -0.0330132374 -1.3512407352
C -2.1331628592 -0.7740239306 -0.1468509182
C -0.7071766651 -1.2628260888 -0.0089061233
C -0.4464069345 -2.1185003612 1.2390707948
C 0.1247994556 0.0391068276 0.0282030529
O 1.323753368 0.0786992487 0.1222646249
H -0.8929826181 1.5901248289 2.1761781618
H 0.4658522099 2.3955584925 1.3770280917
H -1.1760671219 3.0549902068 1.2226484283
H -0.5353637872 1.8785213028 -0.8710910617
H -3.0531156586 1.2563285881 0.208019892
H -2.9639329577 -1.391962393 0.1859584199
H -0.410633197 -1.8253345425 -0.9019377395
H -0.9695749096 -3.0769063421 1.171580911
H 0.6243521338 -2.3111781032 1.3378311257
H -0.7851384622 -1.6123821525 2.1495063444

