# b3lyp 6-31G(2df,p) opt Freq 

 titel

0 1
C 1.1909150735 1.4796065562 -0.024359357
C 1.9898144573 0.1851274857 -0.0398070143
C 1.6591167002 -1.05797884 -0.916321767
O 2.5536089253 -1.8490829023 -0.0368710582
C 1.7298298005 -1.0357465616 0.8901207745
C 0.499661059 -1.4459586955 0.0385903208
C -0.9571718355 -0.9441319097 0.089640555
C -1.3106083006 -2.440783343 0.1224083203
O 0.0846888647 -2.8085043904 0.0716180051
H 1.4774778887 2.0874996035 0.8406482472
H 1.4122710095 2.0681780102 -0.9212725041
H 0.1111496229 1.3324370914 0.0171845984
H 3.0645041715 0.379916046 -0.0842381584
H 1.7547204473 -1.2043044123 -1.9930989203
H 1.9094698875 -1.1556325021 1.95940161
H -1.2258412236 -0.3788341155 0.9836515441
H -1.2958078569 -0.401464753 -0.7945828335
H -1.7929233258 -2.7982708084 1.0394095128
H -1.8637606353 -2.8206810192 -0.7441946853

