# b3lyp 6-31G(2df,p) opt Freq 

 titel

0 1
C 1.6589800632 0.1269582357 0.0128445398
O 0.2640624863 -0.1477382174 0.1091123033
C -0.3578999118 0.521640466 1.1272330362
C -0.760603842 1.9940544289 0.9951623356
C -1.8402384198 0.9848687518 1.2220192623
C -2.9556264954 0.703417678 0.2599835175
C -1.8645728346 0.6600643033 2.7282413866
C -0.4204444936 0.1058878782 2.5666459014
O 0.274470486 -0.5854451838 3.2579339567
H 2.1834210817 -0.1788406923 0.925238716
H 2.0343962164 -0.4512421193 -0.8336283433
H 1.841196116 1.1953464423 -0.1671072048
H -0.5051552804 2.7285309418 1.754704167
H -0.6574697374 2.3444556688 -0.0281018523
H -3.3673332689 -0.2994190698 0.4152881707
H -3.7725517825 1.4235880833 0.3827034754
H -2.6025961631 0.7672838906 -0.7736560865
H -2.0114635055 1.5011310297 3.4123199076
H -2.5460790945 -0.1524608157 2.9990246308

