# b3lyp 6-31G(2df,p) opt Freq 

 titel

0 1
C 1.4185570388 1.0644553015 0.0741123411
C 1.0819429586 -0.4192004675 0.002162357
C 1.8626770033 -1.2091306311 -1.0968683313
C 1.3253189173 -2.6633628308 -0.9864365501
C 2.0039061097 -2.6984124498 0.379475219
C 1.8605827715 -1.2715235129 1.003103525
O 2.0215214448 -1.0460668469 2.3547378032
C 2.9518807636 -1.5818316643 0.017812945
O 4.3184750277 -1.5666194185 0.0651636178
H 1.054960164 1.5066816975 1.0070878594
H 2.5026851945 1.225146262 0.0361866025
H 0.969221064 1.6130072734 -0.7603789959
H -0.0068814438 -0.5650355456 -0.0227146868
H 2.0582778021 -0.7425868829 -2.0607462707
H 0.2382659635 -2.7938188634 -1.0410075596
H 1.8114811677 -3.3400277221 -1.6948461802
H 2.2129986965 -3.5369190431 1.0326926973
H 1.2962991965 -1.469141882 2.8276934079
H 4.6081920497 -0.6849747135 0.3256710096

