# b3lyp 6-31G(2df,p) opt Freq 

 titel

0 1
O 1.1723697672 -0.1180654087 0.2910997751
C -0.0210220072 -0.0660224595 0.1628110557
C -0.8901882125 1.2016373277 0.1352508162
C -2.3353605371 0.6617584427 0.0635980748
C -2.1528778108 -0.6340543006 -0.7653311011
C -0.9821443817 -1.2736849589 -0.0156128806
O -1.4197181953 -1.7541033941 1.2563803855
C -1.8898124945 -0.7318710223 2.1336093181
C -2.8597473691 0.2482949613 1.4541049336
H -0.674104318 1.8402584097 0.9970735654
H -0.633337811 1.7754269766 -0.7633577325
H -3.0209104548 1.3728196663 -0.4030989022
H -3.0364593646 -1.2770966609 -0.7697588716
H -1.8758448845 -0.4096972291 -1.8022226611
H -0.4928197942 -2.1138933868 -0.5091691972
H -2.3741674415 -1.2542643009 2.9627652326
H -1.0340335232 -0.1812062963 2.5549621812
H -3.8427740646 -0.2217560203 1.336913757
H -2.9916200927 1.122457924 2.1026308211

