# b3lyp 6-31G(2df,p) opt Freq 

 titel

0 1
C 2.5699363557 1.5096146672 -0.5129818698
C 2.0406893205 0.1406920224 -0.1235418878
C 2.7913154064 -0.5572800936 1.0362744846
C 2.7685931806 -2.0274006007 0.6653363107
C 1.4243706768 -2.6150768451 0.223106361
C 2.3310396857 -2.0422849694 -0.809278344
O 2.1626059826 -0.7389150996 -1.2584810552
C 3.839206908 -2.9252748801 1.1273440133
O 4.7790819356 -2.5857882155 1.8071180571
H 2.4574722097 2.2095656285 0.3206781373
H 3.6295198962 1.4486097841 -0.7779869937
H 2.0194480036 1.9053322155 -1.3708279253
H 0.9744162771 0.2268326411 0.1319721622
H 3.8340398964 -0.2303963905 1.0937661556
H 2.321861996 -0.3446266996 2.0007901733
H 1.3405837746 -3.697267767 0.2561613647
H 0.5237862909 -2.0841482346 0.5104149217
H 2.8001660932 -2.6802227073 -1.5496254159
H 3.7299855504 -3.9812730857 0.78417851

