# b3lyp 6-31G(2df,p) opt Freq 

 titel

0 1
C 1.1267610805 1.2411005006 -0.2537938635
C 0.9443065703 -0.2824879868 -0.1896307609
C 1.7163251831 -1.0028901899 -1.2581645919
C 3.1755898632 -1.4234049033 -1.1480835503
C 2.128437608 -2.4431767041 -1.4655080353
O 1.8092375153 -2.4228571797 -2.8647949805
C 1.2986612214 -1.0759772437 -2.7405584648
C 1.9168591886 -0.0857583092 -3.7045213242
O 1.5262041138 1.0486026389 -3.8182739081
H 0.5180805267 1.7399321727 0.5061049146
H 2.1729335024 1.5164183904 -0.0855334586
H 0.8373133754 1.6263541114 -1.2360606187
H 1.2595964591 -0.65669558 0.7921531128
H -0.1208904839 -0.5308292127 -0.2860213417
H 3.9199728647 -1.1591676098 -1.8930310264
H 3.5423414919 -1.4404835156 -0.1257144516
H 1.9272197017 -3.3544722754 -0.9147129882
H 0.2068359846 -1.0574530162 -2.8540454359
H 2.774134243 -0.4803275873 -4.2926557167

