# b3lyp 6-31G(2df,p) opt Freq 

 titel

0 1
O 1.2804886307 0.8044908326 -0.0525929042
C 0.3252344355 -0.0395709512 0.5762102442
C -0.9081962161 0.70209306 1.0393790734
C -1.9444903118 1.0726944582 0.0096869014
C -2.2327961396 -0.0236227318 1.0210440677
C -3.4043345896 0.6656708469 1.7591243487
C -4.2926507292 1.1665961645 0.5872616903
C -3.0362189555 2.070960229 0.4583425014
O -2.9361671981 2.0392785596 1.915711794
H 1.5188241287 1.4932996342 0.5761362193
H 0.0585276987 -0.7891893899 -0.1771108753
H 0.7719659052 -0.5801302382 1.4261243828
H -0.7478129681 1.4033140598 1.8533900014
H -1.7698354194 0.8896202622 -1.0435137414
H -2.2960560479 -1.0744648845 0.7642525438
H -3.7977458097 0.222893234 2.6739640256
H -4.5318395661 0.4765535049 -0.2262996888
H -5.1705949935 1.7153189901 0.9326836124
H -3.0514348141 3.0753307797 0.0358509632

