# b3lyp 6-31G(2df,p) opt Freq 

 titel

0 1
C -3.660892152 1.2067972332 0.033450609
C -2.3226227588 0.5088825551 0.0324181182
C -1.9391041331 -0.573790322 1.0949707539
C -0.8939024861 -1.0187346351 0.0173237998
C -1.9689893782 -0.5729584054 -1.0487178686
O -2.9641133981 -1.5030707158 -1.3801748651
C -0.000925147 0.2087955936 -0.0072746046
O 1.197559199 0.2813074518 -0.044026512
C -1.034398326 1.3577903573 0.0053508332
H -3.8159263133 1.7731424033 0.9582822889
H -3.739537059 1.9083483377 -0.804390277
H -4.4763231008 0.4828654042 -0.0641324601
H -1.561679955 -0.2350820249 2.0639857803
H -2.7225166707 -1.3168482736 1.2667088351
H -0.4135138882 -1.9945870876 -0.0008503761
H -1.5891801443 -0.2027030434 -2.0057345461
H -3.2781933104 -1.9408396394 -0.582347052
H -0.91361962 1.9976653892 0.8858358902
H -0.9339654579 1.9849766119 -0.8870714469

