# b3lyp 6-31G(2df,p) opt Freq 

 titel

0 1
C 0.8499696653 4.058010519 2.1213338634
C 0.6831404548 2.9130986047 1.163776592
O 0.1926343662 3.2528999774 -0.162338202
C 1.4897919725 2.6599941187 -0.0465274519
C 1.5186889716 1.1606847817 -0.3073387814
C 0.6194398796 0.6011860597 0.7849354633
C 0.2374869636 -0.8471084913 0.8229839425
O -0.4395952103 -1.2518789029 -0.3654241575
C 0.1864600473 1.5684008122 1.6023339296
H 1.5035693374 3.7768264652 2.9538720084
H 1.2805581617 4.9235620074 1.6122254911
H -0.1170640233 4.3574724741 2.5405390842
H 2.319618589 3.2941724224 -0.3495493228
H 1.1503834813 0.9029268203 -1.3061050007
H 2.5391263667 0.7619223089 -0.2306999588
H 1.1307480982 -1.4818577631 0.8692001297
H -0.3624724592 -1.0553571312 1.7215441509
H -1.2088139969 -0.679649248 -0.4615747898
H -0.4659985455 1.4256351749 2.45691901

