# b3lyp 6-31G(2df,p) opt Freq 

 titel

0 1
O 1.0205433402 0.1816617295 -0.4073728874
C 0.6061885979 0.2276674379 0.9568335675
C -0.8534815505 0.5441914852 1.0887698537
C -1.4052959195 1.5385764429 1.7984484543
C -2.9111869058 1.5922284132 1.6438844664
O -3.3561364546 2.7950954417 1.0207749962
C -3.2232524529 0.3416207412 0.8145669738
C -2.8406826273 -0.9976133287 1.3804735707
C -1.9001402255 -0.2891443057 0.4210028428
H 0.8550190281 1.0521345016 -0.7846659513
H 0.8158853397 -0.7741073249 1.3499762077
H 1.2059663408 0.9436054131 1.5375781466
H -0.8650368211 2.2462676485 2.4182602191
H -3.4305857979 1.5790072447 2.6091317379
H -2.8259515056 2.909174263 0.2238993939
H -4.059754138 0.4023488625 0.128166352
H -2.5431882047 -1.0628994264 2.4227185859
H -3.3809601977 -1.8627160909 1.0089615975
H -1.7030538056 -0.7237738284 -0.5514281572

