# b3lyp 6-31G(2df,p) opt Freq 

 titel

0 1
O 1.2863167596 -0.3961904065 3.2220508853
C 0.1138243496 0.2795466258 2.9258481644
C -1.2349879005 -0.478364496 3.0586349346
C -1.884528693 0.5147389391 2.0824263004
C -0.5113577819 0.1007440485 1.4975467774
O -0.8178605699 -1.3163985548 1.8969987304
C 0.0714166254 0.3299156701 0.1535103972
C 0.9893719644 -0.7018752534 -0.456194799
C -0.3919420512 -0.4963563592 -1.0222094476
H 1.1659398502 -1.2805652449 2.8463179362
H 0.1753890925 1.2918369565 3.3320069231
H -1.6641550218 -1.0029229521 3.9119052086
H -2.744634081 0.1245927222 1.5390370614
H -2.0143549337 1.5505952662 2.4069897974
H 0.3084229232 1.372745695 -0.0378833633
H 1.844678729 -0.3502190836 -1.0215917891
H 1.1612796907 -1.6100929531 0.10898672
H -0.4943193629 -0.0034851669 -1.9823400275
H -1.1289080887 -1.2656382229 -0.8222177799

