# b3lyp 6-31G(2df,p) opt Freq 

 titel

0 1
C -1.6094686508 1.3773171329 1.0144514116
C -1.3735945234 -0.1610185263 1.1073540525
C -0.2505843283 -0.0632661282 0.0420927795
C -0.4894319585 1.4947601809 -0.0519590823
C -0.9947265398 1.3231061797 -1.5089076328
O -0.106462634 1.7541449953 -2.5234352295
C 0.8690365917 0.7451744844 -2.6629883884
O 0.2367297239 -0.4851967412 -2.3882733909
C -0.7577859841 -0.2227590206 -1.4155824474
H -2.6035078073 1.6943234316 0.6827143367
H -1.381495104 1.9062105719 1.9423903545
H -1.0148186218 -0.484735092 2.0867721668
H -2.2215148725 -0.7970600218 0.8332412237
H 0.7093113029 -0.5323943539 0.2610036774
H 0.2825496243 2.2513516065 0.0930089531
H -1.9878553059 1.7175147741 -1.7373291369
H 1.2336296456 0.7388133978 -3.6941021344
H 1.7082086635 0.9158464708 -1.9660871931
H -1.5836705315 -0.9195697019 -1.57808849

