# b3lyp 6-31G(2df,p) opt Freq 

 titel

0 1
C 1.0291773131 1.0221514736 0.0169704466
C 0.830702361 -0.4629308549 0.3050858874
C 1.3567036017 -1.4249252289 -0.8009735346
C 2.6030410593 -1.7623365578 0.064935505
O 3.6939573993 -0.9329986015 -0.3520871525
C 3.0089209642 -3.1496624727 0.1926698342
C 3.3561490039 -4.2932867372 0.3312101344
C 1.8718472159 -1.0917165042 1.2937393049
O 2.660762227 -0.2608939859 2.0893214834
H 0.8687972744 1.6204275813 0.9189706603
H 2.0386207894 1.2280561248 -0.3530306431
H 0.3230150839 1.361817631 -0.7477555409
H -0.2062212687 -0.6439060548 0.6014895024
H 0.724399408 -2.2983272494 -0.9671502449
H 1.6112687974 -0.9729289356 -1.7620829551
H 4.4933117279 -1.286417963 0.0543623304
H 3.6558103063 -5.3057774715 0.4466269568
H 1.4175966377 -1.8396785376 1.9475857658
H 3.2437082785 0.2109443444 1.4792994296

