# b3lyp 6-31G(2df,p) opt Freq 

 titel

0 1
C 1.2989749224 0.8354777636 0.1615446633
C -0.0347808819 0.1601842778 0.1706486865
C -0.2977705858 -1.1305689295 0.414722616
C -1.7506199351 -1.4219851956 0.2494155192
O -2.2433181373 -1.1535308925 -1.0909512728
C -2.3984368448 -0.1488531272 -0.0923376271
C -1.3229453364 0.9476383105 -0.105883546
C -1.3073729371 1.7404741095 -1.4083468156
O -1.5719509193 1.8890679257 0.9424102554
H 1.2706323963 1.7508797899 0.7631007784
H 2.0819871142 0.1809555287 0.5531613714
H 1.5878101167 1.1339067482 -0.8538954838
H 0.4403953505 -1.8875866543 0.6537582859
H -2.2462914279 -2.2412745554 0.7604376123
H -3.4167063614 0.1220550624 0.1777644646
H -1.2084711519 1.0603015891 -2.2568432833
H -2.2405061823 2.3022103166 -1.5081914831
H -0.4802069796 2.4552146406 -1.4185733295
H -1.5037695096 1.413316122 1.7782274879

