# b3lyp 6-31G(2df,p) opt Freq 

 titel

0 1
C 1.4495679847 -0.3315180925 -0.1021435594
O 0.0654886085 -0.0198836898 -0.0611612723
C -0.3981402201 0.6239667664 1.1041496577
C -1.9222874032 0.8661348974 0.9870335799
O -1.7604680299 2.2917660982 0.97881392
C -0.3232741968 2.2026130094 1.1084283266
C 0.3947406101 2.8962997767 -0.029752837
C 0.0490488599 -0.0119552627 2.3379896121
C 0.4122615919 -0.5149573633 3.3681100459
H 1.7292085398 -1.0287738148 0.6961698357
H 1.6257550294 -0.801517262 -1.0719175551
H 2.0773686692 0.5652289966 -0.0225428418
H -2.3319792024 0.4807805163 0.0468746173
H -2.519387164 0.5141039163 1.8344336174
H -0.0007339875 2.598841903 2.0791800712
H 0.1889920393 2.401336557 -0.9815671537
H 0.042999876 3.9310007879 -0.0902181784
H 1.4763848128 2.9153506717 0.138348021
H 0.7281759021 -0.9626928118 4.278246583

