# b3lyp 6-31G(2df,p) opt Freq 

 titel

0 1
C -0.5016061668 2.8776023707 0.7871122234
C -1.0031978636 2.1228190135 -0.4458975908
C 0.0062107092 1.0819758466 -0.9851812008
O 1.2415543412 1.6938065817 -1.2489844239
C -0.5595340477 0.4420622694 -2.2889260225
C 0.2729995776 -0.6328502336 -2.8114501146
C 0.9652514213 -1.5294165751 -3.2123604533
C 0.2012699117 -0.018066944 0.0506321663
O 1.2772664124 -0.2552728458 0.5397862452
H -0.3539049379 2.2093026225 1.6422850859
H 0.453794374 3.3604806174 0.5705505781
H -1.2197314931 3.6460256688 1.0865084517
H -1.95437021 1.6194741348 -0.2307115597
H -1.2014063713 2.8305466423 -1.2592105279
H 1.9017205697 1.189330321 -0.7475891757
H -1.5768309328 0.0736052977 -2.1057647731
H -0.6420758978 1.249082561 -3.025758662
H 1.5773507881 -2.3175749804 -3.5752351284
H -0.7079511942 -0.5884126686 0.333278922

