# b3lyp 6-31G(2df,p) opt Freq 

 titel

0 1
C 4.35522234 -1.7758918238 0.8200808797
C 3.266628663 -0.8449011938 0.4105572614
O 2.0576774587 -1.3649933041 -0.1425847687
C 1.4741943214 -0.0317044169 -0.0214478112
C -0.0126585689 -0.0206152743 0.1437520781
C 2.2420142985 0.7771574248 -1.1045224951
C 3.4701750165 0.5712576561 -0.2241700961
C 2.6326651127 0.3627721172 1.0177712669
O 2.6872328755 1.0189470439 2.2190833903
H 3.9882083831 -2.5190063897 1.535912703
H 4.7632535088 -2.3095747832 -0.0449156887
H 5.1698097244 -1.2173848581 1.2906165373
H -0.3153631101 -0.6100005819 1.0145643651
H -0.3763223479 1.0032853106 0.2707470501
H -0.495701468 -0.4498096921 -0.7411792198
H 2.2310487397 0.3497945818 -2.1121775468
H 1.9324929531 1.8257488654 -1.1257119878
H 4.4530752086 1.0198922288 -0.2952495195
H 2.3575989808 0.4281607694 2.9064141918

