# b3lyp 6-31G(2df,p) opt Freq 

 titel

0 1
C -0.1047267329 -0.1676732985 -0.0900365475
C 1.4089063105 -0.0681892717 -0.0148108821
C 2.2012656898 -0.8637949382 1.058280336
C 3.449456173 -0.6786531298 0.1650831864
C 2.3739902449 -0.8836191601 -0.9502731985
C 1.9697907863 -2.3297106891 -0.6171939063
O 1.8179896176 -2.237830089 0.8133309091
C 0.7191577275 -2.8736227438 -1.2824354666
O 0.493701435 -2.7657517159 -2.4603390451
H -0.5674453302 0.5246933711 0.6213400059
H -0.474438425 0.0834611453 -1.0891321077
H -0.4584205153 -1.1711643658 0.1625687488
H 1.7274204067 0.9775821353 -0.0158179729
H 2.164541608 -0.6667566661 2.1284842767
H 3.8564865548 0.3329576738 0.1859236533
H 4.2434975849 -1.4227577552 0.258949083
H 2.5323428775 -0.6428974762 -1.9991871376
H 2.7791365648 -3.0366413297 -0.8603781165
H 0.0388978722 -3.4230377664 -0.5934553484

