# b3lyp 6-31G(2df,p) opt Freq 

 titel

0 1
C -0.0315326572 -0.190873434 4.372814658
C -0.6461217022 0.6925022971 3.3141249805
C -2.1353622742 0.7297141552 3.0704007263
C -1.2255706707 0.1767018391 2.0010605375
C -0.7395669462 1.0551344655 0.8437116097
O 0.1333711563 0.3413778278 -0.0230201969
C 0.0130900303 2.2142003388 1.5031648163
O -0.755964287 3.0130878627 2.4066269454
C 0.0772897214 1.9820563605 2.9570099186
H -0.0682686604 0.2836815702 5.3604188768
H -0.5645033942 -1.1437183525 4.4441629715
H 1.0191076346 -0.4162902257 4.1529054712
H -2.7398228106 0.0054968627 3.6072731287
H -2.5999127142 1.695185933 2.9161960027
H -1.2795405514 -0.8862455029 1.7867063408
H -1.5539007015 1.4119260685 0.2054522529
H 0.825619225 -0.0515622089 0.5209439768
H 0.7655772725 2.7411494654 0.9201713092
H 0.8916304298 2.3325928873 3.586382014

