# b3lyp 6-31G(2df,p) opt Freq 

 titel

0 1
C 2.8256057868 0.5161352848 0.3262080387
C 1.8127891622 -0.6105076556 0.0944482902
C 1.9211703071 -1.2273226344 -1.2849597436
C 0.7413302436 -1.898163512 -1.9141214369
C 1.0491540833 -2.8862693408 -3.0277561743
O 1.8190332079 -2.1714058104 -4.0080577407
C 1.7831950554 -0.8171657474 -3.791601631
O 2.1870165036 -0.0346781475 -4.6017797889
C 1.1936004345 -0.5560818197 -2.4439741589
H 2.7265954531 0.9327691784 1.332936365
H 3.8522564521 0.1515261727 0.2149865199
H 2.6839923391 1.3291061896 -0.3929173751
H 1.9569579029 -1.3974266069 0.8460349975
H 0.7935575239 -0.2311687666 0.2415250122
H 2.8990390796 -1.6461301864 -1.5186143724
H -0.1804484042 -2.010191216 -1.3558048182
H 1.6414026292 -3.7455157989 -2.6973117343
H 0.1334573818 -3.2532440816 -3.5053859708
H 0.6740375382 0.3794988786 -2.2865433784

