# b3lyp 6-31G(2df,p) opt Freq 

 titel

0 1
C -1.354408906 1.7002602928 -0.2548460723
C -1.2362255204 0.2411249491 0.2428773963
C 0.2596157597 0.0253401305 0.2385226464
C 1.0151320681 -1.1013360255 0.9021623559
O 2.3611002802 -0.9602358328 0.4568430756
C 2.3525456109 -0.414266635 -0.8629219471
C 1.1114669573 0.4562645452 -0.9546142093
C 0.8793096627 1.3939350135 0.2034226564
O -0.1308293298 2.360847604 0.0806481219
H -1.5051336019 1.7200426737 -1.3431891806
H -2.1740078089 2.2560339965 0.2085929338
H -1.6219312313 0.1381051252 1.2639619427
H -1.794112212 -0.4488750218 -0.3978476378
H 1.0282769637 -1.0501283895 1.9967033828
H 0.5941659843 -2.0776748702 0.6075081867
H 3.2960519047 0.1277045383 -0.9883321576
H 2.3086082435 -1.2109050539 -1.6232802796
H 0.6897929843 0.6720978126 -1.9300515992
H 1.6926836808 1.7153429973 0.8456474349

