# b3lyp 6-31G(2df,p) opt Freq 

 titel

0 1
C 4.7779065159 2.9833624141 -1.3519176565
C 4.1817995349 1.748037372 -1.9934079243
C 4.5857883124 0.3556892005 -1.456381413
C 3.076411277 0.1664305919 -1.2235145389
O 2.7986151365 1.5273534611 -1.6012661511
C 2.6360590554 -0.1495602273 0.2138667345
O 3.1548593862 -1.4166587057 0.6105704773
C 1.1824222159 -0.0776054092 0.3579657617
C -0.0167252406 -0.074643252 0.4418292298
H 4.7335915935 2.9168230623 -0.2604416781
H 5.8250436784 3.1005746496 -1.6523965219
H 4.2306389868 3.8784924101 -1.6639158513
H 4.251174902 1.8200354393 -3.0877405651
H 5.0588130814 -0.3247468783 -2.1646022428
H 5.1732097945 0.3821965472 -0.5356283376
H 2.5956226944 -0.5478146802 -1.9078140136
H 3.1063958396 0.5849471762 0.8782829565
H 2.5786172822 -2.0944375383 0.2403468331
H -1.0750050563 -0.0505224331 0.5293145713

