# b3lyp 6-31G(2df,p) opt Freq 

 titel

0 1
O 0.0553205792 0.1615334823 1.6265504831
C -0.416607097 0.1256914869 0.5140105742
C -0.724414185 1.40004872 -0.274133478
C -1.7294307523 1.206114915 -1.4278866978
C -2.7815795473 0.14879546 -1.0544051149
C -2.0829530735 -1.2031930006 -0.9590826247
O -2.6608598035 -2.129468239 -0.0145921992
C -1.411338215 -2.2679477319 0.7016123237
C -0.747966963 -1.1883028594 -0.1728060266
H -1.094214132 2.1278253187 0.4558821953
H 0.228863645 1.8017746448 -0.6406261491
H -2.2031390259 2.162053115 -1.6694176129
H -1.206602501 0.8870302737 -2.338957171
H -3.2249619633 0.3860828463 -0.0794606378
H -3.5971019058 0.1185451572 -1.7830943746
H -1.9994753804 -1.6614105755 -1.9544215022
H -1.5027315363 -2.0176244112 1.7632236229
H -0.9918777638 -3.2756128805 0.5991727118
H 0.1310726209 -1.5105450418 -0.7396185922

