# b3lyp 6-31G(2df,p) opt Freq 

 titel

0 1
O 1.0173096049 -0.4472221292 -0.7819371017
C 0.2387938827 -0.0301157796 0.035475095
C 0.3055074916 1.3302751124 0.6956148112
C -0.9221934315 2.1723275219 0.2865201619
C -0.8252447191 3.5916669886 0.8625949047
C -0.5839159317 3.5836341305 2.35410439
O -1.391841018 2.6827344292 3.1171774176
C 0.0121938986 2.4079901829 3.0098047054
C 0.3918551151 1.1616479089 2.2303752464
H -0.6294582587 -0.6488281843 0.369883178
H 1.2117780536 1.8224257209 0.3254113609
H -0.9911370918 2.2224515625 -0.8048244893
H -1.837422315 1.6929884716 0.6509311099
H -0.0030606848 4.1386882785 0.382529124
H -1.7433199149 4.1501318663 0.6446596996
H -0.4460140861 4.5613696554 2.8178907587
H 0.5544126558 2.5576233789 3.9436840695
H 1.4077619969 0.8590082709 2.5053059556
H -0.2739253876 0.3511501036 2.5566870226

