# b3lyp 6-31G(2df,p) opt Freq 

 titel

0 1
C 2.7976694926 2.5507913675 0.2701448346
C 3.1943798289 1.3399179252 -0.5909560663
C 4.69952696 1.3719073764 -0.8122351633
O 5.2237622184 1.5165510559 -1.8875464508
C 2.7684174696 -0.0127904856 0.0534947259
C 3.1811034344 -1.2033578147 -0.8327269646
O 3.4483626218 -0.072196424 1.3127480639
C 1.3118256097 -0.0439991243 0.2594540408
C 0.1244778615 -0.1130803741 0.436747942
H 3.2878895869 2.510065947 1.2459916368
H 3.0812314125 3.4828194383 -0.2269407417
H 1.7171078755 2.5615973835 0.4327293202
H 2.7236194286 1.4048770615 -1.576058807
H 5.3015805285 1.2797338288 0.1168487463
H 2.8702070792 -2.1434939652 -0.3675496624
H 2.710448118 -1.1400395939 -1.8175371483
H 4.2665029972 -1.2179267788 -0.9606935413
H 3.1114221446 -0.8346143521 1.7951781702
H -0.9249383078 -0.1641291113 0.5947539748

