# b3lyp 6-31G(2df,p) opt Freq 

 titel

0 1
C -3.0605266733 1.3525390199 -1.5691692759
C -1.6921926137 0.7171217276 -1.3357144497
C -1.6766134334 -0.8530361772 -1.2673032299
C -1.0068794248 -1.0765263892 0.1101404637
C -1.7661870412 -0.0328815474 0.9918790739
C -1.0627545778 1.0267322865 0.0431456215
O -0.8907901629 2.3634326703 0.3392941921
C 0.0826056315 0.0072931123 0.0949874978
O 1.2586776743 0.0888566073 0.3091491777
H -3.7914890306 1.0413464205 -0.8159577987
H -2.9888636914 2.4436397349 -1.5385605925
H -3.4537550433 1.0638187375 -2.5498039728
H -1.0090664403 1.0738178697 -2.1143719962
H -2.6894801986 -1.2673325907 -1.2823788894
H -1.1137921787 -1.3058611205 -2.0874265767
H -0.8116257813 -2.0922647172 0.44358557
H -2.8561363911 -0.0720647043 0.9599301444
H -1.4063771257 0.0177376503 2.0210779242
H -0.0836502977 2.4506778998 0.8609645566

