# b3lyp 6-31G(2df,p) opt Freq 

 titel

0 1
C -0.1298437 -0.0045132548 0.2727064931
C 1.3819876286 0.1028728948 0.1683935797
C 2.0303397511 0.0940134264 -1.2313352985
C 2.5329808694 1.4776139496 -0.8417197411
C 3.882844691 2.0930340531 -0.9927615131
C 2.6558766628 2.7303452429 -1.6380884806
O 1.8535643053 1.4610593947 0.4241134247
C 2.0623797239 -0.8022317815 1.1867674439
O 2.6789046615 -1.8008092104 0.9225707481
H -0.4637590692 0.2013163072 1.295234056
H -0.6005049839 0.723526132 -0.3936146595
H -0.46333552 -1.0096120515 -0.0062186155
H 2.7861485373 -0.6803011389 -1.3680939094
H 1.318622811 0.0748872793 -2.0591927577
H 4.2993910128 2.5891375378 -0.122773491
H 4.6105841434 1.599126919 -1.6285134536
H 2.2749716726 3.640690745 -1.1876476392
H 2.5432479355 2.6734876368 -2.7161352869
H 1.953177867 -0.4342828415 2.2321353606

