# b3lyp 6-31G(2df,p) opt Freq 

 titel

0 1
O 1.1877584395 -0.2179707874 0.0482535966
C -0.0061789836 -0.0822886646 -0.0318594139
C -0.7898676615 1.2309522536 -0.0516667673
C -2.2232915853 0.7527967083 0.18690351
O -2.2725605613 -0.5731354563 -0.3507940519
C -1.0337522479 -1.2086674605 -0.1265689672
C -0.9161369788 -2.2334202957 1.053550969
C -0.1305867828 -3.1696040147 0.0978190445
C -0.6673456068 -2.3494533195 -1.1059693094
H -0.4022672477 1.9395880253 0.6824202335
H -0.6776993336 1.6764652596 -1.0470313083
H -2.4612939483 0.7427899787 1.2612747222
H -2.9839423737 1.3438849428 -0.327133069
H -0.4190828196 -1.9021449901 1.9680743633
H -1.9111078247 -2.6169033529 1.2937955865
H 0.9472317058 -3.0477088883 0.2146932259
H -0.3798474618 -4.2315852051 0.1271420359
H 0.028017307 -2.1035388315 -1.9112504993
H -1.5820567149 -2.7733117218 -1.5276957112

