# b3lyp 6-31G(2df,p) opt Freq 

 titel

0 1
O -1.5303923303 4.397916817 0.1465514493
C -0.8672524008 3.158856886 0.2060464947
C -1.3507251309 2.0938224173 1.2289414376
C -1.2092270773 1.0302554185 0.1035157592
C -2.0426808665 -0.2761047928 -0.0115703045
C -0.7390593055 -1.1328867998 -0.0516918774
C 0.059912884 0.1709914588 0.1172705088
O 1.2242169103 0.4325718676 0.2347121707
C -1.2470023043 2.1933541774 -0.9311755546
H -1.1689603002 4.9705704089 0.8303056114
H 0.2219459888 3.2795419078 0.2641115683
H -0.7711216969 1.9436890486 2.1432213453
H -2.4041374219 2.259057271 1.4752105037
H -2.6758727899 -0.4703737564 0.8571038727
H -2.6579901268 -0.3382936405 -0.9117307412
H -0.6001037635 -1.8528365987 0.7598153239
H -0.537611138 -1.6439753749 -0.9979598423
H -0.5899065912 2.1313493494 -1.8012167391
H -2.2743815992 2.3856109747 -1.2552193064

