# b3lyp 6-31G(2df,p) opt Freq 

 titel

0 1
C 0.9715889173 -0.5091857196 -1.0119865794
C 0.9654921229 0.2372855037 0.311669527
C 1.9932607929 1.4039773543 0.4523557299
O 3.0168303757 0.4236244667 0.7499542943
C 1.9445127861 -0.2992244294 1.4235324156
C 2.2240637936 -1.744688595 1.7146523468
C 1.5952239147 0.6802219578 2.5895752288
O 2.6185907426 1.6410443463 2.8565121234
C 1.6371794 1.9484148504 1.8647451005
H 0.4397789656 -1.4631643185 -0.9274315287
H 0.4707249446 0.0767024944 -1.7900060171
H 1.9941927318 -0.7119703036 -1.3395967845
H -0.0551731284 0.4584249349 0.6463141569
H 2.2468294449 2.0934685768 -0.3523908689
H 3.1133613621 -1.8335324149 2.3465507519
H 1.3804493659 -2.1962494832 2.2473583446
H 2.3963233319 -2.3105320275 0.7951899194
H 0.9226628665 0.4219148746 3.4005667241
H 0.9985169393 2.8078511818 2.0348210153

