# b3lyp 6-31G(2df,p) opt Freq 

 titel

0 1
O 0.5948569083 0.3014057627 0.6919136618
C -0.8004363338 0.5098186675 0.8811160289
C -1.2072840709 0.6263819722 2.3725773876
C -2.2319417562 1.7743486182 2.4373101395
O -3.5391452782 1.3128192026 2.0817684308
C -3.6900682598 1.370529137 0.6646262017
C -2.592848297 2.2884217533 0.1463021574
C -1.1409145712 1.8749629796 0.2902755116
C -1.7949946375 2.7504368659 1.3328830861
H 0.8139039662 -0.5641600776 1.050719953
H -1.3624446252 -0.2929592823 0.3791699911
H -1.6050717078 -0.2963780769 2.8043194143
H -0.3053501966 0.9156448984 2.9246691721
H -2.3073606058 2.219543069 3.4317109779
H -3.6349725749 0.359413152 0.2328955687
H -4.6837121897 1.7745750833 0.4384778339
H -2.8360650156 2.9722780574 -0.6587119774
H -0.4327247405 2.2744682251 -0.4262802741
H -1.537268694 3.7817879825 1.5339083351

