# b3lyp 6-31G(2df,p) opt Freq 

 titel

0 1
O -0.2666504953 1.2340249419 1.1123480666
C 0.0942183953 0.3038788313 0.1002111348
C -0.2209485311 0.9538723149 -1.2427946974
C 0.0359894336 0.0323546095 -2.4528167787
C -0.4674276032 0.573554007 -3.767398616
C 0.4799544083 0.6523354562 -4.7028325612
C 1.8151596421 0.1668646068 -4.2099088472
C 1.535150014 -0.1949771741 -2.7423694345
O 2.3559045288 -0.5786387121 -1.9483732011
H 0.0553986005 0.8983022918 1.9535831082
H 1.1576764205 0.0397356339 0.1473545755
H -0.4825798423 -0.6321175797 0.197350331
H -1.2763427633 1.2517762133 -1.242068965
H 0.3629077088 1.8760433681 -1.3421243359
H -0.4139079415 -0.949161899 -2.233642302
H -1.5021090585 0.8687391828 -3.9038164748
H 0.3271129297 1.0159818842 -5.7123790403
H 2.1865532027 -0.7183119188 -4.7435293947
H 2.616573771 0.9140501118 -4.2706983072

