# b3lyp 6-31G(2df,p) opt Freq 

 titel

0 1
C 2.2839741967 1.5487514441 0.0414696743
C 1.6965320697 0.1627927877 -0.2444836422
C 2.4606803187 -0.5803017727 -1.34517996
O 3.8506090851 -0.7852813603 -1.0546288478
C 2.9362603348 -1.8850134732 -0.8732096678
C 2.5433272203 -2.0516788743 0.5649272333
O 3.4074596691 -2.7225752827 1.4244061536
C 1.078563469 -2.1366082727 0.8464701683
C 1.7829482013 -0.7927401409 0.949356993
H 1.7483022084 2.0390642626 0.8602253384
H 3.3385574861 1.4628821591 0.3181027833
H 2.2166784062 2.1959561237 -0.8391560391
H 0.6532250936 0.2769255116 -0.5694213279
H 2.2377820267 -0.3886618595 -2.3922878611
H 3.1022681583 -2.7424581961 -1.521082496
H 4.2454774544 -2.2444786027 1.4157349599
H 0.384606769 -2.31220596 0.0293126622
H 0.8105742709 -2.6122853496 1.7832890494
H 1.9146951217 -0.3798474941 1.943333446

