# b3lyp 6-31G(2df,p) opt Freq 

 titel

0 1
C -0.048213337 -0.1655190294 0.0332294803
C 1.4746189984 -0.05766517 -0.0079118081
O 2.0323319036 -0.7155271017 1.114347363
C 2.081038065 1.3780043151 -0.1050222039
C 1.5027824338 1.8002370725 -1.4838042407
O 1.5102673187 0.5830246671 -2.2479178617
C 2.1120266163 -0.4245750081 -1.3858378718
C 3.5599030895 -0.0387125253 -1.1638232521
C 3.538046158 1.0454015993 -0.3824356633
H -0.443191326 0.355870764 0.9107540379
H -0.5202765958 0.2306578298 -0.8659695396
H -0.3406552049 -1.2202929813 0.1151441882
H 1.617851131 -1.5815524181 1.1830223774
H 1.8662954706 2.0577705405 0.7190157292
H 0.4754757482 2.1758580662 -1.4088543942
H 2.1202572044 2.5603600222 -1.9755713133
H 1.8932081575 -1.4023767008 -1.81489599
H 4.4146942661 -0.511316301 -1.6287072051
H 4.3751168927 1.6565822491 -0.0700716021

