# b3lyp 6-31G(2df,p) opt Freq 

 titel

0 1
O -0.3384392962 -2.9438560063 -2.4436795286
C -0.0550809101 -1.6092957151 -2.047198137
C -0.7283514819 -1.2737899265 -0.7016956052
C -0.2304821748 0.0003754415 -0.0349672161
C 0.206323274 1.2647469583 -0.7338634908
O 0.6926768559 1.0313618841 -2.0543882888
C 1.6973141797 0.1007982812 -1.5218604951
C 1.4544916466 -1.3142025399 -2.035864403
C 1.2345174039 0.3753958189 -0.0838448135
H 0.0404349434 -3.534521854 -1.7830193448
H -0.5017887831 -0.9889851304 -2.8266227072
H -1.8140233078 -1.2443713114 -0.8461824977
H -0.5320836597 -2.1061432713 -0.0082335853
H -0.686756803 0.2117444518 0.9305019428
H -0.1573105783 2.2594254922 -0.5020585615
H 2.7001400242 0.4754764317 -1.7469546998
H 1.8502783326 -1.4464482351 -3.0481272104
H 1.984307821 -2.0231631586 -1.3833004898
H 1.8736767336 0.5173467588 0.7771786516

