# b3lyp 6-31G(2df,p) opt Freq 

 titel

0 1
O -2.3698737487 -1.3354722526 -2.8064144603
C -1.4288463984 -1.4383981678 -1.7795215282
C -1.4906522224 -0.4924644049 -0.6053045992
C -0.4452997501 -0.3159615966 -1.6814295716
C -0.317011654 0.8173946855 -2.7023723956
C 1.2119652088 0.5310741732 -2.7668156734
C 1.0890798719 -0.4784803552 -1.5748580386
C 1.6390114097 0.0485515957 -0.2767975468
O 2.2752990967 -0.5944973213 0.5190052795
H -3.2171929599 -1.644180567 -2.4690839446
H -1.0564340914 -2.4468930759 -1.5936853674
H -2.3023647612 0.2287395294 -0.5930124558
H -1.1857209513 -0.8594816542 0.3700427868
H -0.8784339321 0.6704059605 -3.6269037396
H -0.5588802916 1.805214393 -2.2993529625
H 1.5300037105 0.0416326185 -3.6885625907
H 1.8670395277 1.3873078341 -2.5860430634
H 1.4755314699 -1.4866527402 -1.7415445693
H 1.3950798859 1.1205238055 -0.0811914093

