# b3lyp 6-31G(2df,p) opt Freq 

 titel

0 1
C 0.0918705218 -0.1850752999 0.1162973714
C 1.6099055285 -0.0353118742 0.0763518581
O 2.196866193 -0.4536918003 1.2936945033
C 2.2181958984 -0.5421353608 -1.2380531419
C 3.5455419747 0.1402579224 -1.515200314
C 4.2725430334 0.8219669371 -0.3603101529
O 3.3280911225 1.7566419031 0.1769169166
C 2.0620722716 1.4120908777 -0.3432356578
C 2.2731745951 0.8840544943 -1.7814682838
H -0.310719946 0.3299054885 0.9938353929
H -0.3779653342 0.2279542188 -0.7810051403
H -0.1933978271 -1.2429905458 0.1791897008
H 1.8655778704 -1.3349155507 1.497477346
H 1.9290363486 -1.4475128867 -1.7622891296
H 4.1205500328 -0.2455269037 -2.3489321208
H 4.5783011095 0.116314385 0.4188797442
H 5.1510315298 1.3769038314 -0.7110040008
H 1.3645820821 2.225132567 -0.1423197263
H 1.9454538152 1.3028074066 -2.7222341352

