# b3lyp 6-31G(2df,p) opt Freq 

 titel

0 1
C -0.6185739794 -1.4306975917 -2.6083453044
C -1.519486968 -1.5252143912 -1.3856217209
C -2.6664828888 -0.4765832857 -1.2087412734
C -2.1171598198 -0.1139335188 0.1915290994
C -3.0130090169 0.0270018792 1.3885664115
O -1.1587967695 1.0040379187 0.0803123368
C -0.0894702692 0.1446074271 -0.0302870551
O 1.0600353306 0.4347903784 -0.1338321968
C -0.941014553 -1.115624225 0.0145913222
H 0.2073309472 -2.1469745278 -2.5485428083
H -1.1861625092 -1.6464350205 -3.5198455869
H -0.1835126942 -0.4317571993 -2.7118109107
H -1.9265980171 -2.5370149104 -1.3052848041
H -2.6498043092 0.3654498138 -1.9042805325
H -3.6688993098 -0.9108328995 -1.1991239718
H -3.6434948432 -0.8603995466 1.5001252346
H -2.4263713576 0.1568462517 2.3026272327
H -3.6683846991 0.8972052266 1.275398829
H -0.6508113738 -1.8958240887 0.7162064487

