# b3lyp 6-31G(2df,p) opt Freq 

 titel

0 1
C 2.56737914 -0.1140307335 -4.2524906359
C 1.4551521563 -0.1924347981 -3.2572378529
O 1.1018699839 1.0533407176 -2.6486470351
C 0.0240107467 0.610083394 -1.8021995417
C -0.9027412185 -0.1480972744 -2.7677031914
C 0.1980130841 -1.0262869572 -3.3549677737
C 1.2123630209 -1.2810269524 -2.234657393
C 0.7131301775 -0.5260929931 -1.0038180352
O 1.7356247661 -0.0738721835 -0.1472817836
H 3.4878403493 0.2521744811 -3.7858181017
H 2.7694649651 -1.1028441199 -4.6729431391
H 2.3096025574 0.5624786216 -5.0737288373
H -0.3726889608 1.4481503996 -1.2334272669
H -1.6842199858 -0.7066996663 -2.2445632869
H -1.3639001217 0.5114792283 -3.5083072003
H 0.0337047647 -1.7290808794 -4.1612446358
H 1.8152321838 -2.1764161651 -2.1657332781
H 0.0104458628 -1.0961074065 -0.3904501186
H 2.2522375586 0.5568759673 -0.6654539627

