# b3lyp 6-31G(2df,p) opt Freq 

 titel

0 1
C -0.026040966 2.1585151634 -0.4636101151
C 0.6287256297 2.127296093 0.9079992045
C 1.7000675616 1.0663240061 0.7807604198
O 1.6383144367 0.4546559339 -0.4799315896
C 0.9351662044 1.3397815199 -1.3669173487
C 1.9500639053 2.1930715136 -2.1492268047
C 3.0942138356 2.6763022574 -1.2548147182
O 2.631916281 3.3346018772 -0.0825973197
C 2.0917590815 2.5250637476 0.9198218898
H -1.0067080621 1.6760979695 -0.4114621219
H -0.1669297207 3.1727656505 -0.8472804001
H 0.0133712552 2.25697466 1.7907408823
H 1.964098359 0.3572770312 1.5571856657
H 0.3774396308 0.7069964057 -2.0632272837
H 2.38233205 1.597334562 -2.9621585322
H 1.433663347 3.0434316519 -2.608863957
H 3.7348837625 1.8286155406 -0.9836634678
H 3.7063434389 3.4118058783 -1.785078792
H 2.4975094897 2.7911884084 1.8937454986

