# b3lyp 6-31G(2df,p) opt Freq 

 titel

0 1
C 1.3596913028 -0.1706237921 -0.0951898438
O -0.0307238152 0.0208338962 0.0077674505
C -0.4065372876 0.680081152 1.1987651756
C -1.8977158433 0.8463971427 1.1998671769
C -2.6000531638 1.5553975842 0.0409671236
C -3.8379110565 2.1383079437 0.6915569467
C -3.8824196489 1.8968689104 2.0044257153
C -2.7094595225 1.0664844502 2.4125064228
O -2.6665362184 -0.2248141309 1.759358728
H 1.7477723106 -0.7956712385 0.7244458282
H 1.5508090696 -0.6755384949 -1.045005596
H 1.9064231308 0.7862860408 -0.0837766404
H -0.1026717091 0.1011442968 2.0850104054
H 0.0816338687 1.6694901441 1.2569263245
H -1.9612686341 2.3323109112 -0.3979119082
H -2.8401161662 0.8530073662 -0.7643744026
H -4.6001721158 2.6596198123 0.1232569165
H -4.6613544872 2.208074731 2.6889862317
H -2.3027639038 1.0827881245 3.4199615854

