# b3lyp 6-31G(2df,p) opt Freq 

 titel

0 1
O -0.0132905872 -0.0339771273 -0.0784273547
C -0.9896945728 0.5299764583 0.7159991714
C -1.3046706796 2.0225833973 0.9650446924
C -2.3862141018 1.2086797604 1.7624931936
C -1.2482357083 0.2900856176 2.2738412503
C -3.7842082609 1.7234922865 1.9857568837
C -4.283682014 1.7440564963 0.4912986178
O -3.3796908258 0.956152404 -0.3261435365
C -2.5116080086 0.2805024724 0.5532067267
H 0.8407720659 0.3321282907 0.1760765519
H -0.5898218285 2.5829666748 1.5743148136
H -1.6528328237 2.5935396825 0.1048115113
H -0.5128429764 0.7317856433 2.9501134718
H -1.5242680903 -0.7232466897 2.5766056942
H -4.3785384934 1.0267487323 2.5851555484
H -3.8499144711 2.7135147794 2.4437256418
H -5.2972608521 1.3354622983 0.4045590325
H -4.2911360905 2.7618002478 0.0869164998
H -2.8384934611 -0.752270215 0.7308678001

