# b3lyp 6-31G(2df,p) opt Freq 

 titel

0 1
C -3.4463021096 -0.1136762682 0.8465511275
C -2.1841347089 -0.0591924357 0.0366875304
C -1.9707434378 0.8372865637 -1.1311146814
C -1.0428037277 1.0290928336 0.0701413332
C -0.9083117998 2.3309637574 0.8055435123
C -0.0422570508 -0.0761429461 0.0342670049
O 1.1489137415 -0.1326521462 0.1886338697
C -1.1417059013 -1.1776485397 -0.0262820315
O -1.2268388428 -2.0199301924 -1.1535087706
H -3.2579952865 -0.489475602 1.8580479399
H -3.9055207253 0.8764581923 0.9324398034
H -4.1807955087 -0.7769802112 0.3758379881
H -1.5958681933 0.4398193461 -2.068246
H -2.6904813134 1.6433996405 -1.2435947388
H -0.4879413602 2.1807433357 1.8048317714
H -0.2446962686 3.0154716474 0.2664028884
H -1.8783402178 2.8271883621 0.9124836243
H -1.1134076202 -1.7551390069 0.9126766096
H -0.3866121388 -2.4852237306 -1.2320035708

