# b3lyp 6-31G(2df,p) opt Freq 

 titel

0 1
O -0.6203790987 0.3656988494 0.8639378105
C -1.8925948408 0.841397162 0.4925202303
C -2.5406566987 0.0991251413 -0.6908074541
C -3.9103242656 0.2329379129 0.0312974831
C -3.1468295718 0.4852110543 1.353367664
C -2.9547756473 -0.6599843142 2.4103341572
C -3.4449143457 0.32079952 3.4830077325
O -4.7580383997 0.74787756 3.1028679499
C -3.6307859284 1.3897355686 2.4878282312
H -0.2327660439 0.9788098944 1.4962820938
H -1.8681372746 1.9256123908 0.3055263012
H -2.4265996099 0.5312517372 -1.6869732873
H -2.1943619751 -0.9378981167 -0.709419679
H -4.4692504478 1.1153251455 -0.294114756
H -4.5787244715 -0.6290911885 0.0080685083
H -3.5683048017 -1.5559385224 2.2873642412
H -1.9017495082 -0.9336309695 2.509426179
H -3.1956553681 0.3705430034 4.5367117673
H -3.5707192224 2.4701743213 2.5752440771

