# b3lyp 6-31G(2df,p) opt Freq 

 titel

0 1
C 0.1565871054 -2.9849797109 -2.4871705961
C -0.5226725839 -1.6735643388 -2.8871462067
O 0.2537812606 -0.9824332442 -3.8740449556
C -0.8412122797 -0.7848142812 -1.7072068565
C -1.2561962595 0.519273783 -1.7595177983
C -1.5412493516 1.4615142691 -2.8747487898
O -1.4494406347 0.996521529 -0.496263091
C -1.1615837657 -0.0106385651 0.3705867786
C -0.7835602638 -1.1212422846 -0.3079488345
H 1.0866538967 -2.7939363512 -1.9398420154
H -0.4938125952 -3.593075729 -1.850465698
H 0.3964144587 -3.5579604811 -3.3860317283
H -1.4506237584 -1.918628434 -3.4195228962
H 1.0127390202 -0.6014819626 -3.4175020702
H -2.6157430558 1.6612074898 -2.9684034453
H -1.0457590308 2.424890494 -2.7116423304
H -1.1783097708 1.0339711625 -3.8098379151
H -1.2675827856 0.2250746881 1.4164829494
H -0.4965167461 -2.0663745328 0.1248878195

