# b3lyp 6-31G(2df,p) opt Freq 

 titel

0 1
C 1.1330079794 0.2903277065 -0.6043913648
O 0.8119411198 1.6084574171 -0.0870629432
C -0.4821787177 1.1511342786 0.3914422874
C -0.7740811813 1.4589992453 1.8710390444
O -1.3804748829 0.3785371386 2.5615677013
C -2.3732387377 -0.3432635216 1.8474394464
C -1.8070473609 -1.6453383177 1.2614555165
C -0.599050757 -1.4535060464 0.3820265758
C -0.105804753 -0.2712976735 0.052644645
H 1.1419717909 0.2793796575 -1.7036354868
H 2.0994428131 -0.0770953076 -0.2374490278
H -1.2714590072 1.5629535397 -0.2544546794
H 0.1783935677 1.6505657642 2.3738931084
H -1.3954578658 2.3639825784 1.9551982551
H -3.1692085109 -0.5872045435 2.5605404189
H -2.8280628353 0.2734163552 1.0600266775
H -1.5242118223 -2.3031528983 2.0949507279
H -2.6054991759 -2.1766152772 0.7224179477
H -0.0877789631 -2.3565308052 0.0528894295

