# b3lyp 6-31G(2df,p) opt Freq 

 titel

0 1
C -2.7248280472 0.7944801108 -0.9652211552
C -2.2350968872 0.1900956101 0.3267533854
C -2.8329744404 0.5889962066 1.6671927926
C -2.1576296534 -0.1472042394 2.5645001295
C -1.1921767594 -0.9484303437 1.7150706148
C -0.6885190996 0.2075362036 0.7438118708
O 0.2563328723 -0.0925174721 -0.2291840198
C -2.1693194143 -1.3624105866 0.5541526771
O -1.5928097377 -2.0348017991 -0.5582039632
H -2.1297259924 0.4331473404 -1.8085925368
H -3.7731789851 0.5395662082 -1.1562272868
H -2.6423751153 1.8864474721 -0.9411027059
H -3.6069573359 1.3290088903 1.8196796154
H -2.2398271336 -0.1682156598 3.6420872657
H -0.5081994735 -1.6556190553 2.1851112519
H -0.3612471649 1.1191127995 1.2497658004
H -0.0497643776 -0.8944766855 -0.6777370819
H -3.1048735823 -1.8471327672 0.8598700002
H -1.4698239724 -2.9605618128 -0.3236110341

