# b3lyp 6-31G(2df,p) opt Freq 

 titel

0 1
C -0.0501137022 0.2925288592 0.0492851623
C 1.4352388778 -0.0521282005 0.0592319967
C 1.9382236979 -1.1454274523 1.0401046609
O 3.3577493334 -1.1120133256 0.8146708011
C 3.3982049493 -1.3627820013 -0.615392446
C 3.5335562886 -2.8769052845 -0.7393748705
O 2.3062997585 -3.3532384286 -0.1575705522
C 1.4776369474 -2.2258702959 -0.0056701122
C 1.913596393 -1.0988207742 -0.9856159807
H -0.3205049699 0.8538932051 0.9500058232
H -0.2932676029 0.9207540081 -0.8143880503
H -0.6949951566 -0.5895355575 0.0025334444
H 2.0390423296 0.8583949487 0.1128852687
H 1.7237495791 -1.1680443863 2.1078624505
H 4.1720486968 -0.7608566296 -1.0931131362
H 3.620670732 -3.2230488334 -1.7803145398
H 4.3823256582 -3.2510181522 -0.159579457
H 0.4346849964 -2.5305992032 0.0247800646
H 1.6463462135 -1.080610556 -2.0416214475

