# b3lyp 6-31G(2df,p) opt Freq 

 titel

0 1
O -3.1041685168 -0.7908006537 -2.1300322035
C -3.2201256353 0.0452924956 -1.0086515562
C -4.1967108468 -0.3073785863 0.141203396
C -3.1481843848 0.2648849911 1.1344860165
C -2.0670671493 0.1132109336 0.0323201994
C -1.1033572054 -1.110319333 0.1364274187
C 0.0513892757 -0.1088000149 0.3022156987
O 1.1842723048 -0.2078524409 0.6718861629
C -0.8514565141 1.0732936952 -0.0789823497
H -3.1019130184 -1.7042160198 -1.8244259536
H -3.4242309597 1.0455318839 -1.4060882134
H -5.1959852892 0.1321111581 0.1221773919
H -4.2938484014 -1.3938172686 0.2484364675
H -3.3394395891 1.3155217563 1.371442063
H -2.9887046725 -0.2793309013 2.0681558052
H -1.2470794429 -1.8297702226 0.947326625
H -1.0127703564 -1.6518166073 -0.8135047743
H -0.8180205239 1.9398353534 0.5878314292
H -0.6659255945 1.4127194613 -1.1051690534

