# b3lyp 6-31G(2df,p) opt Freq 

 titel

0 1
O -1.4566775203 2.5091869188 1.6604120105
C -0.8729165593 3.0497030118 0.5112869806
C -1.6506571037 4.1351821787 -0.1612272044
C -0.3655170289 4.4703979768 0.572159304
C -0.1230891842 2.0249954094 -0.3176646706
O 0.8513168504 1.3957075965 0.5339574352
C 0.7979469498 -0.0229180881 0.3790522936
C -0.4323731671 -0.2772677138 -0.4462070496
C -0.952611692 0.8785218247 -0.8372040135
H -0.7404620823 2.0471576273 2.1148297856
H -1.658463239 4.1806204662 -1.2454492733
H -2.5846639843 4.4161696729 0.3113347123
H 0.5089245677 4.741141738 -0.010055135
H -0.4582408623 4.9743709299 1.5269392264
H 0.387737588 2.5491358691 -1.1438652037
H 1.7121615739 -0.3873295051 -0.1181188167
H 0.7596426368 -0.4944480607 1.3714236817
H -0.7960768349 -1.2703587716 -0.6769895061
H -1.8312882484 1.0283838392 -1.4504185671

