# b3lyp 6-31G(2df,p) opt Freq 

 titel

0 1
O 0.5751430403 4.1592872492 -1.671962714
C 0.1267091472 2.84786499 -2.0259171585
C 1.0597919487 1.7523501914 -1.4834565478
C 0.7678936483 1.441908177 -0.001630948
C -0.6849567186 0.9505321164 0.1510992943
C -1.6579894949 1.796560049 -0.6264261861
C -1.3019433452 2.6371875916 -1.5978322173
C 1.7364754173 0.400823639 0.5138076368
O 2.5477625638 0.5737852524 1.3853481528
H 0.2884083708 4.3301422443 -0.7685860825
H 0.1850704081 2.8326834425 -3.1208051426
H 0.9249609228 0.839362714 -2.0787568736
H 2.0938818508 2.0842064604 -1.6145142261
H 0.9195946983 2.3463792066 0.5979255093
H -0.7620225813 -0.0960433335 -0.1844494375
H -0.9671544608 0.9389968481 1.2106734843
H -2.7074519976 1.6928794612 -0.3600451062
H -2.0495714338 3.2420032521 -2.1039681229
H 1.6484633858 -0.5877085015 -0.0001505944

