# b3lyp 6-31G(2df,p) opt Freq 

 titel

0 1
C 4.2205366757 0.3190896445 2.9163527176
C 2.8174856755 0.3126508036 2.4242988222
C 2.2313851797 -0.040344758 1.2458166408
C 2.8809855419 -0.5648542897 0.0018514327
C 0.8137841429 0.1938820151 1.420325462
C -0.2689552584 -0.0735472847 0.4242158067
O -0.3512934826 -1.4511265293 0.0551243215
C 0.6671145685 0.6621147817 2.6866147689
O 1.8680743335 0.7473345364 3.3126955422
H 4.3305780638 -0.2899014919 3.8209185467
H 4.8905155612 -0.0811939285 2.1526044703
H 4.5566231905 1.3330468766 3.1630081283
H 2.337162366 -1.4358711964 -0.3751068756
H 2.8787082857 0.1837076518 -0.8004472521
H 3.9209591959 -0.8531665296 0.1769126405
H -1.2314810037 0.29178368 0.8138136097
H -0.0795933076 0.4577513069 -0.5151472718
H -0.4020470914 -1.9570747373 0.8731227448
H -0.1896740172 0.9751324989 3.2619905647

