# b3lyp 6-31G(2df,p) opt Freq 

 titel

0 1
C -2.334439347 2.7559894024 -1.5668301857
C -1.8018222126 1.4001586682 -1.1631094139
C -2.3304921181 0.7060484585 0.0429358854
O -2.2489847171 -0.6973383208 0.0866298562
C -0.8836656093 -1.112802435 0.0107056093
C -0.5894922178 -2.1856668433 1.0481011965
C -0.0301559524 0.157116214 0.2173199474
O 1.1497984382 0.1571198077 0.4672035159
C -0.9498741912 1.3212972293 0.1225598281
H -2.6823270996 3.3207658934 -0.6956799925
H -1.5645861146 3.3543344782 -2.0648282148
H -3.1791698752 2.6495360985 -2.2555398215
H -1.4879779439 0.7623400354 -1.9853412501
H -3.1845742297 1.093470165 0.5874493505
H -0.6715885848 -1.5060286861 -0.9962642591
H -1.1828683344 -3.0824641277 0.8536926159
H 0.4729409776 -2.440168598 1.0097811961
H -0.8261060564 -1.8207624565 2.0514644355
H -0.7034249918 2.2357423469 0.6465370308

