# b3lyp 6-31G(2df,p) opt Freq 

 titel

0 1
C 0.2149919121 0.3962651796 0.824224838
C 1.2601885099 0.0900017261 0.3150421407
C 2.5470438785 -0.2584617136 -0.2997351584
C 3.1662673281 0.9736652434 -1.0125344865
C 4.69290583 0.9219430395 -1.1487129074
O 5.3541116375 1.3593614914 0.0274779176
C 5.4160903384 0.4120831395 1.072952159
C 4.056021545 -0.0600101462 1.5825513879
O 3.4187716625 -0.8982258192 0.6265610661
H -0.7135542303 0.6521843811 1.2719858944
H 2.3707990747 -1.0381838426 -1.0500412983
H 2.703878734 1.0549419264 -2.0027401539
H 2.9147070434 1.8903292346 -0.4714081094
H 5.0320278595 -0.0846593678 -1.4371239008
H 5.0041945534 1.6207321705 -1.9314358614
H 5.9878124097 -0.4759777965 0.7569721776
H 5.9638118836 0.9006112888 1.8867506384
H 4.20685108 -0.6721248415 2.4795631145
H 3.4190359899 0.7899802364 1.8594327819

