# b3lyp 6-31G(2df,p) opt Freq 

 titel

0 1
C 1.4259890318 -0.097683124 -0.1328482779
O 0.0538112805 0.2273503346 -0.081974138
C -0.372651998 0.8040205549 1.1481990661
C -0.003377686 2.2990881484 1.2468909483
C -0.8695697041 3.1489362666 0.3358105393
O -0.4169976221 3.9407603227 -0.4549920222
C -2.3703543928 2.9478782065 0.5149347926
C -2.7454081115 1.5578197708 0.9540947667
C -1.8634448771 0.6015260981 1.2350652222
H 1.7096226001 -0.7839654586 0.6804588365
H 1.600038778 -0.5943277705 -1.090259184
H 2.0744040442 0.788479006 -0.0792267554
H 0.1181365714 0.2694070214 1.9780600939
H -0.1801897045 2.6221937566 2.2819304246
H 1.0477649052 2.4781177708 1.011440828
H -2.7173297786 3.6837589551 1.2578552772
H -2.8680411711 3.2212034777 -0.4219480673
H -3.8101235706 1.3461388849 1.0204628878
H -2.2009437848 -0.3942782719 1.5058548018

