# b3lyp 6-31G(2df,p) opt Freq 

 titel

0 1
O -2.1746987078 1.2889974872 1.5752861936
C -2.2562900978 1.9230419346 0.3282602504
C -1.9590552505 3.4401180148 0.1493454755
C -1.806614682 3.1253872938 -1.3651645871
C -1.0250404843 1.9871402525 -0.6444753742
C -0.2819570704 0.8322286042 -1.2838838401
C 0.322251187 -0.1020967561 -0.2527372553
O 1.4818706207 -0.4273209707 -0.226633574
C -0.4430012883 3.1050311711 0.2839831324
H -1.461511799 1.6806267355 2.0898610429
H -3.1848673401 1.5654612289 -0.1260253099
H -2.4930579237 4.2784737246 0.5963513217
H -2.7120329549 2.8367536201 -1.9073651854
H -1.1992345343 3.8272941965 -1.9402099258
H -0.9940114944 0.2454825477 -1.8833176314
H 0.5152308875 1.1803951769 -1.9486550864
H -0.3989977767 -0.4750354548 0.5069683538
H -0.0603598506 2.808429434 1.2659774713
H 0.2525245495 3.8064084593 -0.1841472621

