# b3lyp 6-31G(2df,p) opt Freq 

 titel

0 1
C 1.634875168 0.3535870424 0.058841689
O 0.2612506351 0.0409056462 0.0820717448
C -0.4271939381 0.664809803 1.1416196212
C -1.911208266 0.2628276324 1.0463729411
C -2.639730875 0.7413492957 2.2164101242
C -3.201935549 1.1513973779 3.1961961385
C -2.5083464272 0.7354022138 -0.2779281844
C -3.3518526192 1.9290314247 -0.4055601222
O -3.9155613266 0.6128950403 -0.4400642554
H 2.1395881484 0.0341728899 0.9837965657
H 2.0760858256 -0.1783761687 -0.7871149099
H 1.8049081004 1.4337966699 -0.0702302994
H -0.0209489275 0.348603099 2.1147118883
H -0.3320677998 1.7615551034 1.0827312041
H -1.9411039755 -0.835620658 1.0369301254
H -3.7153440132 1.497228173 4.0591309668
H -1.920747662 0.4196198621 -1.1379558514
H -3.5954748661 2.5091967216 0.4815213554
H -3.3740797021 2.4709741416 -1.3498918019

