# b3lyp 6-31G(2df,p) opt Freq 

 titel

0 1
C -0.1171848515 -0.0492530431 -0.1637726856
C 1.373526496 0.0097219087 0.0036000225
C 2.1397764951 -0.6051261889 1.2081313512
C 3.2652365666 0.2853512936 0.6712106064
O 4.4798113932 0.5467973599 1.2817069869
C 3.3409367956 0.0363479256 -0.8925604802
C 3.0242137925 1.5315657054 -1.1249890813
C 2.2148224743 1.3538231606 0.167024163
O 2.0715100405 -0.5900463796 -1.1103624891
H -0.6219064895 0.3842247481 0.7043728365
H -0.4269073833 0.5005550216 -1.0576136007
H -0.4473956545 -1.0876374412 -0.2712720259
H 1.7671941306 -0.2325709758 2.1685623034
H 2.2536960178 -1.6922005955 1.2242875815
H 4.3123692611 0.886454559 2.1671767879
H 4.1514226488 -0.5065392792 -1.3760585142
H 3.8921685373 2.1727982794 -0.9539386904
H 2.520442841 1.7882954338 -2.0597713718
H 1.8002585084 2.1567243875 0.77572727

