# b3lyp 6-31G(2df,p) opt Freq 

 titel

0 1
C -0.5502063626 2.7581394315 -0.1295164101
C -0.6984205653 1.4044157503 -0.7866692859
C -1.605628816 1.2709529957 -1.9415387886
O -2.0159663513 0.8269475438 -0.6500370579
C 0.386842599 0.3595433488 -0.6607401298
C 1.8746969122 0.6644120438 -0.9988721477
C 2.2980298983 -0.5854205518 -0.1907128013
C 1.2591517157 0.223707883 0.6213601151
O 1.9884626832 1.4617924454 0.2461824273
H -0.3996678809 2.6555131308 0.9482968887
H 0.3095771871 3.3016149555 -0.5258205319
H -1.4593829134 3.3421059818 -0.2970156727
H -2.1189086836 2.1542511387 -2.3202757145
H -1.4415490975 0.4841424011 -2.6780273427
H 0.0100456048 -0.5881432461 -1.0560885804
H 2.3087462202 1.0859897032 -1.90618436
H 2.0162056528 -1.5723113121 -0.5651664243
H 3.3127835269 -0.5451350791 0.2050387616
H 0.9529792604 0.1161092057 1.6618818949

