# b3lyp 6-31G(2df,p) opt Freq 

 titel

0 1
C -0.5577955802 -0.9867232416 3.1890594887
C -1.2244940292 0.1411510909 2.452709699
C -2.093707374 1.2145756573 3.1661652456
C -2.8257284571 1.3880911056 1.836338881
C -1.7562332659 1.2526205693 0.7169371348
C -0.4219820903 0.9794040283 1.4008958432
O 0.4779211423 0.2247990306 0.6183813345
C -2.3863098144 0.0377703515 1.3378274509
O -3.026845235 -1.007344644 0.72236314
H 0.1163099789 -0.6007524528 3.9631886008
H -1.288449101 -1.6381675025 3.6812985981
H 0.0418874717 -1.5953658243 2.5053241449
H -2.7415809671 0.7817122685 3.9350023235
H -1.5599769828 2.0760482249 3.5847624364
H -3.7505303834 1.9122136722 1.6296078977
H -1.9324937164 1.6699827334 -0.2667373211
H 0.1566406624 1.8234845658 1.7924251924
H -0.0395366859 -0.417721998 0.117534993
H -3.6947204727 -1.3582997251 1.3226198965

