# b3lyp 6-31G(2df,p) opt Freq 

 titel

0 1
C -3.7631259809 0.8877753057 -3.5424665217
O -3.8026324654 0.7437901476 -2.1407752046
C -3.5451317356 1.9436183814 -1.4561580116
C -3.4229636782 1.6777534326 0.0420607861
O -3.7036240071 2.530381747 0.8458725431
C -2.8993683281 0.2958208709 0.4593977654
C -1.5374644969 0.0732049476 -0.0123057343
C -0.4047003678 -0.0723043378 -0.3935106683
C 0.9644428327 -0.2692586298 -0.8479255332
H -2.7753751985 1.2334733018 -3.884179044
H -3.966397299 -0.0940402934 -3.9756779524
H -4.5220979217 1.6001875682 -3.9002932972
H -2.5937732127 2.3949529129 -1.7893564372
H -4.3376957101 2.6907657225 -1.6100190846
H -2.9564464698 0.2473806575 1.5509078059
H -3.5699679206 -0.4620493914 0.036977603
H 1.5824010529 -0.7156223677 -0.0609970453
H 1.0056491196 -0.933551466 -1.7182036724
H 1.4305644871 0.6805100107 -1.1329796366

