# b3lyp 6-31G(2df,p) opt Freq 

 titel

0 1
O -2.767220374 3.8152417217 1.4624602549
C -1.90953146 2.7460831064 1.6914002507
C -1.4261911778 1.9704050259 0.4806041998
C -0.5558112004 0.9549790037 1.2520116521
O 0.0794305595 0.0325623897 0.4114365048
C -1.5627156921 0.4087738462 2.3044010726
C -2.0048682826 1.7616501178 2.8413980464
C -0.7949747957 2.7060591427 2.7193656173
C 0.3384145095 1.8927256921 2.1126814703
H -2.9921731299 4.2175911682 2.30729436
H -2.2386208463 1.486582624 -0.0694903779
H -0.8374015834 2.5803374645 -0.2107987015
H 0.5995227333 -0.563461981 0.9606652291
H -2.3691822659 -0.1617194814 1.8332243085
H -1.076607074 -0.2236962669 3.0575913895
H -2.7286974786 1.8798866119 3.6389354339
H -0.6394868971 3.5105909939 3.4282767796
H 1.0192066186 2.483098524 1.4915226872
H 0.9276506968 1.3407949466 2.8554997927

