# b3lyp 6-31G(2df,p) opt Freq 

 titel

0 1
O -0.5832063172 -4.0528430605 1.1922166596
C -0.6386907546 -3.3118393787 -0.0315132765
C -2.0002894818 -2.6368267411 -0.2575765778
C -2.1057719032 -1.3086193972 0.5016927709
C -1.0239478289 -0.3304879634 0.0285121449
C 0.3305075572 -0.990038481 -0.0347389908
C 1.5304620771 -0.1280074768 -0.0511454362
O 1.5030301694 1.0811305884 -0.0149922963
C 0.4962742529 -2.3216138717 -0.0728761013
H -0.5732940455 -3.4188597674 1.9176948628
H -0.4811629067 -4.0720812031 -0.8054551713
H -2.1271898137 -2.4497981032 -1.3320545853
H -2.7842426856 -3.3370354928 0.0455635097
H -3.098992063 -0.8684771362 0.3718091072
H -1.988967889 -1.4898219637 1.5791770582
H -1.2769824636 0.0599614844 -0.9673383321
H -0.9601508948 0.550314648 0.6749608319
H 2.4949156362 -0.6822190593 -0.1002221325
H 1.5017942047 -2.7391928848 -0.0842984551

