# b3lyp 6-31G(2df,p) opt Freq 

 titel

0 1
C -3.4717295614 0.7702767285 -1.0781718486
C -2.9108229814 1.125267778 0.2872396394
O -3.9633511096 1.6153326841 1.0778454927
C -2.0117400975 0.0179480031 0.9225909638
C -0.7474786205 0.8125625136 0.4607004357
C 0.3854724496 0.9113844141 1.3543985933
C 1.3273706845 0.97371991 2.0988488308
C -1.6511398503 2.066973898 0.2436559557
O -1.6055956894 2.914637811 1.3759235736
H -4.2363277125 -0.0065452572 -0.9817483756
H -3.9326675093 1.6493800732 -1.5390802842
H -2.6875790485 0.3982356634 -1.7448705079
H -3.5415629679 2.0319062562 1.8416217317
H -2.1024976429 0.0125376186 2.0105676931
H -2.119495277 -1.0019667283 0.547264987
H -0.4129028137 0.4524243616 -0.5178546785
H 2.156344335 1.0379438785 2.7588842833
H -1.4786412957 2.629722838 -0.6819679921
H -2.0918493715 3.7164396054 1.1587467269

