# b3lyp 6-31G(2df,p) opt Freq 

 titel

0 1
C -0.5026789018 -0.8138271622 2.9672254385
C -1.3721044327 0.0435600779 2.094711522
C -0.8995845518 0.6758365032 0.8232236095
O 0.4948812897 0.6703462841 0.6869043951
C -1.44561759 1.5836854331 1.9046471806
C -2.983348008 1.5527508333 1.9923820855
C -3.7996808963 1.2941539391 0.70757904
O -3.5976899466 -0.1399052162 0.8257965236
C -2.9209312063 0.0191435118 2.1014675864
H -0.5842502381 -1.8687414091 2.6775686822
H 0.5444970677 -0.5199972091 2.8683039863
H -0.7875629685 -0.7354053819 4.0223663333
H -1.4450815388 0.4998412994 -0.1017517752
H 0.7468720538 1.4671793286 0.2094448546
H -0.8047916514 2.348109279 2.3297929323
H -3.4237382989 2.1752346234 2.7697404978
H -4.8634072078 1.5477174142 0.7934559594
H -3.4075750715 1.6959325523 -0.2340367147
H -3.3857845026 -0.5642411309 2.9008604228

