# b3lyp 6-31G(2df,p) opt Freq 

 titel

0 1
C 1.3299012873 0.3349440164 -0.4030403507
C -0.111793063 0.2048214735 -0.2457844879
C -1.3043970251 0.1006492534 -0.1158373166
C -2.7533672101 -0.0434968627 0.0158528473
C -3.1632430331 -1.5154652126 0.2220961087
C -3.482599017 0.5329792174 -1.2076654571
O -3.2387680723 1.9491600599 -1.2912259596
C -2.6578221418 2.418588228 -2.4066928231
O -2.3582431477 1.7924918765 -3.3846789476
H 1.7297167664 1.1353853732 0.2292458076
H 1.8455523799 -0.5922525943 -0.129638071
H 1.5943751238 0.5676181098 -1.4403255794
H -3.0856559951 0.533564825 0.8895070964
H -2.6712912598 -1.9278118259 1.1057963186
H -4.2463071801 -1.6002333049 0.358191826
H -2.8730277856 -2.1231627706 -0.640145184
H -3.1519425244 0.0547235876 -2.1310346059
H -4.5634781221 0.4055379426 -1.0929996931
H -2.50523111 3.5016245476 -2.2812351185

