# b3lyp 6-31G(2df,p) opt Freq 

 titel

0 1
C 1.4860607072 0.1693557451 -0.0614816152
C 0.0226675534 -0.1125390361 -0.0479546697
C -1.0260720283 0.710403515 0.0297631614
C -2.2473947175 -0.1887464592 0.139521193
O -1.8537178875 -1.3397150278 -0.6170297381
C -0.581869869 -1.5146736778 0.0248041249
C -1.0264075112 -1.7456977021 1.5056668906
C -2.2582817439 -0.7905922327 1.5823292059
O -2.173999349 0.2500448909 2.5378764065
H 1.9797806979 -0.2571495024 0.82190997
H 1.9725306657 -0.2794463844 -0.9367145913
H 1.6881724924 1.2436901086 -0.0709382918
H -1.0283547903 1.7881115012 0.1126356276
H -3.2026832938 0.2014549639 -0.2084259772
H -0.0221814861 -2.3271428555 -0.4397105999
H -1.312592697 -2.7884368369 1.6633319036
H -0.2589935141 -1.4726221007 2.2346404569
H -3.1812318664 -1.3684375047 1.7182234391
H -2.2605391228 -0.1382157845 3.4133094036

