# b3lyp 6-31G(2df,p) opt Freq 

 titel

0 1
C -0.8793995811 -0.2537731323 0.0263270673
C 0.6428230385 -0.1224237484 0.2803098255
C 0.6779389424 1.2542613125 0.869876398
C 1.2306762183 1.717505661 1.9854323815
C 0.7735898034 3.0455057144 2.5388023408
C -0.6923779581 3.2439114881 2.1405106513
O -0.8528885983 3.180732158 0.7267941245
C -0.360311551 2.0344748469 0.1027039906
O -1.3877046865 1.0733798807 -0.1611753904
H -1.1100319313 -0.851762008 -0.8616720714
H -1.3779823054 -0.7143995011 0.8897469139
H 1.0337744528 -0.8970973764 0.943234642
H 1.1917952191 -0.1725665796 -0.6683055114
H 1.9322990891 1.1147968874 2.5563781937
H 0.8625452412 3.0517909737 3.6308873792
H 1.379765158 3.881851846 2.1665838131
H -1.3145050717 2.4843780537 2.6352832923
H -1.0604180069 4.2321989947 2.4274731257
H 0.0272562176 2.3924507788 -0.8641641463

