# b3lyp 6-31G(2df,p) opt Freq 

 titel

0 1
C 0.0723357336 -0.1531609038 0.0513179039
C 1.5599785617 0.0576686562 0.1071218417
O 2.0654772437 -0.3680461035 1.352873721
C 3.4882287247 -0.4588854647 1.4378146426
C 4.1386631697 0.2333107064 0.2446920925
C 3.5321824587 1.6419300319 0.0639163531
C 2.1840042208 1.2846839493 -0.5415794404
C 2.4026685017 -0.1030704958 -1.1330629481
O 3.7412587239 -0.490390531 -0.9280181318
H -0.4249789143 0.4183675278 0.8418779901
H -0.3286182822 0.1740368757 -0.9123219953
H -0.1713923545 -1.211214913 0.1885181652
H 3.798144392 0.0033923815 2.3841228212
H 3.790600685 -1.5148243951 1.4487982018
H 5.2279097721 0.2040673176 0.3099766592
H 3.4586777639 2.1724542841 1.0178991767
H 4.126084199 2.2453258984 -0.6291548278
H 1.5723506684 2.0417511293 -1.0187668985
H 2.0018046922 -0.4526497112 -2.077411017

