# b3lyp 6-31G(2df,p) opt Freq 

 titel

0 1
C 3.7446568153 1.3601305301 -0.3736019002
C 3.2803069758 0.3221607278 -1.3768197706
O 4.054007843 -0.2846295805 -2.0833721568
C 1.7847195017 0.0841364004 -1.4473286387
C 1.2079923409 -1.2576837409 -2.0055056054
C -0.0660003131 -0.935290061 -1.1592449007
C 1.0108665588 -0.4039598296 -0.1850695641
O 1.7349017441 -1.5797269401 0.2037444453
C 1.884410688 -2.2683854602 -1.069397348
H 3.5987204649 0.9633828703 0.6381319392
H 4.8025423703 1.5787097063 -0.5246943411
H 3.1535063553 2.2791387435 -0.4478948763
H 1.297009221 0.9556612332 -1.8969145477
H 1.1777312124 -1.4873236068 -3.0682593251
H -0.6877414313 -0.1519689019 -1.5952504367
H -0.6734501778 -1.7729771965 -0.8090705219
H 0.805741659 0.2126729422 0.6886048995
H 2.9426016874 -2.4278120877 -1.2847050757
H 1.3628977343 -3.2314452786 -1.0342146549

