# b3lyp 6-31G(2df,p) opt Freq 

 titel

0 1
O 0.5121980552 0.2327158076 0.6521397503
C 0.0186648452 1.5019966904 1.0924567705
C -1.3052775864 1.881203075 0.4074780052
C -2.5038145486 1.134016557 0.9901558091
C -3.4417432729 1.8231356768 1.9680421091
C -2.4651593359 0.774502316 2.4466850069
O -2.9787545245 -0.4970113913 2.7654488686
C -1.2466013344 1.1642111256 3.2092643058
C -0.1115095503 1.5130831474 2.6024259289
H -0.0288599852 -0.442642262 1.076614178
H 0.7894200598 2.2147659786 0.7812307446
H -1.4498648187 2.9632370171 0.5128099049
H -1.2087203012 1.6745467165 -0.6622607981
H -2.9695726133 0.3869828659 0.3567345891
H -3.2485160789 2.8633482941 2.2118534888
H -4.4877489022 1.5367695261 1.9425280155
H -3.3985029687 -0.440119124 3.6314023308
H -1.3095875356 1.1213529994 4.2956736714
H 0.7759175466 1.7506325139 3.1820505106

