# b3lyp 6-31G(2df,p) opt Freq 

 titel

0 1
O -4.4586223726 1.2683815486 -1.2870718895
C -3.2916208438 0.7056823778 -0.7606475775
C -2.444882711 -0.0566198676 -1.7320868942
C -1.7390066657 -1.3429590946 -1.3460092287
C -1.0706681843 -1.268745923 0.0406599355
C -0.1690246077 -0.0531550446 0.180138944
O 0.9638362963 -0.1353139982 0.5945395056
C -0.7647780336 1.3012490628 -0.2109480312
C -1.9488269477 1.2675729466 -1.168681867
H -4.6185730481 2.1026252757 -0.8329245563
H -3.3901158264 0.3212735957 0.2562696604
H -2.8129699888 -0.0204262502 -2.7529269679
H -2.4410529801 -2.1848661614 -1.3686465622
H -0.968853242 -1.5616885309 -2.0963952133
H -1.8431851617 -1.2043727782 0.8193149313
H -0.4752269465 -2.1606511244 0.2476213263
H -1.036965304 1.8047842169 0.7289883628
H 0.0574601012 1.8877193613 -0.631074584
H -2.0137538436 2.1162916777 -1.842742454

