# b3lyp 6-31G(2df,p) opt Freq 

 titel

0 1
C -0.1513281582 -0.2420114384 0.141942403
C 1.3458845539 -0.1219869579 -0.033578944
O 1.9564943897 -0.7931820999 1.0113149108
C 2.0849931913 -0.3117338839 -1.4681949284
O 3.2293037093 0.385323149 -0.8790304536
C 2.01383834 1.2281392782 -0.5250993463
C 2.3803048325 2.700582252 -0.7716328008
C 2.3705587831 2.3146892332 -2.3050656559
C 1.5208022835 1.0299959296 -1.9632765542
H -0.4355094048 0.1630682675 1.1176454769
H -0.7129348988 0.2815053808 -0.6315967905
H -0.4335604218 -1.2987302373 0.1279440691
H 2.9060968752 -0.6787095552 0.8486795712
H 2.2865335805 -1.2580993643 -1.9799284041
H 1.5633335669 3.3806339572 -0.5169418618
H 3.3130775964 3.0544225999 -0.3277861113
H 1.8453996495 3.0166774594 -2.9547656355
H 3.3638502968 2.1176661038 -2.7019398097
H 0.4599408949 1.1054959163 -2.1952282849

