# b3lyp 6-31G(2df,p) opt Freq 

 titel

0 1
C -0.1084186832 -2.59921829 -0.1652438678
C -0.6539163946 -1.2279349043 0.0502432944
C -0.1272515571 -0.0180024086 -0.1869886851
C 1.1875566014 0.3985878258 -0.750758976
C -1.2842692004 0.9447474877 0.0867372856
O -2.1974257878 0.8307546963 -1.036335088
C -2.8247364516 -0.43929282 -0.8245721382
C -2.0961102237 -0.9393827058 0.4640123522
O -1.9793380588 0.3250152243 1.142160826
H -0.1438902599 -3.1928097708 0.7570896581
H -0.6921122784 -3.150642024 -0.9142036686
H 0.9288782669 -2.5734920057 -0.5095562752
H 1.7087797657 1.0956212985 -0.0825305749
H 1.847106267 -0.4557200279 -0.9258058549
H 1.0517450478 0.9197124695 -1.7070329014
H -1.0812298894 1.9971303236 0.2792266926
H -3.8959027553 -0.295931013 -0.6468902031
H -2.67600286 -1.0957886043 -1.6883742209
H -2.6232381889 -1.6741671012 1.0707089851

