# b3lyp 6-31G(2df,p) opt Freq 

 titel

0 1
O 0.6034891637 0.1694692917 0.6570800897
C -0.7607882206 0.4788177452 0.8434524316
C -1.2485783503 0.4389980263 2.3259234114
C -1.8515731748 1.8673780789 2.5353959657
O -2.6209907484 2.0564284874 3.6924335942
C -2.5036847485 2.0944384744 1.1438876617
C -1.1663183948 1.9293682026 0.3880538115
C -0.284369254 2.8862374941 1.17867153
C -0.688400569 2.8401708585 2.4521817176
H 1.112124393 0.8139173367 1.1634087035
H -1.3011490166 -0.2540324361 0.2379723507
H -2.0214028203 -0.3247288539 2.4730903537
H -0.4290525521 0.2215396736 3.0146857081
H -3.2671770206 1.3444176428 3.7428762552
H -3.2518381909 1.3344452618 0.8884115472
H -2.9366269265 3.0922626514 1.0455865478
H -1.1695879458 2.0586433019 -0.6939605056
H 0.5670105487 3.4217796036 0.7777611478
H -0.2550433019 3.316386629 3.3225319883

