# b3lyp 6-31G(2df,p) opt Freq 

 titel

0 1
C 1.3611187393 0.710316766 0.2782427229
C 0.0087312231 0.071552735 0.216675638
C -0.2757925015 -1.2329614288 0.1730467014
C -1.7594610273 -1.5382061615 0.1187304917
O -2.2135808317 -2.4135121072 1.1333207471
C -2.3941169628 -0.1300254312 0.2505036206
O -2.6888246634 0.1753366928 1.6406422406
C -1.7636587838 1.2895965241 1.6394321044
C -1.251462309 0.9080908573 0.2295908178
H 1.4590408414 1.3484369642 1.1659728437
H 2.1593585975 -0.035623811 0.306617564
H 1.5310828887 1.3596835572 -0.590142197
H 0.4608286657 -2.0297221464 0.1843961842
H -2.0353796742 -2.0124456721 -0.8318555556
H -2.315456465 -1.8564411461 1.9187714145
H -3.2714083201 0.0310129923 -0.3822181404
H -2.2994771465 2.2450909395 1.6932139908
H -1.0419489439 1.228018474 2.4617716232
H -1.2706633263 1.7036252421 -0.5189603317

