# b3lyp 6-31G(2df,p) opt Freq 

 titel

0 1
C 2.6264335999 -1.2312214811 -1.4264234021
C 2.260664044 0.0388399537 -0.7291541638
C 1.1749418285 0.2753412805 0.0352575529
C 0.0509129805 -0.6514768373 0.415729419
O 0.4647008058 -1.9730592801 0.7558672485
C 1.1941345793 1.6724054108 0.5297149607
O 0.374621899 2.1848282421 1.2611252813
C 2.4420672425 2.3554168211 -0.0429347303
C 3.1535953971 1.2577288768 -0.8500309335
H 3.6624668826 -1.5115705619 -1.198102629
H 1.9672014529 -2.051205559 -1.1426111129
H 2.5821079901 -1.0903337609 -2.5145760354
H -0.513917638 -0.1794715683 1.2308702748
H -0.643239541 -0.7755897155 -0.4232382096
H 1.0373417701 -1.9048317936 1.5268090768
H 2.1363526174 3.2080780997 -0.6565863964
H 3.0472403239 2.757307899 0.774532215
H 3.2922265273 1.5261294893 -1.9049169436
H 4.157066378 1.0350642046 -0.4654624225

