# b3lyp 6-31G(2df,p) opt Freq 

 titel

0 1
O 0.1035140214 0.3042209841 0.0144628208
C -0.9213047044 -0.0216794468 0.9342732468
C -1.1880173805 1.0518138597 2.0327002433
C -2.6052297223 1.3071278875 1.4603988836
C -3.6742548431 0.3700921555 2.0081423194
C -4.71559701 0.1066856807 0.94248496
C -3.4041022972 -0.6263719274 0.8833866269
O -3.3154352101 -2.0038736384 1.0052377135
C -2.3061686848 0.2570623904 0.3067970253
H 0.9486651598 0.193017793 0.4620963993
H -0.806962675 -1.04897526 1.3027944714
H -1.14087777 0.7250812239 3.075731614
H -0.5220548588 1.9073502087 1.8934027748
H -2.8939046966 2.3426271272 1.2686140336
H -3.8712597302 0.1765746875 3.0565509264
H -5.5450688561 -0.5118594982 1.2706504049
H -4.9770429204 0.8740540741 0.2165900433
H -3.6423721347 -2.4019182205 0.190635479
H -2.2970581771 0.4820807189 -0.7618665563

