# b3lyp 6-31G(2df,p) opt Freq 

 titel

0 1
C -1.3852351969 -0.7855464484 -2.6121898019
C -1.8860904533 -1.0915655507 -1.2100311985
C -2.9173372191 -2.2117500866 -1.1831041173
C -2.0779917816 -0.0573029453 -0.1476558696
C -0.9413358767 -1.1232588472 0.0002592183
C 0.0698824704 -0.0280395557 -0.1197065486
O 1.2669048218 0.0374255162 -0.060080854
C -1.0426096992 1.0630018977 -0.1789571761
O -1.1189334668 1.985502333 -1.238045889
H -0.8927012898 -1.6673738964 -3.0369098806
H -2.2292608377 -0.5288399909 -3.2623584989
H -0.6883105089 0.0511035673 -2.6377912099
H -3.2576801668 -2.4294427787 -0.1663869366
H -3.791928257 -1.9358505916 -1.7823782478
H -2.5017459849 -3.1326265001 -1.6056409785
H -2.9874590875 -0.0128825696 0.4388797233
H -0.8813065993 -1.9972798609 0.637235819
H -1.0265784563 1.5743377849 0.7987203981
H -0.3138067802 2.5153063331 -1.2199265015

