# b3lyp 6-31G(2df,p) opt Freq 

 titel

0 1
C 0.0637547943 2.1790495682 -2.1887767221
C -0.1220438394 0.7012051433 -1.9784070426
C -1.4489906341 -0.1214853785 -2.107969575
C -0.3716000877 -1.1549438526 -1.6650062287
C 0.5685896921 -0.4902902911 -2.7078620154
C 0.0917013235 -0.0809217908 -0.6126086165
O -0.7969810292 0.2293283281 0.4135976295
C 1.480711914 -0.1818158718 -0.0397086299
O 1.6833674255 0.0127276486 1.1400233823
H -0.5133450794 2.7424710187 -1.4483074551
H 1.1154017358 2.4706769596 -2.093732615
H -0.279500965 2.4782059559 -3.1849976183
H -2.2403581326 0.1040263443 -1.3961591287
H -1.8299007588 -0.2403348256 -3.1261689853
H -0.5098773029 -2.2194591628 -1.4745482178
H 1.6477435991 -0.6166566727 -2.6120013473
H 0.2644386114 -0.6275072717 -3.748007825
H -0.2507427381 0.2951458785 1.2136937921
H 2.3131593513 -0.4395035376 -0.7154604413

