# b3lyp 6-31G(2df,p) opt Freq 

 titel

0 1
O 0.6220095435 0.4051452748 0.5822653442
C -0.7493953506 0.6094829933 0.7847291973
C -1.3198042624 0.6943221412 2.2345512896
C -2.5724586133 -0.0245007507 1.7003584582
C -3.3209756812 0.7173532154 0.5344320134
C -2.7015205345 2.0774488334 0.2325913133
C -1.1909156241 1.8387221191 -0.0137137212
O -2.7987503993 -0.2344480037 -0.4503237125
C -1.781927363 -0.5704846295 0.5006941641
H 0.8960128968 -0.3614875506 1.0963149931
H -0.7750456561 0.0347582126 2.9198037857
H -1.4066984265 1.6834956616 2.6933143863
H -3.192282051 -0.6390088816 2.3516776432
H -4.4133144986 0.7117568203 0.5556390951
H -3.173601038 2.5244613369 -0.6471797619
H -2.8729030507 2.7588222489 1.0738156065
H -1.0058538423 1.646935222 -1.073404868
H -0.5870544676 2.7015922091 0.2820024894
H -1.3719714312 -1.5777562823 0.3858523342

