# b3lyp 6-31G(2df,p) opt Freq 

 titel

0 1
C 0.2594036076 0.2757220761 -0.4454925498
C 1.0571167863 -0.519164851 0.5877310459
O 2.3987636748 0.0058315001 0.6733295822
C 2.7480167568 0.3425788536 2.0215067507
C 1.5012437671 0.0637006427 2.7965741787
C 0.5618577442 -0.422243959 1.9984957862
C -0.6753612188 -0.7281500951 2.7792138106
O -0.3431635633 -0.3486460421 4.1225350182
C 1.0015612289 0.1448945592 4.2025203082
H 0.160497882 1.3194582756 -0.1336135508
H 0.769150202 0.247721606 -1.4122966383
H -0.741444222 -0.1510202304 -0.5716297286
H 1.1164871876 -1.5694441993 0.2558043969
H 3.6024913304 -0.2694022906 2.3521137367
H 3.0671473956 1.3947466524 2.0663054756
H -1.5552964024 -0.1579017564 2.4439277435
H -0.9500351961 -1.7944153382 2.7531353489
H 0.9943096658 1.1704845586 4.6029111045
H 1.5821326134 -0.4738549622 4.9046054606

