# b3lyp 6-31G(2df,p) opt Freq 

 titel

0 1
C 1.4383156308 0.4654356234 -0.0962738188
C 0.0051014868 0.0438882357 0.0582551487
C -1.0275692608 0.886008652 0.1011721117
C -2.4447783366 0.3942858043 0.2647282697
O -2.5300086374 -0.8238139532 0.9941500812
C -1.6536737588 -1.8196368817 0.559976315
C -0.4709703602 -2.1301934414 1.4522747596
C -0.2805768026 -1.4243428843 0.1198447104
O 0.250895964 -2.1854610028 -0.9379445778
H 2.0473221911 0.1206168941 0.7497502748
H 1.8744909183 0.0307235559 -1.0034811944
H 1.5313449752 1.5524262982 -0.1610302349
H -0.8795649651 1.9600553836 0.0198052865
H -3.0388404092 1.1163099212 0.8339965992
H -2.9267305627 0.2889747552 -0.7230583833
H -2.1243254526 -2.644750333 0.029237111
H -0.3826810145 -1.5430575977 2.359215516
H -0.1458613567 -3.163606476 1.5161507614
H 1.1585959509 -2.4139315936 -0.7105020158

