# b3lyp 6-31G(2df,p) opt Freq 

 titel

0 1
C -0.1934768538 2.4172622993 -0.7876516058
C 0.5331487486 1.108628534 -0.5958269071
O 0.0352129332 0.0144189503 -0.6057164167
O 1.8629848237 1.3299454417 -0.41292285
C 2.6476934345 0.1850143699 -0.2062948659
C 2.8516048996 -0.3851728166 1.1586313909
C 4.0431202814 0.1462612299 0.3850544018
C 4.4638172384 -0.8808024958 -0.6767230284
C 3.0285896754 -0.8024812746 -1.3049035957
H -1.2539916505 2.2242297247 -0.9438072727
H -0.0545157889 3.0548775931 0.0901647125
H 0.2201234276 2.9536969079 -1.6462619053
H 2.516805987 0.2594685821 1.9648098822
H 2.7311701167 -1.4499334296 1.3460090679
H 4.6530817166 0.9533657637 0.7708294721
H 5.2364664301 -0.5143916534 -1.3553886353
H 4.7690780142 -1.8574317843 -0.2887059779
H 3.0445920849 -0.3340461486 -2.2915140706
H 2.4349138415 -1.7183121837 -1.3516687059

