# b3lyp 6-31G(2df,p) opt Freq 

 titel

0 1
C -2.2768170423 4.5446167166 2.502698662
C -2.4805521922 3.2003503327 1.8563166338
O -1.9054522309 2.0674310395 2.5281359255
C -1.3838035426 2.4386686868 1.249657891
C -1.6078570592 1.4359863707 0.141374393
O -1.2381241211 2.0722566787 -1.0655616049
C -0.7719409229 0.1572172369 0.392713811
C -0.8899519773 -0.7719493965 -0.7233576351
C -1.0186867872 -1.4747053853 -1.6915343899
H -2.9383596344 4.6610548595 3.3673488268
H -1.2443275225 4.6594721883 2.8432109376
H -2.5037703335 5.3473159417 1.793166288
H -3.4842504749 3.0103518871 1.4718180301
H -0.3804992299 2.8689271341 1.268459923
H -2.6708198412 1.1483036217 0.1328224337
H -1.2280449193 1.3946011956 -1.7530944665
H 0.2794794456 0.4402761339 0.5289112921
H -1.1092872949 -0.3068847166 1.3259749453
H -1.1175554592 -2.1289388053 -2.5223225968

