# b3lyp 6-31G(2df,p) opt Freq 

 titel

0 1
O 0.5534106574 -0.8615181899 -0.3221188044
C 0.5520961383 0.3017338801 -0.014400257
C -0.2515402294 0.9013283378 1.1184118802
C -1.1451253329 2.058704189 0.6527333675
C -1.8744131845 2.7843785349 1.8093763133
C -2.9969841399 3.5709104572 1.1192724425
C -3.3550450473 2.7426290059 -0.1225065469
O -4.3057137212 2.9190216243 -0.8372855472
C -2.288830186 1.6537477406 -0.2947214014
H 1.1715884947 1.0427811997 -0.5745540454
H -0.8397124779 0.1073448092 1.5898351113
H 0.4654123762 1.2820663679 1.8612534033
H -0.5147658724 2.7967525034 0.1358704096
H -2.3012798679 2.0395856555 2.4925401987
H -1.1986436629 3.4122489222 2.3960951674
H -3.8813543807 3.7565471593 1.733057967
H -2.6418568215 4.5483523381 0.7670472186
H -2.7361031688 0.7017456873 0.0252338308
H -2.0110431834 1.5359859873 -1.3448232578

