# b3lyp 6-31G(2df,p) opt Freq 

 titel

0 1
C -2.4704392395 0.5981099066 -2.3231669859
C -2.2743504522 0.6799509773 -0.8219700162
O -3.1665324983 0.558481981 -0.0288526965
O -1.0122988369 0.8898924083 -0.3588963494
C 0.0891493903 1.0689854864 -1.2357091936
C 1.4211469254 1.409225282 -0.5298447009
C 1.8920478887 1.9505073075 -1.9119772541
C 0.4498564481 2.5029715332 -1.7280490871
C 0.8438845838 2.8319697058 -0.2550089879
H -1.9703460473 -0.2858001398 -2.7322844413
H -3.5389967937 0.5228713354 -2.5190872363
H -2.0601627558 1.4734293342 -2.8335494344
H 0.1283512113 0.2690972307 -1.980541252
H 1.9731165405 0.7672834634 0.1561924825
H 2.6913932126 2.6928451077 -1.883671642
H 2.0514223961 1.2183316405 -2.7090528316
H -0.110911436 3.1275245403 -2.4248266211
H 1.578290045 3.6302435552 -0.1249190694
H 0.0339830581 2.8999716943 0.4699001073

