# b3lyp 6-31G(2df,p) opt Freq 

 titel

0 1
O 0.2841321858 0.2847117098 -0.1158190301
C -0.7813812183 0.3973635798 0.7781957427
C -2.1052732485 -0.0927955761 0.3017437204
O -3.1836137574 0.7085264309 0.6618524678
C -4.3946464285 0.0289670803 0.9570275346
C -4.2416277682 -1.1926191 1.8903684645
C -3.2461965726 -0.984998636 3.0070873071
C -1.9392101822 -0.8495499389 2.7750577643
C -1.3749244787 -0.8599560849 1.399078563
H 1.0805818046 0.0992594829 0.3928839841
H -0.8123192262 1.3043438772 1.38165123
H -2.1452913846 -0.5390485326 -0.6923356497
H -5.0261946383 0.7893114004 1.4266145242
H -4.8925132127 -0.2921347349 0.028776136
H -5.2336722175 -1.4312869715 2.2872019304
H -3.9342168494 -2.0585236853 1.2931557699
H -3.6189940493 -0.9526125663 4.0275021405
H -1.2469482308 -0.7281941084 3.6062805465
H -0.8806773973 -1.7754009865 1.0742626938

