# b3lyp 6-31G(2df,p) opt Freq 

 titel

0 1
C -0.0200297952 -2.3329545078 -2.7715806765
C 0.3902263914 -2.0437205141 -1.3112066575
C 1.8817143756 -1.7279275092 -1.1835075751
C -0.452360533 -0.9110028852 -0.7437156788
O -0.0092112264 0.1661987788 -0.4328927413
C -1.9792547806 -1.1590020901 -0.5526622552
O -2.2272605625 -2.5552584914 -0.4565635869
C -2.7293383441 -0.5354210461 -1.6416201032
C -3.3733010031 -0.0561076802 -2.5366367349
H 0.5746566267 -3.1650004146 -3.1605454267
H -1.0747033901 -2.6044617624 -2.8439751959
H 0.1607592967 -1.4612031055 -3.4087301532
H 0.1427606029 -2.9364431993 -0.7245517368
H 2.163878625 -1.5478606307 -0.1428581436
H 2.4773356513 -2.5631778399 -1.5641628328
H 2.1403367258 -0.8303501128 -1.7520387707
H -2.2325822361 -0.647815272 0.3878957603
H -3.1713356306 -2.6974135215 -0.5809006298
H -3.9335488137 0.3809781041 -3.3263758413

