# b3lyp 6-31G(2df,p) opt Freq 

 titel

0 1
C 1.8055286191 4.9828863947 4.2769424769
C 1.4212117204 4.0201599561 3.1854425766
O 1.167462478 2.6647144727 3.5806008814
C 2.3033914726 2.9233643443 2.7510082158
C 2.2422300282 2.3557892057 1.382509563
C 1.0148549555 1.9388668589 0.6398277956
C 2.1406980413 0.9411319209 0.846192138
C 3.3230503322 1.3337023671 -0.0299670798
O 3.3002792605 2.6987219486 0.4768035648
H 2.5402334358 4.5339256698 4.9506382524
H 2.2333407409 5.8950086417 3.8477315335
H 0.9280143761 5.2671031214 4.8669848971
H 0.7093038365 4.3935100948 2.4482350064
H 3.2683513837 2.8160972503 3.2489848465
H 0.1458125338 1.7603824983 1.2640518387
H 0.8170817879 2.3541000833 -0.3451107846
H 2.0089656314 0.0014995634 1.3645658721
H 4.2616142461 0.8402637741 0.2459341963
H 3.18949341 1.294175934 -1.1176134908

