# b3lyp 6-31G(2df,p) opt Freq 

 titel

0 1
C -1.6705776344 -1.3135311008 3.3258038981
O -1.9348160843 0.0593082407 3.0327104199
C -1.7149235191 -0.8363832001 1.9376375665
C -0.4712485395 -0.6029227069 1.128427507
C -0.1896478649 -1.6161713713 -0.008065312
O -0.3322649813 -0.5973743927 -1.0207420449
C -0.5853000491 0.3973715084 -0.0247254992
C -1.5595817255 1.507711307 -0.2408065997
C -0.0633796337 1.7877024093 -0.1490837356
H -0.7074519099 -1.5139340255 3.7942231072
H -2.5097457633 -1.8758293518 3.7326668484
H -2.6129167561 -1.0479228319 1.3543564376
H 0.3756178467 -0.4189274652 1.7940074568
H 0.8128024602 -2.0580009262 -0.0083559517
H -0.9349688749 -2.4131004697 -0.1232170703
H -2.0195716126 1.5739093742 -1.2209691364
H -2.1935003148 1.8082280222 0.5869075781
H 0.4541772631 2.0345313703 -1.0699979813
H 0.3184470534 2.2822037901 0.7384045617

