# b3lyp 6-31G(2df,p) opt Freq 

 titel

0 1
O 0.0510890027 1.2619779581 0.454039529
C 0.0420588743 -0.0754344003 0.0033715197
C 0.3621903779 -0.2447448118 -1.5158956333
O -0.3065805554 -1.4230160138 -1.9669741092
C -1.3423419366 -1.7621303877 -1.0302182081
C -2.7988841706 -1.7367891305 -1.5343102323
C -3.5923418024 -1.1366928695 -0.3343900898
C -2.5434899493 -0.2971186039 0.3755827647
C -1.324861926 -0.6628644395 -0.0051631965
H 0.9665194386 1.543010148 0.5443525808
H 0.7342793889 -0.6980651148 0.5939159682
H -0.0101245961 0.6523113891 -2.0323835534
H 1.4317494175 -0.3550503092 -1.7264113902
H -1.0916120737 -2.7490548034 -0.6106912123
H -2.8512335696 -1.0563324934 -2.3902137531
H -3.1691358429 -2.7142553336 -1.8538282304
H -4.4541947855 -0.5413701933 -0.6548858726
H -3.9908731758 -1.9270249131 0.3170786277
H -2.780011776 0.5124178025 1.055472321

