# b3lyp 6-31G(2df,p) opt Freq 

 titel

0 1
O 1.1229438097 -0.6856005785 0.6724836792
C 0.3254277871 -0.0128026437 0.070299312
C 0.1058070408 1.460884299 0.3316643084
O -1.2373313894 1.8711381073 0.0133496267
C -1.4224371766 2.4235856647 1.3392388146
C -0.0414854391 1.9037124967 1.8090574658
C 0.9602549321 2.8781740553 2.3574093955
C 1.2118029077 2.9533760042 3.844630347
C 2.2528260834 2.3532304469 2.9353305853
H -0.3275718456 -0.4327728471 -0.7275285011
H 0.8586566359 2.0322091393 -0.2354337029
H -1.5078438423 3.5171802679 1.31095954
H -2.3056270505 2.0052748772 1.8340377249
H -0.1167856194 1.0366055128 2.4708344092
H 1.0231845656 3.8158173988 1.8096985075
H 1.4088164518 3.9257399011 4.2819607446
H 0.6496338602 2.2841583194 4.4877487451
H 3.1615162795 2.9154307691 2.7523984449
H 2.3875311288 1.2768144496 2.9462837532

