# b3lyp 6-31G(2df,p) opt Freq 

 titel

0 1
C -2.6539810647 0.6604717232 -2.5587392396
C -2.6535976896 -0.281320833 -1.3691036212
O -3.9925520994 -0.7345509427 -1.2354501831
C -1.6150013569 -1.4528050789 -1.3755640833
C -1.1123626119 -1.0348907503 0.0446053462
C -2.0729081807 0.2172603637 -0.004621111
C -0.8433093627 1.1689983281 -0.0434729462
C 0.0756578685 -0.0694914285 -0.0151141629
O 1.2627577968 -0.21831102 -0.0059610463
H -3.0450534292 0.1375687837 -3.4368595356
H -3.2967835995 1.5244925137 -2.3638982864
H -1.6479708963 1.0155415191 -2.7945922527
H -4.0474992727 -1.3005629474 -0.4578682949
H -2.0984698116 -2.4321977391 -1.4026877726
H -0.8572815476 -1.4232193962 -2.1630434321
H -1.0995744365 -1.8007540191 0.8208494078
H -2.8208287166 0.4326482016 0.7591712188
H -0.7334215119 1.8519113615 -0.8894902063
H -0.7284797276 1.7524738104 0.8766894114

