# b3lyp 6-31G(2df,p) opt Freq 

 titel

0 1
O 0.4196398667 0.58945871 -0.1048600026
C -0.5351037354 0.9752682383 0.8761203347
C -1.090911068 -0.2285957649 1.6750868853
C -2.5960338641 0.0548807556 1.7312748375
O -2.8953225726 0.6389403039 0.4707398657
C -1.8092716625 1.5102930415 0.1423287019
C -1.9929692539 2.9077210303 0.6744564551
C -1.0457694658 3.2486839303 1.5454793948
C -0.0262100386 2.1582994477 1.7539422856
H 1.1884326723 0.2329569932 0.3524753599
H -0.9085703347 -1.1327736805 1.0869885017
H -0.6356027125 -0.3494677719 2.6617635473
H -3.2114373643 -0.8418932988 1.8396868371
H -2.8391879476 0.7426755261 2.556785461
H -1.6902142496 1.474554499 -0.9446864363
H -2.8258822241 3.5289083022 0.3657043117
H -0.9799620652 4.2041165396 2.0563498148
H 0.9670300576 2.4666806996 1.4040090454
H 0.0798999924 1.892198709 2.8131944095

