# b3lyp 6-31G(2df,p) opt Freq 

 titel

0 1
O 1.1254425682 0.0092577874 -0.2907221315
C -0.0677229809 0.0114305941 -0.0972551747
C -0.8822744464 -1.270577855 0.0332011204
C -1.7820538366 -1.2544523062 1.287909018
C -2.6044881984 0.0179297716 1.3361196663
C -3.9591620263 0.0210264546 1.8982103067
O -3.7625273515 0.0181193156 0.4802854969
C -1.778182715 1.2876151828 1.2832339359
C -0.87836532 1.2963851106 0.0284803253
H -1.5282328373 -1.3455041847 -0.8519012395
H -0.2004328686 -2.1234965478 0.0301818001
H -2.4427104942 -2.1259707873 1.287918378
H -1.1597777574 -1.3144682258 2.1897925433
H -4.3747442279 -0.8964026984 2.3137112921
H -4.3719457883 0.9412391482 2.31033171
H -2.4361820171 2.1611358513 1.2800339068
H -1.1557217669 1.349052515 2.1848941509
H -1.5240974024 1.3700224928 -0.8568953029
H -0.1939291828 2.1472062862 0.0223277479

