# b3lyp 6-31G(2df,p) opt Freq 

 titel

0 1
C -3.3041992459 1.5922584442 0.3266219129
C -2.2466423504 0.7518303203 -0.3478286528
C -1.564648169 1.2374298654 -1.5876891053
C -0.7652194656 1.1171222067 -0.2916908038
C 0.0112277837 -0.1496251166 -0.1778302704
O 1.2027037339 -0.3224681754 -0.2893583132
C -0.9636864506 -1.2942235223 0.1263450346
O -0.5843373647 -2.4987767655 -0.4841279155
C -2.3628048326 -0.7847432051 -0.264780426
H -3.379322836 1.3547055093 1.3936798252
H -3.0822034644 2.6602513468 0.2352822736
H -4.2886609474 1.4181747701 -0.122457408
H -1.3633295374 0.5393565051 -2.3946598835
H -1.7542847531 2.254145318 -1.9155173702
H -0.377523688 2.0258624418 0.1533708086
H -0.9300190099 -1.3837732981 1.2300590426
H 0.3812220673 -2.4615153727 -0.5502976097
H -2.6573367393 -1.2213348625 -1.2239416756
H -3.1124530706 -1.0777843197 0.4737981265

