# b3lyp 6-31G(2df,p) opt Freq 

 titel

0 1
C 1.2305683474 -0.4534421395 1.037566026
C 0.8100743463 0.0686432845 -0.3439362019
C 1.6783368604 -0.4708999298 -1.4478723995
C 1.4626741122 -1.8227327584 -2.1084182484
C 1.4553894606 -0.6416017142 -3.0051817057
C 2.9172354427 -0.2724458618 -3.319655937
O 3.1198121874 0.867720601 -4.1095554611
C 3.0101788673 0.0779291021 -1.8090078489
O 3.7100248943 0.9087640267 -1.2833196027
H 1.1641921531 -1.5452494446 1.0848066348
H 2.2629879822 -0.1668400324 1.2574818519
H 0.5892410569 -0.0404723172 1.8217659886
H -0.2348747827 -0.1976748908 -0.5444890286
H 0.8667867818 1.1633801453 -0.3524094655
H 2.2714956618 -2.5469765208 -2.1727373992
H 0.4973576777 -2.2612453694 -1.8748795653
H 0.5996150072 -0.2899326217 -3.5652220262
H 3.5110673684 -1.1180553847 -3.6918267596
H 3.6248502553 1.4912078358 -3.5702386416

