# b3lyp 6-31G(2df,p) opt Freq 

 titel

0 1
C -0.238831423 2.4763157815 -0.7434319718
C -0.8420318869 1.3042408158 0.0009705953
C -1.59129598 1.5870041037 1.3081980164
C -2.3571543992 1.1479487225 0.103973897
C -2.9118586899 -0.2627580434 0.1004225251
O -2.0717268339 -1.1381558443 0.833597842
C -0.7912357406 -1.2759293045 0.2529976515
C -0.0696607057 0.0312351274 -0.0938097185
O 1.0683638108 -0.0117352009 -0.5097352607
H 0.7577950928 2.7070754275 -0.358064182
H -0.1328832338 2.2537131278 -1.8096515909
H -0.8676501374 3.3654213876 -0.6380129988
H -1.4928145537 0.8812968274 2.1239620206
H -1.6278189888 2.6297637408 1.602710593
H -2.9484659949 1.885086198 -0.4321873255
H -3.8875044423 -0.2982861332 0.5958202417
H -3.0426744078 -0.6260461071 -0.9331089245
H -0.1769644164 -1.8451938251 0.9557288511
H -0.8406304593 -1.8562155116 -0.6848020812

