# b3lyp 6-31G(2df,p) opt Freq 

 titel

0 1
C 1.4504099337 -0.1285120043 0.0441003754
O 0.0399319544 -0.2003182101 0.1718069406
C -0.4793872489 0.5158173335 1.2226963797
C -0.1720132117 0.3309299573 2.7073420147
C -0.6925101166 1.7909221996 2.9396067779
C -2.1912697991 1.7634051627 3.2428243486
O -2.7693812455 1.0966349636 2.1113702105
C -1.8230945051 1.1797495979 1.0669036445
C -0.6502165678 2.0440545601 1.4066953931
H 1.9642579095 -0.6100562015 0.8867836304
H 1.7112257622 -0.6580310534 -0.874641997
H 1.7924852518 0.9131873307 -0.0277509532
H -0.6896331883 -0.47764925 3.2347486429
H 0.901906257 0.263010228 2.8983732635
H -0.0978069381 2.428027088 3.5923994609
H -2.4420767788 1.192775372 4.1431332976
H -2.6045752224 2.7788298038 3.3398589471
H -2.2581699008 1.185771075 0.0747880937
H -0.3023352154 2.9144341573 0.867090199

