# b3lyp 6-31G(2df,p) opt Freq 

 titel

0 1
C -0.1462990747 -0.1994221562 0.0669797155
C 1.3711518652 -0.1016771089 0.0886970349
O 1.9526871747 -1.1883809073 0.7928561929
C 2.1180040698 0.1659655007 -1.2271205721
C 3.2884945216 0.8782209863 -0.4850476849
O 3.2552121358 2.0752802645 -1.3209845394
C 1.856893585 1.7007119715 -1.1448900183
C 2.0257293781 1.2816283268 0.3554838027
C 1.9869452371 2.1658925004 1.5668759285
H -0.5567578888 -0.139917428 1.0832735481
H -0.5974025221 0.6092495931 -0.5160847284
H -0.4604901021 -1.1543755898 -0.3655780492
H 1.5058256523 -1.2711639543 1.6418295852
H 2.1845800964 -0.4450845303 -2.126531567
H 4.2510353026 0.488790367 -0.16102978
H 1.0903315578 2.3085163285 -1.624637248
H 2.3756810084 1.6430223458 2.4478731655
H 2.6032209079 3.0557464196 1.4014790345
H 0.9669303851 2.4958055805 1.7934815394

