# b3lyp 6-31G(2df,p) opt Freq 

 titel

0 1
O 0.3704622164 0.2341103848 0.5048778285
C -0.9787620745 0.4863912217 0.8242869599
C -2.0757140593 -0.3277540923 0.0781014846
C -2.7984865453 1.0021154031 -0.2841216541
C -3.9471557097 1.4499865521 0.6614137332
C -3.4188910588 2.6762102615 1.3853499635
O -2.9790844422 3.7154503816 0.4994797101
C -1.9888854731 2.8705286559 1.1020016326
C -1.5192267878 1.7838272362 0.1722116367
H 0.6276346139 -0.5994774217 0.9120316948
H -1.1334309175 0.4862178565 1.9140699371
H -1.6463684556 -0.8128937794 -0.802750663
H -2.6408652809 -1.0659301019 0.6549590055
H -3.0802445151 1.1051478508 -1.3312400883
H -4.8645605621 1.6826515785 0.1118385999
H -4.1997562803 0.6711927609 1.3915958755
H -3.8880785281 3.0219306507 2.3039691855
H -1.3082671318 3.3600809594 1.7957558261
H -0.8670644182 2.1320078316 -0.6314203183

