# b3lyp 6-31G(2df,p) opt Freq 

 titel

0 1
C -0.7203982432 -3.361418262 -4.8609189105
C -0.4796708717 -2.1439034871 -4.0002230495
O -1.3656190981 -1.4072510048 -3.6261171218
C 0.9436948649 -1.8435073548 -3.596332399
C 1.3750289058 -1.6578050132 -2.112869129
C 2.6225631929 -1.0364292731 -2.8131987544
C 1.6218938274 -0.469398375 -3.8667808893
C 3.1439404396 -2.2644421895 -3.5718970016
O 1.9016199777 -2.7891266195 -4.1022673186
H -0.3474503513 -4.2570121511 -4.3528726837
H -1.7851272662 -3.4570374724 -5.0760450421
H -0.1448951865 -3.2817469253 -5.7892329564
H 0.7602856368 -0.9266788373 -1.5891347907
H 1.5060510486 -2.5685188509 -1.5233435364
H 3.3500712327 -0.416754719 -2.2909283269
H 1.0290327839 0.3669921962 -3.4983725395
H 1.9790670631 -0.291389953 -4.8840553742
H 3.8253151109 -2.0164070561 -4.3937500179
H 3.6186353228 -3.0113590522 -2.9253565886

