# b3lyp 6-31G(2df,p) opt Freq 

 titel

0 1
O 0.5437289488 0.7734214895 0.5790545225
C -0.8198775041 1.131723092 0.3988015171
C -1.6949692758 -0.0772724146 -0.0519661818
C -2.3345587725 -0.5563095863 1.2511171128
C -3.2746506789 0.4056576325 2.0174660931
C -2.9941508779 1.8417018122 1.5785275329
C -1.4627960429 1.555857622 1.7259378928
C -1.8245604929 0.2173150505 2.4242194972
O -1.1622148681 -0.2305145198 3.5555827483
H 0.5980563894 0.2140901183 1.3628835734
H -0.8142991771 1.9357185013 -0.3434676456
H -2.4398402594 0.212566701 -0.8011439311
H -1.0528018139 -0.8377856483 -0.504575703
H -2.5761556275 -1.6063295392 1.3893168192
H -4.1906373287 0.030291236 2.4593910279
H -3.3412495441 2.1526581498 0.5866946736
H -3.3395952253 2.5683078522 2.3175135658
H -0.880895338 2.2847380016 2.288745796
H -1.341774841 -1.1697270808 3.6677474488

