# b3lyp 6-31G(2df,p) opt Freq 

 titel

0 1
C 1.3838034628 -0.2909257063 -0.0903273906
O -0.0196709355 -0.2138514749 0.0651219673
C -0.422054031 0.577356009 1.1432936066
C -1.9235935519 0.5015918954 1.4986753962
C -1.5198132703 1.0597315511 2.8940041024
C -0.4633268003 -0.0393105843 2.5838258563
C -1.6505041651 -0.9237217386 2.0904596447
C -1.4424075303 -2.1064434153 1.1687700203
O -2.3228963384 -2.5642247815 0.4848821679
H 1.8662991097 -0.7731066552 0.7719269121
H 1.5769115137 -0.8859980048 -0.9850723402
H 1.8255837954 0.7077961686 -0.2223516023
H 0.0110268172 1.5854362656 1.0715546902
H -2.764580993 0.796303285 0.8727196211
H -1.1618412514 2.092145877 2.9261470019
H -2.2085100627 0.8475362268 3.713476148
H 0.3756707887 -0.3405061435 3.2122058024
H -2.3595083306 -1.2189552539 2.8734056414
H -0.439655147 -2.5868130701 1.2139898243

