# b3lyp 6-31G(2df,p) opt Freq 

 titel

0 1
C 0.0243625565 -0.0229063771 -0.035825752
C 1.5536545004 -0.0223296057 0.0552298834
O 2.026358273 1.3082656396 0.3105284142
C 2.0777094556 -0.9998792556 1.1084332208
C 2.8537318155 -1.9491964308 0.5880147848
C 3.0125003445 -1.7729982877 -0.8909100262
O 3.1233795155 -2.8859771237 -1.7204317834
C 3.7185907491 -0.5198357141 -1.3187927143
C 2.2045358754 -0.5312516965 -1.230619144
H -0.4244606509 0.2668035266 0.92172992
H -0.304238317 0.69021713 -0.7984220359
H -0.3548252952 -1.0165539737 -0.29383959
H 1.6484520478 1.597100335 1.1485084994
H 1.8669199407 -0.8583099298 2.1642028238
H 3.3644499707 -2.736804663 1.131708348
H 2.3131209858 -3.4009744045 -1.6339921625
H 4.2806943292 0.0486940062 -0.5876461908
H 4.1268827993 -0.529252468 -2.3239347028
H 1.6457030542 -0.4755530773 -2.1573425124

