# b3lyp 6-31G(2df,p) opt Freq 

 titel

0 1
C 1.3720700229 -0.1858870413 1.0966832464
C 0.9520314308 0.2990810767 -0.2932042807
C 1.6373119928 -0.4656291903 -1.4213446067
O 1.3296947799 -1.8711457493 -1.3409578984
C 0.6482928087 -2.1544050388 -2.5851240884
O -0.082409425 -0.9760610436 -2.8365509135
C 1.0782385604 -0.1223233155 -2.8477137208
C 1.99078189 -0.8353612886 -3.836726072
C 1.7142477508 -2.1306283957 -3.6804032351
H 1.1408874723 -1.2473530148 1.2167686865
H 2.4489884518 -0.0571097301 1.2541572396
H 0.851321514 0.3714633776 1.8811267423
H -0.1306196934 0.1947941123 -0.4211699132
H 1.1923679279 1.3647403506 -0.4076835463
H 2.7257808564 -0.334845971 -1.3755009079
H 0.0073723721 -3.0243924455 -2.4603381266
H 0.8082772621 0.9165371802 -3.0254457535
H 2.773607516 -0.3674471812 -4.4170478535
H 2.2044444593 -2.9962006117 -4.1024495082

