# b3lyp 6-31G(2df,p) opt Freq 

 titel

0 1
C 0.2500779596 0.1950713825 0.7539265631
C 1.522108695 0.0758167305 -0.0177850695
O 2.3923775965 -1.026910288 0.2894227644
C 3.5569489442 -0.1679136158 0.1399265102
C 2.6879056489 1.000395571 -0.2972975447
C 1.7888121355 0.5318954862 -1.4305358652
C 0.8760667321 1.5327363699 -2.0654864368
C 1.3491421029 2.8276578998 -2.5772782724
O 0.623284483 2.7460697682 -1.3478532789
H 0.4501437124 0.1875922149 1.8297732018
H -0.2637072579 1.1248113303 0.4987244748
H -0.4174908538 -0.6446467558 0.5285144044
H 4.0479340879 -0.0157867868 1.1080764307
H 4.2802555232 -0.5680945711 -0.58118738
H 2.8161897796 2.044624841 -0.0490700091
H 2.1707415614 -0.2172293511 -2.1239906796
H -0.0151414828 1.1106583909 -2.5338832942
H 2.4019401733 3.0859673123 -2.4781236423
H 0.8206801591 3.3118154011 -3.3968652066

