# b3lyp 6-31G(2df,p) opt Freq 

 titel

0 1
C -2.8921528995 1.9598076299 1.3753532246
O -3.2690451493 0.6092609289 1.1619327893
C -2.6972663232 -0.0074882762 0.0096650298
C -3.176566323 -1.4701832877 0.0570594354
C -3.3492424098 0.6275290992 -1.2405312918
O -2.8117953687 0.8456138981 -2.2890812105
C -1.2374578333 0.0734247742 -0.0295690954
C -0.0356591661 0.1354192368 -0.0608561334
C 1.4169802509 0.207414988 -0.1093357468
H -3.4315449964 2.2920334703 2.2647855485
H -1.8129916134 2.0550382398 1.5446354202
H -3.1700058487 2.6074014543 0.530677762
H -2.8224726593 -1.9270924987 0.9835123357
H -4.2700429318 -1.5039489061 0.046117782
H -2.7847273753 -2.028177495 -0.7958324777
H -4.4288440539 0.8407806399 -1.0620697954
H 1.8488869568 0.1814112376 0.8969581122
H 1.8327363464 -0.6360632223 -0.6710168178
H 1.7532705776 1.1294495789 -0.5954574109

