# b3lyp 6-31G(2df,p) opt Freq 

 titel

0 1
C 0.0306036239 0.0372311388 0.4166376634
C 1.2060523377 0.0188437585 0.1695230826
C 2.6346634564 -0.007730927 -0.109211443
C 3.1325442085 -1.3776290732 -0.5682635491
O 4.5377230391 -1.3119546272 -0.6194705497
C 5.105789478 -2.5420635396 -1.0544056427
C 4.534718639 -2.9435681475 -2.416093492
C 3.0074312908 -2.9101815359 -2.3302368289
O 2.5707350351 -1.6546871595 -1.8238953274
H -1.0100483724 0.0566193329 0.6253829916
H 2.8907568928 0.7132661861 -0.8935436377
H 3.2048972744 0.2688055114 0.7840218251
H 2.8318787442 -2.167713855 0.1472340944
H 6.1870461013 -2.387809781 -1.0913070555
H 4.8982906614 -3.3303524711 -0.3106456437
H 4.8711234487 -2.2307843468 -3.176074104
H 4.8850730363 -3.9417650385 -2.7013014271
H 2.5376701587 -3.0294780293 -3.3095621746
H 2.6459806861 -3.7222379162 -1.6766215416

