# b3lyp 6-31G(2df,p) opt Freq 

 titel

0 1
C -0.1126212076 0.1562883306 0.1991436598
C 1.3624292686 -0.016453263 -0.0965308492
O 1.9896446 -0.7821250653 0.9164250771
C 2.0474800078 -0.2776635782 -1.438051057
C 1.6143147739 0.6360850343 -2.615398439
O 0.5280559806 1.489861376 -2.2237337553
C 1.8615737422 1.8383432014 -1.8265381517
C 2.3629414936 0.9885964705 -0.6092749593
C 3.6219500786 1.3845143802 0.1065213488
H -0.2252905071 0.5851933152 1.2004845493
H -0.6123261455 0.7863621112 -0.5294438231
H -0.6032339241 -0.8266325251 0.2012523712
H 1.5223173433 -1.6233219691 0.9654258646
H 2.6756974339 -1.1513870384 -1.5589774296
H 1.7270107558 0.4306897878 -3.6733947735
H 2.2207495689 2.8257347915 -2.0943577391
H 3.9432141713 0.5928382969 0.784536665
H 4.4336130223 1.585496365 -0.6028908934
H 3.4658197835 2.2972201788 0.6955789844

