# b3lyp 6-31G(2df,p) opt Freq 

 titel

0 1
C -2.1942392317 1.9231509874 -1.6794380199
C -2.704071117 0.778424551 -0.8391801394
C -2.8118332707 -0.6924902381 -1.3876462149
C -2.8794129035 -1.0123373062 0.1306902779
O -2.5922298093 -2.3080202347 0.5615831827
C -4.1616307202 -0.2817497874 0.5375760713
C -4.0405880909 0.8906703827 -0.0942552444
C -1.8444049266 0.1560333735 0.3363477251
O -0.5206700027 -0.1645817986 -0.0050429793
H -2.1574593332 2.8534869292 -1.1014527815
H -1.1833019998 1.7118899214 -2.0398398328
H -2.837514121 2.0946114209 -2.5496228541
H -3.6888885097 -0.9433097496 -1.9873793983
H -1.8874168537 -1.0342566273 -1.8568070974
H -2.7737221143 -2.3656364874 1.5063542519
H -4.9294092744 -0.6500660193 1.2047206977
H -4.6886904049 1.7567581613 -0.0795738226
H -1.8929436149 0.6933888374 1.2934643074
H -0.3912362214 -1.0971794563 0.2077324104

