# b3lyp 6-31G(2df,p) opt Freq 

 titel

0 1
C -3.9867908716 2.7319671441 -1.6587641149
C -2.8032653301 3.0947078688 -0.7865722119
O -2.2811416299 1.9190920782 -0.0856457904
C -1.0466813951 2.0192139371 -0.8082903793
C -0.3988608642 0.7380938812 -1.2469287939
C 0.1481922414 -0.0508115516 -0.067974418
O 1.2406896514 -0.5551839222 -0.0397505167
C -0.3544054171 3.3080142209 -0.4774184422
C -1.4694207753 3.2914005401 -1.5064023348
H -4.8067937629 2.3500281184 -1.0435745528
H -4.3446948961 3.614998509 -2.199888658
H -3.7133094095 1.9635913963 -2.3880418193
H -3.0723964361 3.8801159543 -0.0684425328
H -1.1512691859 0.1114316971 -1.7464581249
H 0.4169724116 0.9272051354 -1.9496033804
H -0.5528655124 -0.1392089232 0.7905153661
H -0.5097842752 3.7692932932 0.4942547292
H 0.6428640373 3.4262447256 -0.8902649926
H -1.3445096104 3.6145183074 -2.5317502123

