# b3lyp 6-31G(2df,p) opt Freq 

 titel

0 1
C -2.1909892195 2.4474874785 -1.8881220086
C -1.0173763752 2.2350086197 -0.9558789716
O -0.9982554057 3.1850495704 0.1349900172
C -0.9393195082 2.1318480332 1.1099465159
C -1.0449741701 1.031934356 0.030095733
C -2.1319572655 -0.0793332429 0.057814311
C -1.0317245492 -1.1871582216 0.0320978054
C 0.0180490937 -0.0678404925 -0.0547501423
O 1.210004892 -0.0391415063 -0.1674890052
H -3.1423116603 2.3782499475 -1.3525689812
H -2.1239362613 3.4432065659 -2.3375685775
H -2.1852085181 1.7090623729 -2.697257165
H -0.0693322757 2.2736760949 -1.5101158883
H 0.0071252984 2.1341924202 1.6652826893
H -1.7791479235 2.1698587563 1.8153059077
H -2.7543395797 -0.0739816132 0.9553200917
H -2.7861910134 -0.0845864305 -0.8162453579
H -0.9476933665 -1.7905322318 0.9410217727
H -1.0400490723 -1.8645297666 -0.8266242662

