# b3lyp 6-31G(2df,p) opt Freq 

 titel

0 1
C -4.4020265482 2.09072579 1.4217421459
C -3.0910106717 2.3260494936 0.7305170698
C -2.9388981017 3.1873201753 -0.491940145
C -2.525078772 1.7394510244 -0.5705885112
C -1.1506033098 1.5895393375 0.0644156573
C -1.7087351678 2.1756756492 1.394676423
O -0.810519275 0.19278448 0.1637839384
C 0.410124858 -0.0789745898 0.6433659333
O 1.221675569 0.7244516445 1.0143251539
H -4.6171586416 2.8873035185 2.1444525055
H -5.2285000343 2.0663437171 0.7037236867
H -4.401780756 1.1396925504 1.9662462337
H -3.8615101098 3.4243794144 -1.0128670243
H -2.1921161402 3.9782221339 -0.5330316717
H -2.9597011689 1.0414368032 -1.2758095866
H -0.314412313 2.1170822429 -0.4009186425
H -1.6979974966 1.412067041 2.1756640367
H -1.2357698665 3.0857286854 1.7758396503
H 0.5552606462 -1.1708442415 0.6418199169

