# b3lyp 6-31G(2df,p) opt Freq 

 titel

0 1
O -0.7035897304 0.4281020417 0.6799859317
C -2.0908927147 0.2488191701 0.4711330725
C -2.9852099411 1.1282938288 1.418731966
C -4.3206120821 1.4198179568 0.6737438088
C -3.9014547866 1.3122570538 -0.7721427227
C -4.4303201538 0.6843679386 -2.077020292
C -3.0506911003 -0.067686888 -2.2060631191
C -2.6184964207 0.6153851394 -0.8948723068
O -2.7083450758 2.0378419924 -1.0961856955
H -0.497018747 1.3299117696 0.4074946434
H -2.2738006853 -0.8168179724 0.6525108632
H -3.1411471864 0.6402064372 2.3834447083
H -2.4503989575 2.0622489375 1.6102573999
H -5.0719046716 0.6507504148 0.8878714183
H -4.7539626665 2.3858429162 0.9517546882
H -5.2644826055 -0.0021071718 -1.9146370263
H -4.6906840787 1.3915230057 -2.8671890896
H -3.1570539882 -1.1504644214 -2.1079546183
H -2.4366567478 0.1582739009 -3.0801448701

