# b3lyp 6-31G(2df,p) opt Freq 

 titel

0 1
C 1.3182193064 -0.8774961126 1.0134091963
C 0.9649691064 0.0666466701 -0.1378058063
C 1.5733226445 1.4640402472 0.0234189015
O 1.1521681155 2.1119512348 1.21877788
C 1.2701207549 2.3375576646 -1.1792195735
O 1.9821645904 2.0486431661 -2.3777690983
C 2.2545546575 3.2993128158 -1.7111068126
C 1.8555304392 4.5051822786 -2.3841845943
C 1.5397308553 5.5257134753 -2.934877676
H 0.8256407793 -1.8467191819 0.8937352488
H 2.3983790902 -1.0539650712 1.0580387967
H 1.0129822092 -0.4516448324 1.9730327784
H 1.3073937313 -0.3449813504 -1.0943745773
H -0.1277476782 0.1687619917 -0.2210260331
H 2.6624188027 1.3729144898 0.1146847175
H 0.1882526548 2.1290044395 1.223501852
H 0.2133851 2.5723702209 -1.3314601737
H 3.229927759 3.3358224743 -1.2271536526
H 1.2582362014 6.4256951798 -3.4235937235

