# b3lyp 6-31G(2df,p) opt Freq 

 titel

0 1
O 1.6747710089 0.8040386183 -0.0414187939
C 0.3280400242 0.4106386391 -0.2245559955
C -0.0082752507 0.2095851976 -1.6933525643
C -1.4607006736 -0.3710515165 -2.0404858988
C -0.6965283091 -1.1751325289 -3.0949644029
C -0.0522061567 -0.5270360947 -4.3582527129
C 0.8692141103 -1.6063227708 -3.8013146102
O -0.350757209 -2.5144206616 -3.6611643793
C 0.6069240135 -1.108570804 -2.3390950573
H 2.227951629 0.130811403 -0.4535278395
H 0.0928499041 -0.5069844344 0.3399031952
H -0.2852503732 1.2162202616 0.1948094235
H 0.2029335969 1.1283792864 -2.2415292172
H -1.8308088783 -0.9862588553 -1.2152135109
H -2.2393420657 0.3204944458 -2.3717791801
H -0.542628614 -0.7779258539 -5.2981017187
H 0.2733701041 0.5134249948 -4.3088252788
H 1.7429855877 -2.092802713 -4.2417548586
H 0.7087876116 -1.9021620235 -1.5942846698

