# b3lyp 6-31G(2df,p) opt Freq 

 titel

0 1
O 0.2988554926 -0.2646330712 0.0944319972
C -0.7813597117 0.5767329251 0.4439465516
C -2.1069313205 -0.2182399715 0.5299390429
C -3.084418132 0.9284607687 0.8529927946
C -2.3796780433 1.4203437108 2.1529341644
O -2.966387282 0.7525225166 3.2714004786
C -2.6927125397 -0.6456799644 3.0760844725
C -1.6425971408 -0.6721078803 1.9698653206
C -0.9956412048 0.7474644688 1.9705298683
H 1.1160871659 0.1852232655 0.3314308809
H -0.7892859846 1.482880688 -0.1791442459
H -2.3771387091 -0.9341599944 -0.2458869027
H -3.1116557496 1.679737862 0.0571846976
H -4.1081443901 0.6146832698 1.0682508569
H -2.4096772947 2.4918543178 2.3493065374
H -2.3200000006 -1.0646209847 4.0183464044
H -3.6116503003 -1.1841676222 2.8045662797
H -0.9569229044 -1.5147018803 1.9659581832
H -0.1990180403 1.0404858459 2.6555070279

