# b3lyp 6-31G(2df,p) opt Freq 

 titel

0 1
C 2.1147508263 -0.8948042062 -1.4441208776
C 2.0677774241 -0.7456254408 0.0772423023
C 1.2543861192 0.4218944104 0.706111456
C 1.9704633496 1.6278371953 0.0613012978
C 3.2708908888 1.3232360415 0.8245586438
O 2.7818198711 1.5918382032 2.1495133489
C 1.9289482171 0.4620191743 2.187306257
O 2.8770171261 -0.5911107054 2.1720439923
C 3.3388994512 -0.3108607661 0.8416152883
H 2.6195260022 -1.8307961102 -1.7052837095
H 1.1045750356 -0.9393219422 -1.865601664
H 2.6520203833 -0.0912553608 -1.9529887275
H 1.7589703042 -1.7029698931 0.5033378503
H 0.1672802093 0.3735071946 0.6727292296
H 2.0083862654 1.5787345978 -1.0258555352
H 1.5898884558 2.603707611 0.364213076
H 4.1855957308 1.8751995876 0.6213896279
H 1.3033826927 0.4441170456 3.0761872198
H 4.2969536372 -0.7880573265 0.6449196839

