# b3lyp 6-31G(2df,p) opt Freq 

 titel

0 1
C 2.3007212254 1.4781342535 0.4398459823
C 1.5063869335 0.1911162916 0.3655230944
C 2.0769572137 -1.018193748 1.0818255103
C 1.0544608922 -2.1703133084 1.0447412266
C 1.1047499891 -2.113848253 -0.530829113
C 2.0841106262 -0.9419136099 -0.4410276087
O 3.181455698 -0.7955429469 -1.2697979582
C 1.5876590096 -3.4704268507 1.5817637722
O 1.0274452882 -4.1672645389 2.38845209
H 2.0834876782 2.0191621749 1.3662310786
H 3.3754896404 1.281946153 0.4020663251
H 2.0545279799 2.1425753884 -0.3963914998
H 0.4238060286 0.3235381827 0.3767066285
H 2.8910424837 -0.9190353558 1.7902748191
H 0.0850587204 -1.9611175351 1.5046290425
H 1.5815506782 -3.0043943606 -0.9505912441
H 0.1513838412 -1.9431161474 -1.0405831465
H 2.9425622838 -0.2111795293 -1.9982312151
H 2.5803231397 -3.7599989801 1.1610845558

