# b3lyp 6-31G(2df,p) opt Freq 

 titel

0 1
C 1.48994301 0.2918277864 -0.1963194878
O 0.1441672558 -0.0894548504 0.0563833622
C -0.4268482278 0.5495544988 1.1281348178
C -0.7784789265 2.0275471923 1.1523131687
C -1.8484418661 0.9845187058 1.3513527785
O -1.8537040099 0.5150738917 2.7061163917
C -0.5236533198 -0.0097786296 2.5334382136
C 0.4489346973 -0.1292350065 3.6558203622
C -0.1540585052 -1.3716295592 3.0047971593
H 2.1566504583 0.0090542097 0.6295446046
H 1.8021169935 -0.2361031454 -1.0997566254
H 1.5743985216 1.3741145212 -0.35975411
H -0.4858653483 2.6717798149 1.9765397175
H -0.7843412532 2.4881230162 0.1683990141
H -2.755431305 0.8824817772 0.7693533824
H 1.4926957618 0.1064717321 3.4749174163
H 0.0906625929 0.1315258116 4.645886301
H 0.4701099726 -1.9786181307 2.3575132835
H -0.9001950821 -1.9197141662 3.5694259498

