# b3lyp 6-31G(2df,p) opt Freq 

 titel

0 1
C -1.1340929595 1.1823171641 -2.776969202
O -1.5645298263 1.2971438957 -1.4018051739
C -0.3929116892 1.2349835774 -0.6054222142
C 0.1804014915 -0.1996887476 -0.4268466506
C 1.5955414936 0.1500911365 0.0289257093
O 1.9738450069 1.2280753022 -0.8567252498
C 0.7863008808 1.6549886871 -1.5034341615
C 0.3164850596 0.72028466 -2.6542879383
C 0.2882491666 -0.6521977664 -1.9150082228
H -1.776738335 0.4602114316 -3.2920942831
H -1.2322746898 2.1559812932 -3.2789277948
H -0.550016004 1.7941990093 0.3178888331
H -0.3660779246 -0.8710199305 0.2353309327
H 1.636174024 0.4956173678 1.0722771141
H 2.3057541693 -0.6751381839 -0.0909983353
H 0.8728568063 2.7106733007 -1.7640977468
H 0.8910329614 0.7494677772 -3.5799474451
H -0.5668816763 -1.2558686091 -2.2301171329
H 1.1951955446 -1.2374861053 -2.087768478

