# b3lyp 6-31G(2df,p) opt Freq 

 titel

0 1
C -1.38003925 -3.4648089377 1.3576201964
C -1.1769408654 -2.7563092876 0.0112768606
O -1.5627146192 -3.6163506625 -1.0620397975
C -1.9955066621 -1.4445875453 -0.1183268802
C -1.0151866614 -0.2887737425 0.1912082441
C 0.3380983369 -0.9249512767 -0.0348725523
C 1.5909948026 -0.167111953 -0.1084883552
O 1.6665074001 1.0351813501 0.0184365639
C 0.2488885763 -2.2571363427 -0.136902481
H -0.7086545877 -4.3268218446 1.4556164629
H -1.176603783 -2.7912612209 2.1956115728
H -2.4124422198 -3.819676387 1.4353175257
H -1.1983006545 -4.4922130809 -0.8944630333
H -2.3348637795 -1.3835141339 -1.1556346454
H -2.8808063844 -1.4441893283 0.5220230764
H -1.1672313696 0.5907544213 -0.4404331752
H -1.1018738881 0.0618698259 1.2271349585
H 2.4978588138 -0.7848912709 -0.2965129024
H 1.087709365 -2.9324736328 -0.2815181488

