# b3lyp 6-31G(2df,p) opt Freq 

 titel

0 1
C 1.839518606 -0.8571578621 -0.8367030226
C 1.2634671465 0.0556343531 0.2536223327
C 1.5958294144 -0.3958917206 1.7071536746
C 2.8043656542 0.4589029601 2.2094773293
C 4.1256979763 -0.2710851792 2.0757781711
O 4.9288715543 -0.3966086115 2.9635200763
C 2.7638797986 1.6863457536 1.3045287531
O 1.4702229694 2.2961217192 1.2676386939
C 1.8539786378 1.4511908411 0.1753657843
H 1.4290749911 -1.8678284622 -0.7528037718
H 1.5959825215 -0.4798440848 -1.835574101
H 2.9304512729 -0.9348631934 -0.7706541933
H 0.1763020682 0.1049281695 0.1238801784
H 0.7462763236 -0.2027760757 2.3633776305
H 1.8044001694 -1.4690714171 1.7587456992
H 2.6986330902 0.7407277964 3.2608357731
H 4.3203812971 -0.7064792838 1.0676333279
H 3.6059311172 2.3731083147 1.2658498416
H 1.9670486312 1.9519438227 -0.7839122874

