# b3lyp 6-31G(2df,p) opt Freq 

 titel

0 1
O 1.0567920202 1.2375741466 -1.3473167255
C 2.0772257971 0.3092339359 -1.1793931324
C 1.967342554 -1.030640688 -1.9917375249
C 3.4414214821 -0.8722122677 -2.3757923317
C 4.5306176125 -1.867624694 -2.0880275469
C 4.1848730362 -1.4956949827 -3.513751242
C 3.4313732125 0.5910143624 -1.9237133256
C 2.3045908115 0.042300969 0.2867059293
O 1.6559572916 0.5920566373 1.145671719
H 0.758480396 1.4688333949 -0.4524376023
H 1.6676627038 -1.9323735695 -1.4489133325
H 1.2846635831 -0.8723312323 -2.8312441026
H 5.4671685409 -1.5011830988 -1.6788383459
H 4.2456039767 -2.8542259719 -1.7355669965
H 4.8875326101 -0.8785067701 -4.0646966095
H 3.6666563927 -2.2308103444 -4.1214099322
H 4.2741248293 0.9546954212 -1.3278168397
H 3.2388986345 1.2922783536 -2.7404543778
H 3.1017729351 -0.6876559515 0.5331648097

