# b3lyp 6-31G(2df,p) opt Freq 

 titel

0 1
C -2.6439127371 -4.2232338419 3.8041294054
C -2.6936101233 -3.3840151002 2.5681383459
C -3.7670863267 -2.4844882575 1.983354553
C -2.3756318301 -1.9228201543 2.3087689936
C -1.4593968369 -2.2691179328 1.1358795828
O -0.096944579 -2.3867582216 1.4827028373
C -2.2486686152 -3.6044003082 1.0459916858
C -3.6756563946 -3.1637424704 0.6175818274
O -4.6062958398 -4.2070198197 0.4281462926
H -3.2170441087 -5.1518441208 3.6941001914
H -1.6177008436 -4.5062038259 4.0681754508
H -3.063680835 -3.6770978842 4.6562199472
H -4.6540641888 -2.0977255333 2.472734718
H -2.2501332524 -1.1273686873 3.0349335742
H -1.4789166283 -1.6283243609 0.2477867204
H -0.0466400155 -2.8733935323 2.3137074866
H -1.7892658796 -4.4925668382 0.6146184796
H -3.7468394807 -2.5438101176 -0.2825973245
H -4.6351713146 -4.7256152728 1.2406351127

