# b3lyp 6-31G(2df,p) opt Freq 

 titel

0 1
C -3.1950409775 1.4759960294 1.3153053558
C -1.8114999784 0.8330953251 1.2609859432
C -1.8298536528 -0.7463267139 1.2704848615
C -0.9998660071 -1.1434568693 0.0209589495
C -1.8017113817 -0.7260707669 -1.2192068108
O -1.8213909332 0.7256614085 -1.1686229449
C -1.0324264938 1.1252421306 -0.0401537808
C 0.0184622335 0.0069026081 0.0185286753
O 1.2134760554 0.0247692954 0.0783450715
H -3.7421162615 1.1425808228 2.2033235464
H -3.1242955043 2.5680060122 1.3540027073
H -3.777260954 1.2087407219 0.429284155
H -1.2107505532 1.192940696 2.1053439073
H -1.3841389495 -1.1448878614 2.1851873865
H -2.8507256647 -1.1353007783 1.2002424446
H -0.5953802763 -2.1531434127 0.001435331
H -1.3235387504 -1.0484721099 -2.1526966153
H -2.8327533046 -1.0987190089 -1.2046777177
H -0.676980596 2.1434956114 -0.1876517753

