# b3lyp 6-31G(2df,p) opt Freq 

 titel

0 1
C 1.378536102 2.4649377909 2.3237896397
C 1.7476107345 2.4375428693 0.8409878384
O 2.866706472 3.270043778 0.5502149945
C 1.9787349651 1.0215333287 0.3445006188
C 3.2084971574 0.2120926836 0.7664300654
C 3.3935330144 -0.7620917744 -0.3792968188
C 2.503327218 -0.5699533312 -1.3558306144
C 1.562550923 0.5256547034 -0.9799598887
O 0.792345102 0.229164861 0.2161247103
H 0.4950851789 1.8471817939 2.5072283387
H 2.1973644056 2.0717102285 2.9399158676
H 1.168394435 3.4888382569 2.6448981883
H 0.9145259381 2.850594336 0.2613428553
H 3.5021673196 3.1743501007 1.2668174514
H 4.0864727998 0.860298142 0.8847699005
H 3.0507199 -0.3016004705 1.7220960315
H 4.1542174881 -1.5345368985 -0.363775711
H 2.4323035561 -1.1316063845 -2.278664832
H 1.0460540705 1.1350261863 -1.7156211654

