# b3lyp 6-31G(2df,p) opt Freq 

 titel

0 1
C -0.9007188596 3.9621857687 1.6282380237
O -2.0348847813 3.1439246203 1.331723753
C -0.7550639008 2.7326185637 0.842189549
C -0.5747800927 2.7489177778 -0.6650548673
C -1.2176980783 1.5118461078 -1.3102955083
O -0.4413233525 0.349962385 -1.0629172864
C 0.8259427892 0.4018272214 -1.6879405417
C 1.5187185177 1.725415303 -1.5172295844
C 0.8878789716 2.7961445557 -1.040579044
H -0.8792113809 4.928161653 1.1237612005
H -0.5963846274 3.9809840658 2.673744993
H -0.3514895367 1.8479125928 1.3350016311
H -1.0856315943 3.6440894371 -1.043852167
H -2.2058303225 1.3195232979 -0.8839799827
H -1.3327151521 1.6753912825 -2.3937800831
H 1.4203932764 -0.4023735616 -1.2381325217
H 0.7378970338 0.1647486474 -2.7650887831
H 2.5630998348 1.7702806158 -1.8152720674
H 1.4158903358 3.7358348357 -0.9024284831

