# b3lyp 6-31G(2df,p) opt Freq 

 titel

0 1
O 1.2105194662 0.7216998134 0.0555011966
C -0.0727274884 0.1748615191 0.2681578459
C -1.1933699151 1.2304020153 0.3373511324
C -1.1741645894 2.0327515083 1.688787796
C -2.2540135091 1.0640782972 2.2466612894
O -3.3800219616 1.618369292 2.8831670039
C -2.5464553457 0.5912981224 0.8098171643
C -1.2454766978 2.0238466183 -0.8773813363
C -1.3167835462 2.6831650779 -1.880619085
H 1.3904460672 1.3514537331 0.76126127
H -0.2597902775 -0.4914935921 -0.5798559826
H -0.1045082129 -0.4374992703 1.184379091
H -0.2187383235 2.1034135823 2.2197631572
H -1.5901358115 3.0335854647 1.5608708538
H -1.8079452539 0.2675978581 2.8577741462
H -3.1327164645 1.870848397 3.7784962922
H -2.6744482316 -0.4799550299 0.6358072715
H -3.4024164495 1.1320864793 0.4030682574
H -1.3680814952 3.2635914038 -2.7681739241

