# b3lyp 6-31G(2df,p) opt Freq 

 titel

0 1
C 1.4472757758 0.0198275914 -0.1308200221
O 0.0425439964 0.1320882509 -0.0157921808
C -0.4101034589 0.7468682312 1.1865204388
C 0.0490372034 2.1374387247 1.3054834588
C 0.4369835503 3.269850563 1.4125831701
C -1.9268699835 0.6453696034 1.1372398935
O -2.4780593246 1.2366459703 0.0005421065
C -2.7291713014 0.7656556818 2.3885896166
C -2.5920131459 -0.5842397698 1.7063427481
H 1.8678125844 -0.5843071974 0.687369869
H 1.6474418452 -0.4814522278 -1.0802938398
H 1.9354784076 1.0026247146 -0.1285985299
H -0.0399247624 0.178256884 2.0554792179
H 0.7652260597 4.2757525018 1.5060477229
H -1.9950797272 0.8693950113 -0.7507221419
H -2.2110022688 0.9333253676 3.3265338315
H -3.6781350566 1.2805539618 2.2948997318
H -1.9806778305 -1.3461756255 2.1780003675
H -3.4532501129 -0.9560748075 1.1638570115

