# b3lyp 6-31G(2df,p) opt Freq 

 titel

0 1
C 0.7369640646 -0.7462479972 0.5078132949
C 0.5173942911 0.7239349437 0.1602333584
C 1.7539135419 1.3878432304 -0.4090968762
O 2.7940806136 0.7781693581 -0.5575713245
C 1.7023804799 2.8489352227 -0.8063185237
C 3.0351639211 3.6118603222 -0.6350803938
C 2.6173429569 3.2282322363 -1.9922733515
C 0.4943160583 3.7000234873 -0.6747751429
O -0.5864126105 3.3731950462 -0.2489882441
H 1.5324060256 -0.8619822862 1.248479267
H -0.1806173278 -1.180726669 0.913931965
H 1.0311993819 -1.3205048801 -0.3744415067
H -0.3005018216 0.857270923 -0.557981542
H 0.1900162031 1.3059292152 1.0301316223
H 2.9643697273 4.6504984458 -0.3311434139
H 3.8126039362 3.0267757125 -0.1597214635
H 2.2447434401 3.9898444297 -2.6684974704
H 3.1068895543 2.3788237592 -2.4522033008
H 0.669236104 4.7455602303 -1.0246940238

