# b3lyp 6-31G(2df,p) opt Freq 

 titel

0 1
C -2.0298895935 -0.0551417631 -2.2305225629
C -2.1358669722 -0.0461613624 -0.7149931991
C -1.27842428 0.9584537291 0.1416027465
C -1.5438617365 -0.0105821766 1.3486289765
C -0.644281839 0.024206263 2.5734130128
O -0.8918973166 -1.0681031711 3.4465704191
C -1.2265742225 -0.989701191 0.1560828832
C -0.1097998509 0.0115922321 -0.1865016444
O 1.0308796669 0.0374957971 -0.5307149637
H -2.5000557584 -0.9533790708 -2.6445586194
H -2.5430057546 0.8127703239 -2.6579688455
H -0.9901073981 -0.0325389394 -2.5710069712
H -3.1777347947 -0.0712163653 -0.3816033156
H -1.318881621 2.0461715154 0.1354321801
H -2.5969733991 -0.0451536282 1.6432996805
H 0.4152975648 0.0743454031 2.2800759141
H -0.8606767105 0.9243387412 3.1592934444
H -0.6127384807 -1.8725696329 2.9977320389
H -1.2140424334 -2.0787434942 0.1609691754

