# b3lyp 6-31G(2df,p) opt Freq 

 titel

0 1
C -2.390130562 2.7491054626 1.5406618223
C -1.1290546971 2.3568568452 0.8045924531
C -1.0552648955 2.4251039007 -0.6941272287
C -1.0871743001 1.0850538271 -0.0059225825
C -2.0586964215 -0.0893584938 -0.1141035918
C -2.8707126615 -0.2588564688 -1.3783530954
O -0.895379323 -1.0008334401 -0.0833292932
C -0.0076413125 0.0488627869 0.008003839
O 1.1801061139 0.0014885791 0.077520959
H -2.4631628809 2.2389653028 2.5068891341
H -2.4086837544 3.8274667095 1.729484859
H -3.285150807 2.4992229852 0.9613203376
H -0.2016680464 2.5726075084 1.329379112
H -1.9503099767 2.7199459841 -1.233872909
H -0.1216320765 2.7155571468 -1.1634039976
H -2.6624091677 -0.2612945129 0.7824816182
H -3.2902564146 -1.267646566 -1.4307010403
H -3.7014918718 0.4548068247 -1.393462805
H -2.2516215748 -0.0910801813 -2.2640239308

