# b3lyp 6-31G(2df,p) opt Freq 

 titel

0 1
O 0.4038727593 0.2179735384 0.3877627476
C -0.9393026557 0.6238839049 0.4605445175
C -1.045751886 2.0445029833 -0.1154149166
O -2.3386253469 2.1699049433 -0.6785400638
C -2.6388856122 0.9123215659 -1.274421176
C -2.099291073 -0.1455675488 -0.3154583108
C -2.8414145042 -0.2675203863 1.0165827956
C -2.0076325603 -1.0402883177 1.9920974565
C -1.697094957 0.4193345366 1.7669572404
H 0.5148263599 -0.5465055374 0.9619871627
H -0.9253958151 2.8300046883 0.6356610389
H -0.2571784658 2.1573880916 -0.8761373416
H -3.7215643816 0.8685488761 -1.4265328915
H -2.1458414463 0.817735928 -2.2558462394
H -1.8397198667 -1.0855719916 -0.8100312223
H -3.9050454299 -0.1148448562 1.1531050834
H -2.4730470267 -1.2624193324 2.9468882887
H -1.340134159 -1.8255616024 1.6395636226
H -1.7460560929 1.1400779761 2.5754875981

