# b3lyp 6-31G(2df,p) opt Freq 

 titel

0 1
O -1.8701676033 2.8850178833 -1.4390706279
C -1.5439732704 1.5126050073 -1.2346934447
C -2.785310536 0.6310800314 -1.4042600483
C -2.5055309939 -0.832372847 -1.7532975672
C -1.632991026 -1.6444630288 -0.8404712191
C -0.7019226698 -1.292935716 0.057028598
C -0.1786660984 0.0299322976 0.4743349478
O 0.8261753297 0.0554574071 1.1622097098
C -0.8627725118 1.3478494021 0.1282590694
H -2.466973843 3.1548677834 -0.7316670945
H -0.827172726 1.2857390057 -2.0340831219
H -3.3926113995 0.6838792589 -0.4896822555
H -3.3858861496 1.0663799112 -2.2094553008
H -3.4632519176 -1.3583984592 -1.8534757216
H -2.0573709648 -0.8840414565 -2.758456466
H -1.7609556032 -2.7177396078 -0.9811636245
H -0.1581412794 -2.0892729251 0.5592214004
H -1.6189105657 1.5160243907 0.9119567279
H -0.1066445512 2.1269059416 0.2496041486

