# b3lyp 6-31G(2df,p) opt Freq 

 titel

0 1
C -1.5438067466 1.5282351643 -0.8795644824
C -0.3755589051 1.9752517772 0.0002557293
O -0.8960391059 2.8388523956 0.9975647977
C 0.0806652779 3.6153584415 1.6916796035
C -0.6364022662 4.2767865159 2.8684956877
C 0.7153796194 4.6049302228 0.8106267788
C 1.2309347338 5.4195331993 0.0926944935
C 0.2664610198 0.7482414443 0.6443404921
O 1.1233248441 0.0783182346 0.1317204385
H -2.2972254921 1.0049076817 -0.2826439771
H -2.0130042369 2.4034425421 -1.3351990262
H -1.1866997489 0.8587865257 -1.6659186223
H 0.3795683206 2.4859543707 -0.6115256948
H 0.8701231132 2.9516926017 2.0820329003
H -1.0747983655 3.507268621 3.5085494618
H 0.0660371904 4.8752656381 3.453142932
H -1.4331862168 4.9270980106 2.5000654095
H 1.6909467487 6.1371815559 -0.5413240839
H -0.1662028437 0.5000182269 1.6430154021

