# b3lyp 6-31G(2df,p) opt Freq 

 titel

0 1
O 1.2859479317 -0.0843339945 0.0255299651
C 0.0984468134 -0.0440570633 0.0498239512
O -0.7776430423 -1.0998742724 0.123446817
C -1.9371159543 -0.2073419532 0.057921796
C -1.0042064372 1.0194894815 -0.0038996577
C -1.0283212241 1.9105449778 -1.2463185122
C -2.2216281873 2.8427172043 -1.28032855
C -2.1832717704 4.1535539403 -0.5331828674
C -2.1540587054 4.1402216055 -2.0424951823
H -2.5225591725 -0.4063133364 -0.8432837565
H -2.5572412294 -0.3132975287 0.9499234811
H -1.0259961432 1.6288081227 0.9043356453
H -0.1010984045 2.4956880555 -1.2671326159
H -1.0149642572 1.2807202485 -2.1457677193
H -3.1850596227 2.3379508605 -1.295898964
H -3.0845158196 4.4960902151 -0.0371789576
H -1.265991118 4.4140408554 -0.0144244834
H -3.0364396525 4.4709219621 -2.5787155491
H -1.2182703144 4.3904338395 -2.5316570004

