# b3lyp 6-31G(2df,p) opt Freq 

 titel

0 1
C 3.0141612326 2.9873383622 -4.6129639878
C 2.1951414101 3.7274157635 -3.5803757489
O 1.742523188 4.8341948997 -3.7757383529
C 1.9294975307 3.0550447203 -2.2413859126
C 2.0485676662 1.5224145275 -2.0627252807
C 1.0450388306 1.5826010456 -0.8916137193
C 0.4999322193 2.4436169515 -2.0612620766
C -0.8285689015 3.0969240403 -2.2595766307
O 0.9082395936 1.3439842136 -2.9933595819
H 3.9883738646 2.7036090582 -4.1974216005
H 2.4928441694 2.0618630112 -4.8766355649
H 3.1550985586 3.6119180102 -5.4959963742
H 2.2778770339 3.6902115395 -1.4209089279
H 2.9109373034 0.8706474679 -2.200654222
H 0.4974321661 0.6564356982 -0.7122138691
H 1.3442670915 2.0924152709 0.027606427
H -1.008546456 3.8247133942 -1.4625847657
H -0.8566829196 3.6247592324 -3.216415615
H -1.6269595013 2.3492362229 -2.2374038964

