# b3lyp 6-31G(2df,p) opt Freq 

 titel

0 1
C 1.5867455217 0.0038555694 -0.0895118175
C 0.1332007923 -0.0571682816 -0.0822293552
C -1.0704417054 -0.104274788 -0.0729285196
C -2.5115087199 -0.1224783955 -0.1091542425
C -3.1538991847 0.5684247406 -1.3077083276
O -2.7488490079 0.0150178583 -2.5436316655
O -3.1960008053 0.1353643216 1.1353056712
C -3.276729549 -1.1836736876 0.5959595753
C -2.6323594234 -2.2916157408 1.3847308619
H 1.963145902 0.5388518723 0.7892916889
H 2.0294689478 -0.9981961461 -0.0844262732
H 1.9537164341 0.52620316 -0.9796054765
H -4.2450533275 0.5429066242 -1.1697845111
H -2.8434575777 1.6174115516 -1.3297753261
H -2.9991201219 -0.9147496179 -2.5489217524
H -4.2593131336 -1.4208892291 0.1784932638
H -3.2263836319 -2.514433977 2.2770586063
H -2.5745945472 -3.2044136512 0.7820379756
H -1.6239970327 -2.0109375131 1.6945114542

