# b3lyp 6-31G(2df,p) opt Freq 

 titel

0 1
C -0.0419221075 -0.009816982 -0.1412143681
C 1.4478282437 0.02280239 0.0718022115
C 2.2606397411 -0.9158976895 0.9295227277
O 3.173800764 -0.2231357609 1.7371626641
C 2.9017556375 1.1736051646 1.6047217235
C 2.2453681991 1.3451787039 0.2252297162
C 3.2618010054 1.2498244124 -0.9241426698
O 3.5717673497 -0.1388950746 -1.0576303873
C 2.4754604999 -0.8704262316 -0.5790711158
H -0.5760770745 0.4592835601 0.6932579393
H -0.3264854648 0.5153852069 -1.0604016972
H -0.4035909547 -1.0395088272 -0.2256533658
H 1.8391483831 -1.8039584194 1.3913728007
H 2.2182690708 1.5040701 2.4022188423
H 3.8477139772 1.7137202545 1.7106924561
H 1.6206308704 2.2391288921 0.163225441
H 2.8250212586 1.6324624272 -1.8596507244
H 4.1951940345 1.7873282344 -0.7300890213
H 2.2069566464 -1.726093281 -1.1917344828

