# b3lyp 6-31G(2df,p) opt Freq 

 titel

0 1
C 0.9152758277 1.0404615453 -0.0010632542
C 0.9180151584 0.5346680181 1.4302653212
C 1.4773055529 1.5814258825 2.3999203551
C 0.34935943 2.5701734669 1.9075779392
C -0.1597434929 1.4717032405 0.9721240269
O -1.4958650375 1.1047576454 0.8768464478
C -1.6546821971 -0.3148796606 0.9894913743
C -0.7320831478 -0.9444419313 2.0382476518
O 0.6543425115 -0.8014146097 1.7055293396
H 1.6676128866 1.742566101 -0.3530048457
H 0.6157295105 0.2905257296 -0.7241978588
H 1.3420773537 1.3010805866 3.4467590688
H 2.5166182724 1.8860649528 2.2437934883
H -0.366891511 2.7985816293 2.6991721132
H 0.6727408492 3.5012924925 1.433349723
H -2.6994259381 -0.4836259182 1.2665142779
H -1.4768165992 -0.7955636075 0.0155191608
H -0.936068692 -0.4967407484 3.0228810519
H -0.9274661272 -2.018752325 2.0980235688

