# b3lyp 6-31G(2df,p) opt Freq 

 titel

0 1
C 1.3572877999 4.1888197709 -1.7086896971
C 2.1236583274 2.9295548322 -2.0368195041
O 3.2988581618 2.8702137792 -2.2960596617
O 1.3037840708 1.8545758515 -2.0097348857
C 1.9109361482 0.5944615441 -2.3353545656
C 0.8303247595 -0.5195961134 -2.2508958888
C 1.6077952983 -1.1625870153 -1.0929686936
C 3.0085784148 -1.4696026796 -1.5388759944
C 2.6600928736 -0.0536750425 -1.1696803636
H 0.8456231525 4.080835943 -0.7484851473
H 2.0443414809 5.0334381828 -1.675793293
H 0.5892487491 4.365224031 -2.4675960619
H 2.4743038118 0.7069986524 -3.2648433635
H -0.122434363 -0.0853573732 -1.9429767115
H 0.6769854863 -1.1340804248 -3.1437992523
H 1.1652642968 -1.630142273 -0.2223134177
H 3.6311234705 -1.9902004609 -0.8183905283
H 3.2118161153 -1.7367978339 -2.5741863296
H 3.1736556256 0.4866880995 -0.3854898901

