# b3lyp 6-31G(2df,p) opt Freq 

 titel

0 1
C 1.2708766684 0.1136371193 -0.0190475033
O -0.170060842 0.0045858927 -0.1474227616
C -0.3131272824 1.2715852501 0.5508471783
C -1.3309836789 2.2535753157 0.0738047194
C -1.102512706 3.5620189988 0.1931703801
C 0.135698122 4.2128107045 0.7923396657
O 0.8532528665 3.44860813 1.7550262435
C 1.806721032 2.5151121858 1.2509141591
C 1.1365692271 1.6314484738 0.2139473462
H 1.6390269642 -0.4408416072 0.8573138749
H 1.7919451501 -0.2296486192 -0.9171085142
H -0.4413032971 1.0716463608 1.6266524379
H -2.2592780483 1.8774001327 -0.3469150462
H -1.8541846139 4.2714364755 -0.1474630416
H 0.8096559247 4.5528555311 -0.0137391098
H -0.1807508221 5.117082879 1.3251343846
H 2.6823222231 3.0406756685 0.8395691829
H 2.1327391741 1.9430707471 2.1258753268
H 1.1415515585 2.1253002709 -0.7620743328

