# b3lyp 6-31G(2df,p) opt Freq 

 titel

0 1
C 1.4125489631 -0.0095859086 -0.1384331662
O 0.0495581624 -0.1576290082 0.1932968284
C -0.3681949445 0.6460974688 1.2851159045
C -1.8935351428 0.7518085328 1.2206694818
C -2.638338324 1.5526066823 2.2539386054
C -2.4929947032 0.0600758279 2.4325720357
C -1.3288662664 -0.3991996787 3.2808789957
O -0.4920449469 0.6621961223 3.7774330474
C -0.0635645077 -0.0558962171 2.6154853795
H 2.0832425822 -0.3130118496 0.6791007453
H 1.6049062266 -0.6518813951 -1.0012221163
H 1.6513958111 1.0309162872 -0.4075153015
H 0.1201319382 1.6319315711 1.2360641684
H -2.3213995129 0.6400610249 0.2315583275
H -2.0803340161 2.1898929785 2.9287197894
H -3.6159457334 1.9255138111 1.9681241593
H -3.3584105696 -0.5870800044 2.3605958681
H -1.4391296679 -1.2483721507 3.9489903551
H 0.8591102618 -0.6220866943 2.7232233925

