# b3lyp 6-31G(2df,p) opt Freq 

 titel

0 1
C 1.2597245282 0.9215477577 0.149910892
C -0.0465361986 0.2192157619 -0.0065737885
C -0.3793747049 -1.0574567563 0.2048424845
C -1.8936065744 -1.0909659798 0.0618671145
O -2.4432270289 -0.4661266097 1.2520591555
C -2.1470167193 0.9181209091 1.06250745
C -1.3823012629 0.9186631086 -0.3072909111
C -1.3935763476 2.1939521982 -1.1099062335
O -2.1331098181 -0.1379013334 -0.9465514002
H 1.2079752424 1.6934084587 0.9289173622
H 2.0544672518 0.2231373735 0.4244539171
H 1.557347306 1.4313794471 -0.7744571294
H 0.2419631544 -1.869806094 0.5566044386
H -2.4081012493 -2.0320048467 -0.1199344431
H -3.0798999654 1.487941591 0.9819673949
H -1.5473120101 1.30714523 1.8927121243
H -0.8642049994 2.9902159107 -0.5774616208
H -0.907779117 2.045747871 -2.078404291
H -2.421394527 2.5231724824 -1.2861749962

