# b3lyp 6-31G(2df,p) opt Freq 

 titel

0 1
O 1.1600704275 0.5401143727 0.6649348769
C 0.1275588013 -0.4202691192 0.6294966345
C -1.2449227333 0.2480135476 0.580266569
O -1.2908640754 1.1181003983 -0.5443900278
C -2.4330771734 -0.7281739855 0.7853850971
C -2.5040022614 -0.2640730619 2.2789908486
C -1.6335933835 0.9757046625 1.8853253984
C -3.8068449763 -0.0343223557 2.8655723077
C -4.8945028545 0.1691670156 3.3370312338
H 0.9001030558 1.2217530884 0.0316058498
H 0.2247072017 -1.0912292325 -0.2452615233
H 0.228361318 -1.0436459596 1.5248667284
H -1.241604827 0.5787482412 -1.3431420363
H -3.3098006479 -0.3930367622 0.2275510338
H -2.2621081409 -1.792156182 0.6001378347
H -1.9283477932 -0.9454682827 2.9132389895
H -2.2580811 1.8436061932 1.6681935559
H -0.8213433922 1.2591556055 2.5559132976
H -5.8526674152 0.3469383763 3.7583184616

