# b3lyp 6-31G(2df,p) opt Freq 

 titel

0 1
C 0.1756956893 0.5854966126 0.0965317834
C 1.3099164932 -0.4269220536 0.063056858
O 1.4282724363 -0.862178801 -1.2888655401
C 2.3506279195 -1.91597489 -1.4621791579
C 3.6831760685 -1.6277651617 -0.8304111712
C 3.8226501234 -0.6612284423 0.0742739417
C 2.6533507059 0.1121055704 0.5565976216
C 2.7505765433 0.84879578 1.8283111558
O 2.8345472765 1.545501586 0.5886119187
H -0.0401357576 0.9094712777 1.1177444124
H 0.4370474145 1.4626629063 -0.497942289
H -0.7256668671 0.1273238677 -0.3170726191
H 1.0565875642 -1.2970886948 0.6957859049
H 1.9401780455 -2.8657064533 -1.0679777819
H 2.4629827112 -2.0466624151 -2.5445062318
H 4.5289825922 -2.2309294334 -1.1486490692
H 4.7901449877 -0.4100884178 0.4991869119
H 1.8543870715 1.0387894604 2.4176765669
H 3.674781182 0.7981837019 2.404328435

