# b3lyp 6-31G(2df,p) opt Freq 

 titel

0 1
C -1.2033287575 0.8607449409 -1.0499937019
C -1.0544209928 -0.2775584204 -0.0326764
C -2.0379240785 -1.4534439073 -0.2698604472
C -1.27395188 -2.7444927119 0.1192327858
O -1.5963779102 -3.8858611174 -0.6583758254
C 0.1686390465 -2.3137592596 0.0401578823
C 0.2974469399 -0.9822472527 -0.041792394
C 1.6010490848 -0.2861451836 -0.0625297881
O 2.6742876731 -0.8439040348 -0.1218987054
H -0.9981329777 0.5058681399 -2.0659332254
H -2.2229224048 1.2592176049 -1.0327297502
H -0.5228962756 1.6916895846 -0.8394290554
H -1.2255336131 0.1400126471 0.9704869613
H -2.984394632 -1.3405981661 0.2636759674
H -2.2747776773 -1.5145975908 -1.3399981208
H -1.5117984693 -3.0471583759 1.14812005
H -1.3422301793 -3.699656932 -1.5693916406
H 0.9962445849 -3.0126685256 0.0842154964
H 1.5466376689 0.8236664506 -0.0127941589

