# b3lyp 6-31G(2df,p) opt Freq 

 titel

0 1
C 0.8287973805 1.23380018 0.0979815669
C 1.1715330906 -0.2586014218 0.051783014
C 1.9074051108 -0.6597798917 -1.1993188569
C 1.8490748401 -2.0256246539 -1.7896384689
C 1.2779472115 -0.825812528 -2.5692077212
C 2.2251070954 -0.1815916458 -3.5194547929
O 2.0556602271 0.0782905165 -4.6834864633
C 3.4789360711 0.174326459 -2.7024770598
O 3.1534848412 0.0051383707 -1.3321086694
H 0.3311612777 1.4901165112 1.037535028
H 1.7361694463 1.8372150527 0.0149408599
H 0.1611232084 1.5121252101 -0.7240969867
H 1.7974336575 -0.5250769478 0.9126350383
H 0.2624524897 -0.8656701278 0.1280600702
H 2.7635015307 -2.4889316362 -2.1446098769
H 1.1063492284 -2.7182669685 -1.4095950446
H 0.2160028449 -0.7802867236 -2.7723412264
H 4.3187449606 -0.4700652139 -2.9998898621
H 3.7687922074 1.2133878989 -2.8903982484

