# b3lyp 6-31G(2df,p) opt Freq 

 titel

0 1
C -0.252449944 2.5575857982 -0.3639213891
C -0.9384706258 1.2439474145 -0.1040729294
C -1.9707179591 0.6739245298 -1.0854797594
C -2.3405244786 -0.5155777239 -0.1662041935
C -2.6628424821 0.2541354307 1.1212129364
O -1.6813201645 1.3066660179 1.1454165198
C -0.969742654 -1.1958389673 0.0384883642
C -0.0225330914 0.0177382086 0.1164817193
O 1.1588859916 0.0158360196 0.3342395515
H 0.4810671825 2.7578716234 0.4212056424
H 0.2780552566 2.5267166704 -1.3198702106
H -0.979727954 3.3733907653 -0.3874622882
H -2.7989251501 1.3638001061 -1.2678705835
H -1.5325131773 0.3664950165 -2.0396460841
H -3.1380306709 -1.1730457525 -0.5124583114
H -3.670299896 0.6902048858 1.106741617
H -2.5621290747 -0.3588078661 2.0245339457
H -0.8974866813 -1.8173649536 0.9354695284
H -0.6871611269 -1.8160958935 -0.8195840956

