# b3lyp 6-31G(2df,p) opt Freq 

 titel

0 1
C -0.1731722795 0.0131535386 0.015233965
C 1.3408062949 -0.0728191906 0.1037539433
C 2.1983616398 -0.8297645985 -0.9747416751
C 1.563817276 -2.2206245693 -0.9141146733
O 1.4683770024 -2.3897791106 0.521000721
C 2.0075129089 -1.1455068928 1.0044114308
C 3.2983165503 -0.9505252913 0.1541493876
C 4.3333908708 -2.0369994022 0.125432762
O 5.5193997008 -1.8242005374 0.0430775464
H -0.571697254 0.5757670611 0.8659080346
H -0.4877865297 0.5311549575 -0.8973327435
H -0.6370204414 -0.9758504131 0.0301606155
H 1.7795025479 0.9106589774 0.2898780863
H 2.4275596585 -0.4092065124 -1.9528509523
H 0.5684186875 -2.2621973655 -1.3684877157
H 2.1790547401 -3.0151989212 -1.3481570651
H 1.99124741 -1.1400463824 2.0931959568
H 3.7878231784 0.0091918859 0.3243069581
H 3.9438105883 -3.0734420931 0.2050697476

