# b3lyp 6-31G(2df,p) opt Freq 

 titel

0 1
C -3.6782924108 3.9180333375 2.2966974382
C -2.8456678067 3.0536337088 1.4050431252
C -1.6787197638 2.4764390034 1.6990294751
C -1.0985830013 1.7310055763 0.5346291012
C -2.2499906988 1.6903734339 -0.495693811
C -3.2532668486 2.7711375729 -0.0265469401
O -0.6981143156 0.3974999206 0.9692390904
C 0.1602338774 -0.2502704114 0.175277316
O 0.6094574946 0.1446795244 -0.8671947711
H -3.2341810642 4.0261573731 3.2895433279
H -3.8058429962 4.9202069142 1.8680572615
H -4.686437223 3.5009590103 2.4138860977
H -1.1558951593 2.5553455643 2.6454844635
H -0.1987460648 2.2053424628 0.1300117365
H -1.8968097192 1.8344998441 -1.5177628686
H -2.7113467219 0.7001414628 -0.4410783002
H -3.1759007429 3.6858207879 -0.6302453782
H -4.2975444103 2.4452761363 -0.1050875829
H 0.3997888755 -1.2232219424 0.6338795989

