# b3lyp 6-31G(2df,p) opt Freq 

 titel

0 1
C -1.5265224969 1.8652715621 0.1553900704
C -0.2357198069 1.15323369 0.4722917863
C 0.1560154519 -0.3142297509 0.3370487484
C 1.499926722 0.265638946 -0.1562482928
O 1.016631317 1.6229893273 -0.0223449147
C -0.9770687345 1.856866196 1.5595362517
C -1.5641329469 1.3184016954 2.8597700173
C -0.969054492 2.6090020967 3.4646827583
O -0.4809064328 3.0443378353 2.1739082607
H -1.4245434608 2.8037330047 -0.3824199896
H -2.4175712499 1.2878851263 -0.0785128477
H 0.1974299626 -0.8828127283 1.2689318504
H -0.4091784204 -0.8790511921 -0.4071522359
H 2.3631561242 0.0780853946 0.4923572114
H 1.769106255 0.0329767125 -1.1923414778
H -2.6537107772 1.2512801107 2.8846144593
H -1.1349216794 0.3817579647 3.2229286374
H -1.6918211397 3.317814975 3.8833367995
H -0.1502628851 2.4636247339 4.1784586674

