# b3lyp 6-31G(2df,p) opt Freq 

 titel

0 1
C 1.6075270287 -0.0146539836 0.0948573676
O 0.1913723957 -0.1012718924 0.1591754452
C -0.3611189222 0.7003009979 1.1235437494
C -0.5489207237 2.2199481625 1.1230249531
C -1.5088652867 1.9497076537 2.3192681755
C -2.5548774771 2.9148163977 2.7802855061
O -0.5982223246 1.4987483397 3.3788682526
C -0.4388224371 0.3051057143 2.617451396
C -1.6887506251 0.4604018808 1.8130279143
H 2.0688724246 -0.2891172046 1.0530308683
H 1.9333384216 -0.7131765368 -0.6785359821
H 1.9371980598 0.9978012263 -0.1751963117
H 0.3025001072 2.8765040301 1.3283599042
H -1.0941176037 2.5481552256 0.2340053459
H -3.1517226453 2.4813371978 3.5875844819
H -2.0817868228 3.8290646846 3.1548049228
H -3.220449767 3.1845195538 1.9549631529
H 0.038079148 -0.5611030398 3.0567311609
H -2.5375132205 -0.1742158578 1.5994356468

