# b3lyp 6-31G(2df,p) opt Freq 

 titel

0 1
C 1.317651414 -0.89664727 -1.0829531744
C 1.0374937963 0.0056735067 0.1223173955
C 1.7389633617 1.3759596035 0.0447126369
O 1.3235779297 2.1171536693 -1.1020589682
C 1.4353450653 2.2213906038 1.2440225069
C 2.2388079039 2.4626568098 2.3135713306
O 1.6077977029 3.2455879307 3.2289396818
C 0.3738255492 3.5170594246 2.7251333096
C 0.2079321777 2.9197135738 1.5188568485
H 0.8473762253 -1.8761897636 -0.9568530205
H 0.918107538 -0.4710392972 -2.0105497242
H 2.3930164778 -1.0612011853 -1.2200973846
H -0.0410429685 0.1736434724 0.2237959898
H 1.3688061395 -0.4899756438 1.0422487012
H 2.8276180387 1.2001656063 0.0065321453
H 1.5394148572 1.5974431034 -1.8824720254
H 3.2432430043 2.1630338306 2.5646362235
H -0.2515135156 4.1458892788 3.337115832
H -0.6587772174 2.9746264261 0.8801006256

