# b3lyp 6-31G(2df,p) opt Freq 

 titel

0 1
C 1.268767171 0.0341315305 -0.1919643549
O -0.1318039742 0.1903754199 -0.0415835581
C -0.5480992583 0.8999205277 1.0916666153
C -0.1117607787 2.3491435424 1.1212688533
C -1.8675423644 0.3962854775 1.5474413745
C -2.4076283209 1.170001939 2.7569229891
C -1.1278836251 0.7325301828 3.5256801788
O -0.7970520674 0.8207531094 4.6747301637
C -0.5851431391 -0.0061019229 2.3434329513
H 1.7274350274 -0.404473935 0.7047625854
H 1.4154460316 -0.6446410858 -1.0348845169
H 1.7725670826 0.9833286713 -0.4153593832
H -0.5385705654 2.88485377 1.9706314911
H 0.9758336096 2.433755685 1.2012681389
H -0.4285110621 2.8490584139 0.2000308513
H -2.4489768198 -0.2573496181 0.9111711512
H -2.6155052505 2.237233909 2.6461796054
H -3.2794267875 0.6854449766 3.2071270894
H -0.0172374288 -0.9281284932 2.3498077548

