# b3lyp 6-31G(2df,p) opt Freq 

 titel

0 1
C -1.8680796434 -0.9145667755 -0.9323472088
C -2.0040812972 -0.0779738992 0.3186848414
C -0.7832263578 0.5586857849 0.954943953
O 0.4104853197 0.3998782626 0.2423826142
C -1.8569876016 1.4310873334 0.3406642699
O -2.8395163333 2.0075137848 1.167101157
C -3.7219194362 1.0106494893 1.6303454039
C -3.2252757934 0.046265761 2.6730990445
C -3.2110354499 -0.3419591488 1.2040646208
H -1.7057117994 -1.9689614283 -0.6821769341
H -2.7741468251 -0.8493343795 -1.5448488273
H -1.0177193336 -0.5826107852 -1.5298905777
H -0.6779330263 0.5419177288 2.0382233702
H 0.9216431166 1.210664793 0.3394686981
H -1.615578916 2.0232820383 -0.5377542288
H -4.7614496397 1.3188267443 1.6008270987
H -2.3019653621 0.2640990959 3.1955866881
H -3.9769804674 -0.4387540402 3.2877500514
H -3.8826293738 -1.1256725396 0.8739091455

