# b3lyp 6-31G(2df,p) opt Freq 

 titel

0 1
C 1.664187191 -0.4540043176 0.6685590786
O 0.2649281539 -0.4553766761 0.8229288855
C -0.3400221602 0.7141863576 0.3180768308
C -1.8238499088 0.6012366198 0.5411068143
O -2.3525763536 1.1071517086 1.7657622533
C -2.7282227032 1.7728077171 0.5434663461
C -4.1813556977 1.6142649494 0.1422858634
C -2.1845094105 3.1013296477 0.3618537367
C -1.7818571029 4.2198930189 0.1828931664
H 2.1338765014 0.3838257738 1.2072575266
H 2.0386708846 -1.3938346405 1.0808858146
H 1.9583473562 -0.3872486787 -0.3913900132
H 0.0426765213 1.6146172997 0.8196848364
H -0.1376003509 0.8206528931 -0.7629107063
H -2.2493342689 -0.3535313464 0.2276598411
H -4.5084924099 0.5872743095 0.3202401329
H -4.810230129 2.2895193686 0.7296092093
H -4.3176725045 1.8565675012 -0.9158680302
H -1.4147175683 5.2057930842 0.0363912039

