# b3lyp 6-31G(2df,p) opt Freq 

 titel

0 1
C -0.5463088516 3.2497795375 -0.4556315931
C -1.1735081259 2.2065149914 0.4400091204
O -2.36141085 2.1201708731 0.6339875296
C -0.1867833462 1.2067359971 1.0935468385
C 0.155641759 0.1631347919 0.0258355792
O 0.9243388793 0.3473211398 -0.8820699679
C -0.7616740295 0.5666946569 2.3357575391
C 0.1349215902 -0.194386864 3.2826175963
C -0.4534936338 1.1309208822 3.6973982311
H -0.0065736776 3.9766755927 0.1636770266
H 0.1916183714 2.7851279786 -1.1170986411
H -1.3158573746 3.7675355837 -1.0293360205
H 0.7462675306 1.7422142734 1.3045918806
H -0.3859976729 -0.8007434482 0.1413456005
H -1.7672145085 0.1851262648 2.1945458672
H -0.2510955373 -1.0982964838 3.740134977
H 1.1977678664 -0.228482527 3.0647079205
H -1.2459163333 1.1366644839 4.4368418284
H 0.2140257843 1.9845073361 3.7574152976

