# b3lyp 6-31G(2df,p) opt Freq 

 titel

0 1
C 1.5187672552 0.4314464732 -0.0297794789
O 0.1299729913 0.1886117254 -0.0118695723
C -0.4633429608 0.4559209225 1.228342788
C -0.2703953204 -0.5693086908 2.3835600456
C -1.8076657694 -0.4477518184 2.6765844714
O -2.5329873556 -1.6549446684 2.8129080438
C -1.9763105683 0.1760401944 1.2619031523
C -2.0995904824 0.4763657803 3.7684038642
C -2.3311577758 1.2083023701 4.6944575159
H 2.0593451101 -0.2130083545 0.6798173205
H 1.8736954844 0.2156738392 -1.040272358
H 1.7511871952 1.4804781018 0.2127445481
H -0.2223863414 1.4772811956 1.5590639889
H -0.0706103728 -1.5643956586 1.9776361207
H 0.4222157167 -0.3367912827 3.1937745768
H -2.5042862282 -1.9180356762 3.7394329624
H -2.2226390535 -0.6215079056 0.557089257
H -2.6706330433 1.0085925094 1.1493551828
H -2.5449775909 1.8619838435 5.5038753909

