# b3lyp 6-31G(2df,p) opt Freq 

 titel

0 1
C 0.0864911727 0.4246418659 -0.1241391661
C 1.5702634283 0.1140684027 -0.1011603978
C 2.489482482 1.2352273095 0.4468815027
C 3.7126272858 0.4369776894 0.8655070722
C 3.1828031185 -0.9782020964 1.0445542384
O 1.7981834047 -0.9923528973 0.7965042222
C 4.0462890459 -0.6480763677 -0.1412988671
O 3.5033504675 -0.5849253801 -1.4319309843
C 2.0977043454 -0.3348894011 -1.4701701594
H -0.2643936242 0.646931293 0.8870971791
H -0.1176379718 1.2893954061 -0.762365304
H -0.4828627456 -0.4286299528 -0.5044678343
H 2.6999838321 1.9876556259 -0.3192648164
H 2.0300316868 1.7313935587 1.3078955256
H 4.4728396481 0.875564946 1.5008073852
H 3.4807655875 -1.6667701312 1.8259195757
H 5.0587314007 -1.0343461637 -0.1789211216
H 1.9194940788 0.4324578848 -2.2344601702
H 1.5687602568 -1.2517679713 -1.7650440698

