# b3lyp 6-31G(2df,p) opt Freq 

 titel

0 1
C 1.3144312333 0.8870998368 0.391471332
C 0.7848378129 -0.4642548557 -0.1083504681
C 1.580892432 -0.9920841797 -1.2574535643
O 2.967675945 -1.291149606 -1.0359963748
C 2.9298860917 -2.2319553833 -2.1540322255
C 3.4439095097 -1.4788826591 -3.3716524445
O 2.5218626401 -0.3898097373 -3.5164392999
C 1.3874455147 -0.6997120803 -2.7412388383
C 1.3920955398 -2.1204638671 -2.2510637451
H 0.7396466488 1.2358637594 1.2542291679
H 2.3627185201 0.8012886399 0.6904093103
H 1.251379984 1.6480474901 -0.3925996554
H 0.8054838368 -1.1994135188 0.7059613551
H -0.2612882413 -0.3724270269 -0.4250190837
H 3.4053161814 -3.184926878 -1.9197646942
H 4.4458763563 -1.071880712 -3.206928914
H 3.447766868 -2.1087545995 -4.2749454192
H 0.4805302044 -0.2144224054 -3.0823211633
H 0.6525274121 -2.8977582571 -2.388808985

