# b3lyp 6-31G(2df,p) opt Freq 

 titel

0 1
C -0.1666596951 -0.0276885452 0.1156464338
C 1.3726535786 -0.0358389179 0.0852704572
C 1.9496101995 1.2949724632 -0.077091854
C 2.3963440668 2.4070640392 -0.1984607299
C 2.9590448814 3.7382073057 -0.3880409613
C 3.5179857121 3.9099063941 -1.807827412
O 4.1677031253 5.1901370392 -1.954408463
C 3.3774048308 6.2300935315 -2.2569888029
O 2.1866743263 6.2001982207 -2.4067060101
H -0.5353059762 0.5825494835 0.9445152893
H -0.5712191728 0.3854238178 -0.8122399252
H -0.5512089597 -1.044660115 0.2377619664
H 1.755448749 -0.4876815724 1.0094777353
H 1.7194111673 -0.6835913478 -0.7302503105
H 2.1937618834 4.5041337049 -0.2193170484
H 3.7643163378 3.9227411377 0.3337126047
H 4.2949335104 3.1716212216 -2.0108770631
H 2.7194746644 3.820628608 -2.5464789164
H 4.0044649108 7.1300769813 -2.3518757099

