# b3lyp 6-31G(2df,p) opt Freq 

 titel

0 1
C 2.7810994587 -1.1274842906 1.1869002598
C 1.7020356291 -0.2738958851 0.5579498829
C 1.6847292687 -0.0461385999 -0.9521601994
C 2.0442732345 1.0615818885 -0.0189454909
C 1.4102702646 2.4310247942 0.1927006138
C 2.8843558077 2.9264206656 0.2319442942
O 3.3796791507 1.5856210669 0.0399472776
C 3.3163393272 3.5091788631 1.561112573
O 3.3909855177 4.6886429682 1.7859305299
H 2.8804581833 -0.9124044018 2.2562992648
H 2.5558988572 -2.1934544247 1.0778173626
H 3.7509932739 -0.9320606514 0.7216214479
H 0.724742589 -0.3387830655 1.0323802849
H 2.4980967133 -0.4792244625 -1.5263583869
H 0.7317138138 -0.0066253392 -1.4703681757
H 0.8235622003 2.8238742471 -0.6387075226
H 0.8510574192 2.553267269 1.1235223438
H 3.1722744937 3.6013292278 -0.5804012449
H 3.5389000574 2.7363773503 2.3322829651

