# b3lyp 6-31G(2df,p) opt Freq 

 titel

0 1
C -0.0425713355 -0.2023527099 0.0972135557
C 1.465481972 -0.0579677783 -0.1030531512
O 2.1777295174 -0.5906084054 1.0255171508
C 1.9750526818 -0.6618265625 -1.4004326726
C 2.7562102441 0.1659032284 -2.0944077837
C 2.8818105608 1.5139805721 -1.444525565
C 1.8777242301 2.5866174628 -1.9351529436
O 0.9762476016 2.2897739822 -0.8493186606
C 1.9355514265 1.4089974014 -0.2216727362
H -0.3348882891 0.2181882266 1.0636238176
H -0.5897412091 0.3177646018 -0.6914640048
H -0.32851335 -1.2607019604 0.0844624291
H 2.0360495278 -1.5431344991 1.0422739129
H 1.7220397366 -1.6768360683 -1.6933905289
H 3.2394037463 -0.0741150398 -3.0361258649
H 3.910166643 1.8517314169 -1.3008691257
H 2.2509355753 3.6173824536 -1.8781837967
H 1.4168640519 2.4199535128 -2.9154265765
H 2.2755796984 1.791390985 0.7453722442

