# b3lyp 6-31G(2df,p) opt Freq 

 titel

0 1
O 0.8138825341 0.1964963035 0.9656669964
C -0.5681783913 0.4139076788 0.7875691563
C -1.4088421951 0.2700543269 2.0904576969
C -1.4184510429 1.8249968199 2.2341881454
O -0.4197070103 2.3086580603 3.1154228359
C -2.7964093676 2.5034274846 2.3390532311
C -3.2118676001 2.6156779683 0.8883122649
C -2.2255632965 2.3084463677 0.0412524936
C -0.9562404577 1.9266981432 0.746952686
H 1.0949302621 0.7521250034 1.7035045443
H -0.8704847497 -0.1999290667 -0.0642991178
H -2.4038107361 -0.1483226026 1.9195650588
H -0.9153080273 -0.2815751593 2.8953746123
H -0.6530228394 2.0377691594 4.0105614412
H -3.5072205974 1.9221173141 2.9410513039
H -2.7059710452 3.4913078736 2.8110304412
H -4.2064420973 2.9330927336 0.5931228067
H -2.3048326861 2.3375677942 -1.0404086046
H -0.1122947961 2.5885803572 0.5238998575

