# b3lyp 6-31G(2df,p) opt Freq 

 titel

0 1
C -2.4451518326 -2.6654941895 -1.4602430453
C -1.4110752272 -1.5376978222 -1.4715719108
C -0.8591754137 -1.2554550694 -0.0610332814
C 0.0101483883 -0.0067654144 0.0396870309
O 1.2049738818 -0.0771509971 0.2457006265
C -0.6780233891 1.3074736701 -0.0275205415
C -1.8751367959 1.5269338935 -0.5806923089
C -2.699582116 0.5192069189 -1.3470346506
O -1.9256221735 -0.3765854895 -2.1193591166
H -3.3118186131 -2.4043159332 -0.8433389072
H -2.7941769657 -2.8624134047 -2.4772087175
H -2.0118825961 -3.5856370797 -1.0555471134
H -0.5700923766 -1.834045312 -2.1087967261
H -1.6966261678 -1.1530650998 0.6414356299
H -0.2542653235 -2.1068390491 0.2601891982
H -0.113389148 2.1271367618 0.4076164035
H -2.292681258 2.5311212906 -0.54109528
H -3.3906329726 -0.0088389907 -0.6689801331
H -3.3304917307 1.0574271865 -2.0625530367

