# b3lyp 6-31G(2df,p) opt Freq 

 titel

0 1
C -0.932802849 2.2812868481 -1.0539624092
C -1.0304084287 1.0832417041 -0.1519147127
C -1.9537309533 0.9770959904 1.0663146857
C -3.0699981521 1.9926015209 1.1976505411
O -2.6201043818 3.2890213978 1.5589851453
C -2.0554200969 -0.0794055944 0.017130053
C -0.9373535089 -1.1082068483 0.2292295559
C 0.0609777159 0.0620353884 0.012437091
O 1.2453740753 0.1007444865 -0.1717486587
H -0.6186760418 1.9842192047 -2.0596833894
H -1.877316156 2.8224129763 -1.1317891706
H -0.1856285399 2.9811850472 -0.6665536297
H -1.5097087989 0.6969080918 2.0231994951
H -3.5898374524 2.1161301884 0.2426283335
H -3.8111268579 1.6121810436 1.9181626314
H -2.1543761739 3.2196048575 2.3985794108
H -2.953828814 -0.2390750891 -0.5656363143
H -0.9195945719 -1.6308284107 1.1905065106
H -0.8324750139 -1.8383276534 -0.5786700889

