# b3lyp 6-31G(2df,p) opt Freq 

 titel

0 1
C 0.5759518499 0.7354248275 0.3886584906
C 0.8555189362 -0.7312739345 0.0410672315
C 1.7653421255 -0.8904862248 -1.1601988145
C 1.8323086935 -2.2040274512 -1.9380689273
C 1.2175351179 -0.9907821427 -2.5407133579
C -0.1660366939 -0.7366421904 -3.1201956551
C 0.6281376769 -0.0436773704 -4.2329262809
O 0.412444772 0.5331810118 -5.2483347667
O 1.8492088041 -0.3059735164 -3.6573075549
H -0.0767191087 0.8170229039 1.2630172132
H 1.5048449314 1.2699087875 0.6142881792
H 0.0913806381 1.2581182162 -0.4426928609
H 1.3115395434 -1.2339251254 0.9033517566
H -0.0900223518 -1.2560393313 -0.1478131368
H 2.7115820621 -0.357718189 -1.0931804347
H 2.798182191 -2.518429431 -2.317709791
H 1.1728596966 -3.0139200596 -1.6400285491
H -0.7253072812 -1.6135739352 -3.4515496147
H -0.8216324932 -0.0701033649 -2.5565676968

