# b3lyp 6-31G(2df,p) opt Freq 

 titel

0 1
C 3.317337031 2.8059009981 0.593019232
C 2.2047166452 1.7524105435 0.5441698306
C 2.721231886 0.3150602855 0.4033274545
C 1.6169130938 -0.7445829039 0.6886564619
O 2.1317298808 -2.0376546069 0.8790445543
C 3.3178923572 -0.0504703783 -0.9498173956
O 3.939871041 -1.0891233853 -1.1019085801
C 3.0553334629 0.805345754 -2.0927921002
C 2.8472513249 1.4923168655 -3.0597657828
H 2.898615483 3.8091133565 0.7167605154
H 3.9955771955 2.6212618559 1.4330879196
H 3.9131476565 2.8073590668 -0.3245608843
H 1.6173480646 1.8093244906 1.468207179
H 1.5113029448 1.9793534363 -0.2737306703
H 3.5115164059 0.1263495514 1.1407083859
H 1.1055124633 -0.462505181 1.6153586665
H 0.8657233717 -0.7135463265 -0.1198806697
H 2.8015992216 -2.1871943803 0.1966869061
H 2.6681154503 2.0918618382 -3.9195529327

