# b3lyp 6-31G(2df,p) opt Freq 

 titel

0 1
C 0.142465173 0.5415164245 0.0512707222
C 0.933485426 -0.7168458946 0.2947388039
O 2.0126586642 -0.9963711256 -0.6173062422
C 2.3332982486 -0.7046594891 0.7282637124
C 3.1826626768 0.4877678234 1.2380195427
C 3.8462761713 -0.515922025 2.1950973114
O 4.4602893619 -1.513786556 1.3758976351
C 3.0556225555 -1.6545699537 1.6755828321
C 2.5848643154 -2.93986887 2.2708622219
H -0.4582637925 0.794271369 0.9320565559
H 0.804148266 1.3811012431 -0.1754526091
H -0.541325376 0.4065717177 -0.7930971244
H 0.3377923031 -1.599120097 0.5392463888
H 3.8622458417 0.938231315 0.5119348837
H 2.5868860542 1.2614577926 1.7300028948
H 4.255843558 -0.3489328247 3.1843134622
H 1.6027486425 -2.8188095294 2.7387978517
H 2.5000812865 -3.7123033166 1.4986968846
H 3.2939583939 -3.2895382436 3.0254896221

