# b3lyp 6-31G(2df,p) opt Freq 

 titel

0 1
C 0.5535379404 0.8044524392 -0.745958665
O 0.0686981881 -0.1707322815 0.179440423
C 1.4704655933 0.1461834007 0.1890142729
C 2.3751370703 -0.9772987491 -0.2664007082
O 2.4900406175 -1.9749204774 0.7354442976
C 2.8965875913 -1.514919253 1.995969263
C 1.8199557111 -1.2411645149 3.0123064177
C 2.6097280186 -0.0934958121 2.4193182462
C 1.9925280886 0.8695940306 1.4167300791
H 0.5350807342 0.5051590127 -1.7937494375
H 0.2413940202 1.8311194286 -0.5551080129
H 1.9549207798 -1.4787238534 -1.1415559213
H 3.3637195603 -0.5678966151 -0.5338033286
H 3.8246135199 -1.9780294625 2.3233457278
H 0.8026750612 -1.3791710311 2.6620227538
H 1.9917771289 -1.5054079515 4.0499411334
H 3.3490419552 0.3578299563 3.0743141983
H 1.1844489552 1.4566231498 1.8658802098
H 2.766298656 1.5761486037 1.0885306109

