# b3lyp 6-31G(2df,p) opt Freq 

 titel

0 1
C 0.8492402698 1.0599439293 0.0063465201
C 1.0349683671 -0.4504157838 0.0001852924
C 2.1050248052 -0.968749942 1.0010329892
C 1.959548271 -2.4614023382 1.317982373
C 1.7593178134 -3.2433486816 0.0212877525
O 2.8829820188 -3.3523790289 -0.8621369992
C 1.8285725387 -2.4720816823 -1.2300384534
C 2.0807602346 -0.9793419313 -1.0167336728
O 3.1228815314 -0.8133694315 -0.0292720212
H 0.3012314561 1.3849202877 0.8973243587
H 1.8185396864 1.5673154779 -0.0015391927
H 0.2837450817 1.3907138858 -0.8713262623
H 0.0721264956 -0.9722836221 0.0085583195
H 2.3178300843 -0.3618477534 1.8866600484
H 2.8495784629 -2.822458218 1.8450895084
H 1.0968587243 -2.6226725993 1.976231675
H 1.1529526511 -4.1461431019 0.0751827929
H 1.2461730058 -2.7627678104 -2.1039359344
H 2.2815511717 -0.422560256 -1.9365839842

