# b3lyp 6-31G(2df,p) opt Freq 

 titel

0 1
C 1.1676050682 -0.4780788532 0.0515976787
O -0.1979683425 -0.2167955139 0.3239695996
C -0.4004338278 0.8854154819 1.1668769793
C -1.9221406592 1.0938003186 1.3063675132
C -2.1969094059 0.8663672874 2.8186940241
C -0.9388051939 0.0730695428 3.2396412032
O 0.102719349 0.6630302149 2.4738922929
C -3.4533795102 0.2028410767 3.122786774
C -4.4838540228 -0.3608552785 3.3787654479
H 1.7238373333 -0.7073949075 0.9676317415
H 1.1999611786 -1.3388451622 -0.6196137852
H 1.6461631633 0.3801678972 -0.4445640879
H 0.1471784144 1.7565863425 0.7800958634
H -2.2330687756 2.0871719085 0.9797444147
H -2.4364395172 0.3501892276 0.6962883317
H -2.1668922738 1.8333809559 3.334292511
H -0.6887749167 0.1798208865 4.2967836257
H -1.0601623307 -0.992023065 3.0018639965
H -5.3960695105 -0.8545081901 3.6057604256

