# b3lyp 6-31G(2df,p) opt Freq 

 titel

0 1
C -2.727986517 1.3329144402 -1.9817526018
C -2.6988433684 1.0399464579 -0.4958998146
O -3.9773760574 0.4919954065 -0.0453036649
C -3.3177138667 -0.6118281105 0.6065238117
C -1.9304012243 -0.1840146793 0.0850632157
C -0.9165684917 0.3451283195 1.1171236632
O 0.4457819206 0.1994994434 0.7202729171
C -1.3191536259 1.797140415 1.2716890546
C -2.2416728865 2.1767697646 0.3861047501
H -3.005278978 0.4367402329 -2.5435056367
H -3.4659816094 2.1123787931 -2.2000407454
H -1.7505167625 1.6815416593 -2.331658058
H -3.4304027008 -0.5761042765 1.6987091919
H -3.691378472 -1.5753755117 0.2427085369
H -1.4667864615 -0.8703256211 -0.6239379237
H -0.9831217712 -0.2076690912 2.0615341667
H 0.5977533941 0.8084694265 -0.0109820183
H -0.8531378805 2.4368635527 2.0137076495
H -2.662262761 3.1735204586 0.2999157261

