# b3lyp 6-31G(2df,p) opt Freq 

 titel

0 1
C -0.7992021043 2.2124772554 -1.2590307168
C -0.9401959357 1.2438872551 -0.0881472511
O -2.2715462479 0.7611091409 0.0543748853
C -2.3165683666 -0.6628909857 0.0151050705
C -2.5484326108 -1.3180103011 -1.3811469489
C -1.1949511251 -2.0740794737 -1.2365801535
C -0.8820709263 -1.2248771658 0.0319038928
C -0.0322580888 0.0116475992 -0.2277537023
O 1.1370001243 0.0419139444 -0.5114640704
H -1.0856784636 1.7326100567 -2.1995164708
H -1.4378997513 3.0861827562 -1.1084795306
H 0.2416875243 2.5381520347 -1.3368837371
H -0.6510820123 1.7608001171 0.8411564229
H -3.0017786915 -1.0033699619 0.7950881621
H -3.4404039595 -1.9403411931 -1.477481137
H -2.5565713613 -0.5702183441 -2.1775478043
H -1.3173844458 -3.132520596 -0.9993752603
H -0.477454718 -1.983568217 -2.0547967438
H -0.5115415698 -1.7544910911 0.9126444734

