# b3lyp 6-31G(2df,p) opt Freq 

 titel

0 1
C 2.7148216303 -1.697282393 -3.8020904472
C 2.4883830699 -0.3821279255 -3.0968178484
C 2.1786433377 0.8793317138 -3.8937841081
C 1.1442887815 0.2779858576 -2.9749940441
O 0.9704773796 0.8485366346 -1.7028974854
C 2.2402642839 0.8759380662 -1.0459290253
C 3.1587926644 -0.1518415746 -1.7480005139
C 1.9928425531 0.611846789 0.4290017371
O 2.802411904 0.1210645895 1.1714691987
H 2.4791225407 -2.5434945919 -3.1465393608
H 2.0893465714 -1.7803967295 -4.6965148393
H 3.7582092175 -1.8032283725 -4.1208898264
H 2.6448110388 1.8188490474 -3.6146700607
H 2.0211944145 0.7603913407 -4.9608848089
H 0.2228285161 -0.1434441661 -3.3602071535
H 2.6703425507 1.8889895074 -1.1200696003
H 4.1849403114 0.2175009652 -1.8237846151
H 3.1886128544 -1.0846417052 -1.1755520699
H 0.9804267001 0.9187482169 0.7707225615

