# b3lyp 6-31G(2df,p) opt Freq 

 titel

0 1
O 1.4939314706 0.5773199976 0.1731702727
C 0.1523137867 0.1067181361 0.1450357447
C -0.5674513319 0.3463365602 1.4456078447
C -0.7651586715 1.7846071882 1.9267216481
O -1.9648114168 1.7701824564 2.710186818
C -2.2159842967 0.414891909 3.0351229341
C -1.0393021338 -0.2206321253 3.8497910104
C -0.4818882507 -0.7386212232 2.5221607416
C -1.792745297 -0.4375941053 1.8104916304
H 1.9390720558 0.1323536293 0.9021782438
H -0.3313175352 0.6635204992 -0.6653497417
H 0.1047263957 -0.9622636267 -0.1176511858
H 0.0791096518 2.1484456278 2.5265172245
H -0.9026989191 2.4730265244 1.0847394096
H -3.2228048258 0.3325573801 3.4415993198
H -0.4363176159 0.4692802518 4.4489497415
H -1.3876310077 -1.0417768712 4.4825180434
H 0.1633727014 -1.6011129532 2.3899839983
H -2.3997208698 -1.0264082552 1.135693172

