# b3lyp 6-31G(2df,p) opt Freq 

 titel

0 1
C -3.3878076463 1.2855776533 1.0979284315
C -1.9705738458 0.740074454 1.2593312214
C -1.9008749307 -0.8298282493 1.2792401336
C -0.9853669378 -1.0390154948 0.0624755506
O -1.5137663178 -0.0721545812 -0.903771167
C -1.059702473 0.9871746407 0.0244228379
C -0.8959956208 2.3525116207 -0.5725125461
C 0.1169632046 0.0152665275 0.2835656253
O 1.3038899529 0.07172182 0.3687741303
H -4.026087736 0.9438908351 1.9193799031
H -3.4049173444 2.3801638263 1.0980813204
H -3.8278659534 0.9333743058 0.1598942666
H -1.5067170073 1.1670149007 2.1555762073
H -1.4806997312 -1.2376529698 2.2026924601
H -2.8825150613 -1.2813335969 1.1125396508
H -0.8157810271 -2.0350820653 -0.3408884996
H -0.4782936434 3.0337159302 0.1755278226
H -0.2148114995 2.3209554695 -1.4264316415
H -1.8557948617 2.7577070537 -0.9056950075

