# b3lyp 6-31G(2df,p) opt Freq 

 titel

0 1
O -2.0850823732 -0.068677087 -2.4112926683
C -2.9065436388 -0.0449862998 -1.2689961126
C -4.2100283755 0.707186016 -1.3029655575
C -4.1998248649 -0.8153129588 -1.2640620186
C -2.0479609471 -0.0076441262 -0.032781866
C -0.9382398205 -1.1029354846 0.0966320581
C 0.0460271575 0.0189606563 0.457270687
O 1.1336959104 0.0390152252 0.9560039488
C -0.9531182528 1.1076498325 0.0401902036
H -2.6375377981 -0.0920446193 -3.1977984288
H -4.5302966297 1.247657747 -0.4183985594
H -4.492024276 1.1840358982 -2.236859702
H -4.513134657 -1.3141401933 -0.3529372217
H -4.4750681248 -1.3429640325 -2.1722944783
H -2.6909365002 0.0105671875 0.8501138976
H -1.0688907648 -1.8967579185 0.8357531366
H -0.6925031901 -1.547920583 -0.8724793994
H -1.0946854525 1.9363317078 0.7378782563
H -0.713059562 1.5058531826 -0.9504569355

