# b3lyp 6-31G(2df,p) opt Freq 

 titel

0 1
O 1.6355295229 0.5356985009 0.0085885665
C 0.26849713 0.2035518928 -0.1800523412
C 0.0029269289 0.1485600635 -1.6854331186
C -1.4515591488 -0.1243255723 -2.0066366092
C -1.6412606715 -1.2956577012 -2.6166846165
C -0.3509014815 -2.0188780526 -2.8833416239
C 0.2758694481 -1.7640513597 -4.2761074859
O 1.0997717631 -0.704342737 -3.7523549576
C 0.726244403 -1.0133446387 -2.3887210392
H 1.829819583 0.4980304452 0.9495055777
H 0.0254306503 -0.7720812216 0.2718531588
H -0.3948398025 0.9510477997 0.2837422491
H 0.3520285144 1.0941303284 -2.1195759818
H -2.2411788393 0.5719785032 -1.7426442484
H -2.6047761974 -1.6864982977 -2.9268164237
H -0.3295102282 -3.0529419255 -2.5312709597
H 0.8792203228 -2.5986964579 -4.6586387288
H -0.3992058592 -1.4139677706 -5.0658612771
H 1.5786266919 -1.3943524489 -1.8180978405

