# b3lyp 6-31G(2df,p) opt Freq 

 titel

0 1
C 1.3696260456 1.1469612216 0.521260204
C 0.864792687 -0.2396821341 0.1126759136
C 1.6647142789 -0.8564769057 -1.0381764002
C 1.4264939368 -0.2949725184 -2.482805343
C 0.8318844029 -1.6506471787 -2.8998040956
C -0.3186694604 -1.9755703623 -3.7604720911
O 1.0141964723 -2.3049822495 -4.1399356747
C 1.1580554792 -2.2333234764 -1.5295966294
O 1.0537511947 -3.3146189916 -1.028409189
H 0.7696725773 1.5583243213 1.3387885632
H 2.4109250777 1.1028264408 0.8581830855
H 1.3217013237 1.8526745954 -0.3149484385
H 0.9116844257 -0.9232822359 0.9683183608
H -0.193277503 -0.1792569896 -0.1744221025
H 2.7266026658 -0.9044291302 -0.7698706995
H 0.7361279957 0.5497645213 -2.54316788
H 2.3422544227 -0.0481302774 -3.0234678067
H -0.9547797028 -2.8207377514 -3.5028913747
H -0.7874585097 -1.1743604891 -4.3303614722

