# b3lyp 6-31G(2df,p) opt Freq 

 titel

0 1
O -3.1676601285 1.8176820643 2.9325037435
C -2.1948494664 1.9540415298 1.9563486905
C -0.7319985799 1.5394591324 2.1221776601
C -0.6951475934 1.2770040878 0.5748190425
O -0.077900711 0.1069771161 0.1214408287
C -0.1657396629 2.5010244537 -0.1778936087
C -1.1432953117 3.6361776028 0.2184470741
C -2.364049101 2.8988349749 0.7768993815
C -2.2546207684 1.4067339191 0.5521238648
H -3.1642944001 2.6132956536 3.4761823502
H -0.0126836843 2.2514895183 2.5443442072
H -0.6693490053 0.5938740334 2.6710019408
H -0.4199449552 -0.6340762522 0.6320115826
H 0.8756855847 2.71573649 0.0785923517
H -0.2110331652 2.2972162247 -1.2527559021
H -0.7042937695 4.3164678282 0.9568429907
H -1.4198104421 4.2452624962 -0.6469780936
H -3.3495490006 3.3478487788 0.7109107868
H -2.9747867191 0.7742973082 0.0498904885

