# b3lyp 6-31G(2df,p) opt Freq 

 titel

0 1
O 1.3749362821 -0.2620076394 -0.3240276175
C 0.1868491951 -0.2113122266 -0.1910459902
C -0.7729413381 -1.3400440129 0.1647281976
C -2.1767949875 -0.7688378845 -0.0642433369
C -2.8367771292 -1.130617426 -1.4253720192
C -2.6189559952 0.0934206418 -2.3377308423
C -2.6857674874 1.2765935829 -1.3594132013
C -1.9290350336 0.7712950512 -0.1314228948
O -0.512637865 0.9446839086 -0.339393219
H -0.5405839625 -2.2235828256 -0.4337284035
H -0.5959548686 -1.6079572528 1.2116570292
H -2.8421134013 -1.0218668421 0.7628080242
H -2.4338369855 -2.0553580433 -1.847860365
H -3.9100376376 -1.2905077405 -1.276370846
H -1.6283969734 0.0553066019 -2.8040629252
H -3.3549210364 0.1591281395 -3.1428314173
H -2.2571237927 2.2047391545 -1.7443442083
H -3.7258498373 1.4773783317 -1.074599839
H -2.1888825258 1.3033306418 0.7882098744

