# b3lyp 6-31G(2df,p) opt Freq 

 titel

0 1
O 1.2006475187 2.5007081931 -2.153476782
C 0.2822559755 3.3650617475 -1.5521394373
C -1.2659246326 3.156643735 -1.728722142
C -1.4121993927 4.0887182844 -0.4957181932
C -0.271586647 3.099250179 -0.1208736422
C -1.1954583066 1.974699644 -0.7090850525
C -0.6761580535 0.5810433524 -1.1470752844
C 0.3851617348 0.0542251828 -0.2106533638
O 1.5052201305 0.5144494938 -0.1461234029
H 1.5568329477 1.8998976152 -1.4792639467
H 0.6011812055 4.3998704996 -1.7288312326
H -1.8411682396 3.1869086072 -2.6552894743
H -1.1231298238 5.133626224 -0.6312870193
H -2.3390277161 3.9981265957 0.0739716059
H 0.2933467768 3.0690133295 0.8121259006
H -2.1125087138 1.8451087203 -0.1254130386
H -1.5138721688 -0.1212816701 -1.1858767072
H -0.2279366745 0.6511109574 -2.1406005617
H 0.1030754995 -0.7871857408 0.4565739844

