# b3lyp 6-31G(2df,p) opt Freq 

 titel

0 1
C -1.4245969153 -0.4620145036 -2.4584527121
C -1.9283572653 -0.7133720036 -1.0406555412
C -2.1996205289 0.5378371242 -0.1800742208
C -2.6619200598 -0.0492107916 1.1639934976
C -1.7509170407 -1.3129760588 1.285051614
C -0.8960200446 -1.2419157449 -0.0167093067
C -0.0218936863 -0.0028262477 0.1503391185
O 1.1475897374 0.1055020215 0.3738331553
O -0.8644726126 1.0739643461 0.0358165005
H -1.1257457785 -1.4005643437 -2.9356154336
H -2.2094295624 -0.0113698935 -3.0745051648
H -0.5623181671 0.210710595 -2.4707366117
H -2.8151434659 -1.356325816 -1.066048313
H -2.8117591122 1.3311984318 -0.6071990224
H -2.5058134081 0.6678635089 1.9722718169
H -3.7243052571 -0.3063683047 1.1378297232
H -1.131544456 -1.3082011072 2.1843603003
H -2.3381955033 -2.2348428446 1.2912952881
H -0.328695113 -2.1383091577 -0.258089368

