# b3lyp 6-31G(2df,p) opt Freq 

 titel

0 1
C 1.2925511187 -0.1722873909 -0.3424632949
O -0.0765390986 -0.0795081537 0.0106520526
C -0.3472907134 0.6300793603 1.1970002418
C 0.0703531681 2.0788773035 1.2495829067
C 0.6594592786 2.4211188108 2.4014301325
C 1.1433629038 3.7796972223 2.7949758793
C 0.7824321732 1.2403290187 3.3380776258
C 0.3309029983 0.0565426947 2.4748059958
O 0.5130641937 -1.1079989541 2.7042120884
H 1.8654806373 -0.7538132922 0.3911426294
H 1.3282323744 -0.6874741028 -1.304789314
H 1.7572484322 0.8175197024 -0.4521434717
H -1.4355069498 0.5300892209 1.3251997014
H -0.1362431704 2.7632451372 0.433647771
H 0.6214328972 4.1428887329 3.6893769585
H 2.2111763696 3.7573839399 3.0473747887
H 0.9943888243 4.5077928599 1.9931988182
H 1.7939047972 1.081614199 3.7319002223
H 0.1232182255 1.3274860609 4.2136811181

