# b3lyp 6-31G(2df,p) opt Freq 

 titel

0 1
O 2.7308371949 1.8674699887 2.8253682085
C 1.5480458544 1.7209592635 2.6682188745
C 0.8977025414 1.3713303318 1.3369603353
C -0.0001152744 0.1387188049 1.5089611416
O -1.0021408675 0.21230838 2.1810169355
C 0.4692061262 -1.1650107768 0.88011647
C 1.6524128662 -1.7385830455 1.6460720589
C 2.5667847253 -2.7496173382 1.0000388649
C 3.0758307027 -1.3649230999 1.3065472405
H 0.8238217597 1.8244116791 3.5038525845
H 0.2357707242 2.2044839104 1.0711289305
H 1.6701740563 1.2505576914 0.5776252476
H -0.3748821734 -1.8608492837 0.8980543277
H 0.7570570427 -0.9912512201 -0.1639803327
H 1.4454486742 -1.901102969 2.7005229199
H 2.9169928075 -3.5786497771 1.6045488517
H 2.3852549089 -3.004006365 -0.0391673381
H 3.7778634426 -1.2308408558 2.1209993971
H 3.245935888 -0.6968009886 0.4690404121

