# b3lyp 6-31G(2df,p) opt Freq 

 titel

0 1
C -0.3355012734 -2.1638295308 0.9588135457
C -0.9068857567 -1.0914781061 0.0376166964
C -2.3138207758 -0.4769029975 0.3352260058
C -1.7416271724 0.9600079075 0.2409206068
C -1.9370409623 1.900670452 1.422505743
C -1.231924353 3.2337002822 1.3028698788
O -2.569294024 1.5683127695 2.397903829
C -0.3234441551 0.3229495204 0.1597390875
O 0.7819056817 0.770920493 0.2553073614
H -0.8749471493 -3.108202237 0.8375797323
H 0.7206601756 -2.341051522 0.7357217374
H -0.4134201437 -1.8621784098 2.0080836596
H -0.8272713315 -1.4118363134 -1.0094865038
H -3.1018207535 -0.723958477 -0.3763569791
H -2.6643108278 -0.6827002685 1.3487084754
H -1.9651094119 1.4891116353 -0.6923880419
H -1.3442145921 3.8038750028 2.2256674696
H -0.1717892384 3.0610863436 1.0830573829
H -1.6434881062 3.8056072758 0.4632165931

