# b3lyp 6-31G(2df,p) opt Freq 

 titel

0 1
C -1.0085774597 -1.0619136199 -3.3146103809
C -0.6317339119 -0.2870798087 -2.0665930015
O -1.2067388369 -0.4208046697 -1.0112427321
C 0.4967961658 0.6974746419 -2.2299518034
O 1.2293131575 1.0402747917 -1.0466840131
C 0.4081836029 2.0352187 -1.5946922984
C 0.8819738578 3.3766833055 -2.1622140192
C -0.5143019721 3.9547190773 -1.7770223526
C -0.7855010133 2.6922057118 -0.9018737024
H -1.9019947887 -1.657385389 -3.1253502089
H -1.1839321897 -0.3809022906 -4.1556786669
H -0.183338355 -1.7214723106 -3.6085711309
H 1.106285454 0.5946562131 -3.1284000596
H 1.6902502265 3.7932231932 -1.5538095373
H 1.179362262 3.4084371726 -3.2129482065
H -0.5149905893 4.9155807061 -1.260725203
H -1.1877559179 4.0180361806 -2.6347551926
H -0.5717480983 2.8601758455 0.1574182115
H -1.7540071838 2.1979039992 -0.9851093123

