# b3lyp 6-31G(2df,p) opt Freq 

 titel

0 1
C 0.8391780172 -0.8398215481 0.4146539071
C 0.6599730008 0.5012265038 -0.2925343653
C 1.9327788143 1.3227333948 -0.3227111655
O 2.9946523779 0.9952365286 0.1460662142
O 1.7280000695 2.4976728529 -0.9553776628
C 2.8901711259 3.354496644 -1.0351175366
C 2.5305703363 4.574635209 -1.7343257937
C 2.2661398695 5.5975572598 -2.3096967988
C 1.9398725944 6.8324790224 -3.0064542154
H 1.1567789895 -0.6968676693 1.4505432087
H -0.0997266138 -1.4002487682 0.4143483139
H 1.6034676009 -1.4443284 -0.0801145202
H 0.325801462 0.3695033356 -1.3284224372
H -0.1160404825 1.1095776255 0.1868127851
H 3.2483526951 3.5616015006 -0.0206724344
H 3.6930806444 2.8159944199 -1.5505243703
H 2.0889893418 7.7056983617 -2.3621976486
H 2.5621730135 6.9637091497 -3.8982744093
H 0.8930944431 6.8332221974 -3.3293647609

