# b3lyp 6-31G(2df,p) opt Freq 

 titel

0 1
C 0.1132108148 0.5786679135 -0.4812457181
C 1.4192097306 -0.0017212086 -0.0545688214
C 1.9315021277 -1.4660244094 0.2931744311
C 2.4839923084 -0.9281490971 1.6505086592
C 2.4710860046 0.4224865536 0.962042584
O 2.6647730451 1.6559203044 1.5409253956
C 2.8615517523 0.2008415562 -0.5063478551
O 3.4403781234 1.2964619479 -1.1265168115
C 3.1098042899 -1.2832283295 -0.7134027305
H -0.6758393133 0.3806426386 0.2533623331
H 0.1994801621 1.6669212974 -0.5773388493
H -0.2261560345 0.1830261319 -1.4464770899
H 1.313628933 -2.3595506354 0.2603571526
H 1.7340868817 -0.9841520317 2.4447090854
H 3.4370266349 -1.3361402479 2.0078848958
H 3.1892846566 2.1781846915 0.9188730071
H 3.0655537511 1.3995912096 -2.0076557242
H 2.8352001868 -1.6110218095 -1.7218330847
H 4.0826698948 -1.7060139253 -0.4370455191

