# b3lyp 6-31G(2df,p) opt Freq 

 titel

0 1
C 1.4847609379 -0.144646873 -0.0074430166
O 0.0671796043 -0.0701504204 0.0874769039
C -0.4017130074 0.6910387975 1.126189576
C -1.954776435 0.6458987183 1.2445008873
C -2.1496826481 1.0108500264 2.7417249107
C -0.6586643864 1.197601951 3.1887522796
O -0.0133963956 0.1806514622 2.4192324729
C -0.1528893326 2.4757838847 2.5269498341
C 0.0191588399 2.1622026489 1.2441527101
H 1.9159321397 -0.6073769116 0.8859130568
H 1.7033533323 -0.7587639778 -0.8829774988
H 1.9325196413 0.8487044474 -0.142430897
H -2.444456176 1.3338641134 0.5530641659
H -2.2872700261 -0.370245629 1.0232325526
H -2.7537100517 1.907028674 2.9007609083
H -2.6027993935 0.1865133786 3.2970617516
H -0.4602801914 1.0679222646 4.2518149311
H -0.0899800634 3.4453205767 3.0033282811
H 0.2515680218 2.8056176581 0.4062181602

