# b3lyp 6-31G(2df,p) opt Freq 

 titel

0 1
C 0.983723574 2.5988916685 1.2052603993
C 2.2036463168 1.7801367612 0.7922583554
C 2.7435020204 0.9712615818 1.9693519977
C 3.201733145 2.5095984054 -0.1772242936
O 2.1527044377 2.483387668 -1.2284688886
C 2.1172475214 1.1233767337 -0.6322981611
C 3.6514362603 1.1432181703 -0.7178269723
C 4.7814026123 0.229718944 -0.6282448438
O 4.4257235169 0.9103087305 -1.853663045
H 1.2437502317 3.284914595 2.0192071723
H 0.5945059532 3.177881993 0.3683139352
H 0.1916092109 1.9398076814 1.5779758161
H 1.9682119197 0.2968347927 2.3495918106
H 3.6185045904 0.3696651564 1.7204712433
H 3.018226206 1.641073654 2.7917746154
H 3.7604246155 3.4361821638 -0.0438905785
H 1.3954566745 0.4132357062 -1.0362669409
H 5.7145438821 0.555747664 -0.1708197171
H 4.6170358412 -0.84696944 -0.6313202744

