# b3lyp 6-31G(2df,p) opt Freq 

 titel

0 1
C 4.7070062978 -1.6289222819 -4.1206506802
C 4.3102725489 -0.9631858123 -2.8086311913
O 5.0622657867 -1.5876573775 -1.7805176168
C 2.7987399853 -1.084333337 -2.5309953348
C 2.3684274672 -0.2337618907 -1.3589474868
O 2.9896997948 -0.5174955187 -0.0937477747
C 1.5765794517 -0.771119617 -0.2313144357
C 0.6883365662 0.0533823219 0.541091131
C -0.0730957237 0.7236456083 1.1853563176
H 4.4113278987 -2.6830757179 -4.1189217257
H 4.23512744 -1.1316879708 -4.9736044371
H 5.7919594244 -1.5817842832 -4.2458024976
H 4.5650040985 0.1105924653 -2.8683331769
H 4.6734838597 -1.333968424 -0.9341127114
H 2.2275526688 -0.7713342587 -3.4130916939
H 2.5725055579 -2.1397882941 -2.3418552581
H 2.2779751607 0.8354531014 -1.5518205093
H 1.3230123791 -1.8300475839 -0.2611226002
H -0.7416105428 1.3200104809 1.7562765018

