# b3lyp 6-31G(2df,p) opt Freq 

 titel

0 1
C 2.6491250451 -1.6848962925 -0.5488413309
C 2.4989187882 -0.6442672856 0.5238136368
O 3.3115065966 -0.8323199126 1.698823876
C 3.4959694254 0.3684976662 0.8915757283
C 2.764985885 1.5489475226 1.4456198038
C 1.4570266165 1.2933346486 1.4810590719
C 1.1066154406 -0.0899352732 0.9348499989
C 0.0931004033 -0.028577265 -0.2020521578
O 0.5351020527 -0.9103279386 1.9491585292
H 2.0591282236 -2.5734850782 -0.2992754614
H 2.3069995474 -1.312639056 -1.518973055
H 3.6962964502 -1.983990248 -0.6377602842
H 4.4710074024 0.4502731451 0.4207041256
H 3.2583812581 2.4441836643 1.8040483942
H 0.6887885265 1.9315245351 1.9037697142
H -0.1376152377 -1.0342011827 -0.5640608699
H -0.8359608185 0.4216593997 0.1588971162
H 0.4691738523 0.5742108471 -1.0335023163
H 1.2473937625 -1.0593148661 2.5860811002

