# b3lyp 6-31G(2df,p) opt Freq 

 titel

0 1
C 1.3705770997 1.0611117505 0.2688622392
C 0.1210075646 0.2432744123 0.2025773479
C -0.0196712589 -1.047317827 0.5226001849
C -1.4295471266 -1.5275020224 0.2681585525
C -2.03269243 -2.5045249959 1.2478608764
O -3.2003713927 -2.4882212001 1.5587280376
C -2.2290971066 -0.2017062344 0.1722270414
O -3.3513285871 -0.254089435 -0.6781991487
C -1.186898302 0.8209779818 -0.3062261655
H 1.2363133228 1.9334667471 0.9208187919
H 2.2167216548 0.4795564579 0.6447921311
H 1.6378347031 1.4527435449 -0.7208653814
H 0.7764502825 -1.6933929509 0.8785317839
H -1.4838380412 -2.041894371 -0.7096671233
H -1.3463000816 -3.277488386 1.6619307772
H -2.5358662507 0.0632381486 1.1948747751
H -3.9838407726 -0.8437376757 -0.2508768854
H -1.1943081011 0.8697222873 -1.4045610009
H -1.3866223366 1.833872728 0.059105736

