# b3lyp 6-31G(2df,p) opt Freq 

 titel

0 1
C 1.1980889338 -0.1557865741 0.9923057694
C 0.9265319959 0.0385670719 -0.5032863264
C 1.8830104653 -0.7748837377 -1.3754234853
C 3.3316630892 -0.2735079592 -1.4475069542
O 4.2321008466 -0.0558074556 -0.701116765
O 3.3087989945 -0.0866044247 -2.809918327
C 1.925342666 -0.5226423088 -2.8805113227
C 1.4283747134 -1.3000281712 -4.0441842835
C 0.9663878 0.1355441232 -3.8062626085
H 1.0498516645 -1.2002395353 1.2875881909
H 2.2278752899 0.1176377779 1.2382841829
H 0.524452884 0.4608874845 1.5940953506
H -0.1032140768 -0.256321389 -0.7413870571
H 1.0137566575 1.0990994121 -0.7666870935
H 1.8399386558 -1.8378216845 -1.1149227922
H 2.12132682 -1.4705424492 -4.8606227076
H 0.7281372622 -2.1090660472 -3.863758192
H 1.3587920301 0.9009602198 -4.4665412564
H -0.0488734018 0.3060009072 -3.4635732225

