# b3lyp 6-31G(2df,p) opt Freq 

 titel

0 1
C 0.0817036972 -0.0356726179 0.0367043526
C 1.5992448196 0.0308916603 -0.0084294397
O 2.0642302457 -0.2285131361 1.2989142596
C 2.2205958977 -0.7951634626 -1.1377886029
C 3.6068921743 -0.2556313074 -1.4247136388
O 4.27469031 0.4690708176 -0.4017788478
C 3.5209318565 1.6822893123 -0.2004190314
C 2.1348777601 1.3389914134 -0.7287266877
C 2.4379815175 0.4749847862 -1.9779583877
H -0.299568502 0.678784108 0.7727050068
H -0.3526972154 0.1968373336 -0.9391137857
H -0.2432115139 -1.0367236922 0.3361325819
H 3.0212475408 -0.3400778759 1.2346044069
H 1.905502919 -1.7844162418 -1.4541814764
H 4.2770704521 -0.8334491016 -2.0490999526
H 3.5281323328 1.910577026 0.869005793
H 3.9825053233 2.5129290216 -0.7528399425
H 1.4428089281 2.1769783568 -0.8073316881
H 2.2270935867 0.6876251099 -3.0165372994

