# b3lyp 6-31G(2df,p) opt Freq 

 titel

0 1
O 1.4633303333 0.7621946675 0.1399800203
C 0.4902899083 -0.1530011817 0.6256980492
C -0.3903384239 0.4525905281 1.7351688541
C -1.506370156 -0.5008867643 2.1198661187
C -1.5646099761 -0.9592076734 3.370440957
C -0.4960431648 -0.4474109748 4.3153170096
C -0.4440206953 1.0976990992 4.2240752296
C 0.4330317179 0.7634021482 2.9991176169
O 0.7965980294 -0.50272439 3.6290514564
H 2.2350853525 0.7072201461 0.7098813589
H -0.1374868479 -0.421548016 -0.2312173265
H 0.9523528532 -1.0738871844 1.0039034243
H -0.8097462788 1.3892593879 1.3412029169
H -2.2156393011 -0.8051959483 1.3547327141
H -2.3350007841 -1.637578489 3.7211645121
H -0.4690498237 -0.9421774507 5.2876786079
H -1.3805731235 1.6386421907 4.0795290342
H 0.1479055544 1.5408768566 5.0267651439
H 1.3041916159 1.3898490084 2.7879229026

