# b3lyp 6-31G(2df,p) opt Freq 

 titel

0 1
O -0.0644143882 -1.3602203027 -1.4528407684
C 0.1802730034 -0.2338954065 -0.6200825999
C -0.5683714108 0.9485883327 -1.2209119173
C -2.092269578 0.7089015193 -1.3265634286
C -2.8321490501 1.945370029 -1.7584775239
C -2.3376823888 3.1760251017 -1.6374661375
C -0.9967967077 3.47452479 -1.0172051221
C -0.2971920864 2.2386244978 -0.4631934143
O 0.423905181 2.2912406082 0.5076379917
H 0.385944722 -2.1181978412 -1.0698641751
H -0.1711921954 -0.4066372875 0.4080998142
H 1.2515368182 0.0009518058 -0.5596834139
H -0.2034857462 1.1073923679 -2.2470422885
H -2.2685323686 -0.1153901074 -2.023531389
H -2.4763744929 0.3612401272 -0.355363207
H -3.8216484512 1.8044234828 -2.1860045638
H -2.9162063357 4.0328313631 -1.9734877545
H -0.3251006126 3.9320428293 -1.7608859895
H -1.077764852 4.2069093804 -0.2059998827

