# b3lyp 6-31G(2df,p) opt Freq 

 titel

0 1
C -3.7899898749 -0.8739020262 2.061161922
C -2.4986851675 -0.9640580636 1.3033555132
C -2.3240399347 -1.786152717 0.0823262903
C -2.1788779432 -0.285273502 -0.0887155737
C -3.1274837778 0.4915041429 -0.8888514517
O -4.2456926584 0.1238178665 -1.1821180404
C -0.8405509626 0.1897465782 0.4516761153
O 0.2550462944 -0.2570560257 -0.3160609551
C -1.1275323659 -0.5140388246 1.824528149
H -3.8867070081 -1.711455239 2.7624638769
H -3.8503306298 0.0536916233 2.6404840129
H -4.6414386851 -0.9042019898 1.3752707593
H -1.4366039279 -2.3959356697 -0.0599120183
H -3.2353818631 -2.1736983652 -0.3606436419
H -2.7594736919 1.4979276672 -1.194500021
H -0.8250529767 1.2831701974 0.566021937
H 1.0657374254 0.0382368896 0.1112936752
H -0.43659842 -1.3234308 2.0809435433
H -1.185618492 0.1892661676 2.6587831077

