# b3lyp 6-31G(2df,p) opt Freq 

 titel

0 1
O 0.5417266932 0.1565223561 -0.1360016844
C -0.4761864623 0.4237888917 0.7839895405
C -1.9241909329 0.2601247397 0.4099001064
C -3.0574598704 1.1298422984 0.9613307505
C -3.3133994799 0.8151840282 2.4449915851
C -2.0308556525 0.8715009284 3.2946915999
C -1.8906043152 -0.5811252859 2.7920600071
O -3.3479989209 -0.6296848034 2.625492314
C -1.2722606492 -0.6961924846 1.4109509149
H 0.2274152702 -0.5049159582 -0.7606959963
H -0.1780819603 1.2663969409 1.397497644
H -2.0889685522 -0.1293099735 -0.5917587436
H -2.8580342082 2.2016839954 0.832623546
H -3.975144172 0.9061896745 0.4073963715
H -4.2185021305 1.3004621881 2.8199488732
H -1.262831752 1.6118309097 3.0674687974
H -2.2593342151 0.8920237746 4.3612338075
H -1.5344785495 -1.3430838741 3.4886820634
H -1.0470118801 -1.705071796 1.0763400529

