# b3lyp 6-31G(2df,p) opt Freq 

 titel

0 1
C -0.0514113114 0.1065265454 -0.076532074
C 1.467415365 0.0702194897 -0.0101117771
C 2.0705820608 -0.3837545201 1.3442047829
C 3.5952785214 -0.3629970714 1.1004266698
C 3.6528851727 1.0703778052 0.444048368
C 4.2925890973 1.1047349894 -0.9177916581
O 3.7014683415 1.2841678807 -1.9545796567
C 2.1384720245 1.3706069676 0.5012397567
O 1.8242277629 0.957714592 1.8696053993
H -0.4692555053 0.5598582246 0.825807985
H -0.3864025745 0.6864203581 -0.9426952129
H -0.4623318599 -0.9038221592 -0.176968061
H 1.8975847516 -0.3714046833 -0.9121933032
H 1.6524472477 -1.1869660562 1.9520734592
H 4.1620564699 -0.4161727362 2.0311272515
H 3.9299468102 -1.1646805398 0.4354450904
H 4.2112330574 1.7525016477 1.0951046263
H 5.396307056 0.9482818458 -0.9140595907
H 1.7922032822 2.3696228199 0.2392979949

