# b3lyp 6-31G(2df,p) opt Freq 

 titel

0 1
C 1.0343254201 1.6687786682 -1.3304795666
O 1.7331706945 0.4435254319 -1.1555720206
C 1.0031515785 -0.247421199 -0.1513594321
O 0.6427068909 0.7421111014 0.7871065094
C 0.2655359287 1.883513134 0.0097088385
C -1.2703517698 1.9768393402 -0.1363642268
C -1.9766341665 0.6299538528 0.1216270063
C -1.4558177114 -0.5483901769 -0.6745061227
C -0.1871124669 -0.9497581399 -0.7605905916
H 1.7713586795 2.4516619119 -1.52702082
H 0.3407534861 1.6129248743 -2.1794650841
H 1.6909524493 -0.9487154612 0.3318512926
H 0.6464623953 2.7614490033 0.5384713936
H -1.6675264123 2.7104049169 0.5736847064
H -1.5172913077 2.3489097551 -1.1380960461
H -1.8874124419 0.399065701 1.1891285285
H -3.0449624116 0.7559821574 -0.0799233242
H -2.2054058871 -1.1350183729 -1.2016763877
H 0.0637594424 -1.8231361385 -1.358146963

