# b3lyp 6-31G(2df,p) opt Freq 

 titel

0 1
C -0.2372369952 -0.2572530019 0.0629567524
C 1.2684013356 0.0061335008 0.0366956345
O 1.7584958069 -0.5205212748 1.2541814864
C 2.2430835923 -0.3541828015 -1.1389791208
O 3.1929477746 0.5907361291 -0.493357478
C 1.9543182873 1.3834057707 -0.271058284
C 1.6211690122 1.7990036679 -1.7079539491
C 0.5102220717 1.1411733976 -2.4878149236
C 1.8456829737 0.4478651588 -2.382839975
H -0.4724775769 -0.7645124447 0.9998003919
H -0.8196174254 0.6666697944 0.0247770939
H -0.5589398754 -0.9016474962 -0.7589400065
H 2.7116105405 -0.3526214244 1.2351826651
H 2.649622546 -1.358595336 -1.2608840377
H 2.0660199411 2.1530756383 0.493212987
H 2.071303752 2.7098300741 -2.0843323621
H -0.3822029787 0.7595269549 -2.0205859425
H 0.3192238226 1.593644889 -3.4572268255
H 2.4644330151 0.3438602442 -3.2661394866

