# b3lyp 6-31G(2df,p) opt Freq 

 titel

0 1
C -0.96568017 2.0194334407 -1.2505952531
C -0.9658959092 1.1228284765 -0.0259678615
O -2.0700022249 0.1786071742 0.0143258643
C -1.2244951104 -0.9833482256 0.0646153724
C -1.3377282477 -2.0069879706 1.2205645004
C -1.0000725058 -3.1216175693 0.1924072195
C -1.3921370385 -2.1410581503 -0.947102001
C -0.0002661461 -0.0731767351 -0.0136369314
O 1.1831939343 -0.2271117218 -0.069142143
H -0.9812655847 1.4277143317 -2.1701091818
H -1.844617084 2.6706143269 -1.2428503594
H -0.0688118308 2.6467191777 -1.2521842856
H -0.9231137455 1.717485634 0.8972635629
H -0.680932889 -1.8723402485 2.0829079012
H -2.3762234544 -2.0596683842 1.5593050393
H 0.0680328627 -3.3487571075 0.1793481334
H -1.5615179159 -4.0541769202 0.264592437
H -0.7777017847 -2.114248808 -1.8498592871
H -2.4454118652 -2.2329308605 -1.2266471065

