# b3lyp 6-31G(2df,p) opt Freq 

 titel

0 1
C -0.4225275489 2.3346095929 1.0196155039
C -0.8412663215 1.2361030843 0.0766544018
O -0.8534444411 1.65481897 -1.3240545963
C -2.2440006393 1.2895515496 -1.4690591154
C -2.3089858848 0.739600898 -0.0315893873
C -2.2804397745 -0.7962924919 0.1029764857
C -0.849753795 -1.2190187895 -0.2853593791
C 0.021231739 -0.0417239676 0.1531276954
O 1.1710811342 -0.0822507616 0.5048886929
H -0.5506551305 2.0171731034 2.0600259536
H 0.6354044711 2.5664144287 0.8683990909
H -1.0155557701 3.2373287249 0.8504571543
H -2.8694838414 2.1676910579 -1.6696928808
H -2.3983372711 0.555704044 -2.2707329849
H -3.0447656668 1.2139435143 0.6186142239
H -2.4771035587 -1.0745165601 1.1443987546
H -3.0495034185 -1.2767823208 -0.5089603347
H -0.5090641354 -2.1523162184 0.1656498613
H -0.7476594667 -1.322602088 -1.3730361799

