# b3lyp 6-31G(2df,p) opt Freq 

 titel

0 1
C 1.5240890504 0.1320781196 -0.0373501963
C 0.0706126582 0.0671642396 -0.0141370683
C -1.1313322954 0.0165885767 -0.0023176946
C -2.5837871054 -0.0618466387 0.0354484167
O -3.1423189927 0.7015835501 -1.0228516174
C -4.5512500898 0.6630690635 -1.0275996034
C -5.0405619517 1.4876898503 -2.217535055
C -6.5344312031 1.7144290345 -2.1760976499
O -7.2991982959 1.4387082106 -3.063264188
H 1.9094518883 0.7842569387 0.7538928206
H 1.9684209997 -0.8596706765 0.1005890753
H 1.8821318051 0.5244310885 -0.9953907743
H -2.9080041224 -1.1137850956 -0.0449533248
H -2.9571414663 0.3078795979 1.0063897763
H -4.9135722001 -0.3756575388 -1.1059942802
H -4.9531976227 1.074587336 -0.0844179146
H -4.5497307427 2.4694349396 -2.1633623405
H -4.7697905578 1.016767224 -3.1650183414
H -6.9013635258 2.18089609 -1.2309139602

