# b3lyp 6-31G(2df,p) opt Freq 

 titel

0 1
O 1.1608733907 0.2385832499 0.1560481114
C 0.0837188109 -0.3038871542 0.1354405284
C -1.1068076042 0.2159755558 -0.6224288439
C -2.5752939456 0.3942300061 -0.1181776304
O -2.7988107914 1.2244277326 -1.3213082612
C -1.5147970213 1.7039414461 -0.7489361767
C -2.1959538707 1.6940835615 0.6710874481
C -1.3776972121 1.6075698157 1.9561985354
C -3.3225768557 2.7123598348 0.846835712
H -0.0701991146 -1.2934412497 0.6269275406
H -1.1129719247 -0.2832167698 -1.5994445867
H -3.3223097969 -0.3689402212 0.1078512001
H -1.0028013166 2.5134119081 -1.2694218376
H -0.8657284867 2.5575222546 2.1436262394
H -2.0478816861 1.4272972873 2.8038369991
H -0.6187418728 0.8264063916 1.9707235816
H -3.986036783 2.4096827211 1.6647902032
H -2.9083244355 3.6910291072 1.113891621
H -3.9124909238 2.8153896924 -0.0627827538

