# b3lyp 6-31G(2df,p) opt Freq 

 titel

0 1
C 1.3534068292 0.0835335106 -0.0892596263
O -0.0493064709 0.0698917809 0.0316642103
C -0.5070169083 0.6196452975 1.2459740639
C -2.0338443965 0.6094945254 1.222585558
C -2.6167487862 1.2086218591 2.5147877758
C -2.5779427396 1.3549609305 0.0055474019
O -3.4196204975 0.8866082995 -0.7271753145
C -2.0691194899 2.7051357609 -0.2083034694
C -1.6647861644 3.8254892688 -0.3845232935
H 1.8365235437 -0.5097121001 0.7031942919
H 1.6015037137 -0.3540017789 -1.0589288661
H 1.7560514591 1.1076078233 -0.0457747406
H -0.14432691 0.0324227516 2.1065349781
H -0.1336904141 1.6497697097 1.3706401965
H -2.3785258833 -0.4221952108 1.1034807541
H -2.2462599177 0.6631875939 3.3881464965
H -2.3356138953 2.2606734718 2.6260590424
H -3.7081113034 1.1457797575 2.5136442702
H -1.3180935787 4.8156036188 -0.5566823395

