# b3lyp 6-31G(2df,p) opt Freq 

 titel

0 1
O 1.4493704395 0.1594624645 -0.7658684577
C 0.2059181969 0.1662800716 -0.086456724
C -0.8912080367 0.3631440038 -1.1104748788
C -2.3419988988 0.552487902 -0.5958528351
C -2.5536266954 1.6115553385 -1.7077786753
O -3.347014574 2.7393533028 -1.475047644
C -0.996431022 1.7557485501 -1.8213286301
C -0.4029370704 1.9578170025 -3.123310949
C 0.0519842347 2.1110018625 -4.2261223222
H 2.1506404976 0.0493131113 -0.1171530971
H 0.0344371117 -0.7799880508 0.4540387024
H 0.159380722 0.978489483 0.6594228755
H -0.8351504917 -0.4300398109 -1.8607566358
H -3.0070209331 -0.3127661501 -0.5790537216
H -2.3530053354 1.0236156402 0.3952768684
H -2.9461797355 1.1511793166 -2.617964765
H -3.0324130614 3.170734375 -0.6733926466
H -0.6631069645 2.5345035558 -1.1215453069
H 0.4674665565 2.2477905816 -5.193337797

