# b3lyp 6-31G(2df,p) opt Freq 

 titel

0 1
C 0.709696755 0.7537256387 0.1758775027
C 0.9396511892 -0.746984604 0.3147598473
C 1.5839136421 -1.3837212646 -0.9234481359
C 2.2434406784 -2.6895166885 -0.5364479636
O 1.8041038324 -3.3596368978 0.6288539759
C 2.0942691621 -2.5042097813 1.7352211125
C 2.245358495 -1.1152024369 1.114334885
O 2.7714254182 -0.2153689414 2.0376573597
C 2.9605222258 -1.4195324041 -0.2471536319
H 0.4563216203 1.2064519381 1.140122846
H 1.5951301799 1.2638356215 -0.2252978378
H -0.1149464314 0.9579021455 -0.5143536501
H 0.0269857668 -1.23294226 0.6816400986
H 1.3378162167 -1.1454370747 -1.9531859664
H 2.562074716 -3.3643159532 -1.3219133465
H 1.2671321973 -2.5599852694 2.4496961619
H 3.0260692011 -2.8053437353 2.2363581358
H 2.8216206531 0.6537481579 1.6271666842
H 3.9520768419 -1.1282640106 -0.5690003873

