# b3lyp 6-31G(2df,p) opt Freq 

 titel

0 1
C -3.1362499766 0.2655040089 -1.1730943408
C -2.1764479403 -0.1238374784 -0.0852163253
C -2.6554399741 -0.6667475282 1.2799300926
C -1.5255510872 -1.7392604641 1.2454078312
C -1.059307364 -1.2183399745 -0.1567218366
C -0.7946267264 -2.1995201358 -1.2733745359
C -0.123228749 -0.0256940575 0.0095579477
O 1.0498042799 0.1737729858 0.0500908592
O -1.133400017 0.8999298289 0.121096754
H -3.8382616137 -0.5494074153 -1.3747859235
H -3.7153890064 1.1460706529 -0.8747647331
H -2.6044767992 0.5061642412 -2.0982619104
H -2.6136102235 0.0664121444 2.0872673474
H -3.6592927957 -1.0966665149 1.2430102775
H -0.7756014486 -1.6923931133 2.0373122879
H -1.9056919655 -2.761883883 1.1903959833
H 0.1223357012 -2.7623738063 -1.069169686
H -1.6155964239 -2.917422318 -1.3713545325
H -0.6640444902 -1.6937604727 -2.2352558667

