# b3lyp 6-31G(2df,p) opt Freq 

 titel

0 1
C -0.2392690397 -3.5728771711 -0.8424109142
C -0.5702601588 -2.189126954 -1.3576389697
C -1.5204108229 -2.0025014286 -2.4625924289
O -1.9034076285 -1.7375551269 -1.1069092215
C 0.5100939001 -1.1505079478 -1.1250769817
O 0.1926499968 0.1265362694 -1.7386552823
C 0.0753176877 0.7320849629 -0.4456800227
C 1.3901925163 0.71237657 0.2657952447
C 0.5058672205 -0.5196556867 0.2708532239
H -0.0027170168 -3.5474722867 0.2270656659
H -1.0909057674 -4.2417891728 -0.9848343209
H 0.6265687536 -3.990244264 -1.3673692637
H -1.4340175153 -1.1209383901 -3.0915851951
H -1.9866516479 -2.8766184396 -2.9159392334
H 1.4736414714 -1.539306833 -1.4829828716
H -0.7353309599 1.4318342912 -0.28561982
H 2.3123801632 0.7336569045 -0.3087343469
H 1.4214540926 1.2474501792 1.2101773985
H 0.120499835 -0.9811221758 1.1693248695

