# b3lyp 6-31G(2df,p) opt Freq 

 titel

0 1
C 1.049343089 -3.0832255064 -0.3524854358
C 1.304676662 -1.7726177278 -1.0505564547
O 2.2091519287 -0.8949965305 -0.4450057654
C 1.6097328263 0.2841598297 0.0583645309
C 0.8790492854 1.2285069705 -0.9418616715
C -0.4633267283 0.9971970156 -0.1857668337
C 0.2606262459 0.0518796186 0.8184304647
O -0.1494436571 -1.3011178424 0.8841176734
C 0.0065772301 -1.9961659459 -0.3190268557
H 0.8601786369 -3.9632618377 -0.9570710201
H 1.5965794584 -3.2481771465 0.568156719
H 1.3110248627 -1.7489683408 -2.1386842254
H 2.3877649231 0.7683780697 0.6522333374
H 1.248917332 2.2562890681 -0.9388847728
H 0.8889753278 0.8659085567 -1.9720104314
H -0.9033127974 1.8854659983 0.2730732855
H -1.236785424 0.4993685595 -0.7745860816
H 0.2564576236 0.4016486712 1.8528995035
H -0.9128527453 -2.1319625097 -0.8854445265

