# b3lyp 6-31G(2df,p) opt Freq 

 titel

0 1
O 1.2522926627 0.6985955642 -0.2019190551
C 0.2980210704 -0.1732439699 0.3913510462
C -0.8139601563 0.5797730827 1.1078169227
C -2.1181939063 -0.2093467989 1.4109120094
O -2.8856643381 0.7667137813 2.1309130683
C -3.0459343432 1.7011922079 1.0462728985
C -3.9069399716 0.8932996221 0.0528387212
C -2.6209326265 0.0645877938 -0.071448673
C -1.759279442 1.3600482145 0.1798007445
H 1.6437024616 1.2252965003 0.502599858
H -0.0991131691 -0.7712935648 -0.434835719
H 0.7819998657 -0.8718356879 1.0927975248
H -0.4144085137 1.1132220726 1.9795706886
H -2.1472909147 -1.1784306621 1.907976939
H -3.2987428165 2.6923114579 1.4189439087
H -4.8199619565 0.4390260585 0.4457152021
H -4.1066775076 1.4381668171 -0.8739828411
H -2.4314058901 -0.6703755842 -0.8497706106
H -1.4361654679 2.0455735048 -0.6003230631

