# b3lyp 6-31G(2df,p) opt Freq 

 titel

0 1
C 1.4953862165 0.9347637298 -0.8645408163
C 0.8442412758 1.4860485722 0.4345671554
O 1.7262771905 1.4182474859 1.54009106
C 2.5726659257 0.2718785445 1.4924657697
C 1.8396076998 -0.9409213675 0.8980787892
C 0.6897894903 -1.3852614857 1.8190707972
O -0.3695599978 -0.4507429861 1.5954123792
C -0.0971846854 0.2182665156 0.3910414882
C 1.060478239 -0.4685491235 -0.3674813063
H 0.9268645456 1.2314743748 -1.7495557581
H 2.5527331 1.1446869692 -1.036474452
H 0.4011590871 2.4828468038 0.4438355829
H 3.4716715679 0.4883326012 0.8975300834
H 2.8964883468 0.0824739119 2.5206149207
H 2.5493105146 -1.7492744481 0.7006365038
H 0.3479910135 -2.4011629485 1.5710644437
H 0.9617321733 -1.363484699 2.8796233236
H -1.0216764832 0.3924964953 -0.165066378
H 0.8630747201 -1.2686560059 -1.0832339263

