# b3lyp 6-31G(2df,p) opt Freq 

 titel

0 1
C 1.4146110372 -0.247956607 0.0718855613
C -0.0268468326 -0.0744991783 0.0200767198
C -1.2241895785 0.0697069583 -0.0356266016
C -2.6621691004 0.2527677151 -0.1045010215
O -3.2030493648 0.6691037138 -1.10763218
C -3.4361635739 -0.109675189 1.1538304052
C -3.3318551401 -1.6032545488 1.5023936333
C -4.0795552153 -1.948717494 2.7840729044
O -3.9109136868 -3.3369112361 3.0214783577
H 1.8220252832 0.1124459662 1.0224615621
H 1.6777348444 -1.3074593005 -0.0208897413
H 1.9101359314 0.2937951057 -0.7402730174
H -3.0379565813 0.4873070573 1.9854190767
H -4.4761626705 0.1854360973 0.9859999789
H -3.7376684787 -2.208693956 0.684211774
H -2.2814354623 -1.8891751437 1.6207029473
H -3.6800252774 -1.3480455727 3.618445988
H -5.144755529 -1.6867233905 2.6764469888
H -4.4100889745 -3.5710742671 3.8092086244

