# b3lyp 6-31G(2df,p) opt Freq 

 titel

0 1
O 0.0640349039 -0.6731466403 0.513664457
C 0.7934541826 0.1112854836 -0.04120756
C 0.4181208792 1.5258345895 -0.3830284245
C -0.9898091419 2.0393382844 -0.0044386055
C -1.118663015 2.6598852392 -1.420903303
C 0.0686729024 1.7757474335 -1.9003185479
C 1.1267782135 2.3888506061 -2.7671337778
C 1.2525544129 2.0836531583 -4.1988081626
O 2.1460511738 1.504671626 -3.2470085786
H 1.8093961379 -0.1920105111 -0.3809188511
H 1.2262361966 2.1991831094 -0.0733344453
H -1.669009537 1.1992412285 0.1560152256
H -1.059971961 2.7164813727 0.8484510682
H -2.0672507756 2.5382588633 -1.9478925639
H -0.8516245468 3.7214970743 -1.4289115591
H -0.2874046381 0.8488256704 -2.3606296152
H 1.5092889866 3.3518347679 -2.4199457277
H 0.5507451451 1.3914492652 -4.6624846623
H 1.695374591 2.816067589 -4.8722701964

