# b3lyp 6-31G(2df,p) opt Freq 

 titel

0 1
C 2.713608407 -2.1854099059 -0.7336203724
C 1.8186048876 -2.2922984972 0.4926119632
O 0.7838134887 -3.206902624 0.179910727
C 1.2338202053 -0.9138971169 0.890430772
C 0.3196077693 -1.0125506798 2.0185401912
C -0.4372242243 -1.1410116429 2.9524731521
C -1.3435113534 -1.2491987835 4.0826485438
C -1.9647239715 -2.6151406979 4.294675873
O -1.5777727112 -0.3003562887 4.7998641196
H 3.1055086015 -3.1710912682 -0.9959920902
H 2.1445915375 -1.8058304713 -1.5882094655
H 3.5563957007 -1.5138595784 -0.5451747871
H 2.4119645155 -2.6615884146 1.344892348
H 0.1856813376 -3.2380113846 0.9358202442
H 2.0460717437 -0.2158240421 1.1277785533
H 0.695255629 -0.5001135742 0.0279452571
H -2.6205221913 -2.5873914106 5.1659847277
H -2.5346206732 -2.9112572553 3.4070902693
H -1.1814781882 -3.3672766339 4.4396378837

