# b3lyp 6-31G(2df,p) opt Freq 

 titel

0 1
C 1.4122430826 0.7880285871 0.1725159307
C 0.0153385998 0.2576144121 0.1731033069
C -1.1383755887 0.9204311504 0.136996845
C -2.2999899794 -0.0274248398 0.1320732419
O -1.7100928919 -1.328221937 0.1665857982
C -0.2862341632 -1.2374166421 0.2210282432
C 0.3506742591 -2.0489549761 -0.9098007713
C 0.1658212422 -1.7635915999 1.5913492991
O 1.2940996964 -2.0851306691 1.8607859271
H 1.9901050615 0.3800692856 1.0088764726
H 1.9428251611 0.4984554308 -0.7424411052
H 1.4206612899 1.8786679914 0.2383565321
H -1.2525726162 1.9967570252 0.0903689749
H -2.9629708201 0.1058182923 1.0005979562
H -2.925372636 0.0720711771 -0.7686267649
H -0.0587000545 -3.0627807503 -0.9105895068
H 0.137908388 -1.5859049077 -1.8767432192
H 1.4312566942 -2.1138146421 -0.7632633864
H -0.6596136849 -1.7910906179 2.3372814061

