# b3lyp 6-31G(2df,p) opt Freq 

 titel

0 1
C 5.7021640165 0.7093738999 -3.025306691
C 4.6024464301 0.555961771 -1.9784103175
C 4.6310668163 -0.7833057782 -1.2677256728
O 5.3920675752 -1.6711726448 -1.5663102025
C 3.6658428525 -0.9802270976 -0.0765051245
C 2.3670378237 -0.3342362089 -0.1903263134
C 1.2907094708 0.195237716 -0.3081989739
C -0.0190530965 0.8422523408 -0.3894468528
O -0.1572098739 1.957465646 0.479818366
H 6.692715086 0.6291765887 -2.5695292618
H 5.6298595425 -0.0749050856 -3.7827084482
H 5.6280183604 1.6804993741 -3.522199061
H 4.6504147735 1.3461378675 -1.216406064
H 3.6044954301 0.6667226462 -2.4221096807
H 3.5683472579 -2.0593870606 0.078478164
H 4.1939625664 -0.5892429515 0.8063745754
H -0.1845487329 1.2323943771 -1.3999226753
H -0.8054350834 0.0919383563 -0.2088251868
H 0.0715773949 1.6611374437 1.3669604007

