# b3lyp 6-31G(2df,p) opt Freq 

 titel

0 1
O -0.9679877729 -1.3360113064 0.6328952071
C -0.5179191443 -1.4829315218 -0.6673515574
C -1.0708815497 -2.7585489279 -1.351559077
C -1.6423977101 -1.9055061344 -2.5246832242
C -0.9779154157 -0.6405452194 -1.9380862458
C 0.5133908075 -0.4730178171 -2.3335271382
C 0.9709404599 -1.1750881344 -0.9938216128
C 1.6499401561 -0.170679789 -0.1126669636
O 1.1284175583 0.4404488859 0.7955443036
H -0.5133832251 -0.5632019997 1.003580631
H -0.3210111759 -3.5084899168 -1.6194206393
H -1.8333526336 -3.2346375441 -0.7324784671
H -1.3263794878 -2.1856098622 -3.5337824646
H -2.7336472024 -1.8566865603 -2.510726908
H -1.5653418086 0.2757155562 -1.8762787928
H 0.8180358696 -1.0064320553 -3.2369202172
H 0.8450079521 0.5648144523 -2.4213168965
H 1.638881682 -2.0346003845 -1.1250859331
H 2.7099792105 0.0364607288 -0.3810099942

