# b3lyp 6-31G(2df,p) opt Freq 

 titel

0 1
C 1.3122112205 1.149283999 -0.1267082911
C 1.089937802 -0.3507762482 0.0082014896
C 1.8904899332 -1.1784525991 -1.0047988763
O 1.9733635541 -1.0017427175 -2.3691294282
C 2.1748241028 -2.5099317231 -0.2867390935
O 1.5352997166 -2.4645904748 0.9854894221
C 1.989779247 -1.0692002026 1.0658926456
C 2.1945626226 -0.5763484993 2.4634395843
C 3.0700100006 -1.334838449 -0.0604191821
H 0.8638243923 1.6960060711 0.7091683253
H 2.3803857704 1.3905510194 -0.161693805
H 0.8630842944 1.523072779 -1.0523146137
H 0.0238193588 -0.5898058845 0.1112532894
H 1.233316455 -1.4617196914 -2.7814997294
H 2.3340882216 -3.4596922565 -0.7813265092
H 2.9277819287 -1.1954711417 2.9876670158
H 2.5464425603 0.4594111236 2.4625112076
H 1.2502275805 -0.6194547688 3.0170878935
H 4.1343165987 -1.1706409058 -0.1533990648

