# b3lyp 6-31G(2df,p) opt Freq 

 titel

0 1
C 1.2324515658 1.1036238701 0.3024782348
C 0.808417828 -0.327644967 -0.0511404674
C 1.6418185835 -0.9475515848 -1.1376191461
C 3.1690880779 -1.1559670987 -1.0142598155
C 3.2125929854 -2.0898772894 -2.2344153461
O 2.4096583893 -3.2170713685 -1.7676259651
C 1.2995240372 -2.3290881393 -1.8876196233
C 1.9344510429 -1.509172045 -3.0069468551
O 1.5765930281 -0.2560887859 -2.4365310269
H 0.5640570929 1.53102475 1.0554937349
H 2.2503117998 1.1314114045 0.703872226
H 1.2020739036 1.7432796217 -0.5839042048
H 0.8701096413 -0.974339889 0.8332338885
H -0.2399761625 -0.3327046523 -0.3725060696
H 3.7039458545 -0.21249577 -1.136086282
H 3.4947600974 -1.6802055103 -0.1136277241
H 4.1545565821 -2.3777728983 -2.6963469555
H 0.3073275097 -2.7743260608 -1.8355293863
H 1.8156555331 -1.608862677 -4.0839034064

