# b3lyp 6-31G(2df,p) opt Freq 

 titel

0 1
C 2.2434001195 -1.0325897137 -1.0966411945
C 1.7219384663 -0.2986993776 0.1406406029
C 2.0789304961 1.2030118264 0.1254143305
C 1.6006438361 1.9432354092 1.3331011923
C 2.3036856459 2.5181933763 2.313051437
C 1.3827765923 3.1299937149 3.2942488561
O 1.6108583294 3.7330909444 4.3038201416
O 0.0969207952 2.8945920092 2.8524074881
C 0.1381484011 2.159251808 1.6364491287
H 1.9835045707 -2.0946483969 -1.0632438118
H 1.8187735271 -0.6132173529 -2.0153127189
H 3.3336623016 -0.9577562413 -1.171147033
H 0.6337622417 -0.417425919 0.2061892662
H 2.1366636035 -0.752904251 1.0481737292
H 3.1649290526 1.3169640415 0.0388437005
H 1.6422950228 1.658423111 -0.7748402555
H 3.3768848869 2.5705175463 2.4260958835
H -0.4107401936 1.2181070686 1.7673021076
H -0.3652247051 2.7328501867 0.8465930294

