# b3lyp 6-31G(2df,p) opt Freq 

 titel

0 1
C 0.503561167 0.8324018226 -0.7566989365
O -0.0026019086 -0.0903477413 0.2152924294
C 1.4140511342 0.1416147829 0.154058841
C 2.3015190586 -1.0394856882 -0.2025235038
C 2.7595999383 -1.565247813 1.1783177228
C 2.884987085 -0.3113373149 2.0638526036
C 4.0630033372 0.6350147742 1.7533623937
O 3.2002447275 1.5665096208 1.0625153054
C 2.0223549768 0.7881172034 1.3816273554
H 0.4318728028 0.5036848011 -1.7928492195
H 0.2543783256 1.8788817007 -0.5855949221
H 1.7678946474 -1.783349156 -0.7977505966
H 3.1587532816 -0.6865674149 -0.786723954
H 1.9894850381 -2.2248756473 1.5921972415
H 3.6902657179 -2.1388568447 1.1300703857
H 2.7123523521 -0.5088310168 3.1216797227
H 4.5354854795 1.0972215416 2.6288180038
H 4.8465377764 0.2334054782 1.0977126991
H 1.2911536226 1.3532467214 1.9675969083

