# b3lyp 6-31G(2df,p) opt Freq 

 titel

0 1
C 5.4818806072 -1.630229803 -2.9657150592
C 4.6706241825 -1.3753500426 -1.6930187097
C 4.7955863526 0.0789112291 -1.199754959
C 3.9797173966 0.3396710299 0.0537272023
O 4.480232234 0.5727279859 1.1341406103
C 2.5366049363 0.2821422111 -0.1077655521
C 1.3361320864 0.2506905119 -0.2422515414
C -0.1215920965 0.193575355 -0.3271730662
O -0.7825759535 0.7601441604 0.789611437
H 5.3821382821 -2.6693459813 -3.2937588039
H 5.1447247399 -0.9862932237 -3.7853506288
H 6.5467248667 -1.4314381331 -2.8042062579
H 3.6142532778 -1.6058198007 -1.8729385562
H 5.0058353549 -2.0511131543 -0.8971012444
H 5.8363113966 0.3197157205 -0.9636405606
H 4.4527804257 0.7590979759 -1.9903267601
H -0.465434716 0.7578647091 -1.2013751547
H -0.4199653289 -0.8549012703 -0.492945456
H -0.4090321345 0.36583319 1.5850892508

