# b3lyp 6-31G(2df,p) opt Freq 

 titel

0 1
C 1.229171732 2.937235471 0.9745834582
O 1.3453646873 2.9577141023 -0.4616795028
C 0.7476398317 1.7575018375 -0.9335686633
C 1.6422750918 0.5042810819 -0.7509253066
C 1.9963988711 0.5998254059 0.7567337281
C 0.8252540389 1.4919197381 1.2713876227
C -0.2397304025 1.2813035308 0.1537469785
C -0.4654561391 -0.1869044326 -0.2089923983
O 0.7217160874 -0.5703250289 -0.9338719598
H 2.1926342931 3.2142397871 1.4160854588
H 0.4728899485 3.667280919 1.2977205632
H 0.3695635427 1.9058648031 -1.9450691189
H 2.4768772865 0.3680041558 -1.4378012135
H 2.0038838963 -0.4016586005 1.1930425014
H 2.9698409032 1.0623211593 0.9412919486
H 0.5051012317 1.3070865012 2.2975143323
H -1.1490493019 1.8708907066 0.2772589367
H -0.5973521829 -0.8291622113 0.672799248
H -1.3350720058 -0.3246022264 -0.8617133032

