# b3lyp 6-31G(2df,p) opt Freq 

 titel

0 1
C 1.3311744863 0.0037158784 -0.1009593696
O -0.0422720136 -0.1564647173 0.2045105171
C -0.4649290526 0.5758037052 1.306965576
C -0.6432383108 2.0802839506 1.203790711
C -1.8482914104 1.1768712442 1.3579454811
C -2.4106299433 0.9388655856 2.7620770409
O -3.5778176342 0.1252387596 2.7678930345
C -1.247659367 0.3012641633 3.4997257367
C -0.2120075807 0.0627084684 2.6906112519
H 1.9791484294 -0.3600747313 0.7092797507
H 1.5279385015 -0.5871682139 -0.9983717865
H 1.5811942149 1.055333606 -0.2985359615
H -0.3294844289 2.7026139904 2.0361003437
H -0.5086541575 2.5205196392 0.2204045138
H -2.5247796418 1.0793259102 0.5176069129
H -2.7252925962 1.8789372295 3.2302430979
H -3.3090870258 -0.7521779718 2.4720368249
H -1.2967292643 0.0787206958 4.5593466064
H 0.7233412048 -0.4045421022 2.977637828

