# b3lyp 6-31G(2df,p) opt Freq 

 titel

0 1
C -2.9763747686 1.5181127509 -1.5848524908
C -1.9194977861 0.5146271013 -1.1429862043
C -0.8815937603 0.9917617831 -0.0536537679
C -1.9611039417 0.6158443875 1.016811571
C -2.3075534825 -0.4951556945 -0.0251864433
O -3.5574379782 -1.1007455963 -0.1100407963
C -1.046518745 -1.3839773561 0.0426028433
C 0.0015359007 -0.2434201641 0.0173135557
O 1.1986733954 -0.3297189011 0.0422863631
H -3.434087803 2.059725093 -0.7536481676
H -2.5381272283 2.2564453072 -2.2638051384
H -3.7774763823 1.0004751372 -2.1212163262
H -1.4709880961 0.0530554101 -2.03049886
H -0.3932240725 1.9627529204 -0.0898370662
H -1.6125912198 0.3096087384 2.0074574752
H -2.7397936701 1.3710863948 1.1115233398
H -3.6303099454 -1.7645323897 0.5840150567
H -0.9686109866 -1.9750781138 0.9619499442
H -0.9370835297 -2.0534583285 -0.8159496677

