# b3lyp 6-31G(2df,p) opt Freq 

 titel

0 1
O -0.2360535744 0.3096792563 -0.1171039128
C -0.6742703411 1.4112543989 0.6468486586
C 0.3367824581 2.574248042 0.7794289565
C -0.3034951811 3.4255625801 1.8622321618
C -1.1817312936 2.488750755 2.7092552116
C -1.0476279992 1.0974783808 2.1146759774
C -1.804100298 3.483503283 1.7672856079
O -2.4812339354 3.0719899674 0.6100057533
C -1.9255357428 1.9431310419 -0.0622365211
H 0.5526907879 -0.0493914365 0.3027183515
H 1.3140779974 2.1951121731 1.1069041935
H 0.4783333328 3.0969969543 -0.1719894887
H 0.244496518 4.2517134074 2.3012685864
H -1.2894139683 2.6155157264 3.780660381
H -0.2378737217 0.539629951 2.6037422816
H -1.960010428 0.4959622936 2.1797603113
H -2.3123415604 4.3424111582 2.1902844903
H -2.6819148464 1.1490156827 -0.1112243273
H -1.6674804438 2.2310746544 -1.0896701327

