# b3lyp 6-31G(2df,p) opt Freq 

 titel

0 1
C 0.9213338596 1.164769298 0.1806293323
C 1.2520617876 -0.3202693963 0.020535556
C 1.9937153145 -0.6958035417 -1.2465187393
C 2.918627066 -1.6331230024 -1.0373912055
C 2.9354825425 -2.0464274451 0.4180319909
C 4.2711871327 -2.3549351855 1.049459343
O 4.5429183148 -2.0625284019 2.1898314451
C 2.1940351975 -0.8742835609 1.1086185743
O 1.4934715754 -1.2267584133 2.2791668045
H 0.459561601 1.3470947962 1.1555564339
H 1.8257659408 1.7791284017 0.1109715348
H 0.2241890336 1.503441645 -0.5926592005
H 0.3136354749 -0.8942531482 0.0735494972
H 1.7568773039 -0.2571513738 -2.2101288245
H 3.5520629888 -2.0838845884 -1.793651277
H 2.3405041433 -2.969217642 0.5503255792
H 5.0038931494 -2.9010852582 0.4132843333
H 2.9478375018 -0.1026223131 1.3307719687
H 2.1625260418 -1.4436472801 2.9390794137

