# b3lyp 6-31G(2df,p) opt Freq 

 titel

0 1
O 0.2427464781 0.4011000878 -0.0523583648
C -0.5770610568 1.0121958161 0.9238788132
C -1.2527752311 0.007929787 1.8900837142
O -2.5242806633 0.158670476 1.2259003325
C -2.0291753785 1.3000072178 0.4513526533
C -2.6224987887 2.5939389325 0.9157712058
C -2.0050304034 3.4020083174 1.7779303963
C -0.6376377639 3.1312049127 2.3486737691
C 0.2028643498 2.1970554905 1.4666386951
H -0.2314870493 -0.3548702724 -0.4160335469
H -0.8657476843 -1.016806793 1.8314339724
H -1.2981055604 0.3138739842 2.9435589524
H -2.1970230952 1.1338905639 -0.6200853468
H -3.6213784959 2.8314566891 0.5587959357
H -2.5082686411 4.3035957171 2.1198319373
H -0.0990914576 4.0748019492 2.4930277561
H -0.7518854771 2.7092811486 3.358115855
H 0.5692243089 2.7538524628 0.5967090325
H 1.08601211 1.8388439627 2.0068137276

