# b3lyp 6-31G(2df,p) opt Freq 

 titel

0 1
O 0.3456354775 -1.1682175165 -0.3430462225
C 0.4581418421 -0.006365615 -0.0485080257
C -0.220290811 0.6623066829 1.1247626643
C -1.0702230158 1.8674496343 0.6775154951
C -1.7092613263 2.5942603896 1.8478164351
C -0.8553543296 3.5922307494 2.6874960866
C -2.1514616501 4.2869682339 3.1641336317
C -2.2291609992 4.0458236805 1.6393676706
O -0.8255623516 4.5154389198 1.5274333119
H 1.0921481737 0.6798569146 -0.6588154575
H -0.8184280139 -0.0858205685 1.6538009788
H 0.568970474 1.0132135872 1.8055760568
H -0.4523992845 2.5793560736 0.1215551792
H -1.8577136765 1.5179569327 -0.0020596688
H -2.3687305789 1.9441827908 2.4332936016
H 0.081192605 3.4315870541 3.2231856893
H -2.8315343451 3.730243263 3.8135317956
H -2.0299059348 5.3295584125 3.4576865727
H -2.9445944251 4.426542181 0.9094844452

