# b3lyp 6-31G(2df,p) opt Freq 

 titel

0 1
O -2.1058791484 5.0582344349 1.2954728658
C -1.0249285313 4.2075408502 0.9403661557
C -1.1633585613 3.8522687882 -0.516974529
C -1.3142916918 4.9466927217 -1.618069574
C -1.9056438975 3.7622651577 -2.4534744799
C -2.4794110697 3.2440707242 -1.0923272583
C -0.6729683628 2.8809658558 -2.5757816775
O -0.2430103575 2.2920900146 -3.5301516018
C -0.0962444213 2.9299663855 -1.1390208583
H -2.0201061324 5.2841300598 2.2259092937
H -0.0545672439 4.7041640798 1.1068747021
H -1.0271161074 3.2854346712 1.545052145
H -2.0748135181 5.6840410645 -1.3585761173
H -0.4099194936 5.4392592675 -1.9879284232
H -2.5108219647 3.9007084686 -3.3463050006
H -3.3596578896 3.8064687359 -0.7788046568
H -2.6478277892 2.1689414114 -0.9781109518
H -0.0561796039 1.9298773642 -0.6947062595
H 0.9152576743 3.3495182941 -1.1330491245

