# b3lyp 6-31G(2df,p) opt Freq 

 titel

0 1
C -0.0511062084 0.0975493044 0.4438686309
C 1.137515823 0.0150748918 0.2950678361
C 2.5897417577 -0.0432085147 0.0662006675
O 3.2133337394 1.209250688 0.2079529362
C 3.2791167089 1.7167155805 1.54324198
C 4.2442871642 0.9139370456 2.4486349876
C 5.2328192931 0.0847010372 1.6177853166
C 4.5306457883 -1.1146568789 0.9294533905
O 3.1068667236 -1.0158934207 0.9378817634
H -1.1028010961 0.1636059651 0.5783085608
H 2.7919303299 -0.3155087173 -0.9817383527
H 3.6401647657 2.7402285209 1.4126584121
H 2.2735096482 1.7652278523 1.9790786164
H 4.7925173211 1.6123872361 3.0901329984
H 3.6774351156 0.2507747808 3.1079776663
H 5.7040823033 0.7252387401 0.8665668757
H 6.0328717786 -0.2933204939 2.2630749958
H 4.8948998198 -1.2448377582 -0.0994792841
H 4.7318638841 -2.0404115592 1.4746116924

