# b3lyp 6-31G(2df,p) opt Freq 

 titel

0 1
O 0.6188841123 0.1411778097 0.22051176
C -0.5976724642 0.80749567 0.1509983602
C -2.0555932486 0.2087810547 0.3038015538
C -2.3892107306 1.3977817762 1.2487555469
C -0.9645789723 2.0129222339 1.0584743654
C -0.8526773012 3.2164143433 0.1305309708
O -1.1820977245 2.7417084085 -1.1769994046
C -0.9855594034 1.3350403774 -1.253234354
C -2.3071632348 0.5127609167 -1.1918153562
H 0.7387526711 -0.1871774183 1.1180554452
H -2.274315799 -0.7947955796 0.6692085546
H -3.222494952 2.0328405268 0.934952742
H -2.5656236511 1.079572018 2.2789698266
H -0.3870779075 2.1244638077 1.9790624494
H -1.5443167088 4.0296408785 0.3779331458
H 0.1718242087 3.6200955229 0.1453533333
H -0.2965830384 1.0919155226 -2.0668074041
H -3.2141071169 1.0634193801 -1.4534975369
H -2.2411673188 -0.3907567688 -1.804447728

