# b3lyp 6-31G(2df,p) opt Freq 

 titel

0 1
C -6.5355661461 1.5193980581 -2.4054784201
O -5.1328627432 1.5218141155 -2.2869404912
C -4.6665434292 0.6947341219 -1.2481988282
C -3.1458506712 0.7785557014 -1.2170787694
C -2.547747199 -0.101553032 -0.1025205117
C -1.0954808789 -0.0472751531 -0.0418392676
C 0.1106755607 0.0199628539 -0.018265886
C 1.5475253227 0.0664514731 0.049914478
O 2.2508860394 0.7241892845 -0.6827411859
H -7.0242950558 1.8840714101 -1.4879367574
H -6.7947253196 2.1853402279 -3.2318198751
H -6.9259369822 0.5126358009 -2.6240355856
H -5.08975072 1.0141608564 -0.2785243458
H -4.9914927638 -0.349376311 -1.4083302047
H -2.7475942633 0.4676424259 -2.1876148798
H -2.845103229 1.819899385 -1.0675199382
H -2.9533033443 0.2002116165 0.8729315993
H -2.8564572492 -1.1466052542 -0.2425337816
H 1.982839232 -0.5662655008 0.8506519908

