# b3lyp 6-31G(2df,p) opt Freq 

 titel

0 1
C -3.5931573621 1.0116183123 -0.1797680671
C -2.2707095508 0.3424215085 0.0612663373
C -2.0461069044 -0.7630389216 1.1233929431
C -0.9881418758 -1.1794623647 0.0695739621
C -0.4568136702 -2.5613402944 -0.1503070122
O -1.8791150331 -0.6378157271 -0.9702525752
C -0.0014418666 0.0033350603 0.1630887641
O 1.1962298228 -0.0137489331 0.2210338268
C -0.9840800318 1.1931077124 0.143291494
H -3.8339224079 1.6871233448 0.6474719733
H -3.5638483388 1.5998513455 -1.1024900282
H -4.3914656319 0.2695292434 -0.2679582884
H -1.7220958951 -0.4816765064 2.1295504114
H -2.8730762854 -1.475504554 1.1533171399
H 0.2115067651 -2.8357086693 0.671422867
H -1.266939655 -3.292463906 -0.2097392533
H 0.1223369075 -2.5999786578 -1.0776349533
H -0.8897720594 1.817611777 1.0366074192
H -0.8450067769 1.81611256 -0.7441531606

