# b3lyp 6-31G(2df,p) opt Freq 

 titel

0 1
C 7.0113694056 1.7426545065 1.423362536
C 6.0951935947 1.4365599354 0.2322747409
C 4.715440056 1.0150233377 0.6742310793
O 4.5785551807 -0.3070861101 1.1935936495
C 3.9261341764 -0.0004111048 -0.0547893068
C 2.489528771 0.0148760912 -0.0734735348
C 1.2850406479 0.0141943748 -0.1246123483
C -0.1765281942 0.0472093122 -0.1321092594
O -0.7201128092 1.334940918 0.1206731284
H 7.1118256262 0.8636658724 2.0668600164
H 8.0097622965 2.0346224926 1.0855216592
H 6.61130862 2.5610453198 2.0316701086
H 6.001615505 2.3212384809 -0.4103840015
H 6.5299260162 0.6384063696 -0.3798300882
H 4.1493767327 1.7628626992 1.2333566991
H 4.3970130781 -0.4694796088 -0.9186603454
H -0.5513989355 -0.2460183374 -1.1189825215
H -0.5565219245 -0.6982899088 0.5847158
H -0.3359568236 1.6532542295 0.9442799485

