# b3lyp 6-31G(2df,p) opt Freq 

 titel

0 1
O 0.295889047 1.1092521843 0.2946499638
C -0.9520108087 0.6434497632 0.7983357816
C -1.5252186266 -0.3193392695 -0.2571046327
C -2.6348495966 -1.2051818053 0.352766815
O -2.0479639082 -1.9256041757 1.4406736613
C -2.0014148336 -0.9519606067 2.4859921171
C -0.7969606163 -0.0302039818 2.1826564245
C -3.3263562161 -0.2179238227 2.3148503843
C -3.702789394 -0.3695465557 1.0485122022
H 0.6283391756 1.7794215389 0.9006768564
H -1.6445182281 1.489883316 0.903156898
H -1.886822627 0.248586157 -1.121091706
H -0.720557526 -0.9754298782 -0.6040504799
H -3.01779843 -1.9259638316 -0.374595908
H -1.8829184101 -1.471075007 3.4410471231
H -0.6710075097 0.7320108683 2.9627158268
H 0.1057960976 -0.6496137301 2.1699124705
H -3.8012295413 0.3761040631 3.0848112783
H -4.5542703277 0.0738207937 0.5489619434

