# b3lyp 6-31G(2df,p) opt Freq 

 titel

0 1
C 0.3182794447 -0.5528587832 -0.2970133826
C 0.7524609169 0.711652133 0.4276626004
O 2.1097186358 1.0873704155 0.073762343
C 2.7737880874 1.4385677286 1.284459082
C 1.6437041737 2.0111244246 2.1640406314
C 0.7889158087 0.7232782743 1.9716351686
C 1.7829936091 -0.3290284455 2.5175635288
O 2.5625377896 -1.0483578939 1.551231862
C 3.1084900709 0.1499701392 2.0903792749
H -0.73276961 -0.7651966066 -0.0712812084
H 0.4011784295 -0.3981843646 -1.3771276151
H 0.9298789919 -1.4096596737 -0.0206720094
H 0.0866803702 1.528911999 0.1081972017
H 3.6248882878 2.0794122941 1.0534905785
H 1.9459809957 2.1746032475 3.201884274
H 1.1891165703 2.9208233118 1.761312782
H -0.1946473138 0.7069050562 2.441521198
H 1.5843043141 -0.8571393553 3.4453380029
H 4.0297967573 0.0491654888 2.6575874472

