# b3lyp 6-31G(2df,p) opt Freq 

 titel

0 1
O -0.6634886016 0.8501435565 0.8202672441
C -1.9352975463 0.3209590822 0.4779903428
C -2.9773871093 0.5291863977 1.6052917841
C -3.5679968405 1.9616351059 1.6319451134
C -3.799651099 2.4749837034 0.1952239293
O -2.5345036245 2.4030935233 -0.4852757646
C -2.4225753134 1.0089657618 -0.8203207203
C -3.8449760544 0.6362509412 -1.1949060274
C -4.6586337365 1.5078096039 -0.6064165874
H -0.7411933726 1.8058288277 0.7020293804
H -1.7820517167 -0.7517974113 0.3153322662
H -3.7857838557 -0.1959484656 1.4716002899
H -2.4959587369 0.2990976683 2.5599381377
H -4.4979855767 1.9795030367 2.2116611009
H -2.8733752031 2.6529975623 2.1215295949
H -4.1389162231 3.5144212801 0.1792478085
H -1.679252259 0.9038759385 -1.6152806452
H -4.1125378792 -0.2306323145 -1.7843122256
H -5.7407239114 1.508179882 -0.6025054817

