# b3lyp 6-31G(2df,p) opt Freq 

 titel

0 1
C -3.1438027952 -1.541340838 2.8549086268
C -2.3900118745 -0.8155280653 1.7328793527
C -0.9530585837 -1.3343790818 1.6072592713
O -0.4528310066 -1.2900601739 0.2697977143
C -0.2223603193 -0.1280418115 -0.3865733344
O 0.3043207932 -0.1800909154 -1.4704427395
C -0.5949502263 1.1878589178 0.1985773105
C -1.4982127909 1.5353341723 1.1217749499
C -2.410848725 0.6993413774 1.9648633468
H -3.2264617436 -2.6125959976 2.6486352388
H -2.6305480323 -1.422218178 3.8165728838
H -4.1560576379 -1.1413361913 2.9701434413
H -2.8829593803 -1.0389219502 0.7786368741
H -0.2774464803 -0.79278322 2.2824369464
H -0.9053149417 -2.395032155 1.8654634211
H -0.0623400941 1.9805084858 -0.3175198915
H -1.5987598454 2.6047151094 1.3054682447
H -2.1604416824 0.9057923628 3.0181285362
H -3.4351860336 1.0801215624 1.8474005168

