# b3lyp 6-31G(2df,p) opt Freq 

 titel

0 1
C 1.447720229 0.7555372734 -3.0956167536
C 0.4726292185 0.2730673224 -2.0476876692
C 0.1323236691 -1.1954837001 -1.982443718
C -0.932400272 -0.1965429432 -2.3762494979
C -1.8355252576 0.2801794664 -1.2572221471
O -1.5123059883 -0.253302272 0.0415220447
C -1.0557964959 1.0680949043 -0.2962858724
C 0.4091198534 1.086398319 -0.7325958894
O 1.296582188 0.6569363169 0.2831881444
H 1.391393487 0.1450680829 -4.0024186084
H 1.2507278944 1.7960788291 -3.3797917047
H 2.4759593347 0.7015574561 -2.7198832188
H 0.5429224651 -1.8178915793 -2.7710284209
H 0.0216307449 -1.6918628232 -1.0264825693
H -1.3232190595 -0.1863619875 -3.3874802219
H -2.8954919749 0.4366745469 -1.4351874204
H -1.4561459185 1.8678363572 0.3220808797
H 0.6999043651 2.1204892876 -0.9522752314
H 0.9583059175 -0.1875700669 0.6036359445

