# b3lyp 6-31G(2df,p) opt Freq 

 titel

0 1
C 0.0192167219 -0.038308036 -0.0691921214
C 1.5178293308 0.0394755433 -0.0447561059
O 2.1959403979 -1.1404135491 0.4573633189
C 3.3893574427 -0.5667296309 -0.1499073833
C 3.6468386786 0.6365765618 0.7751052483
C 2.2427919721 1.2860561527 0.5988292053
C 2.3276302854 2.2309900167 -0.6012007436
O 2.7254614136 1.3679119889 -1.6893890746
C 2.4695145646 0.0543160998 -1.2591538556
H -0.3744560327 -0.1412370481 0.9477017668
H -0.4082182665 0.8680448067 -0.5089912005
H -0.3174083005 -0.8981529959 -0.6549392058
H 4.1828178379 -1.2894680907 -0.3375675687
H 3.8411950836 0.2940905334 1.7932503302
H 4.4614151872 1.2873723569 0.4468492811
H 1.7860289221 1.7122017631 1.491811732
H 1.3655528968 2.7087498165 -0.8390088062
H 3.0807051426 3.0161663034 -0.4813716262
H 2.2379237417 -0.6017845326 -2.0972699408

