# b3lyp 6-31G(2df,p) opt Freq 

 titel

0 1
C -0.0317117812 0.1258091741 -0.0561475494
C 1.4524039723 -0.0905891135 0.0643195454
C 2.2161568852 -0.9149448392 -1.0056693536
C 2.905247324 -1.7459382019 0.1169245522
C 2.2000744716 -0.9122063489 1.2143909053
C 2.8405918295 0.4470738415 1.5251112511
O 2.1594542464 1.1064941045 0.4310659433
C 1.4533019954 -1.6043796685 2.3020834172
O 1.1462508074 -1.0968725752 3.3543850369
H -0.4429694698 0.5333719484 0.8714524227
H -0.228423408 0.8436010012 -0.8610824046
H -0.5516827358 -0.8066405259 -0.2967061129
H 1.5722023484 -1.5037914276 -1.6639571952
H 2.8758593507 -0.2947936855 -1.6154722082
H 2.5879708274 -2.7933095297 0.1272687015
H 3.9972721714 -1.7202881898 0.1464919867
H 2.532422469 0.853558901 2.493548488
H 3.9315681357 0.496869805 1.4265086743
H 1.1505837405 -2.6511490003 2.0651398895

