# b3lyp 6-31G(2df,p) opt Freq 

 titel

0 1
C 2.0328811903 -1.7297740912 0.2879764521
C 1.5699794302 -0.340859562 -0.0303506816
C 0.156438072 0.1433974141 -0.476003491
C 0.0855624269 1.1065639467 0.7351203977
C 1.6118918577 0.9399645744 0.931688003
O 2.1591946007 0.998648841 2.2108273623
C 2.4408955193 1.6826923255 -0.1339072835
C 2.0472393749 0.6075665037 -1.1725631928
O 0.693983582 0.794694908 -1.6454184023
H 1.4671600609 -2.1568690846 1.1246811709
H 1.9120588241 -2.400691266 -0.5700040174
H 3.0907356609 -1.7349243119 0.5735899155
H -0.7060698351 -0.4837260289 -0.7107960962
H -0.3231595632 2.1072742861 0.5705084001
H -0.454295698 0.6213896529 1.5595941826
H 1.5396959825 0.5984649586 2.8302979695
H 2.1951754915 2.7232143885 -0.3615077724
H 3.502609968 1.595730578 0.1194173172
H 2.7364856544 0.3615386071 -1.9826120738

