# b3lyp 6-31G(2df,p) opt Freq 

 titel

0 1
C 1.2903158071 -1.5425865585 2.8272658532
C 0.0923454123 -1.9400967829 1.9635468005
O -0.8212494649 -2.7303201504 2.7362290966
C -2.1047142976 -2.11988101 2.783852652
C -1.9779441781 -0.8800843569 1.9518554022
C -0.7442574227 -0.7790454731 1.4591999787
C -0.2769775866 0.2688331147 0.5329816404
C 0.7022216918 0.0209267277 -0.5435458537
O 1.0848615126 0.7237776113 0.6337117023
H 1.773176386 -2.4413272889 3.2210836954
H 2.0121627638 -0.9678999623 2.2428631466
H 0.9600552062 -0.9277394265 3.6699469455
H 0.4502459664 -2.5570286264 1.1224151858
H -2.8652483952 -2.8117927709 2.3869428251
H -2.3848532694 -1.9024174696 3.827297179
H -2.7965231155 -0.191682719 1.7789098957
H -0.9917760274 1.0753625524 0.3689974858
H 1.1378608362 -0.969578075 -0.6620182381
H 0.6514033348 0.6176984741 -1.4534168331

