# b3lyp 6-31G(2df,p) opt Freq 

 titel

0 1
C 2.5737277899 -0.888024892 -1.1046555279
C 1.4364382186 -0.2330072537 -0.2975851481
C 1.7350915975 1.2340767774 -0.0320270038
O 2.2148187187 1.6101799588 1.0147460214
C 1.3894959679 2.2187775464 -1.1361977878
C 0.0178185963 2.964944666 -0.9138916268
C 0.7716824526 4.2766645327 -1.2000091196
O 0.4136662085 5.3788694286 -1.4920737518
C 2.1329500926 3.584907655 -1.0989399549
H 2.3510233165 -1.9421692649 -1.2901233984
H 2.7147009931 -0.4014196494 -2.0751286657
H 3.5182464381 -0.829961872 -0.5563498619
H 0.4933386606 -0.3239332147 -0.8495653049
H 1.3259971032 -0.7338426379 0.667579827
H 1.4149951687 1.74029204 -2.1173691225
H -0.8156529103 2.7231078221 -1.5767298539
H -0.3206890133 2.9163822403 0.1264932263
H 2.8642787955 3.8074168046 -1.8786431519
H 2.5869660751 3.7376741227 -0.1131753747

