# b3lyp 6-31G(2df,p) opt Freq 

 titel

0 1
C -0.7912658834 2.1126343058 -1.1725262387
C -0.9356152535 1.1283186925 -0.021913542
O -2.2672741547 0.6201334765 0.0456937654
C -2.2572730489 -0.7780561453 0.2590137441
C -3.4714325525 -1.450888112 -0.3117627552
C -1.5709714429 -1.2400856355 1.498546066
C -0.8358646926 -1.2967252313 0.1452055398
C -0.0152447577 -0.1003635603 -0.1758017344
O 1.1300720277 -0.0598917805 -0.5514565273
H -1.0778853227 1.6400770039 -2.1161155644
H -1.4251072516 2.9883801118 -1.0134078114
H 0.2522773103 2.4301039477 -1.2439059
H -0.6794442778 1.6299862668 0.9253216312
H -4.3776242915 -1.0516679255 0.1550584625
H -3.5378746238 -1.2767114008 -1.3896486354
H -3.4380256761 -2.5282062125 -0.1297122884
H -1.2501535712 -0.511428361 2.2350479204
H -1.8490562 -2.2053653887 1.9068530473
H -0.5576995171 -2.2558747415 -0.2716372994

