# b3lyp 6-31G(2df,p) opt Freq 

 titel

0 1
C -0.130903595 4.1876215954 -2.3562849177
O -0.8278917978 4.9738343274 -1.3714206216
C -1.1676291641 3.7952389416 -0.6074404156
C -0.3298109485 2.892018736 -1.5378838505
C 0.9317135665 2.3056078207 -0.9085655266
O 0.5663109886 1.3571464274 0.1002889884
C 1.1794413683 0.0950120969 -0.1515417811
C 1.9345049566 0.2773625921 -1.4377786994
C 1.803853024 1.5289585925 -1.8602344533
H -0.6339975298 4.2057393156 -3.3316922582
H 0.9070925768 4.5218705987 -2.489441816
H -0.8242637746 3.8603625248 0.4314816558
H -2.247095704 3.6000457079 -0.6156982407
H -0.8881130318 2.1001110903 -2.0415085698
H 1.4931394119 3.130735316 -0.4350861776
H 1.8421340854 -0.17612144 0.6860611581
H 0.4084830725 -0.688095147 -0.218520946
H 2.4975120294 -0.516313369 -1.9123888139
H 2.2405461657 1.9653933927 -2.7495224246

