# b3lyp 6-31G(2df,p) opt Freq 

 titel

0 1
C 2.4352520951 -1.5483406117 1.5231861559
C 1.119357141 -0.767210794 1.4364625571
O 0.0134434477 -1.622395627 1.18301087
C 1.1747879102 0.297228297 0.3740423895
C 2.1826505373 1.4742493986 0.2889636738
C 1.1761893858 2.0934627198 -0.6808420975
C 0.5686886069 0.8910060536 -1.423311805
O 1.2439312778 -0.2868373521 -0.9783483914
C 0.0270044961 1.2747871419 -0.0953280203
H 2.3292098253 -2.3617542304 2.24494143
H 2.6895788968 -1.9764544481 0.5486796245
H 3.2610996103 -0.9035358251 1.8412853678
H 0.9136673109 -0.284265185 2.3997664544
H 0.048700101 -1.8186917088 0.2376031715
H 2.2289451268 2.0341028259 1.2267850351
H 3.1880877551 1.2283946648 -0.0662131354
H 1.1462424371 3.0999682304 -1.0776320703
H 0.1539634482 0.9156189217 -2.4220657115
H -0.9554104595 1.5213373183 0.2802987217

