# b3lyp 6-31G(2df,p) opt Freq 

 titel

0 1
C 2.8509025967 1.3861516953 -1.2227618427
C 1.8686893529 1.8805105421 -0.2022208951
C 0.9232790951 3.111227814 -0.2350283114
C 0.6283428418 2.4788097131 1.1273653233
O -0.2785067814 2.951378777 2.0441360812
C 2.1124014905 2.0233141012 1.3331554118
O 1.7703292974 0.6392951916 1.6400752176
C 0.8206510885 1.0107576073 0.5829810773
C -0.168394121 0.0004644091 0.1007094144
H 3.354173405 0.4867281813 -0.8527366313
H 2.3538065988 1.1364535637 -2.1665308003
H 3.6153250116 2.14005678 -1.4392735014
H 1.4033477566 4.093999647 -0.2222765503
H 0.1144890509 3.088455643 -0.9713047594
H -0.2384867122 2.3759641946 2.8183830128
H 2.9381914977 2.4926164489 1.8684228673
H -0.8237381477 -0.3193685005 0.9173235947
H -0.7927139301 0.4289024606 -0.6898862734
H 0.338921739 -0.8834021794 -0.2988528453

