# b3lyp 6-31G(2df,p) opt Freq 

 titel

0 1
C 5.0652864321 -0.6402249751 -1.4245435015
C 3.8808983655 0.2864514798 -1.2572347159
C 4.0512959942 1.7414778171 -1.4132058174
O 3.9390042844 1.1519869908 -0.1131477712
C 2.5391143244 -0.323290553 -1.4821970886
C 1.7468346404 -1.0134142831 -0.384061827
C 1.1519726215 0.146765873 -1.1191831
O 0.5941705989 -0.2731227253 -2.368990617
C 1.910080854 -0.6791137184 -2.8307802762
H 4.9787340334 -1.4943452254 -0.7451996374
H 5.1129543812 -1.0288050303 -2.447883308
H 5.999588302 -0.1170942233 -1.2069208805
H 5.0332655793 2.1458151575 -1.6558481377
H 3.2052142179 2.3532072413 -1.7215953413
H 1.3341700399 -2.0082462409 -0.5289768161
H 2.1032538405 -0.7863879177 0.6156780894
H 0.7779004341 1.0588458233 -0.6692265397
H 1.9372238647 -1.7277569036 -3.1498392067
H 2.2454412816 -0.0321767166 -3.6503171073

