# b3lyp 6-31G(2df,p) opt Freq 

 titel

0 1
C 1.1903794368 -0.659536602 -0.9818697945
C 0.9660646871 0.1910610146 0.2612988799
C 1.719028807 -0.2900645064 1.5063017381
C 2.0176804564 0.9929770009 2.2941296654
O 1.4135188828 2.0863160436 1.6024305751
C 1.8882989968 1.445014648 0.36697444
C 2.1010594843 2.4412202329 -0.7331977542
O 0.884443313 3.0970935136 -1.0482124923
C 2.9291317408 0.5886010421 1.1901709872
H 0.6781890783 -1.6232295401 -0.894145921
H 0.8009255669 -0.1559664121 -1.8725862764
H 2.2553881157 -0.8640904626 -1.13983195
H -0.0968881751 0.4213318281 0.3919288198
H 1.7106994976 -1.2706087265 1.9663122277
H 2.1481763346 1.0549749334 3.3662764393
H 2.8842729776 3.1548154959 -0.4340433754
H 2.4369679679 1.9349523986 -1.6440344824
H 0.5387914194 3.4457183293 -0.2178940688
H 3.992012332 0.4053782087 1.1211552623

