# b3lyp 6-31G(2df,p) opt Freq 

 titel

0 1
O 1.4925723045 0.5936419574 -0.2552718654
C 0.1449032205 0.2282640415 0.0184495924
C -0.7251759892 0.3023616514 -1.2277365346
C -2.2421689046 -0.1298565193 -1.2231148389
C -2.0735115887 -0.2834806451 -2.7611536848
C -0.6609680012 -0.7974128358 -2.3666812219
C -0.996106401 -2.0661190763 -1.551198937
O -2.31701085 -2.5996822226 -1.7436531365
C -2.1169706562 -1.5924402227 -0.7380652384
H 1.8463730658 -0.0431809348 -0.884320406
H 0.0914927338 -0.7610210241 0.4937836445
H -0.2121494944 0.9581743882 0.7540363136
H -0.6090657495 1.3004949302 -1.662581121
H -3.0191553919 0.4922301483 -0.7795439397
H -2.7378009809 -0.9688161071 -3.2818463326
H -2.0278975452 0.6839622651 -3.2621753755
H 0.1576544901 -0.8483746098 -3.0848036932
H -0.2414005995 -2.7750606043 -1.2285258087
H -2.3253633224 -1.8914494802 0.2831859536

