# b3lyp 6-31G(2df,p) opt Freq 

 titel

0 1
C 0.1514687954 -0.75885663 0.1114567284
C 0.4857885736 0.7218541272 0.0948510243
O 1.8893009868 0.8500111861 -0.0898383332
C 2.3846005516 2.1142678331 -0.1329928292
C 3.7101993499 2.3964240677 -0.3058469147
C 4.9068868462 1.5384186952 -0.4832167025
O 3.8761123136 3.7566748176 -0.3026315612
C 2.6579936833 4.3207778502 -0.1286566579
C 1.694144451 3.3689756067 -0.0166459988
H -0.9240096842 -0.9011981255 0.2521323576
H 0.4443680378 -1.229773308 -0.8310185214
H 0.6785972934 -1.2629725862 0.9262052739
H -0.0473052759 1.233350738 -0.7200355008
H 0.1872087296 1.200101061 1.0393112474
H 5.6490733944 1.7010075523 0.3075497353
H 4.5984197772 0.4909094992 -0.4521781954
H 5.4046858854 1.720647121 -1.4433110788
H 2.6349442748 5.3976848383 -0.105404357
H 0.6399324261 3.5374938261 0.1283230538

