# b3lyp 6-31G(2df,p) opt Freq 

 titel

0 1
C 1.7520723223 -0.0560481359 -3.1239721215
C 0.7149265034 -0.8420858773 -2.3788665528
C -0.5964017204 -1.3832213147 -2.9762566493
C -0.484029944 -2.647545699 -2.0597355299
C 0.7809692889 -2.0434728424 -1.4716713473
O 1.8110057331 -2.8067831419 -1.0108264528
C 0.4326282081 -0.6532279972 -0.8582680428
C 1.4856685932 -0.0966216356 -0.0130228451
O 2.6716141217 -0.3880273276 -0.0903390463
H 2.6569632804 0.0760692765 -2.5264095489
H 2.0288658913 -0.5763413321 -4.0476669614
H 1.3756572889 0.9358333341 -3.4006379862
H -1.482105797 -0.7545430549 -2.8416852469
H -0.494171114 -1.6275045552 -4.0361614453
H -1.3020863653 -2.8505212464 -1.3631106736
H -0.2674071274 -3.5525251366 -2.6313644896
H 2.5003561988 -2.1916504756 -0.6991318575
H -0.5836283314 -0.4148248157 -0.5494179551
H 1.1468113494 0.6188852376 0.7638593123

