# b3lyp 6-31G(2df,p) opt Freq 

 titel

0 1
C 2.2410046552 -1.7530004673 -1.7153381989
C 0.8244825997 -1.5606146853 -1.2138598074
C -0.3202702489 -1.7723598954 -2.2472366479
O -1.4617982394 -1.1268457057 -1.663457226
C -1.0154325536 -0.5947019042 -0.3889595617
C -0.7116159178 -1.7771302543 0.5177906544
C 0.3867567604 -2.3556178229 0.0120256766
C 0.4110816433 -0.1230759534 -0.7452800718
O 1.190368361 0.4351118052 0.2765513199
H 2.9588492772 -1.4110925162 -0.9633236052
H 2.453615572 -2.8044968244 -1.9368510267
H 2.4166801334 -1.1764875812 -2.6298153881
H -0.0800042813 -1.2914134267 -3.2047881812
H -0.537987301 -2.831664076 -2.4301679983
H -1.7416378294 0.1427627848 -0.052670167
H -1.3405928155 -2.1364194937 1.3220956186
H 0.8465962918 -3.2856668546 0.3264131466
H 0.4058494017 0.6019325143 -1.5636698072
H 1.1739264611 -0.1890644229 1.0138257712

