# b3lyp 6-31G(2df,p) opt Freq 

 titel

0 1
O 0.3786210551 0.2254507142 -0.1043497702
C -0.813434205 -0.0499498226 0.6231836625
C -0.8381097317 0.5470390744 2.0516033009
C -2.2477583909 1.1369224732 2.245148007
C -2.4484243734 2.3069891821 3.240957788
C -3.381685179 1.34603237 3.9959779441
O -3.1264015143 0.2857910695 3.0544893348
C -2.7547357362 1.2739227831 0.8340761434
C -1.9842919413 0.6314302827 -0.0399004722
H 1.0783389808 -0.3283905256 0.2554040812
H -0.987157494 -1.1381136572 0.6465565172
H -0.6033063922 -0.1705341674 2.84177803
H -0.0974383084 1.35317637 2.0756642064
H -1.5448957873 2.5997953119 3.7791383056
H -2.9169026175 3.1986155369 2.8192838509
H -3.0734965166 1.0753152553 5.0133368168
H -4.4412127066 1.6306733934 4.0146869602
H -3.6784859827 1.7950752561 0.6072919489
H -2.1512026786 0.5507278901 -1.1080118854

