# b3lyp 6-31G(2df,p) opt Freq 

 titel

0 1
C -3.1205041288 0.440239726 -3.1572313099
C -1.8591699789 0.4257573121 -2.3602637775
O -0.7354865279 -0.284147711 -2.906177589
C 0.1650024513 0.5915292466 -2.1572157937
C -1.0113469799 1.486871941 -1.7184379211
C -1.7383470548 0.4625715113 -0.8490367404
C -0.7429409039 -0.5130704336 -0.2217718956
C 0.612063288 -0.16907635 -0.9056316147
O 1.4660459815 0.624440504 -0.0967930739
H -3.873937956 1.0654332723 -2.6693187421
H -2.9412410081 0.8290261932 -4.1643998756
H -3.5271264578 -0.5730390711 -3.2494960502
H 0.9618912137 0.9990706151 -2.7801905601
H -1.0895027143 2.5648111718 -1.684858106
H -2.6165274816 0.784126071 -0.299777951
H -0.6532066927 -0.3681938496 0.858902799
H -1.0268539752 -1.5543160814 -0.3979127301
H 1.1877277957 -1.061950276 -1.1619917156
H 0.9695452297 1.4065654384 0.1715159477

