# b3lyp 6-31G(2df,p) opt Freq 

 titel

0 1
C -0.8621280797 -2.256720601 1.324698477
C -1.0084459642 -1.3211945766 0.126257851
C -0.0282834781 -0.1217113219 0.1341530543
O 1.1643799773 -0.1469729863 0.2792853338
C -0.9604063977 1.0673304165 -0.0379045855
C -2.0585093274 0.6910967545 1.0150938997
C -2.3125005551 -0.4887162695 0.0187972549
O -3.5260770374 -1.1632487851 -0.0625736515
C -1.9571707785 0.5072966114 -1.1080519552
H -1.5353450363 -3.1174037641 1.2423677831
H 0.1613382251 -2.6383965648 1.3742290433
H -1.0704103713 -1.7493344148 2.2723606139
H -0.8575686398 -1.8938612605 -0.797876743
H -0.5149347256 2.0567151783 -0.0996236113
H -1.7438235161 0.4767710143 2.0396608119
H -2.8828896438 1.4068533352 1.0108977235
H -3.5639280616 -1.8156546635 0.6451991258
H -1.5519295763 0.1092424168 -2.0423116373
H -2.7692125135 1.2093233214 -1.3076336585

