# b3lyp 6-31G(2df,p) opt Freq 

 titel

0 1
C -2.929718538 -2.1454199803 -2.808899721
C -2.1244328475 -1.2081559132 -1.9287444482
C -2.9355841833 -0.1246831838 -1.1843739197
C -2.109584027 0.1619515022 0.0794346043
C -0.8950915975 1.1249590749 -0.0766455519
C 0.0308842359 -0.1039838155 -0.1629203336
O 1.1874377713 -0.2574920674 -0.4201457586
C -1.1529780952 -1.0823467932 0.138751673
O -1.5033316415 -1.975000698 -0.8864317638
H -3.7082244077 -2.6435006891 -2.2228650356
H -3.4056827301 -1.5896635393 -3.6226034036
H -2.2840937052 -2.9109716206 -3.2472956933
H -1.3374052218 -0.7260681708 -2.5322774482
H -3.1029838672 0.7625785155 -1.8013241882
H -3.9137370385 -0.5313291893 -0.9067607258
H -2.7269192573 0.3464431338 0.9576711269
H -0.8816918197 1.7742307332 -0.9579396259
H -0.6911169119 1.7418999996 0.8042807789
H -1.0540436377 -1.6344979089 1.0774671144

