# b3lyp 6-31G(2df,p) opt Freq 

 titel

0 1
C -0.9491331291 2.303807349 -1.0676944391
C -0.9893105302 1.1127488218 -0.1199581029
C -2.1477337354 0.0626887762 -0.2029265161
C -1.1298410166 -1.1062534589 -0.1514706367
C -1.1752524672 -2.4207377667 -0.9473966346
C -0.9653788241 -3.0916811922 0.4234153088
O -1.0442625062 -1.8154076358 1.1024750425
C -0.0144239544 -0.0489006589 -0.3801325918
O 1.1203446025 -0.1207383733 -0.7548586953
H -1.0917919914 1.984820567 -2.1056221461
H -1.7323494405 3.0289271704 -0.8260254976
H 0.0178478908 2.8117154891 -1.0050688114
H -0.8618789524 1.4438919796 0.918901567
H -2.8665678176 0.0649550485 0.6176235081
H -2.6815741596 0.1011106017 -1.1575563118
H -2.1358864214 -2.6277289711 -1.4224695462
H -0.3685113117 -2.5431907341 -1.6718226226
H -1.7511144993 -3.7757439219 0.7619538252
H 0.0124103838 -3.5654060303 0.5647492507

