# b3lyp 6-31G(2df,p) opt Freq 

 titel

0 1
C 2.0640332068 1.2190007248 0.4766884462
C 1.4600163047 -0.1403116516 0.1150622045
C 2.0314995369 -0.7325567983 -1.1485804728
O 1.7838177281 0.1463750039 -2.2907120781
C 2.8078573115 -0.1908785235 -3.2255816366
C 3.5416304191 -1.3571157934 -2.4850503921
O 3.4431246613 -0.8454697479 -1.1467021254
C 2.5545821254 -2.5156822089 -2.4603855925
C 1.598772525 -2.12482309 -1.61713183
H 1.6049133873 1.6135987424 1.387476999
H 3.1406582218 1.1321486256 0.6435314766
H 1.9039335082 1.9358727729 -0.3318788502
H 1.6191428881 -0.8639660933 0.9222844897
H 0.3765574984 -0.0542628624 -0.0254254703
H 2.3759731155 -0.4915356887 -4.1858051832
H 3.4776595838 0.6639440068 -3.3688570053
H 4.5745976081 -1.5450457876 -2.770053755
H 2.5830665746 -3.3803138255 -3.1089180024
H 0.6494777354 -2.5904102052 -1.3911282221

