# b3lyp 6-31G(2df,p) opt Freq 

 titel

0 1
C 1.4990343104 -0.1397782191 0.0517879131
O 0.1561934038 -0.423732719 0.4672993171
C -0.44604378 0.5530459795 1.1713646057
O 0.0812784326 1.601291182 1.4499338878
C -1.8443906145 0.1424663494 1.6090808717
C -1.7862044994 -0.323997328 3.0747727036
C -2.8147807822 1.3334446477 1.4435284616
C -3.0439691604 1.6938136394 0.0497853845
C -3.2211329504 1.9659027028 -1.1073962806
H 2.1421559719 0.0351652996 0.9180292508
H 1.8310512687 -1.0189950286 -0.5002733463
H 1.522675601 0.7463490016 -0.5870523138
H -2.172057469 -0.6863848446 0.9768131498
H -1.1091267728 -1.1753624627 3.1883150437
H -1.431958712 0.4842001999 3.7218813023
H -2.7788145728 -0.6318614308 3.4166301341
H -3.7690187824 1.0800679446 1.9208939246
H -2.4003926689 2.1916841631 1.9847565248
H -3.3808764434 2.2203899932 -2.1256551844

