# b3lyp 6-31G(2df,p) opt Freq 

 titel

0 1
C 5.6229529525 -4.964487207 -1.1472902368
C 5.7066921096 -3.531164601 -0.6620735114
O 6.7670099897 -2.9636785862 -0.4979842317
C 4.4071442178 -2.8492946039 -0.3810433889
C 4.3534255348 -1.3400764146 -0.5283712094
C 4.3659628439 -1.9309863058 0.8420697489
C 3.139602833 -1.9095727996 1.6853210149
C 3.1325457908 -1.3353066172 3.0373996856
O 3.1354953073 -2.7503633238 2.8430097619
H 5.0923512439 -5.5799580347 -0.4116261653
H 5.0465694085 -5.0157635478 -2.0783644233
H 6.6244401855 -5.3635172888 -1.3104275463
H 3.5039903952 -3.4088905859 -0.6002026891
H 5.2660731685 -0.8684936205 -0.873492769
H 3.4291502079 -0.9127842938 -0.9022979385
H 5.3060695231 -1.873195155 1.3817511667
H 2.1978574688 -1.9140050937 1.1318751869
H 4.0524453085 -0.9175727575 3.4448002965
H 2.2128963908 -0.9171118131 3.4447457485

