# b3lyp 6-31G(2df,p) opt Freq 

 titel

0 1
C -0.3729106692 1.2792223959 0.0970518868
O -0.1881799888 -0.0956880066 -0.3800029444
C 1.2284153209 0.0260722151 -0.0792309042
C 2.4460608297 -0.0511610428 -1.0021017556
C 3.374280406 0.9001650094 -0.1419665593
C 2.4137654654 2.018898178 0.4748878318
C 1.1233068663 1.5344264065 -0.1646606962
O 1.2358102872 1.8302743284 -1.5722409073
C 1.9577249279 0.7568015124 -2.1972396304
H -1.0769023942 1.8377801196 -0.5222138012
H -0.6726735644 1.2929135415 1.152168664
H 1.4345058963 -0.3768090195 0.9196932284
H 2.8925714003 -1.0184150162 -1.2338877236
H 3.8677617527 0.3361033102 0.6536114031
H 4.1557851491 1.3346934745 -0.7696274777
H 2.401515862 1.974662552 1.5673180143
H 2.6978397771 3.0248307608 0.162468988
H 1.2871989625 0.1775231024 -2.8451420196
H 2.7717665131 1.1689087883 -2.8051503769

