# b3lyp 6-31G(2df,p) opt Freq 

 titel

0 1
C 0.0150883049 -0.1266229729 0.0233046938
C 1.5246248427 -0.0891355873 0.0719584456
C 2.2956118346 0.9006938522 -0.7868211276
C 2.4114343351 -0.5808122885 -1.0442064074
O 3.5201737257 -1.276177208 -0.5183737894
C 3.3963414061 -1.3827341305 0.8762041092
C 3.5776859093 -0.1446990161 1.7378626278
C 2.1936220252 -0.6225016327 1.3452971663
O 1.3596864639 -1.1736623157 2.3181875028
H -0.4247578281 0.6191346176 0.6962767092
H -0.3418150675 0.0953265279 -0.9867937519
H -0.3675524842 -1.1072042554 0.3176712783
H 1.7103208027 1.4714565625 -1.5017513702
H 3.1479134981 1.4377869194 -0.3890973912
H 2.047363893 -1.0130136943 -1.9706734879
H 3.680974537 -2.3529977369 1.2679819213
H 3.8583083145 -0.3452131142 2.7673112642
H 4.0033124473 0.7574225853 1.3167956596
H 1.0630133194 -0.4607405723 2.8946112675

