# b3lyp 6-31G(2df,p) opt Freq 

 titel

0 1
C -3.7107141327 1.0969256769 0.6037625465
C -2.474453357 0.3847714891 0.0804598943
C -1.1600329365 1.0274065057 0.5163993072
C 0.0075853715 0.1452546051 0.1523228298
C 1.3496556917 0.7875955321 -0.0259875857
C -0.2009497348 -1.1720538105 0.0330280811
C -1.4976455714 -1.8068527097 0.3441765403
O -1.638949009 -2.9950580142 0.4837098419
O -2.5626554734 -0.9796370916 0.5368090359
H -3.7102585564 1.113166176 1.6977970445
H -3.7393740861 2.1279544124 0.2382623764
H -4.6147947354 0.5829722798 0.2684981746
H -2.4983057075 0.365216746 -1.0189406984
H -1.0638442193 2.0097393781 0.0391375049
H -1.1643735718 1.2091084216 1.6011954198
H 1.6367579706 1.3390983411 0.878431827
H 2.1273127396 0.0519219075 -0.2432679049
H 1.3251320441 1.5217177143 -0.8411006798
H 0.5964900638 -1.8669278897 -0.2048496357

