# b3lyp 6-31G(2df,p) opt Freq 

 titel

0 1
O 0.611830371 0.7227255455 0.4918198925
C -0.7751327334 0.7431123237 0.712114537
C -1.2352434772 0.0754863873 2.0307370887
C -2.6208609238 -0.5895530361 2.0189281579
C -3.7933814247 0.4022679238 2.1937664136
C -3.798288076 1.6249442285 1.3022636764
C -2.7367445541 2.363651065 0.9728002503
C -1.3326343754 2.034501644 1.3815106802
O -1.264498455 1.3775646143 2.6812328869
H 1.044026666 0.9924806642 1.3107778677
H -1.2496026287 0.4233900625 -0.2167736897
H -0.4797910256 -0.5786465744 2.4814531874
H -2.7339319358 -1.1482228365 1.0817007641
H -2.681067134 -1.3268747035 2.8271857487
H -4.7290388759 -0.1481511448 2.0490270928
H -3.7991247436 0.7396739451 3.2372114565
H -4.7734920249 1.9409263969 0.93892521
H -2.8619898035 3.2322855523 0.3312283361
H -0.6698226056 2.9052873823 1.3362632328

