# b3lyp 6-31G(2df,p) opt Freq 

 titel

0 1
C -2.8340202854 2.8634261822 1.7343794799
C -3.5294292499 2.0458600517 0.6505233038
O -4.8597622546 2.4863450778 0.4335256862
C -2.9870173976 1.5972593237 -0.6766677906
C -1.5768916848 0.9593666812 -0.681832944
C -0.8899267971 0.7586598647 0.6533442954
O 0.3768219028 0.163888807 0.6057607375
C -2.0575265297 -0.1172152605 0.3064906985
C -3.4493896218 0.5540667971 0.3438047426
H -2.7175597038 2.3074498151 2.6703689283
H -1.8526530536 3.2238263935 1.4212314924
H -3.4511535456 3.7439288253 1.9330031347
H -5.3753557329 2.2418710238 1.2103045776
H -3.4877255173 1.9010459789 -1.5875998236
H -1.0021729228 0.8383570131 -1.593101109
H -0.8977530408 1.4736797103 1.4627603835
H 0.3818782442 -0.4964742966 -0.0961905411
H -1.9387099662 -1.1940543908 0.2542713118
H -4.3686262532 -0.0189971374 0.324507406

