# b3lyp 6-31G(2df,p) opt Freq 

 titel

0 1
C 1.2800339933 0.7998979478 -0.5058001349
O 0.0071149411 0.3136338297 -0.0619680723
C -0.1319246098 0.1981290618 1.2750561599
O 0.7364041909 0.4771145407 2.062750882
C -1.511228619 -0.3225611886 1.6258934459
C -1.7217916205 -0.4728375868 3.1317207628
C -3.1303894543 -1.0031775174 3.4635709629
C -3.3558272836 -1.1552971059 4.8957520221
C -3.5186599904 -1.2725127887 6.0807464772
H 2.0827942617 0.1323531825 -0.1824336609
H 1.2235877676 0.8297807186 -1.5939853384
H 1.4732764117 1.7983167059 -0.105206784
H -2.2494861966 0.3592611964 1.1852490026
H -1.6516678428 -1.2782833346 1.1053810221
H -0.9682030052 -1.1490860315 3.5453914451
H -1.5667826079 0.4908235385 3.6253367975
H -3.8867675888 -0.3249432818 3.0459413974
H -3.2863720756 -1.9697993772 2.9657412561
H -3.6704559118 -1.3788818693 7.1260692267

