# b3lyp 6-31G(2df,p) opt Freq 

 titel

0 1
C 1.4491454664 0.0564827688 -0.1478223631
O 0.0744371428 -0.122292758 0.1003220402
C -0.3871216464 0.5328749031 1.2629847621
C -1.9385704868 0.4965802066 1.2746795935
C -2.2099444692 -0.2769377042 2.6011807643
O -1.1373251865 -1.2252662665 2.5864865396
C -0.0780036649 -0.2632725856 2.584680539
C -0.4698190736 0.6531502848 3.7395740087
C -1.8021279248 0.6476669836 3.7500786024
H 2.0821576257 -0.3768760651 0.6411059542
H 1.6755491128 -0.4502234462 -1.0890434638
H 1.7083982299 1.1228114253 -0.2466037583
H 0.0213810737 1.5523934297 1.3028232244
H -2.3992510899 1.485258382 1.2437772854
H -2.2738824263 -0.0851809797 0.4142080271
H -3.17208002 -0.7822167435 2.6725543475
H 0.8931621023 -0.753943742 2.6243405142
H 0.2125764776 1.2482342332 4.3308082127
H -2.4799352329 1.2327930836 4.3565939498

