# b3lyp 6-31G(2df,p) opt Freq 

 titel

0 1
C 1.3572888538 0.7176037981 -0.4912054123
C 0.0452752293 0.1329023296 -0.0795182079
C -0.2505360163 -1.14461215 0.1787356829
C -1.6787398398 -1.3276292793 0.5423956125
C -2.4402822777 -2.5592197761 0.2737969918
O -2.0027015589 -2.250035895 1.5968397225
C -2.2802627308 0.0772249625 0.6036165855
C -1.193415335 1.0121043159 0.0148396749
O -1.5326744379 1.5716868163 -1.255879696
H 1.7189986919 1.4289476233 0.2623820863
H 2.1230928657 -0.0492016809 -0.6323734302
H 1.24582848 1.2831829731 -1.4230047379
H 0.4423982205 -1.9784909274 0.1446366984
H -3.515947143 -2.4961408918 0.1073254543
H -1.9515695858 -3.4134356565 -0.1956069501
H -3.2164673124 0.1806779118 0.0493942136
H -2.4858023615 0.3206646515 1.6499821603
H -1.0242136436 1.8899926149 0.6477473882
H -1.6143358382 0.84006663 -1.8787276169

