# b3lyp 6-31G(2df,p) opt Freq 

 titel

0 1
O 0.6877558442 0.0938801949 0.5447314546
C -0.6394976993 0.3765220542 0.8251469568
C -1.2514975204 1.831672303 0.8899073619
C -2.4244201266 1.1163872175 1.6232940854
C -1.3031748556 0.2374286781 2.2521641315
C -0.4714678302 1.1325752451 3.247258621
C -1.058173735 2.5600885888 3.3646815709
C -0.4224818549 2.6438564206 1.955892312
O 0.6297888266 1.7528752696 2.4840296015
H 1.1923910594 0.6212356494 1.1810191421
H -1.2259264988 -0.2115993162 0.1146207605
H -1.4345228954 2.3911586518 -0.0288857485
H -3.081019151 1.6912522718 2.2711459581
H -3.0422189302 0.5429010985 0.928710662
H -1.536329719 -0.7495860567 2.6548362625
H -0.1087484899 0.6036261771 4.1295261677
H -2.1215208041 2.7277095561 3.5205139479
H -0.4763885417 3.1484278714 4.0752798204
H -0.0121687082 3.5833483653 1.5834050915

