# b3lyp 6-31G(2df,p) opt Freq 

 titel

0 1
C -1.605735909 1.102830096 -1.8720831658
C -0.6103917899 1.4143518726 -3.0142177422
C -1.0182919276 0.3252470736 -4.0551925685
C -1.1886193716 -0.9405330049 -3.1187982067
C -0.7780779672 -0.2376881726 -1.8373098966
O -0.4635989644 -0.8617242317 -0.6320509162
C 0.4829352019 0.0134016269 -0.0136086707
O 0.9059279146 1.0042210731 -0.9580036486
C 0.448456679 0.5909305401 -2.2326431549
H -1.4529851793 1.7126234642 -0.9835250787
H -2.6672201069 1.04107764 -2.1235147848
H -0.4341353488 2.4197754068 -3.392925618
H -1.9460164513 0.5931593777 -4.5665801711
H -0.247969537 0.1649934352 -4.8148810094
H -2.2112630908 -1.3245477684 -3.1040872097
H -0.5127951689 -1.7567818658 -3.3860269934
H 0.0284552809 0.5366156289 0.8381155753
H 1.3324825772 -0.5936011949 0.3267237643
H 1.2573401192 0.1281090332 -2.8121228145

