# b3lyp 6-31G(2df,p) opt Freq 

 titel

0 1
C 2.6105969199 -0.1852067536 -2.4334754386
C 2.44337316 -0.3136784062 -0.953372691
C 2.5771958494 -1.5399907375 -0.0103697786
C 2.470532582 -0.2677956219 0.8603439267
O 3.4019373456 0.4105810114 -0.0674036412
C 1.3046562387 0.2081697154 -0.032015264
C -0.1671120261 -0.2370397018 0.0026121254
C -0.4579279048 1.2754100481 -0.0356030199
O 0.9531590236 1.5872003754 -0.0744435825
H 1.8665092852 -0.7962514753 -2.9547020857
H 2.4791509337 0.8585144855 -2.7335798412
H 3.6067540097 -0.5170108557 -2.7404159122
H 1.7681219826 -2.2753750788 0.0189066084
H 3.5684388941 -1.993509239 -0.0102108716
H 2.6367588033 -0.135306184 1.9293654861
H -0.5043074681 -0.8030427487 -0.8679598558
H -0.478521057 -0.7555822118 0.9111394177
H -0.9791998339 1.640806522 -0.9275131334
H -0.940168778 1.6903404763 0.8566878816

