# b3lyp 6-31G(2df,p) opt Freq 

 titel

0 1
C 0.2871866457 -0.3321233812 -0.2508375196
C 0.9999702154 0.7645667347 0.5253570066
O 2.2601921462 1.0412447856 -0.1115331477
C 3.2184561242 1.0396489279 0.9372164437
O 2.7892345245 0.0142126158 1.809399801
C 1.4103270277 0.3589655623 1.9755991462
C 1.3085250906 1.5185311331 2.9770851018
C 2.3169058688 2.5860616277 2.6206482638
C 3.2194139169 2.3732741858 1.6649937306
H -0.7125912413 -0.5110067748 0.158878047
H 0.1815305821 -0.0459266439 -1.300883592
H 0.8609840022 -1.262497349 -0.2038405271
H 0.3941559927 1.6799360023 0.5391659962
H 4.1916872257 0.7702794855 0.5214000401
H 0.8805299755 -0.5299190592 2.3244611794
H 0.2915906938 1.9319365077 2.9705690972
H 1.4852678896 1.1536615049 3.9982482075
H 2.284554945 3.5234625006 3.1693113454
H 3.9379227049 3.1273857242 1.3614906398

