# b3lyp 6-31G(2df,p) opt Freq 

 titel

0 1
O -3.9339092806 -1.9559172283 1.0978465553
C -2.5285558513 -1.6570483526 1.2759542168
C -2.037761784 -1.1906015184 -0.072612905
C -2.1910846931 0.078287096 -0.4489832719
C -2.8666627293 1.0874924589 0.4557962487
O -4.2824232154 1.051321195 0.2586975353
C -2.5402576272 0.840139026 1.9197759994
C -1.1850028594 0.3456438588 2.3606819282
C -2.3663612842 -0.5949302811 2.3476411085
H -4.2770562087 -2.2600555029 1.9463418316
H -2.0052942804 -2.5782041468 1.5693225223
H -1.6147858248 -1.9332905358 -0.7414917974
H -1.8927642009 0.4060042569 -1.4404388736
H -2.569621565 2.1034909612 0.1743106385
H -4.5462702766 0.1364225951 0.4378286716
H -3.0728152827 1.5049360102 2.5924376098
H -0.4156810732 0.211456839 1.6092937508
H -0.8194697921 0.67402699 3.3275085921
H -2.7648389711 -0.8853212111 3.3174470388

