# b3lyp 6-31G(2df,p) opt Freq 

 titel

0 1
C -0.1168828276 -0.1240711523 -0.124327022
C 1.3582223637 -0.0380453906 0.1447757309
O 1.90823032 -1.2524787208 0.624899704
C 3.2513353839 -0.8134708404 0.6891504023
C 3.1718180887 0.3874836285 1.6525675576
C 1.9768417308 1.1349189322 1.0161307298
C 2.4165652142 1.829345714 -0.2981715795
C 2.3749741942 0.4379830946 -0.9627851823
O 3.5356414154 -0.3308284877 -0.6224652461
H -0.6654587075 -0.3424007707 0.7971077364
H -0.4914239931 0.8211105738 -0.5282909254
H -0.3301758716 -0.9167733249 -0.8478080571
H 3.9257537899 -1.6329780612 0.9333029921
H 2.9467946996 0.0391838318 2.664353677
H 4.0917389377 0.9763145879 1.6716312082
H 1.3446669666 1.6747224889 1.7214355948
H 1.644025775 2.492693477 -0.6994398725
H 3.3800808339 2.3442028039 -0.3056328406
H 2.1728869863 0.327527756 -2.0295339076

