# b3lyp 6-31G(2df,p) opt Freq 

 titel

0 1
C -2.9828560818 0.8975964645 1.5035413479
C -1.9809004942 1.5652477308 0.5369580873
C -2.5955544079 2.8570621503 0.0047235694
O -2.9217940412 3.0356377028 -1.1383891681
C -0.6517834476 1.8593858641 1.1813471086
C 0.5588875248 1.593329022 0.6952677399
C 1.6191693035 2.0592759958 1.6481776751
O 0.909450725 2.6499250298 2.7350572286
C -0.4918024061 2.534719273 2.526282904
H -3.253319456 1.5653872535 2.3283766979
H -3.9009122079 0.6263312563 0.9749118984
H -2.5502582423 -0.0100734871 1.9332172484
H -1.8248903832 0.9206954725 -0.3330068948
H -2.7422816767 3.6492715194 0.7756492445
H 0.7794149325 1.1069459357 -0.2469597071
H 2.2494094522 1.2324331203 2.0140020392
H 2.2948503188 2.8035501458 1.1980630579
H -0.9462483915 1.9478665633 3.3408427995
H -0.9533696305 3.5347891471 2.5592572035

