# b3lyp 6-31G(2df,p) opt Freq 

 titel

0 1
C 0.3885245087 0.7453545319 -3.4036960911
C 0.1018639735 1.1534871178 -1.9888623887
C 1.026167074 2.0178497058 -1.1170319359
C 0.6627128093 1.1602282625 0.1299884381
C 1.8000767393 0.3459652881 0.697106898
O 2.9290782657 0.3332243946 0.2771218698
C -0.2747493512 0.3119112519 -0.753718536
C -1.2865104436 1.2166203698 -1.4196290497
O -2.258605466 0.595060351 -2.206914284
H -0.379038415 0.0615366337 -3.7723745657
H 0.4021874487 1.6215057562 -4.0633855724
H 1.3644867828 0.2548029557 -3.4820999719
H 2.0823471603 1.8942318112 -1.3648671876
H 0.7835650904 3.0838658691 -1.0635974151
H 0.1557506653 1.6670609611 0.9630011639
H 1.5078683216 -0.2972001624 1.5595398373
H -0.4518448124 -0.7551976548 -0.6698434796
H -1.6258217491 2.1202591801 -0.9032515646
H -2.8985778923 0.1788860765 -1.6202526349

