# b3lyp 6-31G(2df,p) opt Freq 

 titel

0 1
C 5.6776395674 0.2803095087 4.2213927295
C 5.6790743256 -0.2080865869 2.7829975981
O 6.7064312794 -0.5605545332 2.2371688371
C 4.3716604602 -0.236969931 2.0740479074
C 4.2366530707 -0.6417025203 0.8036436824
C 2.8197088222 -0.5504313172 0.3181302898
C 2.0026324958 -0.3072947454 1.6069369488
O 1.4614580401 -1.5687971317 1.9802033958
C 3.0381679932 0.2058370977 2.6454921561
H 5.0557307437 -0.3713419651 4.8462671863
H 6.6982185918 0.2863350304 4.6049653646
H 5.2495421102 1.2869463173 4.290059313
H 5.0668290642 -0.9759921428 0.1928399998
H 2.7049651335 0.2739459637 -0.3987888895
H 2.4698532307 -1.4583994623 -0.1839505905
H 1.194964025 0.4202322705 1.4494963075
H 0.9726109381 -1.4524238118 2.8011805193
H 2.9914313039 1.2989506922 2.7466145885
H 2.8254144743 -0.2099836929 3.637543096

