# b3lyp 6-31G(2df,p) opt Freq 

 titel

0 1
C -0.0197677913 2.505694575 0.330471336
C -0.8568878747 1.2635825159 0.0292516016
C -2.0676424461 1.104438883 0.9651691295
C -2.9205575364 -0.1091353354 0.6021037893
O -3.6346625006 0.2190298812 -0.5962860142
C -2.0705389959 -1.3427467991 0.397154639
C -0.7602234509 -1.2910719157 0.1384361245
C -0.0142781236 -0.0111045595 0.030569947
O 1.1949936891 -0.0038916668 -0.0862905646
H 0.3545186114 2.4867538581 1.3596816382
H 0.8465692634 2.5571819784 -0.3316625017
H -0.617906952 3.4129084394 0.2024774346
H -1.2563728052 1.3364251082 -0.9934100608
H -1.7239205858 0.9952957869 2.000964814
H -2.6971132353 1.9988903883 0.9236043962
H -3.6389327285 -0.3024747858 1.4138067639
H -4.0679041657 -0.5771801626 -0.9211671349
H -2.5774622511 -2.3055941959 0.4483603562
H -0.1635504407 -2.1879785134 -0.0000957838

