# b3lyp 6-31G(2df,p) opt Freq 

 titel

0 1
C -0.8355793839 -0.3100030535 -1.2403365754
C -0.1251134587 0.1010572813 0.0311748366
C 0.8250901675 1.2177175914 0.0750583646
O 1.287112915 -0.1350626567 0.060010436
C -0.9524886599 -1.8047524601 -1.3521932109
C -2.0863485819 -2.6320945843 -0.7670784816
C -1.7733955667 -2.7211463942 -2.2299414836
O -0.685759884 -3.6169225074 -2.4607270431
C 0.198160831 -2.7524558794 -1.6916707294
H -1.8333755824 0.1466752083 -1.257681066
H -0.2807233275 0.0906422147 -2.097870346
H -0.6325132625 -0.1733552975 0.9576732699
H 1.0225721009 1.7887798141 -0.8315549683
H 0.9888813618 1.7573873248 1.0066879719
H -1.8875795858 -3.4878218501 -0.1270281766
H -2.9752871118 -2.0611649106 -0.5131064512
H -2.4708166093 -2.5430756672 -3.0412108696
H 0.6901880338 -3.2793549885 -0.8667148135
H 0.9533437543 -2.2987971649 -2.3430874238

