# b3lyp 6-31G(2df,p) opt Freq 

 titel

0 1
O 0.684814819 0.6875141525 0.6620863181
C -0.6958436744 0.5160583916 0.7034656334
C -1.3319412561 -0.1903309668 1.8987178935
C -1.441742286 1.2923121261 1.7381704865
C -2.60494944 2.2719661506 1.6521751795
C -1.6686196677 3.1883069806 2.4360727934
C -1.9351313487 4.1525134915 3.5373247051
C -1.3151920678 4.6209546403 2.2238535684
O -0.6549676037 2.1731785182 2.5603741882
H 0.8772460286 1.4462572188 1.2321789595
H -1.1409615163 0.3641845946 -0.27738945
H -2.2176218456 -0.7967530805 1.7348605257
H -0.6554562496 -0.5479921455 2.668355525
H -2.875872994 2.6049335361 0.6479038167
H -3.5019627334 1.9663857199 2.1964858532
H -2.9639848514 4.4203640643 3.7552832065
H -1.2842782605 4.1025746926 4.403576924
H -1.9202608982 5.2090236707 1.5412843579
H -0.261608484 4.8787056947 2.2364676956

