# b3lyp 6-31G(2df,p) opt Freq 

 titel

0 1
C 2.089340714 -0.559905829 -1.6504355229
C 0.7025364177 0.0691644016 -1.4206397387
C -0.2548952996 -0.3705585109 -2.5108302194
O -0.9761853932 0.3621309947 -3.1399277087
C 0.747786233 1.5818101259 -1.2932982675
C -0.4403587671 2.310629544 -0.6092392215
C 0.4790228204 3.5167508586 -0.3115360082
C 1.2181290354 2.2084941978 0.0513504673
O -0.0261963234 1.7206528847 0.6933493777
H 2.7444095417 -0.3714036657 -0.7958187357
H 2.0161346903 -1.644679051 -1.7805623171
H 2.5701587287 -0.1460826842 -2.5434631876
H 0.2938461665 -0.337825703 -0.4840600097
H -0.2535641983 -1.4699669493 -2.7010637235
H 1.1281288667 2.0610076649 -2.2003979258
H -1.4989464126 2.2831660055 -0.8620398796
H 0.8483630057 4.1059281803 -1.1544538153
H 0.1786569046 4.1243683124 0.542102955
H 2.1511190194 2.0678891028 0.5989701312

