# b3lyp 6-31G(2df,p) opt Freq 

 titel

0 1
C -3.122305121 -1.1482025611 0.7687433081
C -2.0665816105 -0.6356790987 1.6913786981
O -1.0717246926 -1.5527116551 2.1871441965
C -0.6425159976 -0.3220428973 1.5521093091
C 0.3485121628 -0.4466728423 0.4416170234
O 1.6468185823 -0.7582202062 0.9241033227
C -0.7563114057 0.8362817057 2.5934860441
C -1.3077009992 0.3601440566 3.9095798593
C -2.240035713 0.5178397361 2.7385153523
H -2.6933140251 -1.8194373496 0.0206874872
H -3.884758255 -1.7012648112 1.3293815513
H -3.6203250036 -0.3191575389 0.2553459208
H -0.0092793218 -1.19759236 -0.2783958957
H 0.4425913442 0.5086463559 -0.0859171412
H 1.5647823126 -1.5655635683 1.4440600494
H -0.2884467945 1.8018554543 2.4561014087
H -1.0607411786 -0.6257018923 4.281813401
H -1.3995354277 1.1330431193 4.6662806028
H -3.0758201759 1.205218063 2.7289588022

