# b3lyp 6-31G(2df,p) opt Freq 

 titel

0 1
O 1.6356131581 -0.2473210329 -2.558246411
C 0.2819015211 -0.1600974459 -2.3135433813
C -0.583709186 -1.39150902 -2.3262909576
C -0.6101740226 -0.4811582827 -1.1201858073
O -1.4580997301 0.6471437762 -1.4027409092
C -0.5953219953 1.0733288077 -2.4926651708
C -0.4177492898 -0.8588764543 0.2966771327
C -1.559201846 -0.6884170707 1.2737781715
C -0.3491853766 0.2056984287 1.3657364881
H 2.0861309546 0.4108830126 -2.0165817877
H -1.4505932898 -1.4741176658 -2.9781575881
H -0.0163535621 -2.3066849875 -2.1841467874
H -1.1397308316 1.1891168088 -3.4370802077
H -0.0877645357 2.0133985177 -2.2392223047
H 0.2089915606 -1.7349133142 0.4303537381
H -2.4732515271 -0.2479552291 0.8930217807
H -1.7016973386 -1.4542512295 2.0278703151
H -0.473622983 1.2338910009 1.0459223119
H 0.3441038298 0.0610865897 2.1868226947

