# b3lyp 6-31G(2df,p) opt Freq 

 titel

0 1
C 1.2660762513 1.0546161293 0.4444743541
C 0.8988060795 -0.3983926232 0.1194095661
C 1.6869327251 -0.930311693 -1.0533645435
O 1.3039195527 -0.4436913408 -2.3559703249
C 1.1327949348 -1.817455996 -2.0787156963
C 1.8258477657 -2.9918386685 -2.8207987011
C 0.4687624759 -3.7136602705 -2.7580726697
O -0.4643210399 -2.8999309487 -3.467160989
C -0.1876594407 -2.567110774 -2.0966370982
H 0.6821035994 1.4288732196 1.2901450313
H 2.3267710517 1.1465886361 0.7023109729
H 1.0729509858 1.6993684259 -0.4177322074
H 1.0885618856 -1.0393080366 0.990378367
H -0.1705471241 -0.4698006998 -0.1061202116
H 2.7696085044 -0.9628136891 -0.9059245574
H 2.1780375722 -2.777994835 -3.8318100839
H 2.6196102254 -3.4593687407 -2.2326824764
H 0.2594132761 -4.7727143473 -2.673393929
H -1.0309343409 -2.5179637477 -1.4183214631

