# b3lyp 6-31G(2df,p) opt Freq 

 titel

0 1
C -0.0305456896 1.4083996507 0.0919752519
C 1.3373408828 0.7888602856 -0.100912972
C 2.03642237 0.9836404358 -1.4304628562
O 2.6730926891 -0.1693952841 -1.9808904753
C 2.0813434057 -1.4393698634 -1.819784739
C 0.5713674797 -1.5674505898 -2.039771444
O -0.1639163186 -0.4213058496 -2.4750323874
C -0.3874136585 -0.9018279328 -1.1432336039
C 0.1077166063 -0.0885664387 0.0096387659
H -0.277180656 1.8530425651 1.0494506983
H -0.4585492079 1.9151011992 -0.7668713315
H 1.9910905953 0.7756300897 0.7663535492
H 1.3298864826 1.3857651035 -2.1610283288
H 2.8462095183 1.7114855569 -1.3066116637
H 2.5957594558 -2.0765471771 -2.5467382823
H 2.3004150592 -1.8535805706 -0.8206874778
H 0.2677719628 -2.4988006262 -2.5212491297
H -1.3704256985 -1.3548074728 -1.0049544882
H 0.0035827315 -0.6232760014 0.9512283743

