# b3lyp 6-31G(2df,p) opt Freq 

 titel

0 1
O 0.5602676616 0.1683510234 0.0524201622
C -0.6013780052 0.4258457218 0.7638915534
C -1.9621999983 0.1013705462 0.2294714155
C -2.8856478516 1.313019793 0.358810235
C -1.9614824093 2.4464063838 0.8755232641
C -0.8057693235 1.7191115213 1.5847972978
O -1.1824713695 1.3081622999 2.9032079016
C -1.7856433958 0.0121376984 2.8544055393
C -1.4362690052 -0.5794781088 1.5027718161
H 1.2605913006 -0.037966373 0.6818060387
H -2.0512295829 -0.5500379455 -0.6327858682
H -3.3359644641 1.5651965455 -0.6050141069
H -3.7133566741 1.1209040985 1.0507292492
H -1.5538439442 3.0034784714 0.0240674665
H -2.4598420615 3.1575847684 1.5390254974
H 0.1001334739 2.3247268279 1.6704812527
H -1.3745746725 -0.5926463235 3.6720084667
H -2.8709970416 0.0954951402 3.0159158603
H -1.2152153169 -1.6380507993 1.4269468287

