# b3lyp 6-31G(2df,p) opt Freq 

 titel

0 1
C -0.1520947677 -0.1092994203 0.0241342791
C 1.3584500474 0.1155454445 -0.0088161101
O 1.9807748643 -0.3653872642 1.1722936109
C 2.1150668993 1.336509158 -0.44990951
C 1.7137388262 1.9931674038 -1.7970454701
C 0.605940067 1.3028382948 -2.5889351421
C 1.9717671534 0.6934420789 -2.5196039561
O 2.7686076377 0.501474874 -3.6347145507
C 2.3349103597 0.0039136864 -1.1703826904
H -0.4166766961 -0.4196762392 1.0386263314
H -0.7166435581 0.7993914168 -0.1906708008
H -0.4757557017 -0.8921933018 -0.6691472644
H 1.9496491307 -1.3282135173 1.1434717722
H 2.7932893294 1.8187946069 0.2423478199
H 2.0320492784 2.9923766759 -2.0638675481
H -0.2863289033 0.8699415334 -2.1591362082
H 0.4362799255 1.8027131282 -3.5394034882
H 2.4091362388 -0.239360303 -4.136578861
H 3.2044306191 -0.6367231759 -1.0871793935

