# b3lyp 6-31G(2df,p) opt Freq 

 titel

0 1
O -1.8210030885 4.8392573321 -1.5195804373
C -1.7338192606 3.58346903 -0.8960665279
C -0.5139656086 3.2862497194 0.008338866
O -0.1693634607 2.1336247957 -0.7876086227
C -1.1410437078 2.4909600764 -1.804735902
C -2.0046209583 1.3193716087 -2.2267214199
C -1.1672132547 0.1992177595 -2.8782208831
C -1.9690907667 -0.9520082919 -3.2717561171
C -2.6545196275 -1.8879777086 -3.5866941198
H -2.2782568524 5.446692565 -0.9302271172
H -2.6882115125 3.2859048539 -0.4424907605
H 0.2489630935 4.0741373857 -0.0470514562
H -0.7013266415 3.0218388409 1.0551035438
H -0.6428791478 2.9459914474 -2.6742567291
H -2.5274404886 0.916473885 -1.3524551564
H -2.7665266514 1.6733937628 -2.9311985727
H -0.6430436769 0.5989664994 -3.7563623045
H -0.3890763215 -0.1115121898 -2.1712169703
H -3.2470912874 -2.7220984417 -3.8695611331

