# b3lyp 6-31G(2df,p) opt Freq 

 titel

0 1
O 0.2589845315 0.3615264227 -0.1600510363
C -0.4917855572 0.9077171793 0.8929623778
C -1.1188713041 -0.0562354923 1.9246182504
O -2.3974902394 0.5924040101 1.804884706
C -1.9667123883 1.3860514558 0.6701490517
C -2.0782814516 2.8871110894 0.9483502234
C -0.7220073079 3.28376021 1.5364617476
C 0.445914416 3.2732482978 0.5854595927
C 0.2218052771 2.0957795719 1.4986536133
H -0.2211688278 -0.3943270633 -0.5151263799
H -1.1503226479 -1.1017803357 1.5808070021
H -0.7290167465 -0.0291796177 2.9488758726
H -2.4545966674 1.0534812846 -0.2552944545
H -2.3111529512 3.4543037323 0.0398982917
H -2.8932596819 3.0531252612 1.6590896492
H -0.6972723762 3.972508972 2.372943625
H 0.2530904805 3.1415052272 -0.4745438567
H 1.2908145587 3.9156860649 0.8068583629
H 0.9310578735 1.9116246199 2.2982050712

