# b3lyp 6-31G(2df,p) opt Freq 

 titel

0 1
C -3.1797101739 -1.1077377811 1.0791001562
C -2.3693233574 -0.826023348 -0.1917362052
C -2.1982380301 0.6742502634 -0.4035082292
O -1.3264337294 0.9979674256 -1.4803651111
C -0.8095188426 1.0910706446 -0.1343488454
C -0.0328611521 -0.1514026492 0.2174266671
O 1.065800083 -0.182423495 0.7104918829
C -0.9131617203 -1.3720411843 -0.1130827282
C -0.4201757703 -2.0762046997 -1.3879504584
H -3.2970489965 -2.1842701899 1.2342075848
H -2.6839996239 -0.6953227192 1.9654389992
H -4.1803101449 -0.6664806928 1.0201106901
H -2.8927977575 -1.2542840483 -1.0543216223
H -3.034077724 1.3549622736 -0.2551797743
H -0.4987218409 2.07497082 0.201173662
H -0.8145310534 -2.0668265313 0.7275947739
H 0.6283240797 -2.3684195376 -1.2802985559
H -1.0089213243 -2.9791795069 -1.5788676335
H -0.510159401 -1.415280784 -2.2533859029

