# b3lyp 6-31G(2df,p) opt Freq 

 titel

0 1
C 3.0188840873 -3.064606066 -0.021837214
C 2.3373861429 -2.7874695775 -1.3674311481
C 1.3607314086 -1.6408884089 -1.2839651072
O 1.9271885637 -0.3163432317 -1.1919478071
C 1.1813705097 -0.6511748413 -2.3473582367
C 1.764988252 -0.6162038873 -3.7719254178
C 0.4319869004 0.0198351619 -4.2198082627
O -0.032601348 0.2992496943 -5.2848183381
C -0.088614528 0.108307476 -2.7705721049
H 3.7286606246 -3.8926556046 -0.1035401137
H 3.5629076939 -2.1796811203 0.3208656159
H 2.2848453122 -3.3269928102 0.7476646514
H 3.0912866518 -2.5593359594 -2.1287236767
H 1.7977067503 -3.6811034093 -1.7075618952
H 0.5206716011 -1.7956262111 -0.6019439016
H 2.6177935716 0.0629864067 -3.8767349649
H 2.0133487764 -1.5697332108 -4.246467257
H -0.1215583007 1.1368153353 -2.3947460514
H -1.0552257499 -0.367492766 -2.5830536503

