# b3lyp 6-31G(2df,p) opt Freq 

 titel

0 1
C 1.415879005 -0.0266086488 -0.111527041
O 0.0107470609 0.0321526862 -0.0331149448
C -0.4447391795 0.6593383947 1.1468791341
C -1.9639192511 0.661891206 1.1304412587
C -2.6443574228 -0.6992275079 1.3591772691
C -4.1104110193 -0.5084045346 1.4619988721
C -3.2683700854 -0.20907823 2.6995274024
C -2.5405146773 1.0829633257 2.5158370191
O -2.283632351 2.003412039 3.2413670484
H 1.8484349752 -0.5994384288 0.7241566143
H 1.6703206098 -0.524489024 -1.050253646
H 1.8677863975 0.9777216567 -0.1070728704
H -0.0705109658 0.1238358682 2.0368634862
H -0.0751240456 1.6947943307 1.2137120105
H -2.3219506628 1.213561588 0.2549862092
H -2.1738810218 -1.6558287914 1.1784284346
H -4.5987972484 0.3014650838 0.9266177269
H -4.7153063592 -1.4040653357 1.5593073456
H -3.4423787883 -0.7253937878 3.635287531

