# b3lyp 6-31G(2df,p) opt Freq 

 titel

0 1
C -1.5740204873 0.2349953455 2.4523964444
C -1.989245204 0.5908659089 1.0354336826
C -0.9303719868 0.9862924187 -0.0587515755
C -2.0030491036 0.541180854 -1.1096113889
C -2.287516926 -0.519916326 -0.0186047896
C -3.4581194667 -1.4580030352 0.0101089291
O -1.0243334606 -1.2778938283 -0.0237396684
C -0.0821869796 -0.2770966662 -0.0515538711
O 1.0972728976 -0.4610561957 -0.0622282061
H -0.8017123107 -0.5385447934 2.4703586784
H -1.1849244519 1.1153954257 2.9739544299
H -2.4326172627 -0.1336318344 3.0237114747
H -2.8002889365 1.3258232904 1.0383043369
H -0.4019527524 1.9354222135 -0.0844701735
H -2.8067001337 1.2701528987 -1.228883871
H -1.654740293 0.1761847609 -2.0781825803
H -3.4336112421 -2.0799252711 0.9098861318
H -4.3939202732 -0.8916471897 0.0038712467
H -3.4454619868 -2.1189667062 -0.8614899704

