# b3lyp 6-31G(2df,p) opt Freq 

 titel

0 1
C 0.0083543081 -0.2141649334 -0.1816493304
C 1.5021616336 -0.1382449962 -0.0741672582
C 2.5005859439 -0.2086034585 -1.2604231613
C 3.3055056526 0.6276104342 -0.2426986187
C 3.642490526 -0.3738664878 0.8833432966
C 2.2290124689 -0.9714325656 0.9923894248
C 1.8608365434 -2.3133050684 1.4421064649
O 1.6139796717 -1.1572232515 2.2581158598
O 2.0468070042 1.1981906618 0.2293770324
H -0.4449971749 -0.069616488 0.803079437
H -0.366560989 0.55292017 -0.8634502425
H -0.2990032261 -1.1937718311 -0.5619860164
H 2.8835634095 -1.18189863 -1.5805823983
H 2.1586955699 0.3883805555 -2.1068679887
H 4.0509864839 1.3683288169 -0.5291688687
H 4.4125122275 -1.1018772864 0.6134542115
H 3.928784129 0.1336479964 1.8069336439
H 0.9705040752 -2.8033934017 1.0495160976
H 2.6323596427 -2.9882481761 1.8110711047

