# b3lyp 6-31G(2df,p) opt Freq 

 titel

0 1
C -1.7283786877 -0.478639627 -2.5192440933
C -2.1688911706 -0.8394932389 -1.1092917903
C -3.2971290725 -1.862313562 -1.0883980021
C -2.2027824895 0.1432109985 0.0260225453
C -1.0754712364 1.1767472828 -0.0742033218
C -0.0705758559 -0.0070326249 0.0026670313
O 1.1125045356 -0.0662295573 0.1827755252
C -1.1748764227 -1.0315690079 0.0473310455
O -1.1595129448 -2.1594506682 0.8369787109
H -1.4264648694 -1.3797259439 -3.0647674224
H -2.5563015626 -0.0218180735 -3.0737935977
H -0.8857120397 0.2146327917 -2.5442243618
H -3.6152864097 -2.0998616847 -0.0714558557
H -4.1599655487 -1.4759959967 -1.6414108178
H -2.9910822754 -2.7970991993 -1.5727690427
H -3.0694390534 0.2407596223 0.6675137658
H -1.0443667298 1.8211662334 -0.9558672615
H -0.9752551578 1.7950621566 0.8230904426
H -0.9272193589 -2.920860321 0.2940305506

