# b3lyp 6-31G(2df,p) opt Freq 

 titel

0 1
C -0.1163495575 -0.2141847526 -0.029643129
C 1.3799889146 -0.0409357478 0.0234637394
O 1.9604935157 -0.8116888995 1.0348158361
C 2.1824508009 0.1773017908 -1.2492003001
C 2.0559739243 1.2944403593 -0.2331729402
O 3.1951127728 1.5327611236 0.5861705252
C 3.2223259822 2.9124259616 0.9732848747
C 2.0525774492 3.5354973272 0.2623882988
C 1.4000371921 2.6017868568 -0.425406537
H -0.5756041615 0.0967171812 0.9139840233
H -0.5594215337 0.3670525334 -0.8429710897
H -0.3622609758 -1.268549579 -0.1951780301
H 2.6689059561 -0.2711610784 1.4129773692
H 3.1520252801 -0.3065423285 -1.3014022785
H 1.6614885433 0.2820031433 -2.1961079798
H 3.1460034167 2.9962191656 2.068396465
H 4.1876524016 3.3492170977 0.6779486913
H 1.8081063582 4.5871136211 0.3321820966
H 0.5181395607 2.7387148642 -1.0358696552

