# b3lyp 6-31G(2df,p) opt Freq 

 titel

0 1
C 1.5028804055 -0.0001361048 -0.1794774145
O 0.102169956 -0.1027046988 -0.074299025
C -0.3995942446 0.4547512805 1.095136961
C -1.9164281496 0.3847649417 1.3848543624
C -1.4935669179 0.7627141535 2.8557618191
C -0.2788001622 -0.1838482817 2.5265618192
C -1.0483130995 -1.5147838765 2.4206155294
O -1.237460482 -2.0471286978 1.10468842
C -2.2013719192 -1.1167516555 1.6105740962
H 2.0175489962 -0.5871104345 0.5956504514
H 1.7836412602 -0.3914557026 -1.1597558212
H 1.8430946169 1.0460046686 -0.1026300725
H -0.0649063067 1.5016625867 1.1698550306
H -2.6355391708 0.9685897596 0.8120708732
H -1.2253178438 1.8131545163 2.9908939913
H -2.1620039165 0.4344646904 3.6539924522
H 0.6460495451 -0.1600771689 3.101297102
H -1.0742991149 -2.2250254333 3.2409561512
H -3.2137026921 -1.4867165029 1.736145774

