# b3lyp 6-31G(2df,p) opt Freq 

 titel

0 1
C 0.6645362575 -0.3731056762 0.7746447833
C 1.6415066637 0.4000837824 -0.1310926455
C 2.1946047846 -0.4257755939 -1.2501601204
C 3.4609242964 -0.7804572819 -1.4841396254
C 3.527918911 -1.6121825886 -2.7035654105
O 4.4675459781 -2.1256428164 -3.2423594486
O 2.2443426755 -1.7341433875 -3.1855404274
C 1.3322922665 -1.0183990348 -2.3460393095
C 0.564802764 0.0061008559 -3.1801213956
H -0.2104853387 -0.7235092924 0.218949863
H 1.1514254038 -1.2453530571 1.2205582452
H 0.308552709 0.2695937804 1.5845274829
H 1.1228578557 1.2729445698 -0.5496145526
H 2.4707440817 0.7883466235 0.4685512589
H 4.3426778537 -0.5303920566 -0.9115770032
H 0.6275626229 -1.7512296509 -1.9290060581
H -0.1863685037 0.5165406745 -2.5696816694
H 1.2492450777 0.7518670945 -3.5941526104
H 0.0544731905 -0.4956886745 -4.0056049166

