# b3lyp 6-31G(2df,p) opt Freq 

 titel

0 1
C 1.3815295713 -0.7671823712 -1.1411556322
C 1.2700177685 0.1195298875 0.1066951454
C 1.720070858 -0.6328094165 1.3643228637
O 1.8111927389 0.2289103473 2.4887339516
C 2.7971135573 1.2284470716 2.3483243762
C 2.5160975119 2.2775805161 3.4255167724
O 3.2078362146 3.2429170337 3.6078847219
C 2.8103617642 1.8688128441 0.9829964551
C 2.0895738195 1.3809114241 -0.0227051428
H 0.7774253013 -1.6745523219 -1.0366242781
H 1.032344825 -0.2341821354 -2.0310090821
H 2.4196104724 -1.0689556327 -1.3182303271
H 0.2135076972 0.3980269074 0.2340602434
H 1.0044010066 -1.4126827099 1.6393427602
H 2.6931438744 -1.1159032817 1.1754677816
H 3.8022336838 0.8197170314 2.5693532727
H 1.6047216467 2.0626909939 4.0242147128
H 3.4252684929 2.7579313346 0.8876182765
H 2.0934258455 1.8794013175 -0.9896047512

