# b3lyp 6-31G(2df,p) opt Freq 

 titel

0 1
C -0.2591034292 4.0383336676 -1.0375378607
C -0.5350610791 2.6288142899 -1.5041385711
C -1.8902481908 2.0270275441 -1.4065360861
C -0.7933919708 1.5268126878 -0.4697998401
C -0.2158858612 0.1887327249 -0.7455620156
O -0.1448844956 -0.2730918744 -1.8681219895
C 0.33384113 -0.609592344 0.4379326556
C 1.7745579936 -1.0315523185 0.1812077261
O 2.6441547072 -0.9840028226 1.00969285
H 0.7876706273 4.1650034454 -0.7426557661
H -0.4712364343 4.7577138027 -1.8360647869
H -0.8852907401 4.3025043379 -0.1790095218
H 0.058720406 2.282387222 -2.3452157572
H -2.6862342177 2.6066557953 -0.9511488147
H -2.1952542099 1.3290706644 -2.177794471
H -0.844974812 1.833928683 0.5684689375
H 0.2670940153 -0.0913994386 1.3959696155
H -0.2581524207 -1.5336148338 0.4935468185
H 1.9559577221 -1.3925906831 -0.8518377025

