# b3lyp 6-31G(2df,p) opt Freq 

 titel

0 1
C -3.1994648369 -0.0627539747 -1.1475877372
C -1.698767175 -0.0574664745 -0.8978441399
C -1.0084994439 1.0493495425 -0.0205044629
C -1.7327076001 0.910279124 1.3413528702
C -1.7782557783 -0.650196836 1.4751926795
C -1.057844272 -1.0460846592 0.1735645378
O -0.8700896615 -2.3988396178 -0.0309079487
C 0.0829058574 -0.0219289033 0.1287031931
O 1.2709751299 -0.102040996 -0.0058587021
H -3.7860230054 0.0767451258 -0.2365423625
H -3.4777600996 0.7329544345 -1.8461733167
H -3.4998432865 -1.0172445863 -1.5922523642
H -1.1636112942 -0.1636880963 -1.8476185595
H -0.7931071187 2.0435827234 -0.4036084187
H -1.1701425555 1.382611343 2.1504366498
H -2.7277833177 1.3604629666 1.3226189426
H -1.2394466078 -1.0222873383 2.3498958952
H -2.7941404259 -1.0505462984 1.512382061
H -0.0392968984 -2.513521619 -0.5082732069

