# b3lyp 6-31G(2df,p) opt Freq 

 titel

0 1
C 0.0320211734 1.4843741406 0.053325852
C -0.0515569693 -0.0018073896 -0.1372779566
C -1.1626868187 -0.7246494646 -0.1259235309
C -2.5640393611 -0.6855465046 0.4315535038
O -2.4292900422 -2.0932719907 0.792223111
C -1.2228594393 -2.2179658345 -0.0117426299
C 0.076207906 -2.7044739491 0.618838738
O 1.1110429088 -2.1913698123 -0.2183061204
C 1.2487104875 -0.7766624419 -0.2256078301
H 0.6624061369 1.7401983885 0.9142391067
H 0.4799152563 1.9745782899 -0.8205743249
H -0.9562878253 1.9240397167 0.2105444798
H -2.7416093166 -0.0436184609 1.3025526811
H -3.3756466283 -0.5397998284 -0.2950179755
H -1.4320315293 -2.7727131474 -0.9364498888
H 0.1523275069 -2.3349825578 1.6522229869
H 0.1997849954 -3.7903467859 0.6155194084
H 1.8036532077 -0.5401589962 -1.1422250175
H 1.8836335014 -0.4563376116 0.6210524671

