# b3lyp 6-31G(2df,p) opt Freq 

 titel

0 1
C 1.245265508 -0.2786993875 1.0748640543
C 0.8574256024 0.2277543228 -0.3209278797
C 1.6013512021 -0.4790496366 -1.4073644295
O 3.0225939635 -0.341549118 -1.4523574923
C 2.9822014134 -0.3472247664 -2.9091484568
C 1.485821079 -0.6102112035 -2.8882991907
C 1.2353080353 -1.8511312893 -2.024445865
C -0.16422216 -2.3007111474 -1.9162859555
O -1.1355038449 -1.5988106676 -2.1058188157
H 0.9852485687 -1.3352398589 1.1961993405
H 2.3211428259 -0.1750957421 1.2423167388
H 0.722631913 0.2886017374 1.8499547788
H -0.2137538049 0.1022577285 -0.4997217046
H 1.0759947807 1.2992710193 -0.402781385
H 3.2485378469 0.6405851137 -3.2998030101
H 3.6361569448 -1.1117625065 -3.3426945623
H 0.7229008131 -0.253481516 -3.5661799751
H 1.9955137859 -2.6257649427 -1.9715805135
H -0.2844668531 -3.3683020993 -1.6286782865

