# b3lyp 6-31G(2df,p) opt Freq 

 titel

0 1
O -0.7071788084 0.6612019869 0.0425442173
C -1.7231479627 0.2935278802 0.9217916646
C -3.1494083287 0.9871367811 0.8948160746
C -2.4953219252 2.2100323818 1.5828555408
C -1.9114284557 0.9606746839 2.3257893808
C -1.5095652553 0.9586255286 3.7746553294
O -2.7626188795 1.1767808696 4.4566749247
C -3.9072289809 0.9296155665 3.5977193993
C -3.3361244216 0.3512577447 2.3086209924
H -0.6505179028 1.6210825227 -0.0028873482
H -1.7397527043 -0.7991448805 0.9210602314
H -3.8547848499 0.9878674322 0.0626907124
H -1.7987539712 2.8157307822 0.9946251474
H -3.1479060417 2.8709329032 2.152200459
H -1.0694150892 -0.003229021 4.0759107171
H -0.8277062814 1.7638547049 4.0663198508
H -4.5653601724 0.2155844706 4.103754237
H -4.4618763181 1.8665391023 3.47368995
H -3.3652887311 -0.7431155499 2.3079082591

