# b3lyp 6-31G(2df,p) opt Freq 

 titel

0 1
C -0.235182865 -0.0081330769 -0.1105855479
C 1.2845652248 -0.0464188901 -0.179353053
C 2.0810935516 -0.4694487207 1.0797827681
C 1.9815353323 0.9582864427 1.7102451867
O 3.4131701407 1.0859203822 1.9610001091
C 3.3146587823 0.3946767323 0.6662072639
C 4.6112835733 0.073612478 -0.0094423634
O 5.3600265222 1.2518244641 -0.2441743446
C 2.0842426734 1.2297399488 0.1786007795
H -0.5874346737 0.4750739349 0.8070064691
H -0.6529562102 0.5447865927 -0.9589052385
H -0.6563662656 -1.0190404748 -0.1369138854
H 1.6189558715 -0.535510756 -1.101612232
H 2.1020642888 -1.4191617496 1.6157905291
H 1.2939312379 1.354091496 2.4556950119
H 5.1692591242 -0.6465273412 0.6104595099
H 4.4247110951 -0.3950584757 -0.9816617614
H 5.347602294 1.7501470477 0.5819344667
H 2.1159375323 2.2027521155 -0.3115333479

