# b3lyp 6-31G(2df,p) opt Freq 

 titel

0 1
C 0.106988085 0.175678761 -0.5633940942
C 1.4417533691 0.0261428215 0.1235439352
C 1.8495204694 -1.295926091 0.7175206476
C 2.6176471865 -0.7605943357 -0.4767137414
O 3.8256994674 -0.0883141072 -0.2548941685
C 3.6114451723 0.901992827 0.7541457741
C 2.1131257693 1.263858504 0.7104556456
C 2.5419545453 -1.4233339305 -1.7939990541
O 1.6436724834 -2.1574962188 -2.1381473687
H -0.6830154324 0.369807854 0.1710393353
H 0.117974779 1.0123850241 -1.2708087114
H -0.1527351647 -0.7318235053 -1.1132433589
H 2.3689248535 -1.3345748461 1.6693129065
H 1.2056388123 -2.1427969003 0.5051955982
H 3.8892030093 0.4972469664 1.7364813653
H 4.2712766622 1.7468933719 0.5409963163
H 1.7335078978 1.5311449904 1.7017018105
H 1.9319731114 2.1138833289 0.0437525056
H 3.3908428939 -1.1734078544 -2.4655495529

