# b3lyp 6-31G(2df,p) opt Freq 

 titel

0 1
O -4.1143423763 -0.8759397359 -3.5927170847
C -3.3441431212 0.2406804463 -4.0186317081
C -2.2733724792 0.6008612609 -3.0894975315
C -1.4247615487 0.8942020487 -2.2849706447
C -0.3725869909 1.2353283403 -1.3422904767
C -0.1408124976 0.1879827058 -0.2132604738
C 1.3947824284 0.2259302773 0.0043225502
O 1.9119892391 1.23759142 -0.8558174016
C 1.041161636 1.3261861171 -1.963328105
H -4.4046805294 -0.6964094665 -2.6924168574
H -2.9223408613 -0.0442123586 -4.989019817
H -3.9822175312 1.1210315217 -4.1981957041
H -0.5913959838 2.2060603923 -0.8822501014
H -0.699648248 0.4447327076 0.6887288692
H -0.4701587677 -0.8004986711 -0.5401982015
H 1.6822775711 0.4855843901 1.02678088
H 1.8435098444 -0.7480005359 -0.2402603844
H 1.2316573814 2.2712373631 -2.4766412592
H 1.193418215 0.4971926068 -2.6733646683

