# b3lyp 6-31G(2df,p) opt Freq 

 titel

0 1
O 0.4417840695 0.4335885364 0.2130841587
C -0.7045079656 -0.1658213632 0.7625334832
C -1.2967837775 0.4066317174 2.0663969829
O -2.5877785054 0.5447859706 1.445007092
C -2.0374022582 0.28335646 0.1183510028
C -2.888980938 -0.7385772897 -0.6633155749
C -3.5807234278 0.088682226 -1.7169938865
C -3.1033846939 1.330998316 -1.7639737566
C -2.0066129305 1.5605358398 -0.7557914791
H 1.2210761536 0.0257253912 0.6022371584
H -0.61261425 -1.2596444309 0.7868006297
H -1.3289606676 -0.2443519401 2.9476474385
H -0.854617918 1.3752650774 2.3375256399
H -2.2560114148 -1.5168280922 -1.1132253055
H -3.5768023908 -1.2449827898 0.0232074903
H -4.3562190853 -0.3128695207 -2.359466493
H -3.4312931505 2.1028219073 -2.4515401606
H -1.0287544605 1.6841088885 -1.2364444498
H -2.1691062088 2.444347366 -0.1291650604

