# b3lyp 6-31G(2df,p) opt Freq 

 titel

0 1
C 3.5042276684 0.6371369472 0.078816531
C 4.6018115077 -0.0225651862 -0.7815270323
C 4.6858524136 0.7156782824 -2.1137596108
O 4.454963826 0.2390008492 -3.1945928963
C 4.2844798173 -1.4996322628 -1.0179421267
O 3.7815094625 -2.2084612603 -0.1820323843
C 5.9654364429 0.134625066 -0.088961603
C 6.3573072225 -0.707939179 1.0967218731
C 7.0831673598 -0.8725319332 -0.2155020147
H 3.4195334434 0.1003744888 1.0252493849
H 3.754023716 1.6821535661 0.2872173077
H 2.5321512248 0.6061504797 -0.4222471973
H 4.9840647469 1.7855367221 -2.0100084463
H 4.5642619246 -1.8899831143 -2.0149497732
H 6.2763372016 1.1767047265 -0.0480749903
H 6.8714706179 -0.2195522053 1.9167376238
H 5.6786120931 -1.4990367992 1.3951023658
H 8.0962765918 -0.4967609696 -0.3030828826
H 6.9048018192 -1.783437718 -0.7767108886

