# b3lyp 6-31G(2df,p) opt Freq 

 titel

0 1
C -0.850386546 2.2282493134 1.2031091166
C -1.0766013618 1.2985246406 0.0151059266
O -1.0381517815 2.0400678271 -1.2020016106
C -2.3452825466 0.4244211716 0.0545388078
C -2.0578778603 -0.6159328377 -1.0669366358
C -0.9365257713 -1.0999509167 -0.0776377908
C -1.9446182912 -0.702983571 1.0530857735
C -0.0511980352 0.1273684704 -0.0818410925
O 1.1417765552 0.2404608341 -0.1989773097
H -0.9811436802 1.7243690548 2.1644730981
H 0.1700435279 2.6249844006 1.1719804415
H -1.5503922428 3.066964719 1.147891862
H -0.1170373731 2.2889256834 -1.3479568888
H -3.2982463544 0.9473929318 0.1265266836
H -2.849211102 -1.3628959341 -1.1565559783
H -1.7620382419 -0.2399054853 -2.0460818368
H -0.4547197633 -2.0729860234 -0.1441254694
H -2.7328966374 -1.4506675709 1.1607468353
H -1.5479776743 -0.4374986176 2.0359246378

