# b3lyp 6-31G(2df,p) opt Freq 

 titel

0 1
O -2.3876893813 0.2153515419 -1.1588606274
C -2.214030993 0.2968385187 0.2219795267
C -1.6532609838 -0.9141427357 0.9466735976
C -0.8315940267 0.3560425201 0.8122411982
O 0.2316904066 0.3813909784 -0.0974330013
C -0.8199121093 1.3870038595 1.9288367368
C -1.6493031936 1.1598256468 3.1682884096
C -2.2208926913 1.9652309192 2.0288241031
C -3.10591722 1.2900540847 0.9705284239
H -1.5076009988 0.3170595242 -1.5464865408
H -2.0370686631 -1.2303263402 1.9101780948
H -1.3634777352 -1.7269291518 0.2873116775
H 0.8840814868 -0.2750553808 0.1674406854
H 0.0672956074 2.0066722075 1.984647992
H -2.0393743576 0.1707321661 3.3816881662
H -1.3627440048 1.7092438547 4.0593005466
H -2.3730657027 3.0255254952 2.1971014173
H -3.99827412 0.8217607568 1.399965359
H -3.4456147999 2.0327606349 0.242710715

