# b3lyp 6-31G(2df,p) opt Freq 

 titel

0 1
O 0.3084289745 -0.045583802 0.7085714527
C -0.217014863 1.2219293857 0.3342272514
C -1.2585228985 1.7480858896 1.379708739
C -2.5663327939 1.4108075117 0.7302489514
C -2.4299364548 1.0126040193 -0.5304701108
C -3.7693170596 0.724892575 -1.1282994211
O -4.6975501049 0.9988381532 -0.0698256664
C -4.0115600787 1.4305321731 1.1128193906
C -1.0038648698 0.9949069073 -0.9902352194
H 0.7880244596 0.0637282783 1.5359316098
H 0.6011761692 1.9422009701 0.1957947342
H -1.1042326272 1.2577858314 2.349592412
H -1.1507330112 2.8280222824 1.551460638
H -4.0021943971 1.3611841002 -1.9973205304
H -3.8804522777 -0.3210307282 -1.4554198084
H -4.3701317048 2.4313988143 1.4030447649
H -4.247926653 0.7496273725 1.9461064132
H -0.6862686544 0.0477712135 -1.4390666906
H -0.7976675243 1.7845605425 -1.7244451801

