# b3lyp 6-31G(2df,p) opt Freq 

 titel

0 1
C 3.0240891231 -0.1167428192 -3.7249058125
C 3.3757622668 0.3057966311 -2.3168892186
O 3.1446028714 1.668566474 -2.0563365352
C 4.5145698356 -0.3518368661 -1.5770234368
C 3.0794142276 -0.6111102434 -1.1589966257
C 2.5896727234 -0.0555604397 0.1705878039
O 3.2362266276 -0.6663767531 1.2873768584
C 1.1305174967 -0.1680361938 0.2741337489
C -0.0592476974 -0.3176304427 0.3617769673
H 3.1706632075 -1.1917984847 -3.8645641851
H 1.9795890744 0.124239653 -3.9454356361
H 3.654912013 0.4035660612 -4.4562109501
H 3.8298147919 2.1749412744 -2.5058634712
H 5.0683202839 -1.1525624706 -2.0555743265
H 5.10139773 0.2764401866 -0.9153173233
H 2.6598026876 -1.5797926832 -1.4178568353
H 2.8713664945 0.9998471279 0.2217906875
H 2.9136960816 -1.5724047764 1.3482401967
H -1.1126703793 -0.4224491153 0.4459962438

