# b3lyp 6-31G(2df,p) opt Freq 

 titel

0 1
C -1.0705122628 1.0124003745 -0.4486432249
C -2.1463220424 -0.0064329025 -0.7353723588
O -3.0497700052 0.1672961602 -1.5197147318
C -1.9711858089 -1.3751377991 -0.0314689154
O -0.8302426694 -1.7706598581 0.1177273767
C -3.1658028774 -2.1801209524 0.3620450421
C -4.5551482537 -1.5710358809 0.3077255458
C -2.8687991776 -3.2019035011 1.4591602016
C -3.0209859848 -3.6755283625 0.0569910036
H -1.1148522043 1.3090284442 0.6062595832
H -0.086673227 0.5629021315 -0.6042337623
H -1.2100724627 1.8870743445 -1.0843264837
H -4.6176993164 -0.6550420053 0.9053056215
H -4.8474479634 -1.3214156981 -0.7128314818
H -5.2827397564 -2.2777323576 0.7182052332
H -1.8674958668 -3.1827252145 1.8726637009
H -3.6695826966 -3.3886768099 2.1657378582
H -2.1242701825 -3.9750985783 -0.4725099064
H -3.9300337314 -4.1913286145 -0.2320196117

