# b3lyp 6-31G(2df,p) opt Freq 

 titel

0 1
C -0.16704787 2.1028759287 -0.9521523408
C -0.9372534473 1.4476678442 0.2094849402
C -2.3290276193 0.9208843091 -0.2005547926
C -2.0735189172 -0.5226858716 -0.6223106541
C -3.0317320914 -1.3484674651 -1.355708444
O -1.9132264455 -0.7592834707 -2.0295963275
C -0.9764734209 -1.0576384858 0.2773758688
C -0.1764385378 0.1913176785 0.6752676628
O 0.8818141981 0.1938030877 1.2474244
H 0.855527919 2.3366859191 -0.6446664884
H -0.1255035796 1.4386827821 -1.8211684008
H -0.6603146148 3.0294666228 -1.2608120743
H -0.9846400267 2.1526868801 1.0447648841
H -3.0133795667 0.9359082387 0.656120719
H -2.7890819238 1.4913183814 -1.0109761035
H -2.9997243745 -2.4332348608 -1.2591183368
H -4.0060412456 -0.9385467576 -1.6213052459
H -1.3895088022 -1.4997715805 1.1935280273
H -0.3470362039 -1.8095252703 -0.2029120235

