# b3lyp 6-31G(2df,p) opt Freq 

 titel

0 1
C 3.1372802216 0.0563867387 -3.8632715208
C 4.1038230058 0.1167816227 -2.7004087526
C 5.4806561044 0.5897609884 -2.9094441809
O 5.1951510048 -0.808486486 -2.7648722276
C 3.459189896 0.2421538441 -1.3454217954
C 3.0594196067 -0.9769195955 -0.5823491329
C 4.2407493301 -0.144736304 -0.0986675216
C 4.0691249438 0.688293787 1.1104940177
O 4.9402015906 0.952233518 1.901217209
H 2.4475789507 -0.7856234223 -3.7454268218
H 2.54133264 0.9736557241 -3.919862774
H 3.6768342621 -0.0678548714 -4.8050147954
H 5.8010981683 0.8948367243 -3.9043820855
H 6.0285768825 1.0389146735 -2.0831996278
H 2.8053177404 1.1059724826 -1.2478873188
H 2.1451886408 -0.9481565936 0.0012029144
H 3.3124988782 -1.9451473957 -0.9985215512
H 5.228601365 -0.5633503038 -0.2496323338
H 3.0295895381 1.0764152487 1.2477471789

