# b3lyp 6-31G(2df,p) opt Freq 

 titel

0 1
C 0.0324795937 0.8751435505 -0.7102377291
O 0.0695492439 0.533374222 0.6521066402
C 1.4517263634 0.534019993 0.9627174807
C 2.0246229352 1.705212082 0.1350889086
C 3.4557026601 1.4854988771 -0.4132183349
C 4.1737182886 2.8531812408 -0.3145081792
C 3.2807462622 3.6454794114 0.6088861962
C 2.1303383132 3.0257337576 0.8596935736
O 1.04789793 1.8299389317 -0.9282264525
H 0.2071897189 -0.0175564311 -1.3400940784
H -0.9458860485 1.3088902736 -0.9407468037
H 1.5691773414 0.6676397787 2.0399611481
H 1.9235588538 -0.4162518607 0.6637357725
H 3.9735655677 0.7485499329 0.2102551196
H 3.4141320668 1.0872399031 -1.4290398661
H 5.1956056767 2.7578165612 0.0698446186
H 4.2587091297 3.3493325159 -1.2900257253
H 3.5603452717 4.6219737714 0.990033154
H 1.3114472915 3.4052103088 1.4602384672

