# b3lyp 6-31G(2df,p) opt Freq 

 titel

0 1
C -0.3334668301 -0.526729255 -2.8045613785
C -0.2873167712 0.4852239702 -1.705816599
C 0.2166497284 1.9515449715 -1.7253504934
C -0.5206807461 1.7037106164 -0.3891316743
C -0.9347875808 2.6569459639 0.6864536608
O -1.5752606292 0.9886384268 -1.138338773
C 0.2220636562 0.3133938192 -0.2479648405
C 1.6778738236 0.2291305135 0.0990275866
O 2.5936528353 0.311068782 -0.685183514
H -0.8679224925 -1.4250909074 -2.4812158078
H -0.8404166836 -0.115751843 -3.6826153862
H 0.6858950127 -0.8069482431 -3.0860645852
H 1.2928430298 2.1216829233 -1.7149713991
H -0.3228482445 2.6028482323 -2.4149462399
H -1.5227865365 2.1439933519 1.4532881223
H -0.0559424141 3.1056955861 1.1594866513
H -1.5450179247 3.4592908652 0.2604071627
H -0.3694444982 -0.3852936978 0.3520016099
H 1.8781654755 0.075764024 1.1849633173

