# b3lyp 6-31G(2df,p) opt Freq 

 titel

0 1
C -2.4897054102 2.7754350208 1.5389471307
C -1.1743255439 2.436452083 0.8742533353
C -1.0130842666 2.4793858393 -0.6187900406
C 0.2576450932 2.982918962 -1.2686730324
C -1.0267632081 1.1471683056 0.0970155456
C -1.9358720034 -0.0678396164 -0.0263812348
O -0.7576330427 -0.9332343894 0.0990599311
C 0.0875178602 0.1528310879 0.2111102934
O 1.2701991032 0.1465751554 0.3513027845
H -2.5890767723 2.274934439 2.5079193062
H -2.5701456337 3.8539338645 1.7106825651
H -3.3403034196 2.4750400303 0.9180956631
H -0.287010437 2.7032069577 1.4447126436
H -1.9292455527 2.6874865286 -1.1692308092
H 1.1377376679 2.6676505466 -0.7022920411
H 0.3616759999 2.5924484342 -2.2862520839
H 0.2548821803 4.0765651287 -1.3262660646
H -2.6352180828 -0.2477049966 0.7938955271
H -2.4250098717 -0.2211462412 -0.9913826792

