# b3lyp 6-31G(2df,p) opt Freq 

 titel

0 1
C -1.0781990202 -1.6340325062 -2.7178812166
C -1.6350019075 -1.2292596885 -1.3447376085
C -2.5263788712 -2.3396526293 -0.7681757985
O -0.4817805112 -1.1519241274 -0.4628994219
C -0.0866569789 -0.0729152874 0.2454300132
O 0.889605975 -0.1585812864 0.9406448894
C -0.8878425913 1.2145870719 0.1397672347
C -2.0662241549 1.16370998 -0.7791464315
C -2.3937415248 0.0625067384 -1.4408452604
H -0.5076265312 -2.5624723555 -2.6305585099
H -1.8934724144 -1.7895680146 -3.4307805003
H -0.420075113 -0.8538114143 -3.1086995686
H -2.8920741243 -2.0603397663 0.2232449679
H -3.3883140278 -2.5150956701 -1.418858258
H -1.9571226972 -3.2691359593 -0.682897691
H -1.1890931941 1.4826103181 1.1606620042
H -0.1819727078 2.0003562203 -0.1579389475
H -2.6548475413 2.0703624062 -0.8886991735
H -3.253935794 0.0415150403 -2.1039606731

