# b3lyp 6-31G(2df,p) opt Freq 

 titel

0 1
C 2.330746628 0.3121448389 2.8501571949
C 1.0208049782 -0.1411338789 2.2763012155
O -0.1762861072 0.2816002194 2.9559677376
C 0.0010102512 0.6639230259 1.5810434457
C -0.5327456599 -0.3357769151 0.5328145932
C -0.6474447392 -1.645760911 1.3591902628
C 0.8876889056 -1.4834093856 1.512038953
C 0.8333916306 -0.9418725671 0.0302496396
O 1.8448971097 -0.1350796896 -0.5014326174
H 2.6058733506 -0.300421572 3.7159502542
H 3.132268606 0.210573412 2.110087889
H 2.2732638001 1.3539354567 3.1763352824
H 0.0601154691 1.7321575922 1.394891716
H -1.3105257513 -0.0002663933 -0.1520143944
H -1.2463759336 -1.6145419984 2.2650217324
H -0.9135633196 -2.5018831015 0.7373876332
H 1.5418316403 -2.3035432651 1.8073931982
H 0.6843268855 -1.7485627251 -0.6912224935
H 1.9561815161 0.6330799575 0.0682684078

