# b3lyp 6-31G(2df,p) opt Freq 

 titel

0 1
C 1.6027655642 -0.0293304812 -0.0584881562
C 0.1478449287 -0.0203485102 -0.0578807952
C -1.0562575384 0.0020882874 -0.0513393875
C -2.5093843289 0.0011280831 -0.0647613647
C -3.089472719 0.9244484654 -1.1465131052
O -2.8295264206 2.2728427434 -0.8407910258
C -3.2111923281 -1.3809294964 0.0623774468
C -3.8368988505 -0.800690215 1.3432709763
O -3.0775996982 0.4243152841 1.2225472189
H 1.9965265084 0.5401009154 0.7905937475
H 1.9976731405 -1.0486593234 0.0136596713
H 2.0026106583 0.4212905011 -0.9733277752
H -2.6330972027 0.7085270904 -2.1177717012
H -4.1718048337 0.7257394602 -1.2223645322
H -3.0948780001 2.3847710355 0.0816244291
H -3.8995246282 -1.6241114873 -0.7492287556
H -2.5239877094 -2.2104870482 0.2228070194
H -4.9171147579 -0.6176617074 1.3005544958
H -3.6023030244 -1.327234047 2.2745341735

