# b3lyp 6-31G(2df,p) opt Freq 

 titel

0 1
C 1.3496247206 0.8024380114 0.2500185507
C -0.0221975017 0.2697635515 0.0037106209
C -1.1685709388 0.9615164441 -0.0679203858
C -2.3258484622 0.066168495 -0.2606795851
O -3.4791749866 0.3825869772 -0.4409342108
C -1.7862719983 -1.3686375045 -0.1762933949
C -0.2463251195 -1.2298370075 -0.2027356421
C 0.3537094373 -1.7055019314 -1.5355702252
O 0.4001792819 -1.8899312993 0.8874218303
H 1.789750489 0.3024474201 1.1188412348
H 2.0131111117 0.5951972484 -0.5982019205
H 1.3386791515 1.8808245529 0.4219281855
H -1.2736565958 2.0373131647 0.0062337363
H -2.0924248656 -1.7978413232 0.7829637725
H -2.2019944207 -1.98981952 -0.9738584893
H 0.1707103462 -2.7786749774 -1.6669494941
H -0.1016224557 -1.1842257478 -2.3827990235
H 1.4340446277 -1.5396823626 -1.5589929593
H 0.3763380591 -2.8373721016 0.7169556597

