# b3lyp 6-31G(2df,p) opt Freq 

 titel

0 1
C 1.4314762152 0.0124021627 -0.1010179779
O 0.0358300573 -0.0690439077 0.1488601141
C -0.3758942505 0.6665705781 1.2374240104
C -0.0949448457 0.2628079603 2.7141312105
C -1.4129592217 0.9829598485 3.0159217101
C -1.5070559462 2.2129996488 2.1044236976
C -1.9074070171 0.8414290128 1.5982506444
C -0.2453059983 2.2304790866 1.24297793
O -0.394060197 2.8153909548 -0.0293910797
H 2.0166498021 -0.3550406958 0.7537095902
H 1.6347363693 -0.6224668737 -0.9658402248
H 1.7332451519 1.0415703716 -0.3299780518
H -0.1933982013 -0.8170518327 2.8560375275
H 0.8282647602 0.6231060108 3.1825515076
H -2.0024685596 0.9250668127 3.9215906908
H -2.1505678771 3.0495064433 2.3456219489
H -2.8202684088 0.4370819502 1.1876250102
H 0.6660768417 2.6651745265 1.6671101234
H -1.1233457044 2.3654176023 -0.4736346114

