# b3lyp 6-31G(2df,p) opt Freq 

 titel

0 1
O 0.0959306593 -0.5010344194 0.8828596373
C -0.5540022893 0.6982043184 1.2234908414
C -1.2404554247 0.7986414889 2.6181697036
C -1.8060013055 2.2465378357 2.4197411507
O -2.3020993845 2.2070186072 1.035777138
C -2.0608598834 0.8309318974 0.7834800775
C -2.6484129321 -0.2003074419 -0.1713536233
C -2.5734829687 -1.1982463219 1.0569636999
C -2.463283136 0.037439053 2.0331099102
H 0.8805279288 -0.5794599581 1.4343221987
H 0.047946224 1.566473239 0.92384988
H -0.7332500833 0.6119421787 3.5688975694
H -2.6324398942 2.489844641 3.096485845
H -1.0288697874 3.0127443558 2.5043705989
H -3.6827395051 0.0253609096 -0.4436251711
H -2.0752747094 -0.4447226358 -1.0681429689
H -3.4822106279 -1.7781306586 1.2244412404
H -1.7134680411 -1.858871047 1.0216898524
H -3.4274483496 0.266667378 2.4926928496

