# b3lyp 6-31G(2df,p) opt Freq 

 titel

0 1
O 1.4859885511 1.0147820218 -0.1643236341
C 0.4601787646 0.2069985805 0.4008606486
C -0.9093949343 0.771339672 0.1660279618
C -1.5133906081 1.820159086 1.0707864217
C -2.2332055383 0.5098962063 0.9080453551
C -2.9868683033 0.5208166935 -0.4118715304
O -3.0921686259 -0.7815319523 -1.0138301315
C -1.9004236618 -0.5704885185 -1.80227014
C -1.6468604261 0.811973303 -1.1743261811
H 1.3835834287 1.9011444028 0.1984124885
H 0.5674445558 -0.771971343 -0.0789820447
H 0.6137434671 0.0547177476 1.4817666423
H -1.0163810094 1.9530676729 2.0273457905
H -1.9321741418 2.7359391923 0.6589203335
H -2.4308060693 -0.1581782058 1.7379041852
H -3.9169482932 1.091191253 -0.4927272514
H -1.1405047128 -1.3423753541 -1.6299164851
H -2.1356513025 -0.5387916083 -2.8733648344
H -1.4670868605 1.6511107502 -1.8470171745

