# b3lyp 6-31G(2df,p) opt Freq 

 titel

0 1
C -0.0639245122 0.0989261972 0.1855550388
C 1.1368009286 0.0742773603 0.1600136388
C 2.5969895153 0.0125735161 0.1515206785
C 3.1460964479 -0.6691654645 1.422399608
C 4.6600319468 -0.9205604823 1.3815865931
C 5.4999363304 0.27389758 0.9183990906
O 5.2488295607 0.5508135549 -0.4591807413
C 4.2576847665 1.5105625622 -0.698661144
O 3.1097278491 1.3512468593 0.0924199276
H -1.125416531 0.1285400435 0.1968782097
H 2.9238807951 -0.5464743784 -0.7368966535
H 2.8868605169 -0.0160735355 2.2630000351
H 2.6174743136 -1.6157623907 1.5771014382
H 4.9986864052 -1.2304489344 2.3777657906
H 4.8790832008 -1.7527718779 0.7014667584
H 5.3109153638 1.1616632722 1.5365039258
H 6.5645370602 0.029373365 0.9914254803
H 4.6060097367 2.5281614341 -0.4688720754
H 4.0338064457 1.4243314289 -1.7718670894

