# b3lyp 6-31G(2df,p) opt Freq 

 titel

0 1
C 1.3428133121 -0.1918693728 0.0469680627
O -0.0509660716 -0.1377558339 0.2910251431
C -0.464362845 0.6769845564 1.3819568566
C -0.2705954243 -0.0433957801 2.7555196433
C -1.660986995 -0.7072576103 2.5767329074
C -2.0055835897 0.3885646823 1.5283377811
O -2.7029903972 0.0689411686 0.3687932428
C -0.0214995272 2.056799309 1.253898487
C 0.3268133162 3.2055247232 1.1739015562
H 1.8941369635 -0.5963502287 0.9066985779
H 1.4826977382 -0.8582332297 -0.8068948964
H 1.7443630983 0.7995434306 -0.1944507671
H 0.5995035491 -0.6981512555 2.8281929777
H -0.2433102657 0.6757954041 3.5766939327
H -1.5860366477 -1.6875765752 2.1007535903
H -2.3075731138 -0.7816753092 3.4527009524
H -2.5037382493 1.2415084896 1.9962975648
H -2.0851939539 -0.4268338395 -0.185023591
H 0.6281706431 4.2213493512 1.0990880685

