# b3lyp 6-31G(2df,p) opt Freq 

 titel

0 1
C -1.0172407815 0.5327624006 -3.1431144336
C 0.2417649862 1.3699065732 -2.9729800274
O 0.738827767 1.7952462708 -4.2338383548
C 0.195842327 2.6356549668 -2.0549445037
C 1.3679423369 2.0680292972 -1.2443709776
C 0.9576829871 0.7405598913 -0.6307962302
C 1.9412067764 0.1198853678 0.2850157225
O 1.6596209096 -0.5566730294 1.2430996425
C 1.3869624728 0.8183698268 -2.0890046278
H -1.4406846466 0.2258547658 -2.1833575088
H -1.7739422674 1.1050725103 -3.6884824687
H -0.8005839449 -0.3781640153 -3.7151976781
H 0.8676324535 1.0113988062 -4.7798782529
H 0.4604912513 3.518774261 -2.6374358493
H -0.730675149 2.8195738887 -1.5036379966
H 2.1982314391 2.6354316264 -0.8420274429
H -0.0786146575 0.5569325954 -0.3609957473
H 3.0057166363 0.3276416275 0.0186540197
H 2.2309101538 0.245816449 -2.4588077451

