# b3lyp 6-31G(2df,p) opt Freq 

 titel

0 1
C -0.1206502223 -0.2894842474 0.1555100674
C 1.366140333 -0.0470071662 0.1145114771
O 2.0599155308 -0.5732177473 1.2362084478
C 2.0215508348 1.2375056978 -0.34357583
C 1.2566053598 2.1890638447 -1.2605539867
C 1.0435198784 1.3796777216 -2.5258825147
C 1.5954144899 0.1660575513 -2.4489976978
C 2.2442635622 -0.0639428617 -1.1328421184
O 3.4085972498 -0.8192538734 -1.1229217332
H -0.5671014655 0.203201582 1.0260789183
H -0.611881885 0.0798278616 -0.746203857
H -0.3355256944 -1.3639576797 0.2272361985
H 1.7508232897 -1.4779698622 1.3637408189
H 2.7969049414 1.6219158143 0.3095547646
H 0.303253228 2.516621409 -0.8240984485
H 1.8295230438 3.1041128469 -1.4593149027
H 0.4737517381 1.7564307061 -3.3676302416
H 1.584819076 -0.5954659935 -3.2198291913
H 3.5525912117 -1.053858964 -0.1951374509

