# b3lyp 6-31G(2df,p) opt Freq 

 titel

0 1
C 1.4539453456 -0.1547406411 -0.0369858961
O 0.0548482068 0.0144038511 0.0025740267
C -0.4002338882 0.7013205901 1.1312407386
C -0.1955350142 2.25353637 1.1592726452
C -1.0064651006 2.535495884 2.4565698517
O -2.1045021292 1.6117457292 2.3897063455
C -1.9296475349 0.8714037212 1.1495242956
C -2.1446271691 1.8396412683 -0.0007119261
C -1.0971780512 2.6703124138 0.0102348414
H 1.8277917389 -0.6646513954 0.8648288175
H 1.6789732886 -0.7721908759 -0.9096836491
H 1.986067438 0.8026642302 -0.1371243092
H -0.0356100913 0.2185898056 2.0507491771
H 0.8227263841 2.6406701592 1.1693803785
H -0.4159173037 2.3315533245 3.358950972
H -1.3792263768 3.565047547 2.5027857727
H -2.5457443993 -0.0240706337 1.1976072789
H -3.0314893284 1.8893004873 -0.6179323984
H -0.9425041351 3.5485658345 -0.6036729124

