# b3lyp 6-31G(2df,p) opt Freq 

 titel

0 1
C 0.7461648931 0.5367377404 0.3630215442
C 1.4716873915 -0.8149590863 0.4064632639
C 2.0099602039 -1.196889597 -0.9355159889
C 1.2884285464 -1.5918070447 -2.251792519
C 2.7800975523 -1.9495289699 -2.4787343069
C 3.4408985335 -2.7553472812 -3.546508385
O 2.8132597927 -2.4546532011 -1.0671331728
C 3.1455493341 -0.5959228821 -1.8089553416
O 3.9377706826 0.2898861786 -1.8451022852
H 0.3732803383 0.8044913932 1.3550838046
H 1.4185811956 1.3318539818 0.0273256138
H -0.1095057114 0.506893509 -0.3193585322
H 2.3102485263 -0.7724128137 1.1109371576
H 0.796927332 -1.6027894642 0.7614182867
H 0.6537403539 -2.4734687585 -2.1387097896
H 0.8356424476 -0.8079574606 -2.8654833587
H 2.9760365243 -3.7413093892 -3.6388783153
H 3.3543450943 -2.2393137195 -4.5076108452
H 4.5030270692 -2.887089855 -3.3217589802

