# b3lyp 6-31G(2df,p) opt Freq 

 titel

0 1
C 1.0610400118 0.3303111304 -0.6980460649
O 0.4736439535 -0.3491540468 0.3956789516
C -0.0620142612 0.4526579748 1.345686113
C -0.1296840587 1.8102343827 1.4247297821
O -0.7721311656 2.1587582261 2.5841089992
C -1.1071305196 1.0077908265 3.232300733
C -1.8203048846 1.1697562401 4.5272306722
C -0.6975712062 -0.0814596464 2.5214840191
C -0.8447483688 -1.5358202891 2.8373075419
H 1.8857469896 0.9753891343 -0.3653770825
H 1.4464098243 -0.4327431076 -1.3760171846
H 0.3196200207 0.9472823464 -1.2239483022
H 0.1983040622 2.6212083306 0.7999171216
H -2.0424790239 0.1934720884 4.9628786802
H -1.2182434611 1.7350792661 5.2479532031
H -2.7661691106 1.7085480539 4.3987634843
H -1.3629460325 -1.6896259275 3.7873948984
H -1.4107519533 -2.0580343238 2.0576554792
H 0.130925304 -2.0304712792 2.9030409654

