# b3lyp 6-31G(2df,p) opt Freq 

 titel

0 1
O 1.9494071484 0.4730395294 -0.1519927143
C 0.5648062245 0.7560118594 0.0435424355
C -0.2543424582 0.4546877152 -1.1743242418
C -1.3065247251 -0.3686234278 -1.2394526137
C -1.9169933197 -0.4330550896 -2.6100246893
C -3.0907415728 0.5434175638 -2.8669286146
O -2.196016476 1.5288968828 -3.4213083778
C -1.0830693804 0.6026061279 -3.4155021309
C 0.0743742095 1.0666862736 -2.5242437826
H 2.0212180964 -0.4652925825 -0.3567267658
H 0.162363665 0.2186384581 0.9153294878
H 0.525753728 1.8278575945 0.2730883049
H -1.7083404288 -0.9182049907 -0.3935451045
H -2.0419372424 -1.4455468618 -3.0016663488
H -3.8186808701 0.1902182652 -3.6100624785
H -3.6251840156 0.9174731439 -1.98594565
H -0.7843036531 0.3394866201 -4.43608206
H 1.0530293148 0.7320029785 -2.8884091762
H 0.1070098554 2.1625626399 -2.4902655095

