# b3lyp 6-31G(2df,p) opt Freq 

 titel

0 1
C -3.8970996671 -0.3294431321 2.0501284965
C -2.604822369 0.27591995 1.6089613932
C -2.129129561 1.6558848699 1.3199903184
O -0.9531525117 1.5863313646 2.1378623448
C -1.1008514067 0.1243147032 2.0732299867
C -0.5160635281 -0.6013133014 3.2424865976
C -0.7115815745 -0.1461513731 0.5890195635
O 0.5254069803 0.3399190642 0.1579297138
C -2.0053592918 0.5862769176 0.2294417031
H -4.0843083341 -0.1460823993 3.1140031305
H -4.7333721171 0.0980040652 1.4868660248
H -3.912021478 -1.4129959948 1.887684348
H -2.6415996861 2.6032265812 1.2155835499
H -0.6990327908 -1.6767979802 3.1555783562
H 0.5669720242 -0.44151072 3.272929249
H -0.9447711227 -0.2458194644 4.1837033013
H -0.7665824082 -1.209704008 0.3422804332
H 0.6029853928 1.2162249855 0.5607112659
H -2.5125978806 0.651500402 -0.7249890363

