# b3lyp 6-31G(2df,p) opt Freq 

 titel

0 1
C -1.6171772324 4.2589827407 -1.8256547335
C -1.9719365043 2.7801615312 -1.7451361174
C -3.2595342367 2.4588671118 -0.966733727
O -3.3677211492 1.0336215246 -0.8774609928
C -2.5218258261 1.7096226786 0.0606897151
C -1.1756190177 1.969343198 -0.6460742594
C -0.3720423986 0.7481410169 -1.1064057526
C 0.2578566336 0.0101198695 0.0513098782
O 1.4359544097 -0.2096506361 0.172609781
H -1.6785089134 4.737579149 -0.8417144626
H -0.5987190069 4.3980794781 -2.2022507324
H -2.2986813138 4.7911930592 -2.4979458697
H -1.9514909252 2.3181461657 -2.7372941342
H -4.1779489644 3.0322925379 -0.90259454
H -2.7295217855 1.5554539451 1.1134593947
H -0.5490019819 2.6518955354 -0.0623655914
H -1.0634876253 0.0638912205 -1.6158207674
H 0.4175929038 1.0348991799 -1.8072348785
H -0.4663518558 -0.3301510361 0.8288988798

