# b3lyp 6-31G(2df,p) opt Freq 

 titel

0 1
C 1.4159436029 0.1224662566 -0.3118808979
O 0.0675028389 0.0019453357 0.107938207
C -0.1627263806 0.5852809644 1.3450647878
C -0.4426565967 2.0596620896 1.4510337099
O 0.0266160332 2.7889598365 2.5357317655
C -1.5917033232 1.0514468345 1.6168549318
C -2.6325677698 0.9351590908 0.5137258245
C -2.071514619 0.9082124879 2.9629455269
C -2.4568759273 0.8687467791 4.1039472376
H 2.0987408962 -0.3914699541 0.3801286373
H 1.4866242279 -0.3462990911 -1.2957343864
H 1.7237484227 1.1744976671 -0.3862100103
H 0.3707362803 0.1385949393 2.1858420409
H -0.4601018759 2.6215346193 0.5188724622
H -0.6178737994 2.7093160593 3.2519268655
H -3.1289096643 -0.0388190393 0.5550729668
H -3.3943271159 1.712967151 0.6207152657
H -2.1598608365 1.0290048207 -0.4649085777
H -2.8086670835 0.7851665328 5.1025797329

