# b3lyp 6-31G(2df,p) opt Freq 

 titel

0 1
C 0.8473776076 -0.7721784869 0.0464568878
O 0.6267203682 0.6279340294 -0.0134323371
C -0.1146890217 1.1454121599 1.0658882581
C -0.0034043331 2.6791893928 1.1058835973
C -1.4271226277 3.149880743 1.2520009164
C -2.3396189269 2.1697573212 1.1629761061
C -3.8302132261 2.250360734 1.212328628
C -1.6379754014 0.8795006968 0.9590465276
O -2.1560474886 -0.1945606314 0.7416495747
H -0.0896061867 -1.3353163094 0.0033519149
H 1.4708922207 -1.0265172562 -0.8140835238
H 1.3846118793 -1.0464400824 0.9684521811
H 0.2336560329 0.7055462916 2.016190664
H 0.6389828292 3.0432415403 1.9149637015
H 0.439643187 3.0315736153 0.167080933
H -1.6665438911 4.1986488713 1.4013699593
H -4.2238511977 1.6540709781 2.0429578543
H -4.1785174515 3.2800115775 1.3252374008
H -4.2649883123 1.828795195 0.2997033262

