# b3lyp 6-31G(2df,p) opt Freq 

 titel

0 1
C 1.7366525672 -0.6686046403 -1.1707203702
C 1.4306758524 -0.0601358405 0.1816272343
C 2.0710317712 1.2696294069 0.5037815278
O 1.5564548867 1.8023442918 1.7313547797
C 2.0973869818 0.6778542776 2.4508831314
C 2.8381555176 0.8434595908 3.7303407551
C 1.484987817 0.1378649691 3.6975690642
C 2.5791836827 0.0199163867 1.1779190971
O 3.779382285 -0.6492864259 1.0488407439
H 1.6650154919 -1.76207008 -1.1435335955
H 1.0304208267 -0.3104900932 -1.9265024742
H 2.7475942378 -0.4144524734 -1.502602285
H 0.4261685451 -0.2311230714 0.5654854234
H 2.4973936095 1.9559545212 -0.2178436816
H 3.7334967082 0.2474748019 3.8720599288
H 2.8727377151 1.8392067199 4.1583270834
H 1.4503121937 -0.9377051062 3.8410930942
H 0.6361928269 0.6770701904 4.1038979863
H 3.5984564836 -1.5947121056 1.006009847

