# b3lyp 6-31G(2df,p) opt Freq 

 titel

0 1
O 0.3953520876 0.63365039 0.1015199534
C 0.0404280018 0.8245521015 1.4641967975
C -1.2656497452 0.0783926605 1.8917067085
C -2.1613918478 1.281755874 2.1756209174
C -1.2519663296 2.2807713257 2.975628257
C -2.0196222839 3.5952260796 2.8690965925
O -2.418592912 3.554526266 1.4844218438
C -1.8548808508 2.3183676971 1.0536986605
C -0.4154477236 2.2643719546 1.6495894579
H 0.6719166751 -0.2812174648 -0.0100490647
H 0.8895393542 0.5749812966 2.1163033277
H -1.636667538 -0.5450292626 1.0719375965
H -1.125522803 -0.5577118162 2.7716021607
H -3.193505757 1.1056812432 2.4831265219
H -0.8141532615 2.0157284472 3.9394386891
H -2.9043346524 3.6350074717 3.5165549039
H -1.4027315932 4.4822361296 3.0587888226
H -2.0683738665 2.1497788275 0.0001933021
H 0.3033420759 3.0531197186 1.4259271118

