# b3lyp 6-31G(2df,p) opt Freq 

 titel

0 1
C -3.4383360385 0.538065839 0.7025242139
C -2.1739676962 0.2753057094 -0.0629950879
C -1.691641451 1.1257087021 -1.1855694622
C -0.8052414067 1.0151070079 0.0569093976
C -0.1167802423 -0.3102578738 0.0070515966
O 1.0247046407 -0.6841753835 0.0899437202
C -1.4465065149 -1.0902739965 -0.090296604
C -1.5736669818 -2.105665676 -1.2237234684
O -0.6134424429 -3.1340932447 -1.0618136222
H -3.3756236073 0.1420524863 1.7217853038
H -3.6457876562 1.610917558 0.7670052708
H -4.2985046477 0.0651436552 0.2146328182
H -1.363240071 0.7058146804 -2.1309325074
H -2.1717470495 2.0950668047 -1.2827323197
H -0.5168787178 1.8944370855 0.6197271693
H -1.5826807797 -1.6140098626 0.8650207915
H -2.5574559241 -2.5881940943 -1.2122720054
H -1.4688762678 -1.6084004602 -2.2012374796
H 0.2357762245 -2.7096085172 -0.8827860253

