# b3lyp 6-31G(2df,p) opt Freq 

 titel

0 1
C 0.0318010808 0.2736835861 0.2681961618
C 1.0913924583 -0.2991880887 -0.6375607825
C 0.8143570405 -0.5856604608 -2.1365141713
C 2.3355482779 -0.4228984422 -2.3439650091
O 3.0071111176 -1.6243933434 -1.9224569387
C 2.9862092647 -1.544103028 -0.5040143735
C 3.505056903 -0.1288037413 -0.2178664599
C 2.3975794313 0.4818929296 -1.0607108653
O 1.6426814967 -1.5027986807 -0.0475565236
H 0.4525099661 0.5413305574 1.242354872
H -0.4154525734 1.1667080875 -0.1785920529
H -0.7623761322 -0.4615791576 0.4339175627
H 0.3773922172 -1.5541460409 -2.3869432502
H 0.251489848 0.2273297272 -2.6067264098
H 2.7419692633 -0.1033840909 -3.3040424314
H 3.4890348479 -2.4126494105 -0.0828371324
H 3.4562786381 0.1310992913 0.8415180235
H 4.5102514397 0.0398731614 -0.6095833586
H 2.3235162344 1.5587078243 -1.1894156007

