# b3lyp 6-31G(2df,p) opt Freq 

 titel

0 1
C 1.491138574 0.1804946307 -0.1448171046
C 1.2543209865 1.7062501751 0.0308921876
C 1.4270671066 2.2289028755 1.4671847779
C 0.1120298309 1.7930011371 2.138427806
O -0.8714295823 2.0051526173 1.1488828642
C -0.2888796977 1.4529789883 -0.0277597549
C -0.018740575 -0.0787339658 0.1228423975
C -0.3633470967 -0.4801277506 1.5566581524
O 0.1819494705 0.4214803195 2.519117188
H 1.7806758486 -0.0810009157 -1.1655318322
H 2.196590141 -0.284733666 0.5493887745
H 1.7019672972 2.3607731315 -0.7173204607
H 2.2979779715 1.8213276224 1.9847916198
H 1.4897133479 3.3213510932 1.4742150898
H -0.1619524575 2.3654396132 3.0280496443
H -0.8595655332 1.7868803108 -0.8936410022
H -0.5269744934 -0.7436426314 -0.5807943359
H -1.4561283463 -0.5276850947 1.6632186304
H 0.0460280073 -1.4646911906 1.804350258

