# b3lyp 6-31G(2df,p) opt Freq 

 titel

0 1
C -3.0148804548 -2.3075136009 0.9588380023
C -1.877587819 -1.3033622828 1.1787164734
C -1.0313181088 -1.1290643574 -0.0938445709
C -0.0007631299 -0.0138625324 -0.0386442711
O 1.0734669834 -0.075220852 -0.5705161066
O -0.3434974561 1.1263087171 0.6173503133
C -1.5450284028 1.2459518561 1.3528254024
C -2.8893011992 1.0942125452 0.6977780454
C -2.3762605911 0.0432369655 1.6707722354
H -3.5803368774 -2.4695251228 1.8820097833
H -3.7134022804 -1.9438977868 0.197310707
H -2.6265002165 -3.2761691043 0.6277126016
H -1.217071566 -1.7025483462 1.9610899328
H -0.4900858414 -2.0447615763 -0.3394480374
H -1.685608226 -0.9192799821 -0.9503742618
H -1.4108499054 2.0237484751 2.0947843007
H -3.6879288365 1.752930772 1.0199308759
H -2.9108791219 0.8569451193 -0.3597614702
H -2.8421789102 0.0244253636 2.6519929743

