# b3lyp 6-31G(2df,p) opt Freq 

 titel

0 1
C -1.0429894369 -3.2445765171 1.2125814571
C -0.7254131287 -1.7504664858 1.3264959558
O 0.6055092223 -1.5251290288 1.7507843803
C -0.9964012014 -0.9571776694 0.017223022
C -2.3917622903 -0.9997262801 -0.5482030069
C -2.4233718132 -1.3770859658 -1.8282211349
C -1.0511759412 -1.6660609336 -2.3776096404
C -0.1498407776 -1.4819974786 -1.1519458822
O 1.0285642065 -1.7486182842 -1.0927378926
H -0.8434002078 -3.7320659869 2.1700610609
H -2.0915182561 -3.4113157259 0.9455617272
H -0.4146889763 -3.7243115903 0.4543969674
H -1.3626522217 -1.3168108918 2.1075790821
H 1.174254023 -1.713416152 0.9896636759
H -0.6778541659 0.0737755892 0.2304663616
H -3.2620556905 -0.7348170933 0.0420466873
H -3.3205877975 -1.4615247607 -2.4300958636
H -0.9301990527 -2.6738969773 -2.7931938488
H -0.744763664 -0.9712944377 -3.1717965281

