# b3lyp 6-31G(2df,p) opt Freq 

 titel

0 1
O 1.5394706447 -0.3734307209 -0.259121836
C 0.3790118259 -0.0923400137 -0.1061915859
C -0.4378631067 0.7688084197 -1.0438233021
C -1.1802205992 1.9023276918 -0.2833743187
C -2.640535477 1.7396936362 -0.7420576616
O -2.7840817907 0.3486869195 -0.9950822835
C -1.6022153564 -0.0462035059 -1.6434176914
C -1.6700287187 -0.370463499 -3.1144657324
C -1.5212892417 -1.4727483999 -2.0804382588
H -0.201435508 -0.4806459015 0.7637332597
H 0.2264242134 1.1481366525 -1.8225823429
H -1.1100314463 1.7440548492 0.7983245437
H -0.7673452009 2.8885908124 -0.5033338542
H -3.3770626759 2.0226390736 0.0131252096
H -2.8291050954 2.3222408936 -1.6568029854
H -2.6397905982 -0.2642603922 -3.5876373347
H -0.8185311941 -0.1345072791 -3.7441730687
H -2.3876284427 -2.0925927406 -1.8793977939
H -0.5672329821 -1.9832049254 -2.0037518428

