# b3lyp 6-31G(2df,p) opt Freq 

 titel

0 1
C 0.1844647826 0.8645025241 -1.1814358585
O 0.4478852224 -0.442142529 -0.5843701004
C 1.065544867 0.1853951314 0.5698411112
C 2.5890008682 0.2299506459 0.7544020268
C 2.6808239481 1.0156688203 -0.5754971034
C 1.2161279872 1.4883075628 -0.2484757655
C 1.2492679794 2.7344972777 0.5956383694
O 2.365943044 2.6081828968 1.4875295653
C 2.7526237301 1.2875133346 1.8824258896
H 0.3930280085 0.8782712709 -2.2565814982
H -0.854014743 1.1759432199 -1.0004567621
H 0.4349110586 0.084856507 1.4611320217
H 3.1916253703 -0.6635149485 0.9419639505
H 3.4460107164 1.7902178357 -0.6444541085
H 2.7107020498 0.366203099 -1.4497896641
H 1.4298308967 3.6538356421 0.0263047628
H 0.3092592199 2.8555679071 1.1567665124
H 3.8068426147 1.3758016148 2.1629239226
H 2.191325669 0.9721810575 2.7769184484

