# b3lyp 6-31G(2df,p) opt Freq 

 titel

0 1
O 0.607278916 -1.2078146776 0.203268323
C 0.3416923449 -0.0637255783 -0.0703603175
C 0.0485027121 0.9988170219 0.9140781016
C -0.9540942634 2.0841276655 0.5355158892
C 0.4929599558 2.4262670713 0.5990468033
C 1.0622764303 3.2886250784 1.708272801
C 2.5405923175 3.0492202715 1.9098818055
C 3.4703571033 4.1320153109 2.2494854816
O 3.4059927622 3.6136524092 0.9194696566
H 0.300232836 0.2817591175 -1.1320925278
H 0.0760476933 0.6772384469 1.9499360678
H -1.428236294 2.0106984416 -0.4377929794
H -1.6084796332 2.4284876488 1.3289975141
H 0.9973979889 2.5505224478 -0.3560557756
H 0.9056531934 4.3465126223 1.4658637602
H 0.5291739016 3.0889445535 2.6467799242
H 2.813244487 2.0336236414 2.2022045851
H 3.090114597 5.14535071 2.3746570611
H 4.3862752512 3.9103293575 2.7951655261

