# b3lyp 6-31G(2df,p) opt Freq 

 titel

0 1
C -0.0104062983 0.1905892128 0.1417569802
C 1.4784994289 -0.1259561915 -0.0097408832
C 1.9402124483 -1.1771966276 0.9930276277
C 1.8570845698 -0.3999998054 -1.4850978801
O 3.2795151436 -0.5017058179 -1.5729619166
C 2.6942939543 0.803073434 -1.5595950424
C 2.4323196467 1.1685636632 -0.0842432025
C 1.750574436 2.4863083062 0.1523186422
O 1.9447187321 3.1856993504 1.1154601983
H -0.2226256987 0.6445541173 1.1149145875
H -0.3753252117 0.8696238736 -0.6355248847
H -0.594187855 -0.7335693484 0.0703520645
H 1.8457549151 -0.8045287948 2.0185210175
H 1.3311024584 -2.0848554642 0.9097944277
H 2.9843081012 -1.4455195241 0.8162591996
H 1.2729601615 -0.9132954225 -2.2418376708
H 2.9289771163 1.4609477027 -2.3886277311
H 3.3129657959 1.105149498 0.5584632791
H 1.0299426056 2.800827628 -0.6369220628

