# b3lyp 6-31G(2df,p) opt Freq 

 titel

0 1
O 0.0812658558 0.0066275713 0.3239120082
C -0.9434855877 0.8188389959 0.821913614
C -1.3029780234 0.8838835667 2.2776541105
C -2.7550318864 0.8935375711 2.7363011497
C -3.4008794264 2.2617694218 2.7411996972
O -2.7256656144 3.2839315383 3.4808082367
C -2.8116146703 3.4233849695 2.0592192509
C -1.508570041 3.3506835651 1.2937190076
C -0.6874212007 2.0973284301 1.5652450693
H 0.8076089986 0.0088497437 0.9552792193
H -1.7693099869 0.8218256812 0.1134475451
H -0.6193240547 0.3639449016 2.9435430807
H -3.365060499 0.2280421638 2.1111862281
H -2.8195101041 0.4950021159 3.7551533766
H -4.4824221418 2.2529710981 2.8880245065
H -3.4855359018 4.2181294007 1.7342868705
H -1.7335837858 3.4441666277 0.223010155
H -0.9211211584 4.2372900124 1.5580684305
H 0.3534630684 2.2815974653 1.8176970536

