# b3lyp 6-31G(2df,p) opt Freq 

 titel

0 1
O 0.0252279829 0.2519926704 -0.0977366014
C -0.7380994409 0.6723933941 0.9882642249
C -0.7412424956 2.2316257058 1.0692576242
C -2.2146932305 2.245942745 0.5131146675
C -2.3201263523 0.7710660771 0.9216257754
C -2.2900946432 0.4628903912 2.4630032634
C -1.0881770569 -0.3844848378 2.0478232266
O -1.7190733855 -1.3812243484 1.1654147844
C -2.6715790326 -0.586722789 0.3620881054
H -0.108077543 -0.7044079121 -0.1590709777
H -0.6282706919 2.6569708834 2.0669799243
H 0.0125439923 2.6680645282 0.4134060624
H -2.9245595625 2.9435399119 0.9645207117
H -2.2227176793 2.3815088737 -0.5715837066
H -2.0548787634 1.3243289415 3.0855198034
H -3.1408796112 -0.0857693871 2.8704743574
H -0.4078434616 -0.923291134 2.7096018904
H -2.4290414287 -0.6958624692 -0.7003331859
H -3.685024676 -0.9551021348 0.5490822202

