# b3lyp 6-31G(2df,p) opt Freq 

 titel

0 1
O 1.3471817145 -0.3693987293 0.0774274883
C 0.1843610592 -0.0585521786 0.1245992933
C -0.4458211635 0.7703632537 1.2168326009
C -1.1670685059 2.0338050124 0.6403852593
C -2.6230062714 1.7873380034 1.0919764822
C -2.7527461817 2.0155755594 2.6142183396
C -2.0566697346 0.7345171612 3.1681318393
C -1.6619625826 0.0268905631 1.8536470495
O -2.7369744296 0.3611065435 0.9712701152
H -0.5333008194 -0.3793459548 -0.665675155
H 0.3257151698 1.0107834665 1.9508391822
H -0.7414011105 2.9649285882 1.0201071583
H -1.1093750063 2.0574136985 -0.4521699218
H -3.3853016791 2.2672009912 0.4785839219
H -2.2729227907 2.9417316175 2.9401420255
H -3.8030865914 2.0572703593 2.910190936
H -1.1963008506 0.9482596221 3.8064698986
H -2.7544233075 0.115592136 3.7364134936
H -1.5612595686 -1.0571880132 1.9158339131

