# b3lyp 6-31G(2df,p) opt Freq 

 titel

0 1
C 1.4727500533 -0.168395427 -0.0686380423
C 0.0213311738 -0.0614177682 -0.0436702315
C -1.181125774 0.0122604966 -0.0358613393
C -2.6368062393 0.1582036442 -0.0010137798
O -3.0799133231 1.2585081294 -0.7966741163
C -3.1504150194 0.2722648093 1.4505881359
C -4.6815354934 0.3824354931 1.5103808246
C -5.1675753746 0.7467170371 2.8917814389
O -5.9713102916 0.1218836803 3.5344122128
H 1.9098430545 0.082904298 0.9037474541
H 1.7885673576 -1.1857683169 -0.3237109546
H 1.9050225902 0.508403726 -0.8136499321
H -3.1023744774 -0.721758304 -0.4634116091
H -2.4806994669 1.9937125557 -0.6262277001
H -2.8035310776 -0.598029937 2.018166849
H -2.6876051118 1.1552760375 1.9103924411
H -4.9879018646 1.1807179484 0.8208820281
H -5.167902706 -0.5467728495 1.1990662825
H -4.7105295696 1.6796193271 3.3019388981

