# b3lyp 6-31G(2df,p) opt Freq 

 titel

0 1
C -1.038780635 -1.3860916689 2.4473211142
C -1.1175555079 0.0431035493 1.9942903123
C -0.6900055039 0.6390652765 0.6291307893
O 0.6522009043 0.5649965225 0.2224657999
C -1.2017080737 1.8473831991 1.412794728
O -1.2296035018 3.1364140891 0.9286079822
C -2.3588405543 1.004786132 2.073686616
C -1.9847791302 1.4770288981 3.4935840203
C -0.623111503 1.3163740176 2.7882076899
H -1.3754131606 -1.5030128253 3.4830903247
H -1.6597375063 -2.0321243258 1.8170363736
H -0.0088467802 -1.7534920154 2.3835864567
H -1.2911692038 0.3328819938 -0.2336724194
H 1.2000911409 0.9693089803 0.9041095183
H -1.5900273487 3.7199758157 1.6062578092
H -3.3413142119 0.810505867 1.6406202167
H -2.2842201433 2.4923225639 3.7783111891
H -2.1985010425 0.787104362 4.3155258293
H 0.3766525418 1.4804354588 3.1963445895

