# b3lyp 6-31G(2df,p) opt Freq 

 titel

0 1
C 2.7838682069 -2.0632657176 -0.6688349218
C 3.0517044764 -2.3375981133 -2.1333521461
C 3.3988030014 -1.1447674489 -3.0089349673
C 2.2168376605 -0.1755769993 -3.2374701833
O 1.1265485738 -0.8125612081 -3.8998600346
C 2.637428872 0.9630830178 -4.0511720118
C 3.0211504594 1.8965362366 -4.7019219219
C 2.4941230663 -3.5512402827 -2.7643568885
O 3.8671846622 -3.4910952517 -2.3781340763
H 2.5969045565 -2.9970351044 -0.1335312544
H 3.6480008672 -1.5719220929 -0.2087901861
H 1.9169726973 -1.4078213769 -0.5305970049
H 4.2253254285 -0.5869461046 -2.553123995
H 3.74254263 -1.5075218667 -3.9812358829
H 1.884421779 0.2159316648 -2.2618893356
H 0.8001646262 -1.5025648488 -3.312952817
H 3.3469809095 2.7255890407 -5.2802519463
H 1.875359983 -4.2299594774 -2.177832008
H 2.3096620537 -3.5645836767 -3.837543648

