# b3lyp 6-31G(2df,p) opt Freq 

 titel

0 1
C -0.3165295362 2.8104763701 -0.714910653
C -1.0212399107 2.0302479238 0.3977634018
C -0.0982260537 1.023201295 1.1205160406
C 0.1993502686 -0.1344838322 0.1872669009
O 1.2226833567 -0.2821872447 -0.4284613245
C -0.7607249033 0.5096256178 2.4277385111
O -1.1001522296 1.5759239884 3.3058962267
C 0.0836566057 -0.4884776965 3.0888195543
C 0.8170506256 -1.2754028375 3.6256190749
H 0.1094521931 2.1447200257 -1.471524989
H -1.0162820354 3.4870000399 -1.2144287078
H 0.5030310509 3.4147006254 -0.3117220555
H -1.4161189706 2.7142018673 1.1546716764
H -1.8866312577 1.4900756932 -0.0114008788
H 0.8557168954 1.5019790209 1.3698557348
H -0.6500371487 -0.8491237829 0.0647881355
H -1.7222989953 0.0483433187 2.1668293027
H -0.2864225072 1.8752480942 3.7272142887
H 1.4520302222 -1.9833077364 4.09944005

