# b3lyp 6-31G(2df,p) opt Freq 

 titel

0 1
O -3.219520988 -2.2035111844 0.0011493604
C -2.4439694431 -1.0332664875 0.0473276582
C -2.7867807735 0.0054131775 -1.0431384817
C -2.3744873894 1.087639641 -0.0036386229
C -2.7633562542 0.0669555841 1.1048828781
C -0.8590529768 1.2936707007 -0.0262674475
C -0.0909282889 -0.0331405394 0.0274462439
O 1.1144290935 -0.0747431599 0.0584416741
C -0.9389975264 -1.3145895914 0.0397516464
H -2.8932238528 -2.8153677301 0.6703247021
H -2.2458720303 -0.0439157414 -1.9934091876
H -3.8624527724 0.0134027435 -1.2322904889
H -2.9110573212 2.0369884471 -0.0255886881
H -2.1971279285 0.0749730596 2.0423813461
H -3.8342699267 0.0882394758 1.318645863
H -0.5376683073 1.8223569115 -0.9322777509
H -0.5189086316 1.9030427813 0.8197575888
H -0.6658706014 -1.9136609191 -0.8373924335
H -0.6403891612 -1.8957118291 0.9231271999

