# b3lyp 6-31G(2df,p) opt Freq 

 titel

0 1
C 0.162351622 -1.4768419501 -1.2550811264
C 1.5814911465 -1.0724742166 -0.9384922574
C 2.8058269244 -2.0400805415 -1.0693646051
C 3.4682724761 -0.9287325122 -0.2078886081
C 2.0980325612 -0.7952518231 0.5136548933
O 3.4955088328 0.2041988165 -1.086644588
C 2.164264527 0.1630223627 -1.6494719538
C 4.7704593851 -1.1023688295 0.5108295298
O 4.9724836834 -1.9907297613 1.3003019714
H -0.130821564 -2.3650725302 -0.6871845746
H -0.5419660653 -0.6740312743 -1.0085169534
H 0.0448878731 -1.7064706794 -2.320367338
H 2.6752246625 -2.9747376919 -0.5232273026
H 3.2340647085 -2.2113658727 -2.060116147
H 1.9032826335 -1.6170822626 1.2032717907
H 1.8786010419 0.1725261655 0.9714428388
H 1.627441881 1.0900854622 -1.4147505446
H 2.2194350606 0.0489214301 -2.7388091166
H 5.5436194898 -0.3443743315 0.2594855115

