# b3lyp 6-31G(2df,p) opt Freq 

 titel

0 1
O 1.3342390986 0.8103082408 -0.3025415044
C 0.2259278775 0.1028320352 0.2357218105
C -1.0476895024 0.923948157 0.2867047529
C -2.3855864989 0.1456716537 0.5433276498
C -3.0271199831 0.9510856527 -0.5847321215
C -2.6327418284 2.4068211072 -0.4351281056
O -2.230797834 2.8784713702 0.8367041511
C -1.0334994306 2.1734570081 1.1751912256
C -1.6546005127 1.4693395403 -1.0410082606
H 1.6023576316 1.4813572845 0.331959396
H 0.0765726178 -0.7551959901 -0.4281531604
H 0.4512392457 -0.3002405235 1.2368738783
H -2.2864969308 -0.9116063384 0.2808463674
H -2.8248968082 0.2312594634 1.5431883773
H -3.8747519935 0.6465687855 -1.1885665979
H -3.1554860784 3.1519088612 -1.0223765651
H -0.1547261765 2.8074991745 0.9722249067
H -1.0608355237 1.9385301423 2.2453376727
H -1.17713136 1.5359919254 -2.0090610828

