# b3lyp 6-31G(2df,p) opt Freq 

 titel

0 1
C -0.0786943911 0.2507360252 -0.0003983202
C 1.363238662 -0.1762302066 0.1340324001
O 1.4899356464 -1.294537514 1.1073185418
C 1.9101979059 -2.3544248018 0.2691090895
C 3.0150455789 -3.4837883681 0.2112842959
C 2.7039951994 -4.1816156313 -1.084259303
C 3.4768233712 -2.8948388542 -1.1638517602
C 2.7581854686 -1.6237571807 -0.7036477072
O 1.8757667229 -0.5880829051 -1.152685146
H -0.4613688391 0.5759576226 0.970365161
H -0.1570254524 1.0807528894 -0.708370687
H -0.6871143158 -0.5813113487 -0.3630830729
H 1.9965173195 0.6271586039 0.5355261629
H 1.0126924854 -2.7942263975 -0.1845181226
H 3.6292337991 -3.8948876748 1.0001743438
H 3.3003328339 -5.0613720154 -1.3079421673
H 1.6742414882 -4.2560110474 -1.4254222417
H 4.4826830719 -2.8779004914 -1.5654421496
H 3.5412455052 -1.1174521839 -0.1182916269

