# b3lyp 6-31G(2df,p) opt Freq 

 titel

0 1
C -0.3800750827 2.8090216281 -0.7148840082
C -1.0268318483 2.1179416462 0.4836442094
O -1.5059867872 3.0683391901 1.4282019853
C -0.0783752549 1.0884040403 1.1653036828
C -0.7086538681 0.5387533301 2.4650453767
C 0.1868707089 -0.3544132533 3.1889741377
C 0.9505010122 -1.0875523338 3.7583557905
C 0.2179796964 -0.0522662056 0.2062342435
O 1.1782301686 -0.1159195037 -0.5160515166
H -0.0531789577 2.0914196581 -1.4709660296
H -1.0907649482 3.5047040705 -1.1683386826
H 0.5050977116 3.37527311 -0.3993235826
H -1.9300846569 1.5869870334 0.1553981021
H -0.7842460104 3.6770280291 1.6241479983
H 0.8737342889 1.5831943457 1.3892202268
H -1.0045221032 1.3852080756 3.0909356561
H -1.6392562109 0.0089295626 2.2174297865
H 1.615865124 -1.7380625442 4.2698175216
H -0.5638046022 -0.8484245392 0.1920658224

