# b3lyp 6-31G(2df,p) opt Freq 

 titel

0 1
C 1.524209204 -0.0616499277 0.1472094074
O 0.1062127162 -0.0131044482 0.0756060393
C -0.4674159036 0.7257668879 1.0795640599
C -0.7134472977 0.1533711937 2.4878313298
C -0.9406245484 1.3325796751 3.4329649642
C -1.6667672352 2.0002228901 2.2344541756
C -1.8735550547 0.5631500896 1.5947307584
C -0.5359135797 2.2522352593 1.1882677705
O -0.9487882146 2.8867287606 0.0009427767
H 1.8607222102 -0.5040406368 1.0946271839
H 1.8623044352 -0.6846124461 -0.683322318
H 1.9662007625 0.9384399402 0.0472969536
H -0.3998637011 -0.8581631545 2.7156385838
H -1.6294283188 1.0734494531 4.2423780166
H -0.0705624449 1.8563732594 3.8472047616
H -2.4342592644 2.7595713326 2.366214026
H -2.725275707 0.0069734386 1.2323934077
H 0.3392707926 2.8087449533 1.5423452974
H -1.5407766105 2.28238732 -0.4629500644

