# b3lyp 6-31G(2df,p) opt Freq 

 titel

0 1
C -1.1421815481 3.2466907358 1.5022559826
O -2.5532036411 2.9787165099 1.6207940139
C -2.3414294921 1.5581423254 1.5027522294
C -0.812192185 1.742124192 1.3465298963
C -0.2116283178 1.3154607196 0.0288553428
C 1.3374585743 1.3135027029 -0.1375968116
C 1.2048093654 0.3118044897 -1.3078146646
C 0.3055715862 -0.1449713027 -0.1360067935
O 1.4189197684 0.1625384915 0.7948393061
H -0.9147560295 3.874477767 0.6294877238
H -0.7387593635 3.7321952439 2.3996705295
H -2.666703292 1.0176759109 2.4004774682
H -2.8594980503 1.1362541873 0.6302981458
H -0.2255505656 1.3258067462 2.165373701
H -0.7711443546 1.7104206241 -0.8270353799
H 2.052227701 2.1247727959 0.0051582049
H 0.7252559535 0.6501105446 -2.2296436601
H 2.0833299118 -0.3099552875 -1.4799787652
H -0.2214854707 -1.0887551763 0.0086102505

