# b3lyp 6-31G(2df,p) opt Freq 

 titel

0 1
C -1.0619908437 1.9140444971 -1.2669182686
C -1.0177683904 1.0251402368 -0.031284309
O -2.0341669588 -0.025649075 -0.0782980747
C -1.077591505 -1.1043589134 -0.0761060299
C 0.0597878059 -0.0796037415 -0.0546468013
O 1.2519518654 -0.1095430115 -0.0632308479
C -1.0747299383 1.8137981377 1.2609482913
C -2.40932816 2.2247606194 1.8310118932
C -1.5707359212 1.1898375543 2.5386796379
H -1.0224193446 1.3184402087 -2.1829565837
H -1.9865237513 2.4987618198 -1.2698120842
H -0.2131419637 2.6045956729 -1.2639410493
H -1.1469529932 -1.7418526116 0.814655568
H -1.1349010072 -1.7296802487 -0.9757694335
H -0.2613690109 2.5280734882 1.3513256473
H -2.4984726215 3.2141921141 2.2650225052
H -3.2965508946 1.8677635853 1.3204513313
H -1.0746672105 1.461611479 3.4634362858
H -1.9260221464 0.1667666884 2.4952703721

