# b3lyp 6-31G(2df,p) opt Freq 

 titel

0 1
C -1.6188479056 1.9161612635 1.0110205172
C -0.1104013445 1.8737216827 0.958432175
C 0.3384786283 0.7915909041 0.3231612011
C -0.8077776458 -0.041102802 -0.1954868991
O -0.9669740532 0.2784995501 -1.5887492733
C -2.23539073 -0.0584898436 -2.0759287461
O -3.2632650886 0.6445171983 -1.4301931448
C -3.3404654775 0.2610268312 -0.0642218593
C -2.0049371121 0.4625709989 0.6529334361
H -2.0121644356 2.2235607324 1.986150149
H -2.0104450944 2.6250348498 0.2688647876
H 0.5130777959 2.6612526318 1.3678625752
H 1.3736758197 0.5566563784 0.1081436705
H -0.6625380791 -1.1280148391 -0.1013083534
H -2.2583994663 0.2301765492 -3.1288032722
H -2.4113408033 -1.1482595593 -1.9749414177
H -4.1341358063 0.8636686152 0.3872270935
H -3.6417552367 -0.7983574396 0.0018162372
H -2.0158853047 -0.1235135721 1.5795910635

