# b3lyp 6-31G(2df,p) opt Freq 

 titel

0 1
O 0.4290486784 0.6937753852 0.2534783367
C -0.8475204398 0.495216837 0.7423188851
C -1.5077132561 0.769472052 2.1104379254
C -2.3177919238 -0.5174806951 1.9767693304
C -1.7254101253 -0.7565715723 0.540605175
C -2.7094607778 -0.6455816582 -0.6377523934
C -3.0093909345 0.8359880372 -0.9316788328
O -3.0367539455 1.6167055044 0.2632728729
C -1.7858978255 1.6349865457 0.896565451
H 1.0031165916 0.0119769509 0.6207296617
H -1.1061162794 1.1940029997 3.0225741334
H -2.0068757343 -1.2919151498 2.6815546105
H -3.4037749988 -0.401060473 2.0240799934
H -1.1494639473 -1.684290006 0.4967958978
H -2.2985315696 -1.1118193804 -1.5403863055
H -3.6307018442 -1.1857530507 -0.3919362619
H -2.2479794027 1.2417743339 -1.6137394783
H -3.987079107 0.9650769274 -1.4026725035
H -1.3197918584 2.618052192 0.918891062

