# b3lyp 6-31G(2df,p) opt Freq 

 titel

0 1
C 1.7514190282 -0.4218161413 1.2883033121
C 2.4085698227 0.5787324385 0.3053476273
C 1.2490640657 1.5264478391 -0.0483764513
O 1.32501582 2.2333038059 -1.2799184889
C 0.5494975017 1.5772559347 -2.2863303142
C -0.3164646511 0.5660909471 -1.570862566
O -1.1525930014 1.1192384241 -0.5372324634
C 0.0960269774 0.5468278287 -0.1666395184
C 0.286206631 -0.6154716313 0.7869267432
H 2.2996381029 -1.3644366816 1.3521908821
H 1.74085315 0.0072266644 2.2956829306
H 3.2747712839 1.0905794005 0.7307202115
H 2.7397295583 0.0657319411 -0.6053166146
H 1.0978515474 2.2700838419 0.7444340489
H -0.0247073668 2.3392777773 -2.8256903616
H 1.1958967278 1.0559848383 -3.0096142813
H -0.7161879456 -0.298618768 -2.0939287663
H -0.4360075781 -0.5688461609 1.6068326978
H 0.1439997861 -1.5777888886 0.2872334327

