# b3lyp 6-31G(2df,p) opt Freq 

 titel

0 1
C -3.1868417654 1.8998836919 1.3156921068
C -2.0477688009 0.9242216725 1.0888647605
C -2.2295639657 -0.1802823615 0.0963206219
C -1.0123042881 -1.1153567489 0.1185523985
C -1.0039413094 -2.2904597148 -0.8530968399
C -0.2057500136 0.1035313421 -0.410163589
O 0.7549908423 0.1686036885 -1.1389853259
C -1.2893734019 1.0899169869 -0.2020182494
O -1.4360671987 2.2216624932 -0.9538537683
H -3.8821040831 1.5021108309 2.0611653485
H -2.8088335434 2.8598550419 1.6791492193
H -3.7397456375 2.0907001102 0.3927794816
H -1.4786682885 0.694534583 1.9905707892
H -3.1751611943 -0.3996101432 -0.382913484
H -0.7386483418 -1.4441753458 1.1280842748
H -1.6790796531 -3.0832170216 -0.5167603903
H -1.3144459649 -1.9771870181 -1.8550476162
H 0.0038209718 -2.7065116015 -0.9345058278
H -0.9211400838 2.0891712844 -1.7612263303

