# b3lyp 6-31G(2df,p) opt Freq 

 titel

0 1
C 1.3403452419 -0.7445216297 -0.8363592986
C 1.3513849889 0.1508889251 0.3902793224
C 2.0132748421 1.5385923525 0.1950506275
C 2.6743469784 1.8238907309 1.5304179454
C 1.8785838607 1.6079019244 2.7869841099
C 2.7111075711 0.4692240757 2.2303596487
O 2.0943909116 -0.5008922953 1.4355477456
C 3.91811353 -0.0007806747 2.9437433163
O 4.5358325079 0.6667294744 3.7395294627
H 0.9046641337 -1.7181525098 -0.5964225448
H 0.7454417463 -0.289669314 -1.6345542215
H 2.3584624158 -0.9023611572 -1.2049265557
H 0.3187815124 0.2918887328 0.7411948978
H 2.7780962646 1.4936762634 -0.5881635824
H 1.2754230269 2.2906322652 -0.1003698822
H 3.5441803006 2.4684403338 1.5731974183
H 2.2688544888 2.0585853668 3.69252453
H 0.7993363192 1.5144743464 2.7346348285
H 4.2234846489 -1.0335922307 2.6702587019

