# b3lyp 6-31G(2df,p) opt Freq 

 titel

0 1
C 2.0825126265 -0.573010599 -1.3658624585
C 1.5454680052 0.2295758792 -0.1914451275
C 1.7729327091 -0.3885580727 1.2556733313
C 2.6361217117 0.8510169552 1.6051712219
C 4.1366113137 0.9416786922 1.2576987988
O 3.8063338606 1.5117558015 -0.0603758437
C 2.402466758 1.454851124 0.2655183215
C 1.7955910792 2.646170475 1.0358708076
O 2.0447868182 1.9586513797 2.3144341123
H 1.5523963679 -1.5270596563 -1.4541086349
H 1.9585128084 -0.0269460618 -2.3067029181
H 3.1495794435 -0.7813301804 -1.245836646
H 0.5008872233 0.5040280366 -0.3669344851
H 0.8713824647 -0.4708218495 1.8647133636
H 2.3021917054 -1.3456181472 1.2679741906
H 4.7096021514 1.6425598181 1.8729944448
H 4.6795270686 -0.0052133744 1.1585276793
H 2.3597802263 3.5809969109 0.9571090173
H 0.7266462481 2.8377023488 0.8865884346

