# b3lyp 6-31G(2df,p) opt Freq 

 titel

0 1
C 1.2705392533 0.5636875121 1.3057904235
C 0.7881864953 0.6154242363 -0.1520183136
C 1.6954665135 -0.1129280018 -1.1007547717
C 1.6450431501 -1.5862998222 -1.3589330327
C 1.3247592694 -0.7267384372 -2.5460500692
O 0.1441509016 -0.8908081349 -3.2149514815
C 2.4770719416 0.0433967264 -3.0622463107
O 2.6499604519 0.5243604801 -4.1551431947
C 3.0191002792 0.4275135188 -1.6609161112
H 1.3314406377 -0.4690030312 1.6637875224
H 2.2638674967 1.012133333 1.4101172175
H 0.585492916 1.1095734302 1.9615991755
H -0.2175528825 0.1836082292 -0.2239416217
H 0.6999166701 1.662621002 -0.4690566905
H 2.5456958432 -2.1966123011 -1.3316989776
H 0.7579509486 -2.0902498592 -0.9829446442
H 0.1076071105 -0.2023630932 -3.8926908223
H 3.9317170435 -0.0706878854 -1.3206622946
H 3.1437101103 1.5112196281 -1.5845161129

