# b3lyp 6-31G(2df,p) opt Freq 

 titel

0 1
O -1.1939159456 -0.0828920981 0.8851195264
C -0.7624207973 0.4850241835 -0.0840654944
O -1.5072018744 1.4042545127 -0.7893315772
C -1.6989967693 2.6643385308 -0.1298319583
C -0.3602355569 3.3720541731 0.0840034775
C 0.4687668683 3.6019164814 -1.1924012179
C 0.7051517915 2.3746160866 -2.1166536963
C 1.2397346793 1.1311471819 -1.4450742196
C 0.5992554415 0.2902568217 -0.6179441005
H -2.3561384024 3.2350852333 -0.7921697021
H -2.2162505611 2.5082479264 0.8244103167
H -0.5536663397 4.3399730282 0.562018736
H 0.2279831127 2.7944813378 0.8067723859
H -0.0138368668 4.3733166748 -1.8054281734
H 1.4393084144 4.0148569647 -0.8928971854
H -0.231063819 2.1276681797 -2.6203724684
H 1.4163525668 2.6812042328 -2.8906647257
H 2.2800629964 0.8913451354 -1.6596843855
H 1.1204822116 -0.5634614466 -0.1966997376

