# b3lyp 6-31G(2df,p) opt Freq 

 titel

0 1
C 1.4964177304 0.4132697659 0.0518193104
O 0.1231538051 0.7087457012 0.1522303682
C -0.5108760084 0.0154766248 1.2034393166
C -1.9499478118 0.4185987019 1.2153938122
O -2.7997083975 -0.1113611122 2.2344674736
C -3.7709081638 0.8980102677 1.8236235587
C -4.2458568319 0.3968194075 0.4354905468
C -2.8207105164 0.7149058819 -0.0180242544
C -2.6404456682 1.7330327768 1.1126533732
H 1.669822717 -0.6566559673 -0.1428961794
H 1.8941613435 0.9943981674 -0.7833916643
H 2.0404771859 0.6879720725 0.96896854
H -0.4310233616 -1.0769633729 1.0652094109
H -0.0455166158 0.2562849094 2.1740571758
H -4.4460104834 1.197906645 2.622046895
H -4.6091674416 -0.6349453122 0.390478754
H -4.9691943827 1.0810510862 -0.0158740305
H -2.4055298653 0.7562758426 -1.0154293231
H -2.3111699537 2.7618601338 1.1375918264

