# b3lyp 6-31G(2df,p) opt Freq 

 titel

0 1
C -0.0999206286 -0.2243278701 -0.0181980179
C 1.3868734101 -0.0095732166 0.0886267265
O 2.1801110854 -0.2135071828 -1.1059447373
C 2.0830002561 1.1000107515 -0.6135145485
C 1.4476012847 2.2790063743 -1.3598617158
C 2.4564453605 3.2131059917 -0.6256734994
C 3.272116264 1.9656318535 -0.1722862784
C 2.0583976987 -0.5542199621 1.3122459775
O 1.4725729444 -0.8904460595 2.310569028
H -0.6017588516 0.1970390018 0.8570865939
H -0.4980089232 0.2387658782 -0.9225465575
H -0.3274761721 -1.2940833383 -0.0449129969
H 1.6361917686 2.2091959616 -2.4350701289
H 0.382734534 2.4629395997 -1.2011460893
H 2.9845387895 3.9386913867 -1.2455159886
H 1.998590321 3.7380014916 0.2152693374
H 4.1433899494 1.7777092607 -0.8066367866
H 3.5834113772 1.9203892045 0.8731823317
H 3.163037692 -0.6309972363 1.2166975402

