# b3lyp 6-31G(2df,p) opt Freq 

 titel

0 1
C 1.4565273661 -0.1158601301 0.000783482
O 0.0509407399 0.0701511109 0.0034037472
C -0.4248721775 0.7519836137 1.1046350534
C -0.1582807182 2.2324623805 1.3863195908
C -0.9787200079 2.2660369965 2.6947186241
C -2.3582705701 1.729923234 2.2435031193
C -1.8137237562 0.4393047986 1.6457306141
C -0.5801013556 0.1398204384 2.4829528487
O -0.435405651 1.1644652069 3.449027225
H 1.7954460448 -0.6354884426 0.9075275937
H 1.6926832378 -0.7257554336 -0.8739443874
H 1.9957144176 0.8382302716 -0.0766530776
H 0.8975186306 2.4574879647 1.5601261622
H -0.5571361492 2.8974688648 0.6155847086
H -0.9480905859 3.1720209175 3.29608188
H -3.030173408 1.5605406476 3.0891669837
H -2.8446875988 2.3833226141 1.5141677472
H -2.4206953529 -0.3456726468 1.2164896953
H -0.2479371656 -0.8424046868 2.7867930596

