# b3lyp 6-31G(2df,p) opt Freq 

 titel

0 1
C -1.6118038178 -3.3643810027 -1.2786545751
C -1.2081457488 -2.6065195582 -0.0040047454
C -1.5808865504 -3.4063916902 1.2543243812
O -1.9046769992 -1.3453972475 0.0252813925
C -0.9943204642 -0.2488637709 0.0336433474
C 0.3730108868 -0.88046024 0.0060988868
C 1.6264322336 -0.1258664657 0.0037827182
O 1.6841457751 1.0840574871 0.0239245173
C 0.2459994193 -2.2098878688 -0.0150505748
H -1.1121954139 -4.3368708899 -1.3352051629
H -2.6928686797 -3.5308497774 -1.2788595703
H -1.3517740694 -2.7849728455 -2.1683128942
H -1.08030745 -4.3799516264 1.2664893274
H -1.2991180339 -2.8566302861 2.1560976773
H -2.6616714246 -3.5733540395 1.2753153161
H -1.16626822 0.3992616162 -0.8371087232
H -1.1448472462 0.3682287433 0.9305431152
H 2.5472981847 -0.7493334642 -0.0181868791
H 1.0554284086 -2.9307048636 -0.0371836443

