# b3lyp 6-31G(2df,p) opt Freq 

 titel

0 1
C 1.5219967674 0.1042903709 -0.0892174635
O 0.1507540196 -0.1798308332 0.084214688
C -0.4565371614 0.5224679867 1.151366211
C -1.9525382199 0.3460689674 1.0373453123
C -2.5275419252 -0.0180713497 2.1864836503
C -1.499509805 -0.1697781223 3.2434672257
O -1.6851592084 -0.3754721833 4.4200997993
C -0.1203459466 0.0077315222 2.5747964102
C 0.8184237854 0.8604774631 3.4288740717
H 2.1320474593 -0.2523943556 0.7532276435
H 1.8445425618 -0.4128564301 -0.9959195899
H 1.6991689243 1.1842192711 -0.2120938249
H -0.2017589365 1.5949354163 1.0691117502
H -2.4534707841 0.5176665325 0.091240775
H -3.5823637748 -0.1759335408 2.3721854984
H 0.2946437278 -1.0016967794 2.4560129577
H 0.841181632 0.4703825827 4.4497496041
H 1.8374703146 0.8648973397 3.0321873915
H 0.4709393399 1.8982454416 3.4782947694

