# b3lyp 6-31G(2df,p) opt Freq 

 titel

0 1
O -2.7921982328 0.1694356531 1.6363239668
C -2.0819642978 -0.1932676905 0.4779175598
C -0.8014356703 0.7182843591 0.2488831932
O 0.4694546911 0.2486232105 0.6057173626
C -1.1603141019 0.669871708 -1.2381443651
C -1.6470748252 1.3331207006 -2.5644319854
C -2.4531219128 -0.0288563187 -2.4013467319
C -1.1090633371 -0.6850693758 -2.0216930166
C -2.6307427835 0.3700693198 -0.8906672449
H -3.5672881843 -0.3974554141 1.7069563958
H -1.8104629127 -1.2538120112 0.4836023975
H -1.0230422441 1.7059741753 0.6798610879
H 0.5676202714 0.3388429088 1.5592484693
H -2.2245894267 2.2550974497 -2.4603718537
H -0.9493851849 1.3822664209 -3.4065838694
H -3.2022457193 -0.4099759075 -3.1016992204
H -1.1482607666 -1.6145153969 -1.4546860911
H -0.3520834568 -0.7438080263 -2.807991933
H -3.2522657057 1.2499339351 -0.6971972414

