# b3lyp 6-31G(2df,p) opt Freq 

 titel

0 1
C -2.3393376699 3.7409086796 -2.5563431022
C -1.6687497327 3.2772034478 -1.2827605205
C -0.1664770139 3.2734166862 -1.1593837292
C -0.9177754045 1.9649253411 -1.2432700379
C -0.9996756569 1.0654325869 -0.0405364411
C -1.9594818505 -0.1443023273 -0.0661338276
O -0.8309335988 -1.0604786891 0.1016287558
C 0.0759936134 -0.0276274239 0.0977369501
O 1.259120338 -0.1003193407 0.1717245729
H -3.3382380738 3.3043050635 -2.6665358893
H -2.4476132373 4.8309111809 -2.5718679482
H -1.7523633693 3.4552183484 -3.435718328
H -2.2094254738 3.5280891755 -0.3726824577
H 0.4187527166 3.5720685451 -2.0224592462
H 0.2789963116 3.5435607846 -0.2080926311
H -0.8409271426 1.4355955228 -2.1905289426
H -1.0766520143 1.6555030659 0.8780049093
H -2.6612139123 -0.2371334129 0.7649933126
H -2.464287779 -0.3249961444 -1.0179714289

