# b3lyp 6-31G(2df,p) opt Freq 

 titel

0 1
O 0.2599273358 0.0348477426 0.4697580579
C -0.8595195292 0.702348925 0.9332468649
C -0.8965210836 2.1701630731 1.351695067
C -2.3426917738 2.2828718574 0.7466692224
C -3.4864681638 2.493142857 1.755608926
C -3.8409160587 1.1642477814 2.4440335357
O -2.6823784715 0.363548124 2.6693524761
C -2.0662538353 -0.0163099601 1.4677928564
C -2.2130841467 0.8334391726 0.2312953804
H 0.6909201699 -0.3903355369 1.2197380223
H -0.7875649712 2.3817526608 2.4199894442
H -0.1779259159 2.7642276549 0.7829446411
H -2.3828891744 3.023972532 -0.0526042839
H -3.1835270804 3.2424008501 2.4958503899
H -4.3812544595 2.8837059205 1.2571447013
H -4.2959935397 1.3237247056 3.4248645129
H -4.5579519827 0.6032798001 1.8265883985
H -2.0587750962 -1.0924889284 1.3025291872
H -2.5615708231 0.4425720383 -0.7167092104

