# b3lyp 6-31G(2df,p) opt Freq 

 titel

0 1
C 1.8986210963 -1.0269605346 -0.1218790705
C 0.7904467933 0.0222572815 -0.3155625262
C 1.2728141724 1.4296922478 -0.134804709
C 1.4056413828 2.4126768012 -1.0642113269
O 1.8869610938 3.5585647715 -0.5206452879
C 2.0768370876 3.3188161274 0.8131366719
C 1.7164707221 2.0339404125 1.0949870348
O 1.7274092392 1.3562293054 2.2672826329
C 2.1810234963 2.0969673575 3.3851812343
H 2.3322710989 -0.9475983923 0.8787476259
H 1.5020462345 -2.0399532893 -0.2436418808
H 2.7025560556 -0.8846556806 -0.8508327877
H 0.3521656875 -0.0806899491 -1.314642933
H -0.0171454327 -0.178135207 0.3995106213
H 1.1981298907 2.4454595248 -2.1217610703
H 2.4577595992 4.1392305115 1.3941252972
H 2.1297649863 1.4318233137 4.2484589881
H 3.217205664 2.4326997364 3.2424939651
H 1.5447514021 2.9749905316 3.5606818709

