# b3lyp 6-31G(2df,p) opt Freq 

 titel

0 1
C -0.0005780256 -0.1593521212 -0.2228910633
C 1.5004916737 -0.1781133013 -0.156915996
C 2.4281498667 0.426593673 -1.2405715061
C 3.3143281445 0.547187957 0.0118768336
O 2.0889410487 0.8234023792 0.7809191321
C 3.6186327071 -0.8955777228 0.4706886318
O 4.4281799774 -1.0780566314 1.5822464606
C 3.3973129265 -2.0357410046 -0.4664951717
C 2.218499918 -1.463782161 0.310793547
H -0.4305426517 -0.4490805752 0.741668393
H -0.3669349772 0.838387732 -0.4784514929
H -0.354030277 -0.8680868244 -0.9785447131
H 2.743633476 -0.1627424431 -2.1017970235
H 2.0657185835 1.4065589257 -1.5523247193
H 4.0982571897 1.2936410854 0.1381059757
H 4.0268111926 -0.5811048138 2.3058931093
H 3.4884631022 -1.9309696316 -1.5413330042
H 3.7508848014 -2.9907603451 -0.089250266
H 1.7574402435 -2.0656772271 1.0853061927

