# b3lyp 6-31G(2df,p) opt Freq 

 titel

0 1
C 1.2835333509 0.7727832225 -0.0293197855
C -0.0684225717 0.166501858 0.1234564897
C -0.4599920753 -1.0942212789 0.3516750735
C -1.9900955216 -0.9951575818 0.3279862056
O -2.7909996799 -2.1330346879 0.4090097122
C -2.2247546694 0.3063205229 1.1720507901
C -1.4026561421 0.9180740974 -0.0102685416
C -2.1674502864 -0.0935959088 -0.9399222536
O -3.4889063116 0.2842145026 -1.2279307618
H 1.4519421313 1.5673836732 0.7089396268
H 2.0722944517 0.0246090394 0.0907821559
H 1.4028769582 1.2370976628 -1.0166272771
H 0.1213579434 -1.9995918844 0.4632737178
H -2.7628922172 -2.4695463424 1.3107112545
H -3.2672282641 0.6276611196 1.1736440702
H -1.7768237365 0.3476401606 2.1676354577
H -1.3915898524 1.9860835258 -0.2203046405
H -1.628214762 -0.423451372 -1.8378750421
H -4.0165116152 -0.5231906088 -1.237585602

