# b3lyp 6-31G(2df,p) opt Freq 

 titel

0 1
O 0.6828002203 0.1487593407 0.8034362004
C -0.693634311 0.3908108726 0.8432748522
C -1.4659190308 0.0938451831 2.1070595134
C -1.5733656819 -0.8142549934 0.9056604628
C -2.7938527653 -1.1059872568 0.0111766802
C -2.3159216585 -2.5764940667 -0.0824459606
O -2.869388266 -3.4107423475 0.9546512392
C -1.6944540261 -3.243922132 1.7850673023
C -1.0650195364 -2.255047508 0.7901237379
H 1.1197050458 0.8142790944 1.344932118
H -1.0321985316 1.2251697247 0.2263801615
H -0.8956095416 -0.2725521544 2.9556330818
H -2.3123368521 0.7243527648 2.3612984563
H -3.7784335033 -0.998232592 0.4735502809
H -2.7790019539 -0.5679994379 -0.942523772
H -2.306893118 -3.0689821531 -1.058048946
H -1.937658155 -2.853073536 2.7808494577
H -1.1495320795 -4.1908522035 1.892039289
H -0.0281542152 -2.395631179 0.4915928948

