# b3lyp 6-31G(2df,p) opt Freq 

 titel

0 1
C 2.7749128934 0.3387172939 0.701906107
C 1.2974174594 0.1605932334 0.44958455
O 0.4121172381 0.5086165483 1.1892715733
O 1.0916022239 -0.4489512234 -0.7406299461
C -0.2791379012 -0.6820445424 -1.1116187593
C -0.794032392 -1.9972099712 -0.535909343
C -2.23775127 -2.2834441362 -0.9957075513
C -2.751805851 -3.5471536597 -0.4830872405
C -3.1533318315 -4.5937172941 -0.0498672468
H 2.9221726709 0.8361900266 1.6595644864
H 3.2734248038 -0.6347382189 0.7055924918
H 3.2240070408 0.9299167337 -0.1010453969
H -0.8897028581 0.1579372304 -0.7695137301
H -0.2739907274 -0.7049694586 -2.2051223964
H -0.1388250593 -2.8159695519 -0.850190934
H -0.7622136774 -1.9494467548 0.5560323573
H -2.8940841146 -1.4648035219 -0.6724712416
H -2.2809217894 -2.2922551105 -2.0932903731
H -3.5187283386 -5.5154523928 0.3295994333

