# b3lyp 6-31G(2df,p) opt Freq 

 titel

0 1
O 0.1651851067 0.1395026428 1.0241920773
C 0.0756645863 -0.1263303832 -0.1438392676
O -0.4969550127 0.6354326005 -1.0852647461
C -1.0482196103 1.8767905039 -0.6355578179
C -2.3495243128 1.7995918905 0.1929124027
C -3.0357947157 2.7758509524 -0.8144199633
C -1.7361135901 2.8292326638 -1.6650333117
C -0.7428914475 3.9530750698 -1.2577782158
C -0.0427344883 2.9849276318 -0.2521754234
H 0.4585509172 -1.0457964658 -0.6142995443
H -2.7853252291 0.7984582987 0.1775539995
H -2.2649161126 2.1253661413 1.2314164491
H -3.8870462219 2.3321025262 -1.3351796262
H -3.3513031149 3.7378256265 -0.4022613098
H -1.818838037 2.5909036638 -2.7251349998
H -0.0892591663 4.2805736698 -2.0691073789
H -1.2100792216 4.8377275003 -0.8173910334
H 0.9776016458 2.7314284404 -0.5472466511
H -0.0384415154 3.2706643066 0.8014505108

