# b3lyp 6-31G(2df,p) opt Freq 

 titel

0 1
C 0.0939125554 0.3492038121 -0.4507243509
C 1.4134594458 -0.1043039048 0.1089794484
C 1.7570396211 -0.0063423793 1.5569857991
C 2.5735242104 0.8168235921 0.5511247632
C 3.8281426571 0.1690954782 -0.0047689155
C 3.3581692559 -1.2494866017 -0.3838736758
O 1.9532958946 -1.1619887966 -0.632768368
C 2.4418818269 2.282639079 0.5322949825
O 3.2560391998 3.0401272329 0.0575258966
H -0.3143608403 1.1838334078 0.123835729
H 0.2028022603 0.6583518146 -1.4941000317
H -0.6257342089 -0.4749328697 -0.4132379576
H 1.0738729631 0.5547987619 2.1879271302
H 2.2562556715 -0.8275676427 2.059589287
H 4.1572339231 0.7409975698 -0.8765113427
H 4.6561197423 0.1452201365 0.7093920288
H 3.8291677852 -1.6407487444 -1.2888920779
H 3.5524141883 -1.9599698877 0.4311351941
H 1.5049864085 2.6694131119 0.9969468213

