# b3lyp 6-31G(2df,p) opt Freq 

 titel

0 1
C 0.8619244451 2.8578586194 -1.7410569681
C 1.9644451138 1.9333047463 -1.296619317
C 3.0547750775 1.4393438698 -2.3048480924
C 3.1568084702 0.2341626413 -1.3857571536
O 3.7640267821 -0.9965225854 -1.5952950407
C 1.7708944486 0.4275879775 -0.8181292248
C 2.9736787904 0.7165198434 0.0647438373
O 3.5005063611 -0.0037846925 1.1136561579
C 2.7631800044 2.2129819993 0.0225155226
H 0.1260418063 3.0088816206 -0.9440426176
H 1.2652793702 3.8406428089 -2.0132637598
H 0.3350383738 2.4596686656 -2.6146600272
H 2.6140473657 1.1744268731 -3.2715458845
H 3.9329322156 2.0802612701 -2.4547051835
H 4.7175721076 -0.8533215398 -1.6408053495
H 0.9121118133 -0.2236977439 -0.7435847762
H 3.8118687096 -0.8418876285 0.7443616385
H 2.099692552 2.5557981115 0.8229481085
H 3.6384309329 2.8710009935 -0.04321639

