# b3lyp 6-31G(2df,p) opt Freq 

 titel

0 1
C 0.8178548194 1.4755850443 -0.1625704747
C 1.6021803123 0.1944031517 -0.0862266629
C 2.6711781024 -0.1589794418 0.9111993207
C 3.879564515 -0.6567358738 0.1319060317
O 3.5136211567 -0.5968002287 -1.2495143888
C 2.1053200542 -0.5359977576 -1.347733189
O 1.5202137182 -1.8221376743 -1.3351405622
C 1.3229278661 -2.2281560542 0.0220762082
C 1.3742417918 -0.9561239761 0.8554831541
H 0.557793159 1.833375395 0.8385063655
H 1.3921623665 2.2657461341 -0.6591131289
H -0.115790877 1.3390984867 -0.7197218948
H 2.8397374465 0.4573021103 1.787594051
H 4.7487678233 -0.0078854194 0.2856110359
H 4.1701332633 -1.6817649698 0.4019509888
H 1.8635078106 -0.0755789276 -2.3068606083
H 0.3443404136 -2.7149825046 0.0963544188
H 2.0887249844 -2.9610892503 0.312604572
H 0.6947546836 -0.8611033741 1.6954523328

