# b3lyp 6-31G(2df,p) opt Freq 

 titel

0 1
C 2.7784714798 1.5070663005 -0.0836871298
C 2.0002114401 0.1945665984 0.0461312966
C 1.9543026319 -0.5903322664 -1.2685508355
C 1.0239607479 -0.0462739061 -2.376299779
O 0.937307822 1.0078516051 -2.9366578755
C 0.2187411432 -1.3618815373 -2.4524821979
C 1.1021656322 -1.8785796309 -1.3062638352
C 1.4472903713 -3.2423988299 -0.9151645099
O 0.549726976 -2.4431329841 -0.1284574268
H 2.7632382478 2.0640869419 0.8578933557
H 3.8260588931 1.3205326896 -0.3453306423
H 2.3481933335 2.1399491779 -0.8648224963
H 2.4467089553 -0.4455584206 0.8159464558
H 0.9757529062 0.3949959283 0.3804348035
H 2.9710674498 -0.7439932167 -1.653891549
H -0.8421877693 -1.2598309398 -2.204479921
H 0.3095842003 -1.8859754946 -3.4088279249
H 0.9893510684 -4.0873019029 -1.4280026746
H 2.4133312606 -3.4465812725 -0.4545719139

