# b3lyp 6-31G(2df,p) opt Freq 

 titel

0 1
C 2.4354019275 -2.5056440165 3.5251646827
C 2.1010963883 -1.8984881904 2.1911251815
C 3.2118622336 -1.3558132766 1.2881291372
C 2.5153251025 -0.2897637871 0.4559273013
O 2.0229923479 0.8168787334 1.2301523489
C 1.0879936328 -0.1913952676 0.798006504
C -0.0116853789 0.2372633362 -0.1297702598
C 0.8414545374 -1.2056410804 1.8868654453
O 1.0606788913 -2.5534530473 1.4359807434
H 3.0883140261 -3.3768128696 3.4011207267
H 2.95850363 -1.7812376258 4.1579138857
H 1.5279843077 -2.831746808 4.0392114622
H 4.029425871 -0.9239110742 1.8752309706
H 3.6265798501 -2.1508246353 0.6589269965
H 2.8845953314 -0.0299033386 -0.5330111756
H -0.4609602687 -0.636746142 -0.6123282465
H -0.8002511601 0.7639341368 0.4189914462
H 0.3728136078 0.9093643185 -0.9008762847
H 0.0432560922 -1.0716046754 2.6141779144

