# b3lyp 6-31G(2df,p) opt Freq 

 titel

0 1
O 0.2798248887 0.1974265132 -1.5792844667
C -0.3187165463 0.0778931368 -0.5437926155
O -0.5815391112 1.1884721174 0.1958908278
C -1.3030126965 1.0796861586 1.4331972009
C -2.4971066443 0.1412830863 1.3108936734
C -2.0449225035 -1.2676775828 0.9360392317
C -1.2272245376 -2.0359527936 2.0169604578
C 0.0693319017 -1.8325485127 1.1889852764
C -0.7821439513 -1.251096324 0.0073653574
H -0.6181855636 0.7542376251 2.2268100465
H -1.6165094336 2.0997912241 1.6664358855
H -3.0543582914 0.1341377951 2.2551309645
H -3.1670085504 0.5391520946 0.5393849868
H -2.8839417952 -1.8346986179 0.5269319263
H -1.2315064768 -1.5950640334 3.0181592144
H -1.5225806768 -3.0833429302 2.1109536098
H 0.7655190656 -1.11029768 1.6223569343
H 0.6325476655 -2.7327858218 0.9385045121
H -0.8399597832 -1.9381441447 -0.8360257433

