# b3lyp 6-31G(2df,p) opt Freq 

 titel

0 1
C 2.2603622959 1.5080945683 -0.8908057871
C 1.6228606772 0.1740616785 -0.5522106562
C 1.9303212007 -0.4941716569 0.8006653644
O 3.3426476923 -0.7450558776 0.3330052855
C 2.4384556504 -1.1415102912 -0.771490036
C 2.4893994472 -2.0022934552 -2.0020907623
O 1.1638113854 -2.574639279 -1.99237943
C 0.4804144961 -2.4169226417 -0.7072325948
C 1.5638280088 -1.9005011448 0.223458883
H 1.7285475864 2.3272178544 -0.3947105412
H 3.304763018 1.5285973401 -0.5746309448
H 2.2154302619 1.6965763698 -1.9688582464
H 0.5767022528 0.1294269714 -0.8643622142
H 1.8350057617 -0.1149684592 1.8190830915
H 2.6140557098 -1.4616193681 -2.9451993923
H 3.2600332094 -2.7812508956 -1.9240100154
H -0.3742171917 -1.7464961194 -0.8456610156
H 0.1020461029 -3.3996486483 -0.411563213
H 2.1124656247 -2.6953743455 0.7313541349

