# b3lyp 6-31G(2df,p) opt Freq 

 titel

0 1
C 1.254382314 0.6123680569 -0.0920976704
C -0.1202570756 0.0358068955 0.0166124196
C -0.4761490193 -1.186043803 0.4309923149
C -1.968096362 -1.426946107 0.4093977524
O -2.3480766261 -2.4393804241 -0.5223251979
C -2.5386354279 -0.0334262456 0.0775181214
C -2.7304858874 0.9661216863 1.2402161394
O -1.6574445833 1.8122106761 0.7712564752
C -1.3401522564 0.8712530847 -0.2919688946
H 1.3386684888 1.5046465728 0.539593405
H 2.0247247699 -0.1011998027 0.211133833
H 1.4666855716 0.9342530976 -1.1194530742
H 0.2164947161 -1.9658035553 0.7327087572
H -2.3464387826 -1.7928368209 1.3715787659
H -1.8794612387 -2.2591554725 -1.3449431559
H -3.3716218129 -0.0951132169 -0.6221326942
H -3.685540252 1.5027346896 1.2563887452
H -2.5316142144 0.5594210637 2.2409288971
H -1.3001535818 1.3837533149 -1.2607428691

