# b3lyp 6-31G(2df,p) opt Freq 

 titel

0 1
C -0.7177914444 -0.254363181 0.9533395627
C 0.7773823108 0.0088281525 0.5960483884
C 0.6786634593 1.2792906873 -0.2055743745
C 1.4938199265 2.3227778216 -0.2978318347
C 0.9698405243 3.6094261779 -0.8921560234
O -0.4132531238 3.7646719273 -0.6155588415
C -1.1931293478 2.7192432343 -1.156532825
C -0.7315672219 1.3161689882 -0.7314403305
O -1.4935983341 0.786556958 0.3521376253
H -1.0442179099 -1.2337713371 0.5764213464
H -0.9043563971 -0.2250744533 2.0304797555
H 1.4097031022 0.1205978561 1.4798092736
H 1.1828911045 -0.8181870085 0.0019183409
H 2.4902184073 2.3167396349 0.1354168303
H 1.4666084979 4.4687127304 -0.4317941428
H 1.1526561948 3.6701450144 -1.9806928979
H -2.219336433 2.8801531449 -0.8174382704
H -1.1758537789 2.772730991 -2.2580758033
H -0.8283725066 0.6433156809 -1.603717649

