# b3lyp 6-31G(2df,p) opt Freq 

 titel

0 1
C 2.0423104831 1.7084584991 -0.368254096
C 1.5401775585 0.3138518864 0.0365109967
C 2.0432489532 -0.7517008094 -0.8896971162
C 3.4778682332 -1.3018096902 -1.0251856048
C 2.8785725979 -2.6792243058 -1.4706973011
C 1.4815489309 -2.076438148 -1.3289341736
O 1.4195207655 -0.9001772076 -2.1580844163
C 0.2141915881 -2.7153847079 -0.9410033341
O 0.1273346674 -3.8672299994 -0.5866079928
H 1.6657824981 2.4690251296 0.3212618245
H 3.1359254309 1.7564170969 -0.3555927959
H 1.7047675922 1.9640428055 -1.3768083589
H 1.8685003239 0.0793798131 1.0560842301
H 0.4456357962 0.2970071131 0.0374158737
H 4.0979375142 -0.7765584305 -1.7548747611
H 4.0053013103 -1.3598870461 -0.0704265236
H 3.1282129918 -3.0250146141 -2.475500879
H 3.0583072954 -3.4781584528 -0.7501479321
H -0.6662094308 -2.0387873819 -0.9881090295

