# b3lyp 6-31G(2df,p) opt Freq 

 titel

0 1
C -5.2286812643 -2.7228744068 -0.6757959506
C -4.6334061524 -1.3455688153 -0.3867415146
O -4.9736674641 -0.4068493865 -1.4056390766
C -3.1074188435 -1.379446396 -0.3248677028
C -2.5058458089 0.0088130929 -0.0287718896
C -1.0531980285 0.0072920374 0.020694399
C 0.1546349231 -0.0306017003 0.0511041616
C 1.591499061 -0.0245640609 0.1045843073
O 2.2979966174 -0.9593587882 -0.1997715301
H -4.9619363636 -3.4404791486 0.106751773
H -6.3226477874 -2.6716971125 -0.7196281954
H -4.8662695097 -3.1016081105 -1.6365511774
H -5.0140904122 -0.9907845571 0.5872490666
H -5.932836226 -0.3623045336 -1.4665835083
H -2.792106777 -2.0909615067 0.4448734695
H -2.7194236689 -1.7430685343 -1.2825745315
H -2.8447050965 0.7135388127 -0.7964187608
H -2.8959454162 0.3912183746 0.9245336674
H 2.0266893577 0.9330618499 0.4581642133

