# b3lyp 6-31G(2df,p) opt Freq 

 titel

0 1
C 1.2128865405 1.3413621636 0.0157248221
C 0.977849734 -0.1630446102 0.0707218183
C 1.71562641 -0.9441330823 -1.0215815463
C 1.9869243388 -2.3722689652 -0.4673185164
C 1.4482264444 -2.4088040768 0.9513648629
O 2.2419761377 -3.3024438058 1.7132807385
C 1.8926364361 -0.9239088698 1.0731772029
C 2.8953305215 -1.2115555679 -0.1420305196
O 4.2229877783 -0.9731139691 -0.3591931014
H 0.8351512846 1.8319982193 0.9195669579
H 2.2811565637 1.5669881833 -0.0726526719
H 0.703518898 1.7894256847 -0.8446157735
H -0.0940193277 -0.3773781888 0.1779274477
H 1.7112943876 -0.7740638651 -2.0915436972
H 2.1642138027 -3.2065622792 -1.133696193
H 0.3761439892 -2.6099522269 1.0982381944
H 2.0007021724 -3.1909046659 2.6387966804
H 2.1398359355 -0.5020263801 2.0474600717
H 4.7259211327 -1.6404439179 0.1228687924

