# b3lyp 6-31G(2df,p) opt Freq 

 titel

0 1
C -2.9185266872 -0.0350110209 -1.3540034059
C -2.1172151582 0.0033403106 -0.0513658675
C -0.9754968348 -1.0764818128 -0.0163441103
C 0.0159918704 0.0510409368 -0.333224103
O 1.1390718417 0.0762322908 -0.7442157323
C -1.0298768844 1.1297643931 -0.0292621363
C -3.0456959172 -0.0402232084 1.1400569235
C -3.5366501441 1.1614181111 1.8240224017
O -2.5107881659 0.3487576234 2.4060671544
H -3.5455014399 -0.9321544387 -1.4062104422
H -3.5720800575 0.8393494145 -1.4413830645
H -2.2527801698 -0.0454345784 -2.223300543
H -0.806132911 -1.4770952276 0.9890386953
H -1.0266197334 -1.9037865631 -0.7288056783
H -0.8813821315 1.5243756802 0.9817690979
H -1.1184836311 1.9548984281 -0.7400720821
H -3.6721879164 -0.934189968 1.186722164
H -3.2121211806 2.1437662165 1.483928749
H -4.4950113991 1.1408425529 2.3399758795

