# b3lyp 6-31G(2df,p) opt Freq 

 titel

0 1
C -0.0434586737 0.169274036 -0.2889135479
C 1.4039317028 0.076122459 0.1462664833
O 1.8928880223 1.3196343457 0.6277265835
C 2.6525789894 1.9114044391 -0.469229621
C 2.8428727167 0.8475337602 -1.6263631638
C 2.5152852829 -0.3541336924 -0.7910570344
C 3.3685691532 -0.8755366692 0.4055340529
C 1.9291895144 -1.3503608178 0.5763199605
O 1.9063978818 -1.7035942224 -0.8961421908
H -0.6654214705 0.424075674 0.5754910123
H -0.1837341393 0.959961171 -1.0342815738
H -0.3869582812 -0.7759820523 -0.7110358765
H 2.1245105547 2.7991571574 -0.8321254565
H 3.6204738015 2.2251702561 -0.0665741801
H 2.1151275369 0.9986577829 -2.4282185477
H 3.8505896017 0.8830091869 -2.0450315249
H 4.0793324942 -1.6585836204 0.1416063031
H 3.7558696124 -0.1479805515 1.1180721461
H 1.4968909697 -2.1000767423 1.2406150055

