# b3lyp 6-31G(2df,p) opt Freq 

 titel

0 1
C -0.7938252801 2.173942102 -0.4246699894
C 0.2541125711 1.0892552479 -0.4866691503
O 0.043356353 -0.0940816489 -0.5309368075
O 1.4965589304 1.6353359494 -0.4691106959
C 2.5757328145 0.718669371 -0.5118943104
C 3.881359522 1.3935934908 -0.7782801963
C 5.0186058688 0.3728203872 -0.6688560126
C 4.3226282991 -0.5020539136 -1.7682691699
C 3.2003515548 0.5355579264 -1.8622770164
H -0.6874404746 2.7432375309 0.5032757474
H -0.6600740545 2.8755716583 -1.2527055759
H -1.7844254685 1.7235708011 -0.4714411374
H 2.4664212415 -0.1076460777 0.1860867946
H 3.9654854915 2.4708003672 -0.703314651
H 5.9781347097 0.769897089 -1.0058078872
H 5.1581937037 -0.0872284513 0.3150711184
H 4.9198504331 -0.571146021 -2.6795960116
H 4.0149628875 -1.5112201535 -1.4755119191
H 2.673843127 0.8464787048 -2.7560903595

