# b3lyp 6-31G(2df,p) opt Freq 

 titel

0 1
C 6.116478842 1.1643449755 -0.8400075947
C 5.0422812278 2.1199794139 -0.3505312758
O 3.8272733504 1.4059379987 -0.2328542383
C 2.759522585 2.2016200419 0.2162742803
C 1.5429957854 1.3427563248 0.298916873
C 1.3092180929 0.0312113168 0.0358773937
C -0.0818052834 -0.1887158739 0.3156206496
C -0.578581844 1.0049866661 0.724975429
O 0.4017785389 1.9534943579 0.7208410414
H 6.2448287727 0.3384470553 -0.134771212
H 5.8428904372 0.7460219986 -1.8126807065
H 7.0723742122 1.6864985594 -0.942161019
H 5.3224905616 2.5535473856 0.6243960748
H 4.9204121409 2.9611829315 -1.0537442209
H 2.9823060485 2.6437712016 1.2044407042
H 2.5815075735 3.0504206005 -0.4688878876
H 2.038183018 -0.6815064478 -0.3120418535
H -0.6296286894 -1.1132992386 0.2219514403
H -1.5515639701 1.3429598724 1.0402401921

