# b3lyp 6-31G(2df,p) opt Freq 

 titel

0 1
C 0.4498134061 -1.6735691549 -2.8382175221
C 1.3122379319 -0.9443399265 -1.7689835225
C 0.6325776077 -1.0900198871 -0.3910116626
C -0.6593939862 -0.2529317817 -0.4588823117
C -0.2998207592 1.2311253994 -0.4628189869
O 0.5990973428 1.5043412599 -1.5424941586
C 0.7753105025 0.392219174 -2.3795292572
C -0.4786170885 -0.4361287575 -2.7939920437
O -1.3664348788 -0.5267651236 -1.6758494407
H 0.9638026878 -1.7726473585 -3.7983552176
H -0.0063804976 -2.6255403937 -2.5580319901
H 2.3885295871 -1.1234421881 -1.7420875558
H 0.4163502962 -2.1407562214 -0.1720529542
H 1.2714280263 -0.7075118953 0.4122518486
H -1.3498424109 -0.4764217917 0.3581114666
H -1.2114276798 1.8293122217 -0.5898672323
H 0.1838411308 1.5259776978 0.4780467278
H 1.3550609048 0.7253434181 -3.2418170127
H -1.073785373 -0.1564738408 -3.6654026541

