# b3lyp 6-31G(2df,p) opt Freq 

 titel

0 1
O -1.8693095196 2.4601394844 0.7828798792
C -1.3084772631 1.1651448131 0.9141659724
C -1.9412454855 0.2420861468 -0.1462715189
C -1.8951650764 -1.1556711843 0.4435527587
C -0.6369952662 -1.6318730379 1.0875046831
C -1.7116327663 -1.000038614 1.967003483
C -1.5976486433 0.4811491174 2.2738408675
C -2.461936031 -1.8846005939 2.8760014573
O -2.9924709962 -1.5317382537 3.9021074575
H -1.4207643648 3.0462982555 1.4002703647
H -0.2212732892 1.2159565469 0.7530695653
H -2.9821248046 0.5526337282 -0.2881605605
H -1.4373201397 0.3198107612 -1.1145714468
H -2.5817578025 -1.9031672217 0.060768254
H -0.505885895 -2.7053151248 1.1835914455
H 0.2902278325 -1.0849480833 0.9531219861
H -2.5582155725 0.8384176444 2.6591490152
H -0.8358273866 0.7058793217 3.0277277158
H -2.51718326 -2.9462941859 2.5347786308

