# b3lyp 6-31G(2df,p) opt Freq 

 titel

0 1
O -0.5263506325 2.0922303234 1.0990332351
C -0.8729520167 1.2191184236 0.06649378
C -0.9136650898 1.8182818318 -1.3767541975
C -2.3374865542 1.2324075734 -1.5775302087
C -2.3586100753 0.7530845255 -0.0943670732
C -2.3730912843 -0.7764253716 0.111220029
C -0.9509978858 -1.2460096545 -0.2712635536
C -0.0796565356 -0.0846569433 0.1831416183
O 1.0167810311 -0.1350229764 0.6873445369
H 0.3527026634 1.8131854783 1.398374744
H -0.8996602779 2.9080811448 -1.3083259789
H -0.1332972469 1.5003992051 -2.0741474238
H -3.1042736379 1.9640429099 -1.838212894
H -2.392989132 0.4154564376 -2.3025274939
H -3.0743027196 1.2790379015 0.5382719223
H -2.5604641156 -1.0099198936 1.1653447588
H -3.1535611072 -1.2678930342 -0.4768744002
H -0.6322104748 -2.1845174281 0.1850074566
H -0.8515383583 -1.3548732933 -1.3594097671

