# b3lyp 6-31G(2df,p) opt Freq 

 titel

0 1
O 1.3193811299 0.2793559671 -0.233663603
C 0.1538642219 0.0657663679 -0.1443546333
C -0.7783961897 -1.1448227166 -0.081309557
C -1.887599019 -0.0792810716 0.0256736799
O -0.8617037202 0.9820256284 -0.0497765937
C -2.8941760543 0.0274612429 -1.0889353861
C -3.9202658902 1.1961528128 -1.0653604023
C -5.0089412015 0.1991513697 -1.5464371991
C -4.0927519737 -0.9672799234 -1.08573345
H -0.7863427043 -1.7523700756 -0.9884579376
H -0.6252699113 -1.7854869234 0.7883572464
H -2.3722588177 -0.0300699951 1.0060682913
H -2.3697849611 -0.0021767132 -2.0506887317
H -4.1071367157 1.5389752262 -0.04256197
H -3.7045966376 2.0664751561 -1.6876018514
H -5.9995516199 0.2717534267 -1.0929140449
H -5.1237730063 0.2167698818 -2.6337157231
H -4.3367574731 -1.2939115586 -0.0691670225
H -4.0202731964 -1.8505614121 -1.7242413318

