# b3lyp 6-31G(2df,p) opt Freq 

 titel

0 1
C -0.2658251146 0.1444645757 0.0780357049
C 1.202359086 -0.092038506 -0.2077314819
C 2.0420698519 -0.6533484563 0.9359072714
C 3.5299322505 -0.8963246518 0.5078098615
C 4.4738518469 -1.872780459 1.1265281742
O 3.671088715 -0.5922739332 -0.8961569938
C 3.6638680879 0.4865472436 0.0543040882
C 2.1864335755 0.7988095212 0.4814560521
O 1.8044421204 1.9894079538 1.0664112095
H -0.4257935539 0.5011925629 1.0988718248
H -0.6728800421 0.9008830731 -0.6006217507
H -0.8395543764 -0.777673465 -0.0606435399
H 1.4316859864 -0.4305500581 -1.2120874192
H 1.5936852196 -1.0590301811 1.8342168912
H 4.469243642 -1.7777369843 2.2175213757
H 4.1862711121 -2.9010561403 0.8791934895
H 5.490312542 -1.70283477 0.761874453
H 4.4986573254 1.1805238109 0.0436445859
H 2.2647718354 2.0829907239 1.9077809236

