# b3lyp 6-31G(2df,p) opt Freq 

 titel

0 1
O 1.482538717 1.5722435485 -1.895534593
C 2.078159101 0.391993028 -1.4803633452
C 2.1647594397 -0.7477215165 -2.4752531816
C 3.4246674826 -0.0196564182 -2.1054386803
C 4.0873942539 0.9293956842 -3.0481869438
C 5.380471437 0.5401273795 -3.7255415299
C 5.3779504152 1.6057713165 -2.6582521606
C 1.8954480806 0.1033959368 -0.0482584357
O 1.3308991213 0.8795509445 0.692535011
H 1.1768483372 1.9946217058 -1.0767938638
H 2.0122539489 -1.7634194806 -2.1249132846
H 1.7208463632 -0.5227492397 -3.4390359095
H 4.1055192424 -0.5518533722 -1.444094409
H 3.3940953807 1.5265156124 -3.6301460294
H 5.812560125 -0.4239566974 -3.4779921303
H 5.5272748306 0.8388187016 -4.7576067428
H 5.8097402566 1.3571518843 -1.6940370277
H 5.5236343817 2.6383671634 -2.954522691
H 2.3232872854 -0.8533129709 0.3160543273

