# b3lyp 6-31G(2df,p) opt Freq 

 titel

0 1
C -0.810390007 2.2079193897 -1.1822758792
C -0.9822303796 1.1803764434 -0.0630237841
C -2.3957117423 0.5978339927 0.1318733971
C -2.1697368286 -0.8250724473 0.6469253924
O -2.8872972834 -1.4330980852 1.3978776362
C -0.8462744029 -1.3283150898 0.0723570257
C -0.1074717853 -2.3839746644 0.8889131405
C -0.0640600439 -0.04568516 -0.2255343265
O 1.1010651083 0.0053852189 -0.525100089
H -1.1644166491 1.8072683808 -2.138477888
H -1.3744475837 3.1203969063 -0.9695287247
H 0.2453303284 2.4665964527 -1.2941998325
H -0.6585987551 1.6382336029 0.8839044827
H -3.0390319205 1.1627909025 0.8087588958
H -2.9148884673 0.5276090013 -0.8343197582
H -1.0978586626 -1.7413484465 -0.9201592238
H 0.1331196969 -2.0045474342 1.8861400896
H -0.7281740972 -3.2741772554 1.0101729773
H 0.8265274448 -2.6563320483 0.3926653089

