# b3lyp 6-31G(2df,p) opt Freq 

 titel

0 1
C -2.2088403754 -6.1489031515 -3.2186609302
O -1.5944431129 -5.0306382274 -2.6209499035
C -0.8329239282 -5.3890992978 -1.4843439065
C -0.2217202815 -4.207929654 -0.892700628
C 0.287053648 -3.2433714787 -0.3820336411
C 0.9162444786 -2.0970268461 0.2122847514
O 0.2633031644 -1.4810619998 1.3399043202
C 0.3239991434 -0.7441609969 0.1216990698
C 1.1711256642 0.5007078766 0.1129235633
H -2.9019604936 -6.6545138447 -2.5274203314
H -2.7720709918 -5.7848218584 -4.080561814
H -1.4683869105 -6.8885646463 -3.5631540222
H -1.4709625383 -5.8889902742 -0.7342510839
H -0.0475680428 -6.1151173589 -1.7596855694
H 1.9992498561 -2.1601329278 0.3185518737
H -0.6347537324 -0.6715218543 -0.3931963317
H 2.1243613803 0.3274814378 0.6194951689
H 1.3701142635 0.8225590013 -0.9146491388
H 0.6534922288 1.3169280612 0.6275959233

