# b3lyp 6-31G(2df,p) opt Freq 

 titel

0 1
C 3.1828907358 -2.2644323102 2.1920531745
C 2.7626319497 -0.8336349009 2.5107563433
O 3.3613954724 -0.4697963589 3.7410963923
C 3.1643521521 0.1586576038 1.4153683262
C 2.4462891853 0.0595764949 0.0722854212
C 0.9902018344 0.0944829395 0.1715009321
C -0.2086466268 0.1206310259 0.2484139278
C 4.4971548577 0.7706353549 1.4597489405
O 3.3368555843 1.4977334298 1.9045744484
H 2.926582985 -2.9132665558 3.0333421199
H 2.6693264589 -2.6409638259 1.3030072062
H 4.2636466245 -2.3240145608 2.0307458985
H 1.6651780315 -0.7929969404 2.5952170817
H 3.2516128469 0.4879010115 3.8141728753
H 2.7904885979 0.8888662102 -0.5557431817
H 2.7571542154 -0.8646124609 -0.4316297625
H -1.2681199878 0.1494075169 0.3151520394
H 5.184165249 0.480402315 2.250090863
H 4.9507294837 1.1474961814 0.5447140241

