# b3lyp 6-31G(2df,p) opt Freq 

 titel

0 1
C -0.9616235387 -1.2410186599 -0.2389745297
C -0.3318847673 0.116389472 -0.2113927049
C 1.060654341 0.5622053281 0.3182752321
C 0.4272054463 1.7273078178 -0.472000401
O 0.0188748935 0.7554869319 -1.5101821576
C -0.9422475769 1.4916416554 0.223119198
C -1.2024227333 1.8483519017 1.6567702923
C -2.575504786 1.9506026544 2.1740066693
O -1.8235528533 3.1235708521 1.8737854799
H -1.1731629648 -1.583184677 0.7790137647
H -1.9012180707 -1.2165713389 -0.7991832312
H -0.2920858265 -1.9636046797 -0.7151961595
H 1.2128560385 0.665024031 1.3949053671
H 1.905543987 0.0840959807 -0.1790893194
H 0.8734674856 2.662601233 -0.8077997666
H -1.7805578226 1.7912880101 -0.4108681762
H -0.4180569809 1.6239002784 2.3788086291
H -3.414039415 1.7490283977 1.5081204171
H -2.7697223956 1.7729505711 3.2310457163

