# b3lyp 6-31G(2df,p) opt Freq 

 titel

0 1
O 0.5365948362 0.2120356167 0.5861121733
C -0.6288209207 0.7303275583 1.1599936428
C -0.6085075846 2.2580763713 1.1531221416
C -1.5118936663 2.6888597948 2.3219102527
C -1.2472061369 1.6279743286 3.4113903638
C -1.0403598834 0.3096415786 2.6541273585
C -2.299963451 -0.3144734763 2.0516066872
O -1.8695544202 -1.2881416688 1.0847584048
C -1.9442168581 0.0898653459 0.6829199629
H 0.4124248633 -0.7447504993 0.5437359893
H 0.4270099685 2.5690895768 1.3308611041
H -0.9147830338 2.6758983891 0.1891302645
H -1.2989086018 3.7051722893 2.6636318042
H -2.5645471944 2.6686248371 2.0176646221
H -0.3268349052 1.8745528615 3.9525328107
H -2.0493494524 1.5734989213 4.1551174081
H -0.3861607277 -0.4011887015 3.1635641372
H -3.2778774795 -0.4625035488 2.4960667371
H -2.557788562 0.3209411354 -0.1818081249

