# b3lyp 6-31G(2df,p) opt Freq 

 titel

0 1
C -0.237214243 -1.0929549448 -1.2181652726
C 0.8720945528 -0.472413407 -0.406882157
C 2.0125659391 -0.0374407056 -1.3373335463
C 1.0139407548 0.882836551 -2.0953760141
O 1.3253301913 2.2455501851 -1.8363307976
C 0.1691346007 3.0344339808 -1.7023620798
O -0.6127631173 2.6728579031 -0.5960706493
C -1.1799253532 1.374827078 -0.768642455
C -0.1205403871 0.3986483667 -1.1802597421
H -0.0156392528 -1.646451714 -2.1291435388
H -1.0610309028 -1.5054367647 -0.6421011886
H 0.9496015825 -0.6306762903 0.6621224901
H 2.7733717942 0.5737765785 -0.8504480774
H 2.4930030569 -0.8320179464 -1.9166254127
H 0.8863468205 0.7254464693 -3.1772084922
H 0.5076998769 4.05828885 -1.5330265082
H -0.4384136455 2.9824972396 -2.6268298251
H -1.6493438619 1.1026299925 0.1816464526
H -1.9713228062 1.423446428 -1.5374790858

