# b3lyp 6-31G(2df,p) opt Freq 

 titel

0 1
C -4.1454637101 -0.7922914083 1.6255810573
C -3.2208356376 0.3630055284 1.2135822814
C -4.0408488472 1.5819458309 0.8330974171
O -3.876980231 2.6914781432 1.2698927447
C -2.3275079334 -0.0174272541 0.0232023064
C -1.2327079408 1.014210103 -0.4042389375
C -0.2062279219 -0.1267816883 -0.3468377324
O 0.9251141663 -0.2455244563 -0.7138356637
C -1.2227321932 -1.0926958996 0.2873407382
H -4.7358936404 -0.5338070382 2.5095534927
H -4.8403553037 -1.0480198982 0.8175529823
H -3.5627651715 -1.6881758653 1.8588122009
H -2.5840364153 0.6594261587 2.0556040809
H -4.8320905036 1.3759264278 0.0717545156
H -2.9521339288 -0.3035970215 -0.8293536752
H -1.3423683958 1.506910953 -1.373543352
H -1.0424244462 1.7841185014 0.3517601519
H -1.3237215933 -2.0664212209 -0.1982970993
H -1.0170789927 -1.2553617159 1.3516532908

