# b3lyp 6-31G(2df,p) opt Freq 

 titel

0 1
O -4.1559851151 -0.7548037925 1.1311235924
C -2.924257083 -0.0822382712 1.3685895302
C -1.9895222549 -0.8867694787 2.2960383592
C -1.2706795526 -1.8778267991 1.3566643576
C -1.064604029 -1.076872294 0.0536455462
C -2.1158967279 0.0969403927 0.0702311508
C -0.9639310305 1.1489203314 0.1159369635
C 0.0444427693 -0.010544537 0.1333244178
O 1.2378985595 -0.073332077 0.1965516571
H -3.9624184466 -1.6107140001 0.7342873099
H -3.2133910123 0.8780006773 1.8060160944
H -1.2582691192 -0.2143811541 2.7605065449
H -2.5497555574 -1.3699355987 3.0997279969
H -0.3265636249 -2.2490064511 1.7638408923
H -1.8988065854 -2.7551599675 1.160666133
H -0.9971407242 -1.7050483733 -0.8381416947
H -2.7790813065 0.1904807737 -0.7896684844
H -0.877615664 1.7773873015 -0.7758363371
H -0.9288767255 1.8018933375 0.9945735398

