# b3lyp 6-31G(2df,p) opt Freq 

 titel

0 1
C 2.7140310606 -2.7032025291 -0.3708825584
C 3.0234482869 -1.2586631528 -0.7633709712
C 2.4689017382 -0.2276494315 0.2430321574
C 1.0108446343 -0.2696967094 0.3472752367
C -0.1890867666 -0.3071085748 0.4033594665
C 2.9005881614 1.1955021612 -0.1411390247
O 3.2891579805 1.5322330607 -1.2286825178
O 2.7884464871 2.0222361361 0.9120176456
C 3.1229547999 3.3930518228 0.6548927509
H 3.1505967934 -2.9554597614 0.6022067765
H 1.6352865076 -2.8726725537 -0.3072513985
H 3.123749764 -3.3984947532 -1.1092549431
H 4.1056478214 -1.1066282115 -0.833930356
H 2.6151171136 -1.0288644087 -1.7513033342
H 2.8877670735 -0.4256622883 1.2386242121
H -1.2487368077 -0.3388785878 0.4651011616
H 2.9743002857 3.9159023933 1.599434929
H 4.161696582 3.4807567534 0.3267905314
H 2.4728057241 3.8075458947 -0.1194982336

