# b3lyp 6-31G(2df,p) opt Freq 

 titel

0 1
C -3.4209250397 -0.0535579348 -0.7296638452
C -1.8934343621 -0.0529084426 -0.8332986305
C -1.4952187851 -0.0969095912 -2.3108094633
C -1.0765502208 0.9573782998 0.0691671335
C -1.400619042 0.0128556687 1.2868021169
O -0.6285659267 0.0501473921 2.4471541682
C -1.0716451128 -1.0023409566 0.1288458523
C 0.0916627219 -0.0260229747 -0.1136408033
O 1.2803418674 -0.026614329 -0.2301353186
H -3.8157703425 -0.0241821222 0.2860817909
H -3.8279249859 0.8111855757 -1.2648427753
H -3.8235836659 -0.9507431494 -1.2121361673
H -1.8979563738 -0.9957336961 -2.7905583636
H -1.9028608045 0.7687243505 -2.8444263238
H -0.4111271597 -0.0983115425 -2.4554748719
H -1.0827486118 2.0455103394 0.0407417414
H -2.4361588091 0.0202002633 1.6123548684
H 0.3096435091 0.0448793546 2.2200515199
H -1.0723867862 -2.0902067551 0.1666337212

