# b3lyp 6-31G(2df,p) opt Freq 

 titel

0 1
O 0.9678265976 -0.8618916875 -0.2620457886
C 0.2740679381 0.0756730854 0.0263207332
C 0.2920720349 1.4223131094 -0.7031771225
O -0.9270446102 2.0590908549 -0.3832819524
C -0.909180079 3.4776596386 -0.4007680251
C -0.3601173434 4.0835688009 -1.697744979
C -0.7568701493 3.2981806342 -2.9590046155
C 0.028263504 2.0197750289 -3.1444091413
C 0.5207853302 1.2393641488 -2.1846396536
H -0.4417746384 0.057526631 0.8763618368
H 1.1424205662 1.9682646023 -0.2464413691
H -1.9570435377 3.7635892244 -0.2627637017
H -0.3422239705 3.8629151453 0.4625652811
H -0.7220269982 5.1165056215 -1.7634816772
H 0.7335504237 4.1427818597 -1.6552621199
H -1.8347285501 3.0832130474 -2.9471969143
H -0.5913907155 3.9319930036 -3.8374954465
H 0.2225343857 1.7320967668 -4.1755347924
H 1.1054325518 0.3586906247 -2.4348328119

