# b3lyp 6-31G(2df,p) opt Freq 

 titel

0 1
C -0.069700361 0.5438360146 0.0832314489
C 1.2686808775 -0.0967802574 -0.1178336278
C 1.8901359183 -0.9264731549 -1.254602994
C 2.3453965294 -2.0054169303 -0.271641911
C 2.0289921648 -1.0101777538 0.8925373276
O 1.2695524539 -1.4577736992 1.977581169
C 3.2776088554 -0.1830352288 1.2277582664
O 3.6400577868 0.4168745767 -0.017558273
C 2.474605673 0.4077045934 -0.8246360885
H -0.0401326973 1.2827246593 0.8920043274
H -0.3962219992 1.0574526316 -0.826798135
H -0.8290651772 -0.2009592078 0.3428052134
H 1.5174584685 -1.0901836803 -2.260288357
H 1.6439470866 -2.8432143056 -0.2446959215
H 3.3730225687 -2.377154205 -0.3550334609
H 1.7777577168 -2.1238579916 2.4530991505
H 3.0416427508 0.5805029895 1.9852097438
H 4.1214618216 -0.7883617033 1.5794883834
H 2.4249508127 1.2428618528 -1.5135882318

