# b3lyp 6-31G(2df,p) opt Freq 

 titel

0 1
C 1.0727078689 -0.7560909643 -0.7987073468
C 1.0728125676 0.2097770957 0.3759069514
C 1.9712144227 1.4819682649 0.3193677523
O 3.3086007675 0.9710685848 0.0408406617
C 3.3007582995 0.4619335423 1.3813220333
C 4.5572813905 -0.0501121226 1.9942145041
C 2.2130061555 1.3749095595 1.8652805585
C 1.876890086 -0.0913132468 1.6484670555
O 1.5997749954 -1.0047279388 2.6448317685
H 0.6176135337 -1.7128014133 -0.5185079136
H 0.4992156692 -0.3561506468 -1.6421275339
H 2.0949345379 -0.9418846741 -1.1379968703
H 0.0580369061 0.5053465933 0.6648944667
H 1.7104223924 2.3643791536 -0.2606659997
H 4.3477252672 -0.4350760376 2.9964373551
H 4.9754632598 -0.8647858816 1.3919236847
H 5.3137996265 0.7364657539 2.0734976934
H 2.1033867048 2.0469566308 2.7048281676
H 1.9540018587 -1.8617355129 2.3819363115

