# b3lyp 6-31G(2df,p) opt Freq 

 titel

0 1
C -3.6817375643 -0.6058470436 2.5021222238
C -2.6631338699 0.1752185034 1.7097911718
C -1.1726821831 -0.0148854533 1.9795580937
C -0.5509072546 0.9501586995 0.924417758
O 0.1788031398 0.2893113293 -0.1006166635
C -1.8135237024 1.5263328276 0.3115613695
C -2.9110605458 1.6921426838 1.3972357285
O -3.9646538592 1.3559885039 0.4304945876
C -2.8738824421 0.399907119 0.1727641778
H -3.5838653788 -0.408137293 3.5755691569
H -4.6913330706 -0.328609366 2.187931329
H -3.5544906098 -1.6840646579 2.353802358
H -0.906434328 0.2492750303 3.0091652444
H -0.8446499566 -1.0440128563 1.7982067896
H 0.0677312401 1.7277391719 1.395339829
H 0.9754476476 -0.0820609556 0.29119147
H -1.7383921033 2.2714853867 -0.477916318
H -3.0944604204 2.5227252812 2.0815425613
H -3.0119292985 -0.327970541 -0.6268264876

