# b3lyp 6-31G(2df,p) opt Freq 

 titel

0 1
O 1.5200316222 0.8128557373 -0.2293238068
C 0.2006555606 0.4452618996 0.1638744818
C -0.7800103596 0.5543117481 -0.9634729496
C -1.0901918505 -0.5861861897 -1.8964532669
O -0.5913153527 -1.815882004 -1.441959164
C -2.2052010021 0.014423097 -1.0676020622
C -2.6990243455 1.3984542282 -1.5618289605
C -2.0147621327 1.8928819136 -2.8084055994
C -1.2733590263 1.929995519 -1.4966005359
H 1.7949733306 0.1840787308 -0.9049983504
H 0.1687666852 -0.5707858991 0.5770866998
H -0.0681508034 1.1440032162 0.9643062548
H -1.0496145271 -0.4730860062 -2.9774118032
H -1.2386490798 -2.495963514 -1.6554775304
H -2.732944055 -0.595071844 -0.3439329628
H -3.6054821822 1.8560051736 -1.1861083758
H -1.7415107361 1.250670759 -3.6373013966
H -2.3598147957 2.8710184475 -3.1319938646
H -0.91445783 2.8586953869 -1.0714384873

