# b3lyp 6-31G(2df,p) opt Freq 

 titel

0 1
O -0.693240633 1.18357651 0.2880317769
C -1.8396910793 0.3834413122 0.4032129805
C -3.0259088494 0.806840813 -0.4473655158
C -2.2831988949 -0.4529480435 -0.7443907536
C -1.5521424841 -0.9649503163 -1.9954078589
C -1.2132658018 -2.2579337432 -1.1913239078
C -2.7152582384 -1.9350192141 -0.8897213502
O -3.6225641225 -2.6470552428 -0.1326701024
C -2.8956926324 -1.6529372474 -2.4016373973
H 0.0753038589 0.6040172768 0.3051297384
H -2.0575369463 0.0439834446 1.4185636041
H -4.0163105868 0.7489856073 -0.0056590718
H -2.8590896527 1.6655866929 -1.0901008621
H -0.8836148838 -0.3999108798 -2.6390351398
H -1.0198568292 -3.1594536864 -1.778578187
H -0.5086187988 -2.1520268639 -0.3611557453
H -3.2655683802 -2.7516416108 0.7560984845
H -2.8154418594 -2.5161722027 -3.0676499558
H -3.718796486 -0.991522826 -2.6782713265

