# b3lyp 6-31G(2df,p) opt Freq 

 titel

0 1
C -0.2013548822 2.3075308217 1.3863836785
C 1.3260196518 1.9951206219 1.4914594469
O 1.6964410114 1.0140138151 2.4373941879
C 1.0965693028 -0.2745180605 2.3945114313
O -0.0819701865 -0.3916547628 1.6504779946
C -0.0274167603 -0.0224839731 0.2756480205
C 1.3963591516 0.1018519367 -0.3402005199
C 1.3366480539 1.6057524991 -0.0421343921
C -0.2236546586 1.5285079996 0.0673396579
H -0.8314284048 1.9579916562 2.2054361353
H -0.3704957892 3.376405898 1.2246966791
H 1.9584127402 2.8507026642 1.735367007
H 1.8516348273 -0.9911008724 2.0396481208
H 0.8182866561 -0.5331078613 3.4213596269
H -0.7359870476 -0.6745079211 -0.2386140216
H 2.2137805661 -0.5007651844 0.0592836787
H 1.337186298 -0.0736116492 -1.4186443592
H 1.8682892979 2.3086193539 -0.6853103792
H -0.898640678 1.8092124987 -0.7421434836

