# b3lyp 6-31G(2df,p) opt Freq 

 titel

0 1
C 1.6223586585 -0.0932483935 -0.0637426528
C 0.9549662759 0.4350146026 -1.3715110304
C 1.1007979161 1.9642277446 -1.2534156404
C 0.2261208445 2.567691941 -0.138316919
O 0.7566883332 3.8556406709 0.0748929186
C 2.1852999734 3.654581796 0.0890648165
C 2.3560944195 2.2002696571 -0.3702259464
C 1.843665798 1.2124767089 0.7030493026
O 0.5211928142 1.7428917906 0.990351154
H 0.9811798791 -0.7729773444 0.501201868
H 2.5695218085 -0.6049080843 -0.2661662548
H 1.4639603805 0.0649561821 -2.2655631992
H -0.0939443181 0.1352719186 -1.4505109443
H 1.0447416284 2.5246310396 -2.1866719915
H -0.8528898959 2.6434868734 -0.2682723588
H 2.6540060675 4.3708723544 -0.5951924112
H 2.577030714 3.8283983342 1.0988951325
H 3.3276660879 1.9532046801 -0.7987417685
H 2.4094871247 1.1465242782 1.634137195

