# b3lyp 6-31G(2df,p) opt Freq 

 titel

0 1
C -1.1389264962 1.8159706023 -1.2296806955
C -1.1298811443 1.0719550577 0.1131040344
C -1.0846357088 2.0495923858 1.2798484618
O -2.2548091913 2.8552012962 1.2250679004
C -2.170596868 -0.0717812433 0.1596077241
C -1.9490669027 -0.96853309 1.3207477775
C -1.0532294313 -1.1489409835 0.0992801872
C -0.0405800838 -0.0474417067 0.0626762581
O 1.1423283113 -0.0047321057 -0.1332397473
H -1.2227106848 1.1178723887 -2.0683722904
H -1.9807011671 2.5113435218 -1.2648225641
H -0.2113170511 2.3824273459 -1.3540176641
H -1.0255182959 1.5117930606 2.2375238094
H -0.1702899721 2.6565018899 1.1912361948
H -2.2121302329 3.4983803868 1.9386351448
H -3.0882714726 -0.0740572321 -0.4137142098
H -1.5359801753 -0.5999723207 2.2542955408
H -2.6684667968 -1.7709125064 1.4498424532
H -1.0030968364 -2.0941313074 -0.4267391052

