# b3lyp 6-31G(2df,p) opt Freq 

 titel

0 1
C 2.2999357785 -0.1984978256 -1.3793571677
O 3.3795791395 0.0917939227 -0.4913184191
C 3.160872805 0.9784513849 0.5832620409
C 2.1998839305 2.1179288886 0.2323678857
C 0.8495990377 1.514268056 -0.0953270139
C 0.9312344778 0.2456329418 -0.904738203
C 0.5442609828 0.181472469 0.5550010231
C 1.4849662513 -0.3879579004 1.6053293188
O 2.7144021612 0.3150004076 1.746461438
H 2.510456174 0.2756538343 -2.3502619602
H 2.3128255632 -1.2840260198 -1.5429301682
H 4.1511490396 1.3560047803 0.8504314388
H 2.1431242542 2.7936574036 1.0914819986
H 2.5933025262 2.6864545364 -0.6188638775
H 0.0306448931 2.2035342426 -0.2749500927
H 0.1449306366 0.0458452255 -1.6273684139
H -0.5009935427 -0.0400702304 0.7484485912
H 1.0029123496 -0.3467561611 2.5883395543
H 1.6918562216 -1.4469792758 1.3878590466

