# b3lyp 6-31G(2df,p) opt Freq 

 titel

0 1
O 0.4381478802 -0.9578656762 -0.1891099544
C 0.4631933092 0.2281023168 0.0131290293
C -0.2541149837 0.9367090133 1.1408704832
C -1.1007456444 2.127953225 0.6473922229
C -2.2824775572 1.6573046237 -0.2150893631
O -3.1593865259 2.7260126834 -0.513317459
C -3.8054870066 3.2379134303 0.6360888341
C -2.8759546908 3.4246263684 1.8027194476
C -1.6351729166 2.9443429538 1.7995438999
H 1.0508104323 0.9095974415 -0.6483322493
H -0.8576275274 0.2097148944 1.6929380622
H 0.5207416059 1.3178917277 1.8223644713
H -0.4528291324 2.7664183738 0.026949604
H -1.9444765829 1.2610755503 -1.1774457047
H -2.8174915535 0.8492936551 0.3123566865
H -4.2409199505 4.1987882943 0.336941194
H -4.6490851799 2.5858248436 0.930316619
H -3.2649308981 3.977416596 2.6537425967
H -0.9726889376 3.1139756845 2.64535674

