# b3lyp 6-31G(2df,p) opt Freq 

 titel

0 1
O -4.7851097691 -1.3254084674 -2.4028153999
C -4.3164773239 -0.7120782395 -1.2378779737
C -4.2752719301 0.7834821502 -1.2556892571
C -2.9793887961 -0.0088733333 -1.2447513456
C -2.085630886 -0.0158591166 -0.0359061444
C -0.9805902474 -1.1223634946 0.0446964647
C 0.0270235309 -0.0175106434 0.4011091746
O 1.1369353112 -0.0209167477 0.8472276602
C -0.9804311017 1.0902547583 0.0576429862
H -4.3269425604 -2.166677196 -2.5017599045
H -4.6206386918 -1.1939333466 -0.3073708754
H -4.5598404025 1.2613416734 -2.1858995504
H -4.5646320053 1.3185519474 -0.3573539255
H -2.4601393179 -0.0441489728 -2.2006789076
H -2.6931560567 -0.0192160663 0.8744720049
H -1.0987057494 -1.9257761609 0.7760985629
H -0.7532792177 -1.5706747503 -0.9298120939
H -1.0990315024 1.8856975946 0.7975011155
H -0.7567921237 1.5496352115 -0.9121109811

