# b3lyp 6-31G(2df,p) opt Freq 

 titel

0 1
C -0.3138559515 2.3627395813 -1.885586511
O -0.6066462498 3.5096035379 -1.0830033555
C 0.3188500415 2.5433188077 -0.5755749209
C -0.119905187 1.7729155388 0.6416036929
C 0.2177224705 2.4639452564 2.0052402272
C 1.4074337174 1.4781560802 2.2150289341
C 0.8575515221 0.6546809978 1.0497708528
C 0.6822407263 -0.793244265 0.9340546429
O 1.6469695667 -0.0893216214 0.1385386224
H -1.1290678927 1.6482042001 -1.9935452353
H 0.254429102 2.5572330542 -2.7937721185
H 1.3542650319 2.8891891261 -0.5620774412
H -1.1631180379 1.4698450645 0.5155302254
H 0.4710635982 3.5238241706 1.9445862327
H -0.5763539744 2.3359981253 2.7430174745
H 2.3772437054 1.9221603943 1.9724418123
H 1.4844839334 0.9812883126 3.1848987081
H 1.0991613997 -1.4509142 1.6960654295
H -0.1700608818 -1.1953824314 0.3871284577

