# b3lyp 6-31G(2df,p) opt Freq 

 titel

0 1
C -3.4990524252 0.530776754 0.6177186158
C -2.5492513463 0.9526822535 1.7169764563
C -3.1736403175 1.4025245354 3.0395859636
O -2.0174627456 1.717345126 3.8205873367
C -0.9672390653 1.4331915615 2.9204002167
C -1.3284416365 1.9241481575 1.4835450194
C -0.5247387732 0.7485187841 0.9131941637
O 0.8737176057 0.9141155669 0.9890530883
C -1.2683409892 0.1279499499 2.1212437865
H -4.1183976052 -0.3128159649 0.9434655339
H -4.175903953 1.3515444577 0.3542086279
H -2.979566933 0.2261687194 -0.2944892336
H -3.8124730226 2.2890035598 2.9282918391
H -3.7580799983 0.609346092 3.5248490321
H 0.0030461467 1.626180129 3.3665412782
H -1.366363662 2.9518255999 1.1197437127
H -0.8266869466 0.3886184796 -0.0766036998
H 1.2888014404 0.0806724687 0.7467754336
H -1.2421842532 -0.9002386099 2.4876829888

