# b3lyp 6-31G(2df,p) opt Freq 

 titel

0 1
O -1.8326457992 2.4746716987 -2.9785579177
C -1.8830839095 2.9370824016 -1.6507049574
C -3.1642167886 2.6085948491 -0.8719089559
C -3.0390954473 3.0871945068 0.5494070116
C -2.3661019175 1.8048020741 0.1594990231
C -1.0548003108 2.1081966523 -0.5876194069
C -0.3440660124 0.8779989254 -1.163180413
C 0.3907323725 0.1405905287 -0.0675879199
O 0.1089186397 -0.9602562929 0.331541696
H -2.2198963838 1.5930440689 -3.0096179661
H -1.6233982102 3.9993946979 -1.7071417277
H -4.1255913997 2.4048780046 -1.3302259114
H -2.4462596734 3.9704709629 0.7790964515
H -3.935109823 2.9862864328 1.1531515765
H -2.6056648236 0.8582071305 0.6297368994
H -0.3355960936 2.7060539702 -0.0120265032
H -1.0483587887 0.1807730317 -1.6267750237
H 0.3792495799 1.2032565401 -1.9216141373
H 1.2338389192 0.7142713867 0.3846593222

