# b3lyp 6-31G(2df,p) opt Freq 

 titel

0 1
C -2.1041610733 2.8181083775 -1.7454194978
C -1.2235947952 1.5760773023 -1.5048391599
C -0.2595494957 1.7972568397 -0.4292619967
C 0.522838063 1.979123674 0.4651167436
C -2.0899480718 0.3341435145 -1.2093261065
O -2.8448963716 0.077052399 -2.392612191
C -1.2898291791 -0.9354628779 -0.8563435577
C -0.2136209728 -1.3665660006 -1.8316617039
O -1.5775206368 -1.5753975053 0.1281967326
H -2.6545068064 3.0797031718 -0.8367440328
H -1.487264258 3.6747915297 -2.027325792
H -2.8188421041 2.6136833533 -2.5447767292
H -0.673131946 1.3643394298 -2.4311998039
H 1.2150496858 2.1361968277 1.2550951602
H -2.7442908006 0.5405497925 -0.3524053165
H -3.5358055662 -0.5565193117 -2.1727153241
H 0.0791361125 -2.3963677722 -1.6238518439
H -0.5658892953 -1.2667111414 -2.8619465325
H 0.6617761918 -0.7178402727 -1.712843648

