# b3lyp 6-31G(2df,p) opt Freq 

 titel

0 1
O 1.0819942237 -2.8519368769 -1.0238754943
C -0.273078117 -2.5745920607 -1.1904270718
C -1.1723426143 -2.54754516 0.0206406921
C -2.6366675745 -2.4329371427 -0.4079946441
C -2.2930769218 -1.12065798 -1.1884583222
C -0.8264394459 -1.2439019163 -0.7471838398
C 0.0061229267 -0.0829188015 -0.3446946422
C 1.1873801288 0.3608971565 -1.1054360724
O 1.3415422409 -0.3582672934 0.1286417723
H 1.4532940608 -2.1750493638 -0.4359800106
H -0.6412390189 -3.0239165667 -2.1133702503
H -0.7967721821 -2.8894729666 0.9783895459
H -3.0241051319 -3.2679948432 -1.0015448674
H -3.3219988207 -2.2515212188 0.4224914994
H -2.467181609 -1.124663272 -2.269702379
H -2.7891351709 -0.2441330508 -0.7622986037
H -0.5081774239 0.6697724935 0.2561561735
H 1.4796322367 -0.194066022 -1.9936235284
H 1.5018971335 1.4018443253 -1.066358237

