# b3lyp 6-31G(2df,p) opt Freq 

 titel

0 1
C 0.5024921811 -1.7773168723 -1.3586870357
C 1.610812853 -1.0041952294 -0.6871380713
C 2.0025689154 -1.3538887544 0.7640387507
O 3.4066197143 -1.4444837343 0.4336574572
C 3.1577061726 -1.1311928867 -0.9464250401
C 3.2637872294 0.3825949986 -1.2081451789
C 2.9028593975 0.7921071114 -2.6449205057
O 1.4899447158 0.8465993489 -2.3345774986
C 1.7273869805 0.5177236556 -0.9529233138
H -0.4555298117 -1.5981027439 -0.8550256405
H 0.3931238035 -1.4649913061 -2.4003643146
H 0.6959817719 -2.8548023096 -1.3307824492
H 1.800098823 -0.5883430065 1.5253300375
H 1.6119982386 -2.3169502945 1.1172319599
H 3.6478902653 -1.8270863948 -1.6346946267
H 4.0484373205 0.9242474289 -0.6828726518
H 3.2795264384 1.7755714148 -2.9506920923
H 3.1293399024 0.0634360664 -3.434163536
H 1.2339216384 1.2131027579 -0.2666131105

