# b3lyp 6-31G(2df,p) opt Freq 

 titel

0 1
C 2.5955912484 0.3748830253 -1.4046240603
C 1.3196883253 0.7050051808 -2.228151684
C 0.4450531862 0.0627873326 -1.1102336091
C 0.0625070178 -1.3675585075 -1.3954478937
O -0.5108179346 -2.0972148276 -0.3032906766
C 0.7893027175 -2.4725487937 -0.7502145214
C 1.9414486011 -2.1875006535 0.1876808129
O 1.9235981295 -0.8888326069 0.7424395665
C 1.6794812092 0.1577310995 -0.1645580919
H 3.0711051704 -0.5493816699 -1.7414595926
H 3.3641339802 1.1457045686 -1.3203809289
H 1.142608332 1.7789292609 -2.3186616197
H 1.2443829775 0.2589660048 -3.2232107035
H -0.4443864758 0.622102836 -0.8065639001
H -0.4251431246 -1.549549777 -2.3551181777
H 0.8431619062 -3.4410500901 -1.2509005561
H 1.9066891645 -2.8744091215 1.0400552571
H 2.8822098646 -2.384623053 -0.353244211
H 1.6383336947 1.058977012 0.4516148901

