# b3lyp 6-31G(2df,p) opt Freq 

 titel

0 1
C 0.9767147006 -0.017236021 0.8986595391
C 0.8306111645 0.163516665 -0.6184535843
C 1.7106730782 -0.781246258 -1.4167121566
C 1.4183193413 -2.2713341608 -1.2905545529
O 0.0528845141 -2.5811017147 -1.5243492123
O 3.1093708293 -0.474767905 -1.3932331426
C 2.395504964 -0.2656901312 -2.6289613901
C 2.7529306842 -1.0891337104 -3.7520211784
C 3.0469071719 -1.7459481796 -4.7151119484
H 0.6434623928 -1.0063076364 1.2317068824
H 2.0215416281 0.1009901601 1.2003802387
H 0.3805800606 0.7259303743 1.43561711
H -0.2101912288 0.0110123121 -0.9268287502
H 1.0919884788 1.192211137 -0.8864389267
H 1.9999780337 -2.8151346659 -2.0379433063
H 1.7509410111 -2.6152334773 -0.3008625864
H -0.4424742831 -2.3899248506 -0.7228244555
H 2.2446034634 0.786363427 -2.8718206409
H 3.3055811854 -2.3328408847 -5.5617810285

