# b3lyp 6-31G(2df,p) opt Freq 

 titel

0 1
C -0.0728166166 -0.0507286706 0.0137216739
C 1.461048497 -0.0414148463 -0.0704734958
C 2.0650512135 1.3829512363 -0.0772028392
O 3.3736115688 1.2342424622 -0.5903252275
C 3.3720745817 0.1789680165 -1.5501623746
C 2.0254382942 -0.5586008353 -1.4411367259
O 1.2276111998 -0.1534660682 -2.5421924972
C 2.0396114356 -0.8383589527 1.010067919
C 2.5036380541 -1.5166240896 1.8878889895
H -0.4049307001 0.377724546 0.9632463607
H -0.5024308792 0.5382514386 -0.8002416268
H -0.4635014041 -1.0720480907 -0.0381542236
H 1.4490014212 2.0298624624 -0.7215961531
H 2.1348062684 1.8278924608 0.9180885128
H 3.475505811 0.5739608145 -2.5680477031
H 4.2196645193 -0.4786898457 -1.3339628012
H 2.1501378609 -1.6473813491 -1.4281912855
H 0.4294626203 -0.6910190959 -2.5517351388
H 2.9200892643 -2.1030650634 2.6691616366

