# b3lyp 6-31G(2df,p) opt Freq 

 titel

0 1
C 1.6034723546 1.3071578502 0.4227133665
C 1.1217299396 -0.1261199864 0.1790112186
C 1.6484128741 -0.7518139601 -1.1223585806
C 1.105530274 -0.1375755531 -2.3977271935
C 0.7683398147 -1.0385779596 -3.3329802534
C 1.0527719243 -2.3896248454 -2.8166497142
O 1.1503655338 -3.4431136401 -3.4079701421
C 1.3043455932 -2.2439573631 -1.3099819012
O 2.2871728407 -3.1344665989 -0.8525716149
H 1.2208790128 1.6906614836 1.3731283648
H 2.6972311256 1.3545233195 0.4610676726
H 1.2695035715 1.9928934089 -0.3631826091
H 1.4438753297 -0.7633647257 1.010754033
H 0.0243285538 -0.1563763768 0.1743217664
H 2.7445901441 -0.6674055004 -1.1298252134
H 1.0254401377 0.9372487805 -2.5241033855
H 0.408440224 -0.8397876268 -4.3342283404
H 0.3353040127 -2.4347693323 -0.8114628057
H 2.2679184393 -3.8792668741 -1.4718817581

