# b3lyp 6-31G(2df,p) opt Freq 

 titel

0 1
C 1.4779359138 -0.0077555158 -0.0218728998
C 0.0235747488 -0.030247055 -0.0340821383
C -1.1779257142 -0.0549088881 -0.0564290952
C -2.6357378053 -0.0636106748 -0.0418606018
O -3.0887370723 -1.4004354327 -0.0745991433
C -4.5091794242 -1.4634736494 -0.0119952524
C -5.1315375178 -0.6622530426 -1.1573332206
C -4.5336611017 0.7460900335 -1.1430501697
O -3.1118238238 0.6834197556 -1.1412545067
H 1.8622631693 0.401705625 0.9185732391
H 1.8879033111 -1.0165807601 -0.1397075783
H 1.8683590853 0.6083301577 -0.8390124116
H -3.011773784 0.4088187184 0.8892406915
H -4.7714006048 -2.5231444912 -0.060543247
H -4.8579590138 -1.0692642327 0.958318163
H -4.8956873374 -1.1473164801 -2.1100173427
H -6.2214496875 -0.6204453659 -1.0520821461
H -4.8139783753 1.3215600828 -2.0286438513
H -4.8842071861 1.2965853454 -0.2527538485

