# b3lyp 6-31G(2df,p) opt Freq 

 titel

0 1
C -2.2578471534 1.6879779492 -3.3834635299
C -0.982759447 0.8839661584 -3.49655691
O -0.4258083392 0.6546303457 -4.5454201761
C -0.3820045414 0.3742859572 -2.1887523956
C 0.1310746991 -1.0794291648 -2.1768874794
C -0.9279895929 -1.275611203 -1.0974276166
C -1.8865660948 -2.3930898782 -0.8636350998
C -0.8619719635 -2.0069330389 0.1992909047
O -1.3672729886 0.0896861783 -1.1657578327
H -3.035732976 1.0786244547 -2.9142804996
H -2.1035339513 2.5483650086 -2.7218515795
H -2.5733197577 2.0262485734 -4.3708163158
H 0.3438340381 1.1236151723 -1.8400955443
H -0.0284947481 -1.6143050551 -3.1142435087
H 1.164217436 -1.2089214183 -1.8518503717
H -2.9208981105 -2.1258354377 -0.6750455296
H -1.7475116248 -3.3193212608 -1.4118620689
H -1.230511346 -1.4881641482 1.0777512349
H -0.022106588 -2.6702445128 0.3802772986

