# b3lyp 6-31G(2df,p) opt Freq 

 titel

0 1
C 1.5051373962 -1.6158851705 -1.1955860952
O 0.1803011555 -2.1516772436 -1.2070549565
C 0.3345669744 -0.729425628 -1.2372031654
C -0.1396208636 0.0253559585 -0.0427694119
C -1.4598601876 0.7712510259 -0.0964766985
C -0.1713571889 1.5273030161 -0.0645338504
C 0.3447687772 2.5028393455 0.9884094742
O 0.8713017709 3.368218714 -0.0414250895
C 0.4084823436 2.4957947046 -1.0945050027
H 2.0501335763 -1.7381563107 -0.2600520077
H 2.0908122379 -1.7888570595 -2.097612537
H 0.0768874324 -0.2800325811 -2.1988269688
H 0.1181580374 -0.4411749003 0.9049808632
H -2.0132842133 0.7475656119 -1.0311828051
H -2.0829870077 0.7723881971 0.7921198214
H -0.4229373558 3.0032214543 1.5935449874
H 1.1349165715 2.1240872972 1.6504311481
H -0.3214669064 2.9913927798 -1.7481993536
H 1.2386612701 2.1175230889 -1.7056260421

