# b3lyp 6-31G(2df,p) opt Freq 

 titel

0 1
C -3.0275728283 1.9705539892 -1.5571706392
C -2.3462235002 1.3471387476 -0.3836450476
O -3.1388996112 0.5399799674 0.5130666536
C -1.9632889475 -0.0429045569 -0.06133768
C -0.7745101011 0.425641913 0.8131825327
O 0.5077391594 0.0303616525 0.3915406487
C -1.1918647192 1.8806136518 0.4564129271
C -1.1167627276 3.1279542169 1.2775281509
C -0.2172865275 2.9583467874 0.0731376012
H -3.7089035836 1.2536610928 -2.0224722807
H -3.6145042571 2.8436919845 -1.2496349947
H -2.2986724473 2.2999789098 -2.304445269
H -2.0671011729 -0.9668786524 -0.6211500965
H -0.8590686531 0.1450983997 1.8657608616
H 0.6437814896 0.3710080864 -0.5000346556
H -1.9344594932 3.8384470623 1.2101888741
H -0.6656010587 3.0585442072 2.261904509
H -0.4240322668 3.5567662676 -0.8086622353
H 0.8360877963 2.7614283132 0.2468553798

