# b3lyp 6-31G(2df,p) opt Freq 

 titel

0 1
C -0.0232820762 0.1926325593 0.0449779818
C 1.4659677112 0.0516343321 -0.0454420894
O 2.1917675653 -0.1091245704 1.1922650192
C 2.4895587568 1.0182464868 0.3483913617
C 3.5744913809 0.7719815006 -0.7361053316
O 4.7000372634 1.58997014 -0.7633532968
C 2.6616426629 0.7099311986 -2.0007770217
C 2.1530164626 -0.5897298205 -1.2833707334
C 3.6210915967 -0.7832227031 -0.8132216131
H -0.3014140013 0.8375288129 0.8822655636
H -0.427693386 0.6203218911 -0.8786364875
H -0.4963732704 -0.7846062987 0.1939806836
H 2.3143592249 2.0071675345 0.7620042434
H 5.1717732622 1.4861419395 0.0702212936
H 1.9491090752 1.5260506193 -2.1537096421
H 3.2228185376 0.5127273715 -2.9171819868
H 1.6121037498 -1.3684179401 -1.8186080981
H 3.7997196366 -1.3485413645 0.0994570265
H 4.266597598 -1.1129219986 -1.6288743728

