# b3lyp 6-31G(2df,p) opt Freq 

 titel

0 1
O -3.1462171926 -0.7630800423 -1.4228307666
C -2.0207873634 -0.988784658 -0.629623631
C -0.9918759378 -1.9922942469 -1.0726174465
C -0.6784479598 -0.5015670818 -1.1103803435
C 0.0430025131 0.0617718499 0.078681081
C 0.781498563 1.3292249346 0.0230796071
O 1.4719098713 0.0767362443 0.1052503156
C -0.6841446073 -0.4346819898 1.3308321228
C -2.1333325927 -0.6932691506 0.8641830724
H -3.7374158288 -1.5172396023 -1.3226812875
H -0.4898990901 -2.62928723 -0.3513783751
H -1.1680102584 -2.4496170971 -2.0398328334
H -0.5713015791 -0.0266229803 -2.0778414613
H 0.8843599943 1.8580715536 -0.9244421985
H 0.844825228 1.9585255062 0.9107369769
H -0.2077400601 -1.3624564963 1.6653100974
H -0.621209693 0.2730573773 2.1603633735
H -2.6217765687 -1.4961582628 1.4279880003
H -2.7452924479 0.2084774323 0.9755953064

