# b3lyp 6-31G(2df,p) opt Freq 

 titel

0 1
O 0.5128490761 -0.1240950016 0.6702366672
C -0.4056037197 0.8549658377 1.1358638776
C -1.4492114436 0.2499196362 2.0952019643
C -0.9274042342 0.0782479739 3.4971876516
C 0.1833382331 0.6653310247 3.9467925874
C 1.0007767671 1.552020455 3.0830614545
C 2.1406213713 2.2972083612 3.6342876638
O 2.3790351388 1.0938000315 2.9090720682
C 0.3199633116 2.0255788818 1.8131697233
H 1.20100815 -0.2416203832 1.3346472962
H -0.9211429543 1.2127283038 0.2382116708
H -2.3505579083 0.8809800476 2.1121185795
H -1.7655992792 -0.7187300147 1.6922116681
H -1.4965440407 -0.5676015805 4.1616430395
H 0.5469709852 0.4828353508 4.953890492
H 2.4653341761 3.2145906737 3.1431287901
H 2.3519811421 2.2478957476 4.7024162126
H -0.405466957 2.8096437077 2.0640976545
H 1.0641993956 2.4517188869 1.1346564589

