# b3lyp 6-31G(2df,p) opt Freq 

 titel

0 1
C 1.3261379775 0.8009288684 -0.0528173362
C -0.0960696275 0.3267210439 0.0472921198
C -1.1249895531 1.119908285 0.3485957657
C -2.533373484 0.6087269074 0.4890657844
C -2.5149619292 -0.9161674183 0.6147860209
O -1.6778590777 -1.5071545531 -0.3605165654
C -0.3172508801 -1.1452701614 -0.2100749507
C -3.8840833667 -1.5574375841 0.4597824081
O -4.9077806038 -1.0573029081 0.8459817907
H 1.9789458742 0.2534758648 0.6396611347
H 1.7325457018 0.6371251116 -1.059196507
H 1.4075931537 1.8658906332 0.1784923821
H -0.9598844151 2.1828835965 0.5086501626
H -3.0241206726 1.0377969543 1.3690875953
H -3.1471730206 0.9033261169 -0.3726561628
H -2.1568746453 -1.1858381871 1.6279330085
H 0.1492503794 -1.7380187684 0.5993337083
H 0.1768456842 -1.4450648282 -1.1423527777
H -3.854589885 -2.5509144631 -0.0393378714

