# b3lyp 6-31G(2df,p) opt Freq 

 titel

0 1
C 4.4747172271 1.3583402635 -0.6135109878
C 3.938896332 0.0593662621 0.0030993973
C 4.6019213251 -1.2171752048 -0.6008998448
O 5.4642416013 -1.359614786 0.5416777482
C 4.72170126 -0.3743574823 1.2807909964
C 2.4897423546 0.0616564896 0.0914098875
C 1.2853932968 0.0540047633 0.1527202716
C -0.1740811764 0.099999903 0.2406194897
O -0.7437129191 1.2557517194 -0.3585799274
H 4.1846977143 2.2232706191 -0.0095392162
H 5.5672411421 1.3240144838 -0.6688268135
H 4.078723771 1.5002057484 -1.6232723033
H 3.9155065292 -2.0654669971 -0.7109879103
H 5.1626797589 -1.0724760587 -1.5313735468
H 4.0917413005 -0.8258895759 2.0570358249
H 5.3704707562 0.3872147705 1.7286453087
H -0.6102278069 -0.7540925948 -0.2895161918
H -0.4775397888 0.0044989514 1.2957429635
H -0.2967790681 2.0227248555 0.0143355942

