# b3lyp 6-31G(2df,p) opt Freq 

 titel

0 1
C 0.3424632548 0.7410694042 -0.0844889331
C 0.9554919203 -0.6470704721 -0.0363776482
C 2.0345628033 -1.0618338577 -1.0730019248
C 2.7333026903 -1.8842201364 0.0229127964
O 4.129791502 -1.8831350122 -0.0296589749
C 1.9667129965 -1.0335883624 1.1081414855
O 1.4607225108 -1.7148900474 2.2403643181
C 2.7630929285 0.0857450112 1.5867727712
C 3.4384896448 1.0078436249 1.957284519
H -0.3064888213 0.91430096 0.7804174103
H 1.1184756425 1.511573367 -0.0812012207
H -0.2616318156 0.8669051922 -0.9894265631
H 0.1598186046 -1.4036778073 -0.0169196654
H 1.7090702745 -1.5847280959 -1.9733414316
H 2.6641537834 -0.2127048608 -1.3520841068
H 2.3270136934 -2.9093695538 0.0679233717
H 4.4667461812 -2.2006672095 0.8152782809
H 0.8908179688 -2.4216356335 1.9178205389
H 4.0327104772 1.8217010594 2.2929051567

