# b3lyp 6-31G(2df,p) opt Freq 

 titel

0 1
C -3.3609061251 -1.1902572289 -1.9633450905
C -3.2255319956 -0.0256120735 -1.0050956424
O -4.19653369 -0.080010751 0.067580381
C -3.172669146 0.069004149 1.06795505
C -2.0549463604 0.008034932 0.0090706237
C -0.9748300873 -1.1117200229 0.0855320937
C 0.0913222256 -0.0106378616 0.2091940526
O 1.2612017777 -0.0124164384 0.4548715498
C -0.9458043806 1.0955764747 -0.0447774651
H -3.2560588959 -2.145716554 -1.4407030449
H -4.3476014019 -1.1670500197 -2.4363269355
H -2.6057775478 -1.134830064 -2.7554800818
H -3.3172632368 0.9245895126 -1.5537815179
H -3.2518733237 1.0269309114 1.6005055643
H -3.1917372918 -0.7474654095 1.8010821788
H -1.0357529316 -1.8072652848 0.9279979727
H -0.8613933646 -1.6971768905 -0.8332118
H -0.9854190934 1.8894921395 0.7073153402
H -0.8273430907 1.5619192996 -1.0299000887

