# b3lyp 6-31G(2df,p) opt Freq 

 titel

0 1
C 2.6014600737 3.9619518666 0.3875748354
O 1.5150584975 4.8333209185 0.7225921577
C 1.2050331774 3.5212653404 0.2673374769
C 0.5004297887 3.3627603578 -1.0766020873
C 0.0957592838 1.8786980235 -1.0827936714
C -0.2897870049 1.617951453 0.3699477374
C -0.9178554274 0.3805468265 0.8355172989
O -1.6951651158 1.5685671006 0.6569280044
C 0.5563468454 2.5391647696 1.250667
H 3.1638890921 4.23897785 -0.5038905627
H 3.2054463349 3.6255755836 1.2302129486
H -0.3947378513 3.9960598675 -1.0807294832
H 1.1243139956 3.6591900623 -1.9227561046
H -0.727268558 1.6428395427 -1.7604203579
H 0.9550687205 1.2534774289 -1.3563728755
H -1.1218420978 -0.4239997693 0.1286113831
H -0.7833518476 0.0600083871 1.8685471595
H -0.0883473299 3.0728066428 1.9545679962
H 1.3025928029 1.9879860479 1.8304296845

