# b3lyp 6-31G(2df,p) opt Freq 

 titel

0 1
O 0.2821874131 -0.0424331359 0.3827669391
C -0.8124798524 0.8204687432 0.1520392321
C -2.1980381164 0.1212684663 0.2946936349
O -3.0991362807 1.083954954 0.8442539937
C -2.4232839963 2.3575514233 0.7987879832
C -0.9803047044 1.9850708036 1.1478482044
C -2.4745331511 2.937136243 -0.6038819143
C -1.645434623 2.4789310031 -1.5421783562
C -0.6270172444 1.4023290207 -1.2573443913
H 0.2105856653 -0.3849565954 1.2804920324
H -2.5690252356 -0.252068883 -0.668242344
H -2.1279407064 -0.7302866356 0.9845286877
H -2.9180252859 3.0027889214 1.5269694548
H -0.2582734258 2.7896553657 0.9946309894
H -0.915805725 1.628292968 2.1820643688
H -3.2216160493 3.6914428617 -0.8299507456
H -1.6867506655 2.8657260668 -2.5572882597
H -0.7038236375 0.5961185648 -1.9983777746
H 0.3938752814 1.7982219243 -1.3481384049

