# b3lyp 6-31G(2df,p) opt Freq 

 titel

0 1
C 3.0489380836 -0.5771473852 -1.2076876295
C 2.6206037423 0.0170955203 0.1228398535
C 1.2234938229 -0.3798916307 0.8044533236
C 0.5020301433 0.5055320424 -0.2312711353
C 1.7560056797 1.3117020563 0.2499247088
O 1.842009014 2.7028029167 0.228252684
C 0.958551495 3.0803498233 1.3135089065
O 0.5210822021 1.9096641801 2.0351599561
C 1.4559917106 0.9098730738 1.6677042618
H 3.3735605296 -1.6142762864 -1.0713589542
H 2.2612941164 -0.5702848437 -1.9638918296
H 3.9002058149 -0.0183941606 -1.6104206689
H 3.4577630706 -0.0091833497 0.8292925041
H 0.9483387007 -1.3776092497 1.1403872566
H 0.4828653992 0.1625259754 -1.2642045039
H -0.4629603667 0.9057828558 0.0766114941
H 1.5171721828 3.7566392356 1.9732971556
H 0.0654930291 3.5772728249 0.9186136687
H 2.2847984199 0.8577966914 2.3824734282

