# b3lyp 6-31G(2df,p) opt Freq 

 titel

0 1
C -1.6248564433 -0.5651466526 -2.5496653687
C -1.8679636816 -1.291630036 -1.2433302842
C -2.35805146 -0.6334189452 0.0169330471
C -2.1764603304 0.8704808339 0.1227537092
O -0.7713950095 1.1298315461 -0.0409290638
C -0.0424326571 -0.0271462874 -0.0053186435
O 1.1544546411 -0.0223602486 0.0430176746
C -0.9594958794 -1.2163721094 -0.0193638657
C -0.4766919419 -2.4556685214 0.6914647447
H -0.9220992455 -1.1245889499 -3.1752983566
H -2.5607255787 -0.4641931453 -3.1102057117
H -1.2121010563 0.4356270143 -2.4026895876
H -2.262018295 -2.2969552675 -1.3777990483
H -3.1504548576 -1.0935013979 0.5957283884
H -2.7119494228 1.4351288321 -0.647175687
H -2.4838010668 1.2440221763 1.1055889772
H -0.3117394473 -2.2668702898 1.757284175
H -1.2013170066 -3.269408222 0.5972015358
H 0.4743664189 -2.7869228694 0.2643340452

