# b3lyp 6-31G(2df,p) opt Freq 

 titel

0 1
C 2.9978637907 -4.1081174039 -2.6370704077
O 2.6464314842 -2.8915944771 -2.0185775073
C 1.405510911 -2.9784613925 -1.34339303
C 1.0880337246 -1.6967370028 -0.7278694212
C 0.8200554732 -0.6403880435 -0.2171210139
C 0.532466566 0.6575006138 0.3733990576
C 1.6046778588 1.745430663 0.1275536305
C 3.0486151266 1.2994599226 0.0938186664
O 1.2663739975 2.8968662232 0.0095308679
H 3.0994914139 -4.9255493455 -1.9053950032
H 2.2553073332 -4.4137093981 -3.3913338487
H 3.9598389095 -3.9531881903 -3.1302928315
H 0.6040642474 -3.2652815236 -2.0467812376
H 1.4423765785 -3.7686543571 -0.5728478571
H -0.4196000756 1.0644178509 0.019352322
H 0.4440870791 0.5619168996 1.4662372203
H 3.2900797612 0.717135659 0.9900915773
H 3.2111997817 0.6321839137 -0.7586637633
H 3.7008478784 2.1700825985 0.0222192895

