# b3lyp 6-31G(2df,p) opt Freq 

 titel

0 1
O -1.6139028741 1.5779044628 -0.8922387864
C -0.3650321536 1.1209325972 -0.3697099618
C -0.4225264743 0.8133313393 1.0952949316
C 0.2688757931 1.420419443 2.0628621274
C -0.0254618195 0.8742287386 3.4352938254
C -0.8625189437 -0.3990737093 3.1422848741
C -1.3474657426 -0.2578978709 1.6800514181
C -2.8065512549 0.180926905 1.5660473013
O -3.487091696 0.5187294093 2.5023801165
H -1.835742038 2.3943278548 -0.4310663039
H -0.1365949083 0.2153108265 -0.9444784399
H 0.4382341677 1.8455903458 -0.5663205828
H 0.9710632399 2.2305728967 1.8903344218
H 0.8865712863 0.6532999143 4.0012191385
H -0.5868891584 1.6057427204 4.0314042389
H -0.2323636796 -1.2878279501 3.2322883133
H -1.7058290667 -0.5084686176 3.8255700604
H -1.2616616555 -1.1915890769 1.1051207945
H -3.2050672617 0.187810881 0.5317193732

