# b3lyp 6-31G(2df,p) opt Freq 

 titel

0 1
C 0.1743905313 -0.4374323838 -0.6461872838
C 1.0836638089 0.0903767446 0.4495765315
O 1.4609203204 1.417815699 0.1166893447
C 2.2330124664 2.045530795 1.079732643
C 2.7209110955 3.4658351351 0.6397113936
C 3.4988632902 3.8840511274 1.8922068001
C 4.2475147314 2.7969763286 2.1131948795
C 3.8108456498 1.8870451463 0.9648438354
O 3.749418476 2.8107360291 -0.1641052039
H -0.1375857126 -1.4616357463 -0.4211410924
H -0.7185872487 0.187368854 -0.7365050718
H 0.6935524514 -0.4344508972 -1.6084612531
H 0.5676732708 0.0807282288 1.4238893596
H 1.9778060657 -0.5449184202 0.5493602682
H 1.8017522361 1.943459643 2.085781198
H 2.0914962761 4.169764819 0.0982810235
H 3.4060765404 4.8066912051 2.4454406445
H 4.9430923015 2.566637854 2.9067059989
H 4.3223975992 0.9475219685 0.7619337948

