# b3lyp 6-31G(2df,p) opt Freq 

 titel

0 1
C 0.803550613 1.0512534891 0.003539207
C 0.8701271547 -0.4670271779 -0.1149041751
C 1.6402053425 -1.1826387215 1.053561366
C 2.6712480242 -1.6991114823 0.0358793543
C 4.117145001 -2.0068407885 0.2601449851
O 1.9556512123 -2.4524851549 -0.9294409162
C 1.9317526202 -1.0167841206 -1.0825951023
C 2.4676246956 -0.4888490444 -2.3483183749
O 2.160656369 0.5759754406 -2.8308421507
H 0.1531155423 1.336094863 0.8371613189
H 1.794646678 1.479429672 0.1890531212
H 0.4186171799 1.5019357537 -0.9135127083
H -0.1198285562 -0.8857470567 -0.3165270001
H 2.061603838 -0.4661638602 1.7636153849
H 1.108753621 -1.9682103183 1.5962176408
H 4.2163643747 -2.8856941633 0.9077644863
H 4.6231459386 -2.2223202809 -0.6837193434
H 4.6214689677 -1.1695424876 0.7515213003
H 3.2018933335 -1.1678267414 -2.8341705138

