# b3lyp 6-31G(2df,p) opt Freq 

 titel

0 1
O -0.1737554725 -0.1568299638 0.1729333177
C -1.1998612346 0.5629433988 0.8484599498
C -1.2198849454 2.0432803635 0.4326192525
C -2.2602243814 2.8437360314 1.2182180355
O -1.8569577157 4.2190924215 1.439045598
C -1.651225919 3.9864012554 2.847505772
C -2.2685616659 2.5670094102 2.7411965898
C -1.5131882048 1.3625564563 3.2016869884
C -1.0664588556 0.4392787038 2.3495983237
H 0.6684731506 0.2411951392 0.4208737148
H -2.12575557 0.0718520316 0.5187212661
H -0.233111834 2.4682071563 0.6541309634
H -1.3798060954 2.1311022789 -0.6459059669
H -3.2413927584 2.7990839728 0.7313908259
H -0.5870094726 4.004893271 3.1181061021
H -2.1919277279 4.7107333599 3.4665926273
H -3.2840738606 2.553838879 3.1504209598
H -1.3779664481 1.232511439 4.2735149746
H -0.5687978687 -0.4602917547 2.7028436156

