# b3lyp 6-31G(2df,p) opt Freq 

 titel

0 1
C -2.8060708227 1.4578385153 3.5472048957
C -2.0924502926 1.1895386048 2.2507590885
O -0.8042753354 1.8315665402 2.0994163397
C -0.8600711759 0.3935623304 2.1173971685
C -0.7118792992 -0.1604830723 0.6971507006
O 0.4222107554 0.3857667804 0.0515710221
C -2.0256912576 0.2392178108 0.0173158531
C -3.3103758091 -0.2953228707 0.5971339686
C -2.8482563438 1.0970400129 0.9542389967
H -3.5954280537 0.7174640251 3.7116005747
H -2.1093764355 1.4271479383 4.3882659831
H -3.2746737919 2.4477500321 3.5285487189
H -0.3610381124 -0.0780114677 2.9603057992
H -0.5648624597 -1.2459753385 0.7015549561
H 0.4048740135 1.3298016663 0.2595310955
H -1.9765391876 0.4499075639 -1.0443387429
H -4.1598484103 -0.387045714 -0.0704985376
H -3.2577684146 -1.0698520578 1.3575671053
H -3.4115386969 1.9566749506 0.6072189042

