# b3lyp 6-31G(2df,p) opt Freq 

 titel

0 1
C -2.950209236 -1.2398087706 -1.2069224408
C -2.3742681254 -0.8503188199 0.1598509314
C -0.8982230019 -1.291836892 0.3063576346
C -0.0489503997 -0.0612798218 -0.0552383751
O 1.0873226262 -0.0845476624 -0.4623270573
C -0.8940808648 1.1494657822 0.1459749449
C -1.633936645 1.2369115723 1.4922549799
O -2.056268499 2.4988529734 1.9006069624
C -2.3375291963 0.6753490571 0.3176219015
H -2.9603939662 -2.3271329247 -1.3310766067
H -3.9769343697 -0.876946754 -1.3204344442
H -2.3526932546 -0.8146314144 -2.0213149509
H -2.9966005212 -1.295858966 0.9445854002
H -0.6565108263 -1.5811486938 1.3368763887
H -0.6282056529 -2.1375087891 -0.3299741278
H -0.6217424114 2.0830775709 -0.3290128863
H -1.3197494201 0.5714409868 2.2970107591
H -1.3006751207 2.9624454827 2.2776540441
H -3.1500807053 1.2656766632 -0.091824468

