# b3lyp 6-31G(2df,p) opt Freq 

 titel

0 1
C 2.7393410196 1.4627956122 -0.3752470502
C 1.9246449998 0.202167609 -0.093355062
C 2.4507863023 -0.6626622727 1.0928754036
C 2.2789362931 -2.1058298351 0.6181497284
O 2.0525717399 -3.1305975469 1.5334237916
C 2.9420975506 -2.474656144 -0.7024469321
O 3.2983130299 -1.3006599898 -1.4308393064
C 1.9228395068 -0.8041034046 -1.2487120444
C 1.4764406798 -2.1580065632 -0.6644315806
H 2.7642073936 2.1225538763 0.4978146223
H 3.7681207795 1.1949350879 -0.6337888412
H 2.315627695 2.0315918701 -1.2101945006
H 0.878587599 0.4748129314 0.10146976
H 3.4979225823 -0.4275338947 1.3146492688
H 1.8717877389 -0.5055776687 2.0073671397
H 2.8890675253 -3.337712752 1.9645043943
H 3.4887564187 -3.3936851708 -0.8833676059
H 1.5015456574 -0.4567965758 -2.194350469
H 0.5900762486 -2.7466774388 -0.8528343561

