# b3lyp 6-31G(2df,p) opt Freq 

 titel

0 1
C 2.4456567683 0.6725955225 -2.3365403787
C 3.0124511527 1.0212781493 -0.9759856832
C 3.3328501165 2.4714157761 -0.6575545604
C 4.4469445382 1.4896783587 -0.8897726593
O 5.2227935456 1.1210584779 0.2113462737
C 2.582943525 0.1322750034 0.1916623677
O 3.2907463318 -1.1192363106 0.169761856
C 1.1346146542 -0.0740833938 0.2486312992
C -0.0522556721 -0.2646183462 0.2696858702
H 2.6626364731 -0.3681255717 -2.6083259237
H 1.359926632 0.8069178994 -2.3632384499
H 2.8848126199 1.3064518185 -3.1123382307
H 3.1293245464 3.2199080262 -1.4156626269
H 3.1914503847 2.8086374649 0.3635922806
H 4.9952207044 1.5615064758 -1.8298835202
H 5.2068882986 0.1557134553 0.2527332305
H 2.9133213031 0.6019941776 1.1218191533
H 2.9182888917 -1.6568113937 -0.5377669666
H -1.101006584 -0.4292985394 0.3069248282

