# b3lyp 6-31G(2df,p) opt Freq 

 titel

0 1
C -2.5512138092 2.865916004 1.657745852
C -1.0865048412 3.3100099929 1.4800399477
C -0.7998012098 1.7992549088 1.3073069592
O -2.2216797083 1.4960695259 1.3495920397
C -0.1761388674 1.3415440405 0.0139951409
C 1.3734166151 1.2384355443 -0.0889276113
C 1.2196171344 0.2448834832 -1.2646142242
C 0.2480016147 -0.1490055243 -0.1277750226
O 1.344610537 0.0872465746 0.844972106
H -2.9454856744 2.9713983674 2.6769241144
H -3.2814615165 3.2815853321 0.953473771
H -0.8999975876 3.9053779443 0.583049014
H -0.6157864428 3.7944233918 2.3365111656
H -0.2758618947 1.3424090157 2.153009707
H -0.6865635232 1.7717204412 -0.8540049071
H 2.1334879085 2.0021374337 0.080333638
H 0.7979601311 0.6120598378 -2.2035794267
H 2.0624837962 -0.4323015548 -1.4039959009
H -0.3513702919 -1.0499786992 -0.0009111527

