# b3lyp 6-31G(2df,p) opt Freq 

 titel

0 1
O -0.1178971702 -0.4149242068 0.7332215165
C 0.6079777541 -0.006920872 -0.1365344812
C 0.4743331328 1.3428443415 -0.8133622669
C -0.6766544502 2.186131361 -0.2580058892
C -0.7664535128 3.5400973385 -0.9722640578
C -0.9071122303 3.3745700247 -2.4995367734
C 0.1791440779 2.4731623403 -3.0663978063
O 0.8689802627 2.7814101267 -4.0087671747
C 0.3410189878 1.1369024119 -2.3456148498
H 1.4498675361 -0.6293870096 -0.5198241686
H 1.4309109818 1.8630207015 -0.6408320041
H -1.6147426509 1.6303224549 -0.3787289271
H -0.54524302 2.3261380082 0.8189038912
H -1.6130331812 4.1170384629 -0.5866341813
H 0.134724075 4.1290131612 -0.7576725129
H -1.8763621133 2.9046156549 -2.7200669564
H -0.8732587012 4.3327436392 -3.0228513358
H -0.5557799598 0.5329563079 -2.5440672292
H 1.2024558317 0.614212323 -2.768803713

