# b3lyp 6-31G(2df,p) opt Freq 

 titel

0 1
C 1.6510948977 -0.9105693464 -0.5540202542
C 0.8717030331 0.1867061419 0.1914168349
C 1.4676165416 1.5439841375 0.040786255
C 1.034178579 2.7066889916 -0.5141969499
C 2.0890173701 3.6723383522 -0.3455511888
C 2.0932401461 5.0970260272 -0.8029001231
O 1.8351514737 5.22975359 -2.1974795525
C 3.0871716029 3.0066706987 0.2936483784
O 2.7293976804 1.718213066 0.5424318135
H 1.1881648053 -1.8891987986 -0.3961199623
H 1.6737441231 -0.7115576256 -1.6297725185
H 2.6839417223 -0.959913781 -0.1987160295
H -0.1593834298 0.2320546097 -0.1731611128
H 0.8160035754 -0.0713921917 1.257119605
H 0.0808641891 2.8717706601 -0.9921083397
H 1.2939969856 5.6645635214 -0.3129796647
H 3.0456117383 5.5729995044 -0.5214016626
H 2.4495589278 4.6467127945 -2.6557151932
H 4.0662096883 3.2990387481 0.6379901149

