# b3lyp 6-31G(2df,p) opt Freq 

 titel

0 1
C -0.4958761053 2.0616767619 0.685951556
C 0.8136043998 1.5475502611 0.1719154463
C 1.348822125 0.3228991023 0.316637387
C 0.7860149058 -0.8528391034 1.0577372738
O 1.6829286428 -1.3339890449 2.0592729832
C 2.6954110049 0.2027242913 -0.3568237564
C 2.9295195063 1.5877515479 -0.9658790419
O 3.8955982931 1.9366035796 -1.591820033
C 1.7082955731 2.4564785754 -0.63744798
H -0.3471228514 2.9621320005 1.2954769288
H -1.1507451789 2.3572051567 -0.1438447708
H -1.0345551893 1.3288265009 1.2901296446
H -0.1996145652 -0.6235139914 1.4845999183
H 0.6513415557 -1.6998652939 0.3735882922
H 1.8238588707 -0.6155260269 2.6849661788
H 3.5038096368 -0.059626618 0.3359210878
H 2.7197993931 -0.5629570548 -1.1447549881
H 2.019277501 3.3587594113 -0.0932528975
H 1.2393178022 2.8144062643 -1.5644700391

