# b3lyp 6-31G(2df,p) opt Freq 

 titel

0 1
O 0.9914132553 -0.5765492743 -0.7249679122
C 0.2076858725 -0.0864593203 0.0481970057
C 0.3199410651 1.293691773 0.6525243902
C -0.9096879134 2.1956598103 0.2565610352
C -0.1989930121 3.3948823208 -0.402352806
C 0.9633632457 2.7343269457 -1.1531318856
C 1.5283593019 2.1136819531 0.1431657398
C 1.6193931779 3.3787324522 1.0084266957
O 0.4567232253 4.1446887344 0.6316318037
H -0.7003610168 -0.6481944618 0.3719534704
H 0.3476467773 1.1539161535 1.7411319498
H -1.582605515 1.6893785336 -0.445512752
H -1.4953994454 2.5120641905 1.1211564694
H -0.8499112143 4.0733462637 -0.9545420999
H 0.6570858049 1.9901431783 -1.89064933
H 1.6327508391 3.462592445 -1.6169543168
H 2.4517015859 1.5433206722 0.0574430269
H 1.5890887812 3.1690844756 2.0848367682
H 2.5255484048 3.9609629145 0.7952648475

