# b3lyp 6-31G(2df,p) opt Freq 

 titel

0 1
C -0.2457747462 0.865365066 -0.8004352176
O 0.3385666351 -0.075378208 0.1004025936
C 1.7135348542 0.2770927224 0.1536143256
C 2.4987862721 -0.0983659445 1.3901793005
C 3.9396001847 0.4542167769 1.1866571355
C 4.0332791336 1.7382902614 0.3823705595
C 3.002488847 2.3550817984 -0.2013445979
C 1.6377566703 1.7849528103 0.0158073902
O 0.6875318928 1.9158590798 -1.03594641
H -0.4762194025 0.4022918643 -1.7696791863
H -1.1673219782 1.2434758217 -0.3347251909
H 2.2311500032 -0.118775619 -0.7361056476
H 2.0323659879 0.350336519 2.2742009064
H 2.5260660323 -1.1800732608 1.5491885076
H 4.4199308164 0.6006993818 2.1619662772
H 4.55357651 -0.3035158017 0.6792768577
H 5.0338150584 2.1527465656 0.281036369
H 3.1224878248 3.2720048816 -0.7690045277
H 1.201699054 2.2038587048 0.9411107052

