# b3lyp 6-31G(2df,p) opt Freq 

 titel

0 1
C 1.5207216427 0.0257986067 -0.0076724194
O 0.1068564407 0.1367071024 0.0164757819
C -0.3760899184 0.7208885936 1.1764746683
C -1.8277601411 0.5874826448 1.4051835566
C -2.2197541228 1.436018048 2.6224039392
C -1.2742022652 0.5351761966 3.4640916402
O -1.095544711 0.4157163885 4.6450152618
C -0.8470660859 -0.2684460323 2.2775095564
C -0.4782683493 -1.7224455119 2.2612007099
H 1.8934855632 -0.6225017772 0.7960394491
H 1.7880055169 -0.4078605953 -0.9733166919
H 1.9977609914 1.0118285825 0.0867022115
H 0.1441055099 1.6403573289 1.4585217647
H -2.4953779299 0.2243730104 0.6350346677
H -1.9998739371 2.5075475565 2.5787394054
H -3.2555890834 1.2949591556 2.9438440554
H 0.4093285073 -1.901889809 2.8774938648
H -1.2873321035 -2.3397895849 2.66463696
H -0.2675010046 -2.0555359038 1.2422494883

