# b3lyp 6-31G(2df,p) opt Freq 

 titel

0 1
C -0.1431323078 -0.2455980172 -0.3053852141
C 1.3594012411 -0.0209100344 -0.1823754058
C 1.837632924 1.4028185627 0.1739911719
O 3.2872814605 1.2558934704 0.0707234727
C 3.1777752012 0.4862466451 1.2666138207
C 1.9424645127 1.2292389689 1.7637206626
O 1.259859705 0.0425215818 2.1529085653
C 2.0242691852 -0.62153155 1.0868428725
C 2.2038466269 -2.0983943197 1.2705287607
H -0.6592422703 0.0394260655 0.6136150223
H -0.5536255472 0.3420167171 -1.13314969
H -0.3684166526 -1.2979449128 -0.5084320165
H 1.8842038118 -0.3339352506 -1.0900948187
H 1.4400578341 2.2742223258 -0.3436444872
H 4.1046008823 0.2629863136 1.7930766217
H 1.8767899812 2.0759619795 2.4438777048
H 2.6764258294 -2.3170638251 2.2324106926
H 1.2402504655 -2.6177554029 1.2396250259
H 2.835278227 -2.5015069479 0.4724280683

