# b3lyp 6-31G(2df,p) opt Freq 

 titel

0 1
C -0.5602795976 -1.5981985034 -2.5271230668
C -0.0896123357 -0.238527423 -2.0065990986
C -0.6098608898 0.927244734 -2.8722825707
C -0.5332168891 -0.0307099546 -0.5675463351
O -1.4120623427 -0.6305527224 -0.0004906398
O 0.1826851479 0.9581790032 0.0175105627
C -0.201093657 1.258925593 1.3743702728
C 0.6276331628 2.3463928587 1.8650654026
C 1.2952940978 3.2436998454 2.3013144389
H -0.1574378625 -2.4175848748 -1.9256843172
H -1.650617009 -1.6684013348 -2.4915972808
H -0.2352149171 -1.7387208497 -3.5622414768
H 1.0056231665 -0.1942620396 -2.0088585566
H -0.2553756176 1.8891833259 -2.494310904
H -0.2628259603 0.8119098159 -3.9032323947
H -1.704851835 0.9420360991 -2.8848748142
H -1.2633398413 1.5251268355 1.3998409072
H -0.0837503873 0.3604901017 1.9900129875
H 1.8872199971 4.0374918396 2.6853820137

