# b3lyp 6-31G(2df,p) opt Freq 

 titel

0 1
C -2.3861558066 -2.9726404186 3.4555338877
C -1.1484808542 -2.1053596967 3.3376767367
O -0.2234326057 -2.1696680009 4.1197193096
C -1.1389453501 -1.182169655 2.2186094022
C -1.1364193528 -0.4137590072 1.2869303996
C -1.0922379577 0.525086316 0.175866956
C 0.3297223687 1.0281377355 -0.1442140558
C 0.3354411623 2.0431421237 -1.2885975022
O 1.640661253 2.4624580964 -1.6417670232
H -2.2932627227 -3.6272949181 4.323285452
H -3.2777689542 -2.3437962313 3.5529283426
H -2.5149947494 -3.5696420489 2.5462336503
H -1.5294077112 0.0542136163 -0.7149048149
H -1.7435834033 1.3782280534 0.4117939335
H 0.7591279666 1.4830625193 0.7570298338
H 0.9724189638 0.1829277273 -0.409849489
H -0.0836756144 1.5894506768 -2.1941605462
H -0.3089476048 2.9008945211 -1.0323084717
H 2.0237314628 2.9130176008 -0.882198641

