# b3lyp 6-31G(2df,p) opt Freq 

 titel

0 1
O 1.9140633119 0.049007475 3.410849614
C 1.7793057612 -0.0048726521 2.218134049
C 1.9029935547 -1.3194634688 1.4506315333
C 0.8232867956 -1.714019233 0.4243076713
C 0.4555624399 -0.6201561302 -0.5847424897
C -0.288592945 0.5740949004 0.0800496417
C 1.0760407483 1.2873657696 0.2279404638
C 1.6276974603 0.3606033256 -0.8879615323
O 1.6439697292 1.1657793047 1.5354653741
H 2.8773884486 -1.279006413 0.9482478189
H 1.9829768726 -2.090069829 2.2190754515
H 1.1956182598 -2.5967898285 -0.1078056147
H -0.0855062942 -2.0320785072 0.9496819751
H -0.0396058467 -1.0648810319 -1.4514046135
H -0.939368849 1.1014363544 -0.6220265252
H -0.8414512671 0.3863296915 1.0049993384
H 1.1115835608 2.3603100955 0.0377779705
H 1.5059978262 0.8464928404 -1.8597363331
H 2.6576198629 0.0085527366 -0.8059340633

