# b3lyp 6-31G(2df,p) opt Freq 

 titel

0 1
O 0.4287826019 -0.0385507481 1.5456708269
C -0.2477472695 0.0203998121 0.5538416577
C -0.6624577302 -1.1352200989 -0.3525119926
C -2.0760762802 -0.7433066637 -0.8289143493
C -2.1800232162 0.8179574788 -0.7397303239
C -2.0947189634 1.5459105044 -2.0935884242
C -0.5853882325 1.6271405529 -2.3201373144
O -0.0169141095 1.8139855417 -1.0257220587
C -0.8988475467 1.2921796665 -0.0188215549
H 0.0441120009 -1.1726792596 -1.1916039633
H -0.6032569844 -2.0910076197 0.1706399935
H -2.2882368858 -1.1004573285 -1.8403017248
H -2.8232709319 -1.1966041579 -0.1712580525
H -3.0808979693 1.104662261 -0.194572596
H -2.6228955456 1.0222511282 -2.8948648671
H -2.5160611099 2.552495485 -2.0078516893
H -0.2027624804 0.7033825601 -2.7824406082
H -0.2748145028 2.4691322241 -2.9457428078
H -1.0378327746 2.0540715217 0.7529396686

