# b3lyp 6-31G(2df,p) opt Freq 

 titel

0 1
C -0.0518028939 -0.4955566508 -0.2104455559
C 1.3671673303 -0.0490299887 0.086517927
C 1.8679418004 -0.4314800725 1.4688691172
C 1.9290804592 1.2501192983 -0.4361493037
C 1.4393334443 1.5456263875 -1.8477501446
O 1.7987632172 0.2133842383 -2.3049717004
C 2.4024761017 -0.0801624935 -1.0388999641
C 3.7086518902 -0.7590912649 -1.0721489203
O 4.4478827064 -0.9233456187 -0.1290627368
H -0.7667307389 0.0717111168 0.3958080692
H -0.3089544057 -0.3737585605 -1.2636797416
H -0.1702134501 -1.5547738516 0.0400629301
H 1.8001738356 -1.5140387118 1.6167853159
H 2.9088407292 -0.144809199 1.621887502
H 1.2471418856 0.0504565529 2.2326854257
H 2.4983041414 1.9247400035 0.1904605337
H 0.3733824691 1.7582770437 -1.9829540234
H 2.0380612342 2.3013118006 -2.3673989855
H 3.9681713138 -1.1187160197 -2.0925242747

