# b3lyp 6-31G(2df,p) opt Freq 

 titel

0 1
C 0.8674621209 -0.6651283097 -0.8554769845
C 0.9832149553 0.1989925513 0.3910455448
C 1.871770205 -0.320771359 1.5549857007
C 1.4973663314 -1.2506281869 2.661771632
O 3.2141904767 -0.3733710094 1.0411357205
C 2.7146668329 0.8908866427 1.5175788253
C 1.8948421182 1.4559908043 0.3719471343
C 2.2613161271 2.3919905716 -0.686361072
O 1.367130826 2.768127933 0.3790878055
H 0.2639967149 -1.5588554561 -0.6630537409
H 0.3882068285 -0.1153862001 -1.6722782822
H 1.8585169801 -0.9838483613 -1.1890726309
H -0.0012274933 0.4999463413 0.7675195943
H 1.3194376525 -2.2615973663 2.278142428
H 2.3009255747 -1.3051507697 3.4009203362
H 0.5822620856 -0.9131676759 3.1586662165
H 3.275095381 1.4063984549 2.2895070997
H 3.2363560621 2.876588613 -0.6711948454
H 1.7978865303 2.3073558623 -1.668072542

