# b3lyp 6-31G(2df,p) opt Freq 

 titel

0 1
O 0.220617317 -0.2654635335 0.5166786969
C -0.7262289318 0.6475081858 0.9956080168
C -1.6288895095 0.0784383501 2.0543049952
C -0.5766896486 1.127988446 2.4183026302
C -1.4527775574 2.3089984598 2.8771732156
C -2.5557071789 1.5819729284 3.6665918726
C -2.9692069951 0.7600295217 2.4147487713
C -3.2418644953 1.930256915 1.4619619177
O -2.1766233975 2.8597116222 1.7577247783
H 1.0069656922 0.2314941886 0.2673854811
H -1.1106638602 1.3430606672 0.2550298137
H -1.4855509666 -0.9676001212 2.29862176
H 0.3259818126 0.8765569059 2.9648697936
H -0.920710971 3.1235851023 3.3687443546
H -2.1661003845 0.9613033222 4.4764447792
H -3.3363669923 2.2508109467 4.0422846779
H -3.8072444495 0.0723439266 2.5284318294
H -3.2050014555 1.6534258771 0.4030893695
H -4.2121737979 2.402700609 1.6645842163

