# b3lyp 6-31G(2df,p) opt Freq 

 titel

0 1
C 1.3100422616 -0.1150467544 0.0048378457
O -0.0876852049 0.0416356389 0.004906114
C -0.5473477791 0.8438094404 1.0729524318
C -2.0393734559 1.0123916786 0.9459385096
C -2.805313387 1.231184465 2.227296931
C -4.3292108614 1.4525994863 1.9537190838
O -4.5760235702 1.4171814375 0.5410437149
C -4.4182258031 0.1786841641 1.2504223758
C -2.8990881197 -0.0987318503 1.4900305726
H 1.6688397474 -0.6042736578 0.9251537722
H 1.5693456193 -0.7426843364 -0.8512621356
H 1.8319152952 0.8507588276 -0.0919984322
H -0.2879877668 0.3787061841 2.0407057509
H -0.054358678 1.831052602 1.0487392958
H -2.3651863031 1.5272242685 0.0501576546
H -2.3302885956 1.4432692249 3.1763949264
H -5.0339843334 1.9927057271 2.5740358068
H -5.2141345298 -0.5511783992 1.1675795564
H -2.4992646656 -1.0617146269 1.7778801755

