# b3lyp 6-31G(2df,p) opt Freq 

 titel

0 1
C -1.0727599768 1.9956666804 1.2678860741
C -1.1366544402 1.0949510382 0.0535207283
O -1.350787711 1.8761849264 -1.1078471324
C -1.9440462498 1.0410372128 -2.0986859029
C -2.8820781792 0.0961671648 -1.3261427545
C -2.1364050515 -0.1240955907 -0.0025063302
C -0.9508859724 -1.1343852 -0.0358377448
C 0.0266464859 0.0537676331 -0.0789880177
O 1.2120033425 0.1546211481 -0.1964247103
H -0.927285495 1.4130409036 2.1825447227
H -0.2359515172 2.6929268543 1.1697981169
H -1.9992107805 2.5706277313 1.3590371865
H -2.4573033534 1.6876342645 -2.8142342553
H -1.1713036794 0.4756681849 -2.6426671378
H -3.8379972003 0.5941751775 -1.1380541607
H -3.0847843827 -0.8315161156 -1.8685834865
H -2.8031329889 -0.2356184669 0.8524628277
H -0.8394959866 -1.744873749 0.8656254943
H -0.8964021937 -1.7986391578 -0.9046474672

