# b3lyp 6-31G(2df,p) opt Freq 

 titel

0 1
C -0.3615749213 1.1840713881 -0.0812133242
O -0.0037254576 -0.1856905936 -0.340694462
C 1.3786516162 0.0793016604 -0.029297467
C 1.1253848801 1.612332236 0.0121222284
C 1.6067372053 2.3559523018 -1.2345587216
O 2.9863866767 2.6618259462 -1.146105354
C 3.2690443588 3.5786139 -0.1062905656
C 2.550822251 3.2608863661 1.1760433374
C 1.5805029931 2.3507876898 1.2327504607
H -0.9463317804 1.623263626 -0.8996772886
H -0.9229692184 1.2947239589 0.8573120502
H 1.671287111 -0.3560481953 0.9353618432
H 2.0634078763 -0.2754001899 -0.8082091473
H 1.4795957854 1.7433197482 -2.1320950763
H 1.0117065513 3.2766022028 -1.3617102987
H 4.3545228098 3.5440919525 0.0442508881
H 3.0259076416 4.6102948113 -0.4233737504
H 2.8614285944 3.8125334043 2.0594319513
H 1.0933048467 2.1143751163 2.1760598462

