# b3lyp 6-31G(2df,p) opt Freq 

 titel

0 1
O 0.5911485664 0.3298526454 0.6828986915
C -0.6640910402 -0.1762733382 1.0585254215
C -1.7778497459 0.143941237 -0.0061456854
C -2.7013644258 0.4476956744 1.1892595496
C -3.1331192732 -0.7116731604 2.1542801803
C -2.705303409 0.4686684516 3.0496966287
O -2.8020491908 0.582329281 4.4254123974
C -3.5307600164 1.4147769919 2.0766845489
C -1.4790275816 0.7091093815 2.0931884082
H 1.2148536034 0.1468816641 1.3935278797
H -0.6075496806 -1.2443618436 1.2970107225
H -1.4874856154 1.0413292208 -0.5589359023
H -2.0722917669 -0.6431568877 -0.7048565951
H -4.1971621861 -0.963418959 2.1502737996
H -2.5153919208 -1.6113722395 2.1807001093
H -2.3177961493 -0.149221708 4.823595683
H -4.61810083 1.2955421679 2.1103835319
H -3.2333422274 2.4655690313 2.0618944819
H -1.0980885003 1.7348908494 2.0559195588

