# b3lyp 6-31G(2df,p) opt Freq 

 titel

0 1
C 1.3919110734 1.300862092 0.0143795654
C 1.2802710312 -0.2228861293 0.0064449364
C 1.9886367458 -1.0715802295 1.099788466
C 1.4752767977 -2.467337253 0.6611721819
O 1.4544066443 -2.3995250959 -0.7843379801
C 1.9048925511 -1.0677760866 -1.1252284577
C 3.4053449023 -1.1028801459 -0.8140083667
O 3.9391367992 0.0171705156 -0.0955668763
C 3.4547014877 -1.1017990376 0.6538130305
H 0.8876435055 1.7023712844 0.9005895834
H 2.4201632785 1.6530103598 0.0109164286
H 0.8781217894 1.7143907432 -0.8610292407
H 0.2139196771 -0.4746087184 0.0183310064
H 1.7889904408 -0.81582914 2.140704199
H 2.1304535054 -3.2874928191 0.9785087066
H 0.4623513966 -2.6666161905 1.0307748902
H 1.6024256095 -0.8556855724 -2.1504717236
H 4.0974307751 -1.6503847827 -1.445511869
H 4.1998182694 -1.6463517741 1.2269171695

