# b3lyp 6-31G(2df,p) opt Freq 

 titel

0 1
C -2.4846007387 2.3092524993 1.5989170881
C -2.4445122418 1.9085457726 0.1301104075
C -1.1333697923 2.070899197 -0.7190352058
C -0.3275471787 0.818045848 -1.0771768315
C 0.3139011897 0.179334643 0.1360151831
O 1.4989285252 0.035331793 0.2899056441
C -1.9548157716 2.7345003437 -1.8694203494
C -3.1269305325 2.844232116 -0.8834059983
O -4.130172507 3.4953459868 -0.8503462417
H -1.9286403774 1.6047690275 2.2252851513
H -2.0541545128 3.305052383 1.7453829183
H -3.5189063929 2.3392786149 1.9539683412
H -2.8531211172 0.8967726663 -0.0039054038
H -0.4763393242 2.8106075773 -0.2500827332
H -1.0027112553 0.0776211847 -1.5311648548
H 0.4611892959 1.0507582981 -1.7990673641
H -0.4068159008 -0.1578772862 0.9174748348
H -1.5859823661 3.6690195581 -2.298359339
H -2.1809299016 2.0403110269 -2.6870695068

