# b3lyp 6-31G(2df,p) opt Freq 

 titel

0 1
C 2.7384065054 -2.9287123823 0.2312651845
C 2.5961022407 -1.4104353536 0.4285750003
C 1.1112371716 -0.9867183556 0.4616843664
O 0.3910683819 -1.3778224846 -0.6968688954
C 3.3177580142 -0.9520587118 1.6892548807
C 4.3643088254 -0.1627669235 1.4348477701
C 4.4681965717 0.0902540891 -0.0327859455
O 3.3036454612 0.7664365366 -0.5696567939
C 3.366544433 -0.6547070036 -0.6661469825
H 2.2780979755 -3.479016133 1.0596810138
H 2.2607403139 -3.2452644872 -0.7025105141
H 3.7916431803 -3.2203854573 0.1837734218
H 0.6370926835 -1.3761868717 1.3760388798
H 1.0667501482 0.1045344988 0.4958640615
H 0.2025376519 -2.3182955225 -0.631198566
H 2.9720723395 -1.2387225451 2.6775071076
H 5.0312013866 0.2716822408 2.1693365415
H 5.4052046338 0.3347058275 -0.5233802481
H 3.4085055216 -1.0557492511 -1.6753930025

