# b3lyp 6-31G(2df,p) opt Freq 

 titel

0 1
C -2.4507345255 1.1960121671 -1.4426895551
O -3.1923940527 1.7748501668 -0.3436731485
C -2.0747875467 2.6050515403 0.0332324606
C -1.2053792142 1.9686706215 1.139098634
C -0.3089183756 1.3104108593 0.0496918809
C 1.2182938425 1.5313736978 0.0576081591
O 1.4774769524 0.1175685409 -0.0241978888
C 0.0688371736 -0.1840548539 0.0338087603
C -1.1739509532 1.9649909962 -1.0614616938
H -2.4129834814 0.1004992752 -1.3921413323
H -2.8792112207 1.4897079405 -2.4093377608
H -2.3439926488 3.6615659126 0.1076582159
H -0.6637658698 2.6931644125 1.755931986
H -1.7557053672 1.2854151442 1.7910248493
H 1.6300775465 2.0776574553 -0.8016205404
H 1.6163198661 1.9698896707 0.9833339913
H -0.2636980516 -0.757147895 -0.8413895959
H -0.1966209309 -0.7394433979 0.9433637917
H -0.6517564526 2.509949236 -1.8479712136

