# b3lyp 6-31G(2df,p) opt Freq 

 titel

0 1
O 0.2633271044 -0.1819675019 0.2241477954
C -0.8774347562 0.3776507904 0.8305120413
C -2.1715625039 0.0959774148 0.0160532597
C -1.7820068505 1.3182167118 -0.8739600787
C -1.0882570871 1.8669424987 0.3989216653
O 0.0691179196 2.6424732256 0.1921381761
C -2.138323359 2.4759414394 1.2992352408
C -3.2470603919 1.7723950008 1.5293369651
C -3.4070030962 0.4157024371 0.8772300505
H 0.8926044977 0.5444069782 0.1169675884
H -0.9031397073 0.162221105 1.9079120928
H -2.2346732868 -0.8808392789 -0.4653065965
H -1.0487778644 1.0311011261 -1.6277717629
H -2.5744119203 1.9269786389 -1.3137409592
H 0.3261936761 3.038635489 1.0328388451
H -1.9647130173 3.4637827162 1.7181876642
H -4.0462729434 2.1510276826 2.15960809
H -3.5465379463 -0.3585294173 1.6447461484
H -4.3192884272 0.3966052834 0.2648080341

